REMARK  7 active torsions:
REMARK  status: ('A' for Active; 'I' for Inactive)
REMARK    1  A    between atoms: CAC_3  and  OAD_4 
REMARK    2  A    between atoms: CAF_6  and  CAG_7 
REMARK    3  A    between atoms: CAK_11  and  CAL_12 
REMARK    4  A    between atoms: CAK_11  and  CAM_13 
REMARK    5  A    between atoms: CAT_20  and  CAU_21 
REMARK    6  A    between atoms: CAU_21  and  CAW_22 
REMARK    7  A    between atoms: CAU_21  and  CAV_23 
ROOT
ATOM      1  OAA 1WO d   1      -5.739  32.287 -14.349  0.00  0.00    -0.289 OA
ATOM      2  CAB 1WO d   1      -6.580  33.225 -14.461  0.00  0.00     0.188 A 
ATOM      3  CAC 1WO d   1      -7.292  33.810 -13.374  0.00  0.00     0.120 A 
ATOM      4  CAE 1WO d   1      -8.189  34.920 -13.479  0.00  0.00    -0.028 A 
ATOM      5  CAF 1WO d   1      -8.978  35.409 -12.375  0.00  0.00    -0.006 C 
ATOM      6  CAH 1WO d   1      -8.480  35.506 -11.073  0.00  0.00    -0.054 C 
ATOM      7  CAI 1WO d   1      -9.741  35.438 -10.077  0.00  0.00    -0.063 C 
ATOM      8  CAJ 1WO d   1     -11.074  35.970 -10.620  0.00  0.00    -0.058 C 
ATOM      9  CAK 1WO d   1     -10.686  37.184 -11.610  0.00  0.00    -0.036 C 
ATOM     10  CAN 1WO d   1      -9.637  36.721 -12.742  0.00  0.00     0.021 C 
ATOM     11  CAO 1WO d   1     -10.096  36.826 -14.141  0.00  0.00     0.137 C 
ATOM     12  OAP 1WO d   1     -11.110  37.505 -14.476  0.00  0.00    -0.297 OA
ATOM     13  CAQ 1WO d   1      -9.237  36.320 -15.122  0.00  0.00     0.015 C 
ATOM     14  CAR 1WO d   1      -8.358  35.427 -14.750  0.00  0.00    -0.044 A 
ATOM     15  CAS 1WO d   1      -7.783  34.841 -15.768  0.00  0.00    -0.066 A 
ATOM     16  CAT 1WO d   1      -6.871  33.805 -15.706  0.00  0.00    -0.005 A 
ATOM     17  H   1WO d   1      -8.130  33.117 -13.542  0.00  0.00     0.103 H 
ATOM     18  H   1WO d   1      -7.948  36.460 -10.943  0.00  0.00     0.034 H 
ATOM     19  H   1WO d   1      -7.793  34.672 -10.869  0.00  0.00     0.034 H 
ATOM     20  H   1WO d   1      -9.489  36.022  -9.179  0.00  0.00     0.033 H 
ATOM     21  H   1WO d   1      -9.890  34.384  -9.799  0.00  0.00     0.033 H 
ATOM     22  H   1WO d   1     -11.706  36.333  -9.797  0.00  0.00     0.034 H 
ATOM     23  H   1WO d   1     -11.607  35.181 -11.171  0.00  0.00     0.034 H 
ATOM     24  H   1WO d   1      -8.827  37.462 -12.681  0.00  0.00     0.054 H 
ATOM     25  H   1WO d   1      -8.684  37.171 -15.546  0.00  0.00     0.051 H 
ATOM     26  H   1WO d   1      -9.862  35.862 -15.903  0.00  0.00     0.051 H 
ATOM     27  H   1WO d   1      -8.049  35.205 -16.760  0.00  0.00     0.085 H 
ENDROOT
BRANCH  16  28
ATOM     28  CAU 1WO d   1      -6.297  33.355 -16.897  0.00  0.00    -0.032 C 
ATOM     29  H   1WO d   1      -5.490  32.641 -16.676  0.00  0.00     0.046 H 
BRANCH  28  30
ATOM     30  CAW 1WO d   1      -5.825  34.449 -17.745  0.00  0.00    -0.069 C 
ATOM     31  H   1WO d   1      -5.385  34.036 -18.665  0.00  0.00     0.028 H 
ATOM     32  H   1WO d   1      -5.065  35.031 -17.203  0.00  0.00     0.028 H 
ATOM     33  H   1WO d   1      -6.671  35.103 -18.005  0.00  0.00     0.028 H 
ENDBRANCH  28  30
BRANCH  28  34
ATOM     34  CAV 1WO d   1      -7.372  32.749 -17.774  0.00  0.00    -0.069 C 
ATOM     35  H   1WO d   1      -7.829  31.893 -17.256  0.00  0.00     0.028 H 
ATOM     36  H   1WO d   1      -6.925  32.409 -18.720  0.00  0.00     0.028 H 
ATOM     37  H   1WO d   1      -8.143  33.505 -17.984  0.00  0.00     0.028 H 
ENDBRANCH  28  34
ENDBRANCH  16  28
BRANCH   3  38
ATOM     38  OAD 1WO d   1      -7.056  33.291 -12.142  0.00  0.00    -0.383 OA
ATOM     39  H   1WO d   1      -7.580  33.754 -11.499  0.00  0.00     0.211 HD
ENDBRANCH   3  38
BRANCH   5  40
ATOM     40  CAG 1WO d   1     -10.010  34.316 -12.245  0.00  0.00    -0.064 C 
ATOM     41  H   1WO d   1      -9.512  33.372 -11.978  0.00  0.00     0.028 H 
ATOM     42  H   1WO d   1     -10.538  34.194 -13.202  0.00  0.00     0.028 H 
ATOM     43  H   1WO d   1     -10.732  34.585 -11.460  0.00  0.00     0.028 H 
ENDBRANCH   5  40
BRANCH   9  44
ATOM     44  CAL 1WO d   1     -11.892  37.707 -12.341  0.00  0.00    -0.069 C 
ATOM     45  H   1WO d   1     -11.590  38.531 -13.004  0.00  0.00     0.028 H 
ATOM     46  H   1WO d   1     -12.631  38.074 -11.614  0.00  0.00     0.028 H 
ATOM     47  H   1WO d   1     -12.337  36.899 -12.940  0.00  0.00     0.028 H 
ENDBRANCH   9  44
BRANCH   9  48
ATOM     48  CAM 1WO d   1     -10.050  38.361 -10.816  0.00  0.00    -0.069 C 
ATOM     49  H   1WO d   1      -9.164  38.000 -10.273  0.00  0.00     0.028 H 
ATOM     50  H   1WO d   1     -10.784  38.758 -10.099  0.00  0.00     0.028 H 
ATOM     51  H   1WO d   1      -9.752  39.157 -11.515  0.00  0.00     0.028 H 
ENDBRANCH   9  48
TORSDOF 7
