REMARK  6 active torsions:
REMARK  status: ('A' for Active; 'I' for Inactive)
REMARK    1  A    between atoms: CAP_16  and  CAA_1 
REMARK    2  A    between atoms: CAT_20  and  CAB_2 
REMARK    3  A    between atoms: CAV_22  and  CAC_3 
REMARK    4  A    between atoms: CAW_23  and  CAD_4 
REMARK    5  A    between atoms: CAO_15  and  CAQ_17 
REMARK    6  A    between atoms: CAW_23  and  CAO_15 
ROOT
ATOM      1  CAJ 1XH d   1      32.083   7.696   5.550  0.00  0.00    -0.064 C 
ATOM      2  CAK 1XH d   1      33.285   8.296   6.400  0.00  0.00    -0.061 C 
ATOM      3  CAL 1XH d   1      32.626   7.103   4.231  0.00  0.00    -0.060 C 
ATOM      4  CAM 1XH d   1      36.199   8.614   3.082  0.00  0.00    -0.061 C 
ATOM      5  CAN 1XH d   1      35.648   8.357   4.430  0.00  0.00    -0.057 C 
ATOM      6  CAP 1XH d   1      34.189   9.238   5.756  0.00  0.00    -0.050 C 
ATOM      7  CAT 1XH d   1      35.354   8.404   1.932  0.00  0.00    -0.050 C 
ATOM      8  CAU 1XH d   1      33.567   8.085   3.393  0.00  0.00    -0.039 C 
ATOM      9  CAV 1XH d   1      34.481   9.064   4.406  0.00  0.00    -0.036 C 
ATOM     10  CAW 1XH d   1      34.464   7.458   2.095  0.00  0.00    -0.032 C 
ATOM     11  H   1XH d   1      31.361   8.494   5.323  0.00  0.00     0.033 H 
ATOM     12  H   1XH d   1      31.584   6.905   6.129  0.00  0.00     0.033 H 
ATOM     13  H   1XH d   1      33.893   7.447   6.746  0.00  0.00     0.033 H 
ATOM     14  H   1XH d   1      32.845   8.810   7.267  0.00  0.00     0.033 H 
ATOM     15  H   1XH d   1      31.768   6.830   3.600  0.00  0.00     0.033 H 
ATOM     16  H   1XH d   1      33.205   6.200   4.474  0.00  0.00     0.033 H 
ATOM     17  H   1XH d   1      37.076   7.961   2.962  0.00  0.00     0.033 H 
ATOM     18  H   1XH d   1      36.519   9.666   3.059  0.00  0.00     0.033 H 
ATOM     19  H   1XH d   1      36.323   8.729   5.214  0.00  0.00     0.034 H 
ATOM     20  H   1XH d   1      35.461   7.284   4.586  0.00  0.00     0.034 H 
ATOM     21  H   1XH d   1      33.338   9.893   5.518  0.00  0.00     0.040 H 
ATOM     22  H   1XH d   1      34.812   9.320   1.655  0.00  0.00     0.040 H 
ATOM     23  H   1XH d   1      32.858   8.769   2.904  0.00  0.00     0.042 H 
ENDROOT
BRANCH  10  24
ATOM     24  CAD 1XH d   1      35.276   6.205   2.437  0.00  0.00    -0.068 C 
ATOM     25  H   1XH d   1      35.823   5.868   1.544  0.00  0.00     0.028 H 
ATOM     26  H   1XH d   1      34.596   5.408   2.773  0.00  0.00     0.028 H 
ATOM     27  H   1XH d   1      35.991   6.439   3.239  0.00  0.00     0.028 H 
ENDBRANCH  10  24
BRANCH  10  28
ATOM     28  CAO 1XH d   1      33.698   7.132   0.621  0.00  0.00    -0.030 C 
ATOM     29  H   1XH d   1      33.373   8.112   0.241  0.00  0.00     0.041 H 
ATOM     30  H   1XH d   1      34.486   6.728  -0.031  0.00  0.00     0.041 H 
BRANCH  28  31
ATOM     31  CAQ 1XH d   1      32.564   6.257   0.433  0.00  0.00    -0.004 A 
ATOM     32  CAI 1XH d   1      31.895   6.194  -0.841  0.00  0.00    -0.025 A 
ATOM     33  CAR 1XH d   1      30.731   5.393  -1.008  0.00  0.00     0.172 A 
ATOM     34  H   1XH d   1      32.283   6.764  -1.683  0.00  0.00     0.090 H 
ATOM     35  OAE 1XH d   1      30.123   5.234  -2.050  0.00  0.00    -0.289 OA
ATOM     36  CAG 1XH d   1      30.160   4.623  -0.042  0.00  0.00    -0.031 A 
ATOM     37  CAH 1XH d   1      30.768   4.688   1.193  0.00  0.00    -0.030 A 
ATOM     38  H   1XH d   1      29.286   4.001  -0.231  0.00  0.00     0.089 H 
ATOM     39  CAS 1XH d   1      31.907   5.470   1.442  0.00  0.00     0.178 A 
ATOM     40  H   1XH d   1      30.346   4.107   2.012  0.00  0.00     0.089 H 
ATOM     41  OAF 1XH d   1      32.329   5.386   2.569  0.00  0.00    -0.288 OA
ENDBRANCH  28  31
ENDBRANCH  10  28
BRANCH   7  42
ATOM     42  CAB 1XH d   1      36.396   8.157   1.043  0.00  0.00    -0.072 C 
ATOM     43  H   1XH d   1      37.062   9.032   1.007  0.00  0.00     0.028 H 
ATOM     44  H   1XH d   1      35.985   7.967   0.040  0.00  0.00     0.028 H 
ATOM     45  H   1XH d   1      36.964   7.277   1.379  0.00  0.00     0.028 H 
ENDBRANCH   7  42
BRANCH   9  46
ATOM     46  CAC 1XH d   1      34.543  10.536   3.850  0.00  0.00    -0.068 C 
ATOM     47  H   1XH d   1      35.145  11.159   4.528  0.00  0.00     0.028 H 
ATOM     48  H   1XH d   1      33.525  10.946   3.784  0.00  0.00     0.028 H 
ATOM     49  H   1XH d   1      35.002  10.531   2.851  0.00  0.00     0.028 H 
ENDBRANCH   9  46
BRANCH   6  50
ATOM     50  CAA 1XH d   1      34.850  10.329   6.434  0.00  0.00    -0.072 C 
ATOM     51  H   1XH d   1      34.532  10.353   7.487  0.00  0.00     0.028 H 
ATOM     52  H   1XH d   1      34.582  11.279   5.949  0.00  0.00     0.028 H 
ATOM     53  H   1XH d   1      35.940  10.186   6.383  0.00  0.00     0.028 H 
ENDBRANCH   6  50
TORSDOF 6
