REMARK  6 active torsions:
REMARK  status: ('A' for Active; 'I' for Inactive)
REMARK    1  A    between atoms: C01_1  and  O02_2 
REMARK    2  A    between atoms: O02_2  and  C03_3 
REMARK    3  A    between atoms: N11_11  and  C12_12 
REMARK    4  A    between atoms: C15_15  and  N16_16 
REMARK    5  A    between atoms: N16_16  and  C17_17 
REMARK    6  A    between atoms: C20_20  and  C21_21 
ROOT
ATOM      1  C12 2KR d   1      25.414 -76.926 -22.722  0.00  0.00     0.044 A 
ATOM      2  C13 2KR d   1      25.764 -78.280 -22.673  0.00  0.00    -0.054 A 
ATOM      3  C14 2KR d   1      25.656 -78.973 -21.465  0.00  0.00    -0.055 A 
ATOM      4  C15 2KR d   1      25.195 -78.324 -20.334  0.00  0.00     0.033 A 
ATOM      5  C24 2KR d   1      24.850 -76.967 -20.405  0.00  0.00    -0.055 A 
ATOM      6  C25 2KR d   1      24.956 -76.288 -21.585  0.00  0.00    -0.054 A 
ATOM      7  H   2KR d   1      26.116 -78.787 -23.564  0.00  0.00     0.087 H 
ATOM      8  H   2KR d   1      25.933 -80.020 -21.414  0.00  0.00     0.087 H 
ATOM      9  H   2KR d   1      24.497 -76.454 -19.518  0.00  0.00     0.087 H 
ATOM     10  H   2KR d   1      24.679 -75.241 -21.630  0.00  0.00     0.087 H 
ENDROOT
BRANCH   1  11
ATOM     11  N11 2KR d   1      25.472 -76.161 -23.843  0.00  0.00    -0.258 N 
ATOM     12  C03 2KR d   1      26.228 -75.038 -24.016  0.00  0.00     0.255 A 
ATOM     13  N04 2KR d   1      25.984 -74.516 -25.223  0.00  0.00    -0.204 NA
ATOM     14  C05 2KR d   1      25.026 -75.308 -25.843  0.00  0.00     0.107 A 
ATOM     15  C06 2KR d   1      24.395 -75.266 -27.074  0.00  0.00    -0.050 A 
ATOM     16  C10 2KR d   1      24.704 -76.322 -24.968  0.00  0.00     0.166 A 
ATOM     17  C07 2KR d   1      23.437 -76.248 -27.420  0.00  0.00    -0.064 A 
ATOM     18  H   2KR d   1      24.636 -74.477 -27.777  0.00  0.00     0.087 H 
ATOM     19  C08 2KR d   1      23.160 -77.242 -26.491  0.00  0.00     0.005 A 
ATOM     20  H   2KR d   1      22.935 -76.225 -28.380  0.00  0.00     0.085 H 
ATOM     21  N09 2KR d   1      23.769 -77.275 -25.317  0.00  0.00    -0.240 NA
ATOM     22  H   2KR d   1      22.430 -78.006 -26.733  0.00  0.00     0.114 H 
BRANCH  12  23
ATOM     23  O02 2KR d   1      27.150 -74.490 -23.065  0.00  0.00    -0.325 OA
BRANCH  23  24
ATOM     24  C01 2KR d   1      27.593 -73.151 -23.431  0.00  0.00     0.013 C 
ATOM     25  H   2KR d   1      28.296 -72.777 -22.672  0.00  0.00     0.067 H 
ATOM     26  H   2KR d   1      26.723 -72.480 -23.488  0.00  0.00     0.067 H 
ATOM     27  H   2KR d   1      28.094 -73.185 -24.410  0.00  0.00     0.067 H 
ENDBRANCH  23  24
ENDBRANCH  12  23
ENDBRANCH   1  11
BRANCH   4  28
ATOM     28  N16 2KR d   1      25.034 -78.943 -19.033  0.00  0.00    -0.341 N 
ATOM     29  H   2KR d   1      24.796 -78.311 -18.256  0.00  0.00     0.167 HD
BRANCH  28  30
ATOM     30  C17 2KR d   1      25.168 -80.340 -18.699  0.00  0.00     0.127 A 
ATOM     31  C18 2KR d   1      25.303 -80.673 -17.312  0.00  0.00    -0.038 A 
ATOM     32  C19 2KR d   1      25.437 -81.997 -16.912  0.00  0.00    -0.072 A 
ATOM     33  H   2KR d   1      25.301 -79.885 -16.568  0.00  0.00     0.089 H 
ATOM     34  C20 2KR d   1      25.426 -82.959 -17.889  0.00  0.00    -0.044 A 
ATOM     35  H   2KR d   1      25.546 -82.260 -15.866  0.00  0.00     0.084 H 
ATOM     36  C22 2KR d   1      25.276 -82.591 -19.265  0.00  0.00     0.010 A 
ATOM     37  N23 2KR d   1      25.140 -81.293 -19.614  0.00  0.00    -0.243 NA
ATOM     38  H   2KR d   1      25.272 -83.358 -20.031  0.00  0.00     0.115 H 
BRANCH  34  39
ATOM     39  C21 2KR d   1      25.565 -84.457 -17.479  0.00  0.00    -0.050 C 
ATOM     40  H   2KR d   1      25.537 -85.088 -18.380  0.00  0.00     0.033 H 
ATOM     41  H   2KR d   1      24.735 -84.733 -16.812  0.00  0.00     0.033 H 
ATOM     42  H   2KR d   1      26.521 -84.607 -16.956  0.00  0.00     0.033 H 
ENDBRANCH  34  39
ENDBRANCH  28  30
ENDBRANCH   4  28
TORSDOF 6
