REMARK  4 active torsions:
REMARK  status: ('A' for Active; 'I' for Inactive)
REMARK    1  A    between atoms: C7_6  and  C11_10 
REMARK    2  A    between atoms: C15_14  and  N17_16 
REMARK    3  A    between atoms: N17_16  and  C18_17 
REMARK    4  A    between atoms: C20_18  and  C28_25 
ROOT
ATOM      1  N17 21G d   1     -50.286  -5.660   5.191  0.00  0.00    -0.366 N 
ATOM      2  H   21G d   1     -50.905  -5.899   5.979  0.00  0.00     0.161 HD
ENDROOT
BRANCH   1   3
ATOM      3  C15 21G d   1     -50.827  -4.964   4.125  0.00  0.00     0.166 A 
ATOM      4  C14 21G d   1     -52.148  -4.521   4.207  0.00  0.00     0.179 A 
ATOM      5  C13 21G d   1     -52.679  -3.840   3.124  0.00  0.00     0.045 A 
ATOM      6  F31 21G d   1     -52.864  -4.788   5.323  0.00  0.00    -0.201 F 
ATOM      7  N12 21G d   1     -51.906  -3.611   2.053  0.00  0.00    -0.237 NA
ATOM      8  H   21G d   1     -53.707  -3.497   3.142  0.00  0.00     0.119 H 
ATOM      9  C11 21G d   1     -50.643  -4.034   2.008  0.00  0.00     0.164 A 
ATOM     10  N16 21G d   1     -50.115  -4.687   3.035  0.00  0.00    -0.208 NA
BRANCH   9  11
ATOM     11  C7  21G d   1     -49.764  -3.749   0.859  0.00  0.00     0.041 A 
ATOM     12  C6  21G d   1     -48.330  -4.081   0.785  0.00  0.00     0.028 A 
ATOM     13  C1  21G d   1     -47.434  -4.749   1.629  0.00  0.00    -0.030 A 
ATOM     14  C5  21G d   1     -47.860  -3.578  -0.442  0.00  0.00     0.138 A 
ATOM     15  C2  21G d   1     -46.121  -4.913   1.219  0.00  0.00     0.134 A 
ATOM     16  H   21G d   1     -47.763  -5.132   2.588  0.00  0.00     0.089 H 
ATOM     17  C3  21G d   1     -45.702  -4.380   0.004  0.00  0.00     0.042 A 
ATOM     18  F32 21G d   1     -45.273  -5.562   2.034  0.00  0.00    -0.205 F 
ATOM     19  N4  21G d   1     -46.568  -3.751  -0.779  0.00  0.00    -0.239 NA
ATOM     20  H   21G d   1     -44.667  -4.479  -0.303  0.00  0.00     0.119 H 
ATOM     21  N9  21G d   1     -48.947  -2.970  -1.052  0.00  0.00    -0.349 N 
ATOM     22  C8  21G d   1     -50.087  -3.121  -0.303  0.00  0.00    -0.007 A 
ATOM     23  H   21G d   1     -48.904  -2.470  -1.951  0.00  0.00     0.167 HD
ATOM     24  H   21G d   1     -51.084  -2.792  -0.591  0.00  0.00     0.112 H 
ENDBRANCH   9  11
ENDBRANCH   1   3
BRANCH   1  25
ATOM     25  C18 21G d   1     -48.883  -6.077   5.265  0.00  0.00     0.028 C 
ATOM     26  C20 21G d   1     -48.890  -7.324   6.193  0.00  0.00     0.054 C 
ATOM     27  C22 21G d   1     -47.763  -7.208   7.238  0.00  0.00    -0.039 C 
ATOM     28  H   21G d   1     -49.835  -7.285   6.754  0.00  0.00     0.060 H 
ATOM     29  C23 21G d   1     -46.437  -6.857   6.517  0.00  0.00    -0.060 C 
ATOM     30  C27 21G d   1     -48.169  -6.065   8.193  0.00  0.00    -0.060 C 
ATOM     31  H   21G d   1     -47.650  -8.151   7.793  0.00  0.00     0.041 H 
ATOM     32  C24 21G d   1     -46.530  -5.449   5.862  0.00  0.00    -0.059 C 
ATOM     33  H   21G d   1     -46.239  -7.607   5.737  0.00  0.00     0.033 H 
ATOM     34  H   21G d   1     -45.615  -6.863   7.248  0.00  0.00     0.033 H 
ATOM     35  C25 21G d   1     -47.996  -4.970   5.896  0.00  0.00    -0.034 C 
ATOM     36  H   21G d   1     -46.185  -5.505   4.819  0.00  0.00     0.033 H 
ATOM     37  H   21G d   1     -45.899  -4.741   6.419  0.00  0.00     0.033 H 
ATOM     38  C26 21G d   1     -48.359  -4.760   7.388  0.00  0.00    -0.059 C 
ATOM     39  H   21G d   1     -48.114  -4.029   5.338  0.00  0.00     0.043 H 
ATOM     40  H   21G d   1     -49.409  -4.442   7.461  0.00  0.00     0.033 H 
ATOM     41  H   21G d   1     -47.709  -3.979   7.810  0.00  0.00     0.033 H 
ATOM     42  H   21G d   1     -47.380  -5.919   8.946  0.00  0.00     0.033 H 
ATOM     43  H   21G d   1     -49.112  -6.325   8.696  0.00  0.00     0.033 H 
ATOM     44  H   21G d   1     -48.502  -6.332   4.265  0.00  0.00     0.074 H 
BRANCH  26  45
ATOM     45  C28 21G d   1     -48.916  -8.645   5.453  0.00  0.00     0.179 C 
ATOM     46  O29 21G d   1     -49.088  -9.652   6.097  0.00  0.00    -0.648 OA
ATOM     47  O30 21G d   1     -48.791  -8.710   4.113  0.00  0.00    -0.648 OA
ENDBRANCH  26  45
ENDBRANCH   1  25
TORSDOF 4
