REMARK  9 active torsions:
REMARK  status: ('A' for Active; 'I' for Inactive)
REMARK    1  A    between atoms: C17_2  and  N16_23 
REMARK    2  A    between atoms: C21_4  and  C30_30 
REMARK    3  A    between atoms: C23_26  and  C24_6 
REMARK    4  A    between atoms: C07_15  and  C03_11 
REMARK    5  A    between atoms: C08_16  and  C07_15 
REMARK    6  A    between atoms: C14_21  and  C12_19 
REMARK       I    between atoms: N16_23  and  C14_21 
REMARK    7  A    between atoms: C18_24  and  C23_26 
REMARK       I    between atoms: C30_30  and  N32_32 
REMARK    8  A    between atoms: N32_32  and  S33_33 
REMARK    9  A    between atoms: S33_33  and  C36_36 
ROOT
ATOM      1  C17 24Q d   1     -29.260 -20.986 -42.722  0.00  0.00     0.041 A 
ATOM      2  C20 24Q d   1     -30.611 -22.909 -42.225  0.00  0.00    -0.066 A 
ATOM      3  C21 24Q d   1     -29.713 -23.715 -42.905  0.00  0.00     0.033 A 
ATOM      4  C22 24Q d   1     -28.590 -23.160 -43.494  0.00  0.00    -0.059 A 
ATOM      5  C18 24Q d   1     -28.355 -21.799 -43.392  0.00  0.00    -0.026 A 
ATOM      6  C19 24Q d   1     -30.382 -21.544 -42.126  0.00  0.00    -0.056 A 
ATOM      7  H   24Q d   1     -31.493 -23.345 -41.770  0.00  0.00     0.085 H 
ATOM      8  H   24Q d   1     -27.894 -23.791 -44.035  0.00  0.00     0.086 H 
ATOM      9  H   24Q d   1     -31.078 -20.915 -41.584  0.00  0.00     0.087 H 
ENDROOT
BRANCH   1  10
ATOM     10  N16 24Q d   1     -28.956 -19.601 -42.649  0.00  0.00    -0.321 N 
ATOM     11  C14 24Q d   1     -29.891 -18.555 -42.429  0.00  0.00     0.274 C 
ATOM     12  O15 24Q d   1     -31.081 -18.734 -42.262  0.00  0.00    -0.266 OA
ATOM     13  H   24Q d   1     -27.998 -19.339 -42.763  0.00  0.00     0.169 HD
BRANCH  11  14
ATOM     14  C12 24Q d   1     -29.303 -17.165 -42.391  0.00  0.00     0.125 A 
ATOM     15  C11 24Q d   1     -30.097 -16.034 -42.298  0.00  0.00    -0.050 A 
ATOM     16  C10 24Q d   1     -29.508 -14.802 -42.263  0.00  0.00    -0.079 A 
ATOM     17  H   24Q d   1     -31.176 -16.126 -42.253  0.00  0.00     0.087 H 
ATOM     18  C09 24Q d   1     -28.146 -14.689 -42.316  0.00  0.00    -0.059 A 
ATOM     19  H   24Q d   1     -30.122 -13.911 -42.193  0.00  0.00     0.083 H 
ATOM     20  C08 24Q d   1     -27.358 -15.826 -42.412  0.00  0.00     0.035 A 
ATOM     21  H   24Q d   1     -27.682 -13.710 -42.283  0.00  0.00     0.086 H 
ATOM     22  N13 24Q d   1     -27.948 -17.048 -42.440  0.00  0.00    -0.248 NA
BRANCH  20  23
ATOM     23  C07 24Q d   1     -25.847 -15.714 -42.459  0.00  0.00    -0.021 C 
ATOM     24  H   24Q d   1     -25.575 -14.678 -42.209  0.00  0.00     0.043 H 
ATOM     25  H   24Q d   1     -25.431 -16.395 -41.702  0.00  0.00     0.043 H 
BRANCH  23  26
ATOM     26  C03 24Q d   1     -25.213 -16.057 -43.801  0.00  0.00    -0.049 C 
ATOM     27  C02 24Q d   1     -26.218 -16.391 -44.889  0.00  0.00    -0.061 C 
ATOM     28  C01 24Q d   1     -25.517 -16.780 -46.181  0.00  0.00    -0.065 C 
ATOM     29  H   24Q d   1     -26.845 -17.230 -44.554  0.00  0.00     0.033 H 
ATOM     30  H   24Q d   1     -26.852 -15.511 -45.075  0.00  0.00     0.033 H 
ATOM     31  C06 24Q d   1     -24.010 -16.729 -46.054  0.00  0.00    -0.065 C 
ATOM     32  H   24Q d   1     -25.829 -16.086 -46.975  0.00  0.00     0.033 H 
ATOM     33  H   24Q d   1     -25.815 -17.804 -46.451  0.00  0.00     0.033 H 
ATOM     34  C05 24Q d   1     -23.555 -17.575 -44.887  0.00  0.00    -0.065 C 
ATOM     35  H   24Q d   1     -23.694 -15.688 -45.893  0.00  0.00     0.033 H 
ATOM     36  H   24Q d   1     -23.554 -17.111 -46.979  0.00  0.00     0.033 H 
ATOM     37  C04 24Q d   1     -24.297 -17.244 -43.608  0.00  0.00    -0.061 C 
ATOM     38  H   24Q d   1     -23.726 -18.634 -45.131  0.00  0.00     0.033 H 
ATOM     39  H   24Q d   1     -22.480 -17.405 -44.726  0.00  0.00     0.033 H 
ATOM     40  H   24Q d   1     -24.897 -18.115 -43.305  0.00  0.00     0.033 H 
ATOM     41  H   24Q d   1     -23.567 -17.010 -42.820  0.00  0.00     0.033 H 
ATOM     42  H   24Q d   1     -24.621 -15.191 -44.134  0.00  0.00     0.040 H 
ENDBRANCH  23  26
ENDBRANCH  20  23
ENDBRANCH  11  14
ENDBRANCH   1  10
BRANCH   5  43
ATOM     43  C23 24Q d   1     -27.119 -21.204 -44.045  0.00  0.00    -0.015 C 
ATOM     44  H   24Q d   1     -26.743 -21.919 -44.791  0.00  0.00     0.047 H 
ATOM     45  H   24Q d   1     -27.408 -20.268 -44.546  0.00  0.00     0.047 H 
BRANCH  43  46
ATOM     46  C24 24Q d   1     -25.996 -20.897 -43.066  0.00  0.00    -0.054 A 
ATOM     47  C26 24Q d   1     -26.219 -20.759 -41.702  0.00  0.00    -0.077 A 
ATOM     48  C25 24Q d   1     -25.166 -20.475 -40.845  0.00  0.00    -0.082 A 
ATOM     49  H   24Q d   1     -27.221 -20.874 -41.305  0.00  0.00     0.084 H 
ATOM     50  C29 24Q d   1     -23.883 -20.327 -41.345  0.00  0.00    -0.083 A 
ATOM     51  H   24Q d   1     -25.348 -20.369 -39.782  0.00  0.00     0.083 H 
ATOM     52  C28 24Q d   1     -23.654 -20.463 -42.705  0.00  0.00    -0.082 A 
ATOM     53  H   24Q d   1     -23.060 -20.105 -40.675  0.00  0.00     0.083 H 
ATOM     54  C27 24Q d   1     -24.708 -20.747 -43.560  0.00  0.00    -0.077 A 
ATOM     55  H   24Q d   1     -22.651 -20.347 -43.100  0.00  0.00     0.083 H 
ATOM     56  H   24Q d   1     -24.524 -20.853 -44.623  0.00  0.00     0.084 H 
ENDBRANCH  43  46
ENDBRANCH   5  43
BRANCH   3  57
ATOM     57  C30 24Q d   1     -29.965 -25.201 -43.023  0.00  0.00     0.265 C 
ATOM     58  O31 24Q d   1     -30.868 -25.716 -42.393  0.00  0.00    -0.267 OA
ATOM     59  N32 24Q d   1     -29.154 -25.983 -43.888  0.00  0.00    -0.250 N 
ATOM     60  H   24Q d   1     -28.415 -25.549 -44.403  0.00  0.00     0.181 HD
BRANCH  59  61
ATOM     61  S33 24Q d   1     -29.422 -27.595 -44.048  0.00  0.00     0.229 S 
ATOM     62  O34 24Q d   1     -30.711 -27.825 -44.643  0.00  0.00    -0.206 OA
ATOM     63  O35 24Q d   1     -29.580 -28.258 -42.782  0.00  0.00    -0.206 OA
BRANCH  61  64
ATOM     64  C36 24Q d   1     -28.157 -28.348 -45.030  0.00  0.00     0.033 C 
ATOM     65  H   24Q d   1     -28.358 -29.425 -45.123  0.00  0.00     0.051 H 
ATOM     66  H   24Q d   1     -27.180 -28.197 -44.548  0.00  0.00     0.051 H 
ATOM     67  H   24Q d   1     -28.147 -27.889 -46.030  0.00  0.00     0.051 H 
ENDBRANCH  61  64
ENDBRANCH  59  61
ENDBRANCH   3  57
TORSDOF 9
