REMARK  18 active torsions:
REMARK  status: ('A' for Active; 'I' for Inactive)
REMARK    1  A    between atoms: CD_2  and  CG_4 
REMARK    2  A    between atoms: CG_4  and  CB_5 
REMARK    3  A    between atoms: CB_5  and  CA_6 
REMARK    4  A    between atoms: CA_6  and  C_7 
REMARK    5  A    between atoms: CA_6  and  N_10 
REMARK    6  A    between atoms: N_10  and  PBK_11 
REMARK    7  A    between atoms: PBK_11  and  OAY_14 
REMARK    8  A    between atoms: OAY_14  and  CAU_15 
REMARK    9  A    between atoms: CAU_15  and  CBI_16 
REMARK   10  A    between atoms: CBI_16  and  CBB_17 
REMARK   11  A    between atoms: CBI_16  and  NAW_20 
REMARK       I    between atoms: NAW_20  and  CBD_21 
REMARK   12  A    between atoms: CBD_21  and  CBJ_23 
REMARK   13  A    between atoms: CBJ_23  and  CBG_24 
REMARK   14  A    between atoms: CBJ_23  and  NAV_28 
REMARK   15  A    between atoms: CBG_24  and  CAB_25 
REMARK   16  A    between atoms: CBG_24  and  CAR_26 
REMARK   17  A    between atoms: CAR_26  and  CAA_27 
REMARK       I    between atoms: NAV_28  and  CBC_29 
REMARK   18  A    between atoms: CBC_29  and  CBF_31 
ROOT
ATOM      1  NAW 2F7 d   1      21.346  46.392  43.804  0.00  0.00    -0.343 N 
ATOM      2  CBD 2F7 d   1      22.287  46.115  44.651  0.00  0.00     0.241 C 
ATOM      3  OAG 2F7 d   1      22.321  46.354  45.862  0.00  0.00    -0.271 OA
ATOM      4  H10 2F7 d   1      21.485  46.072  42.867  0.00  0.00     0.163 HD
ENDROOT
BRANCH   2   5
ATOM      5  CBJ 2F7 d   1      23.229  45.292  43.863  0.00  0.00     0.092 C 
ATOM      6  H11 2F7 d   1      22.527  44.764  43.201  0.00  0.00     0.088 H 
BRANCH   5   7
ATOM      7  CBG 2F7 d   1      23.864  44.047  44.529  0.00  0.00    -0.030 C 
ATOM      8  H12 2F7 d   1      23.118  43.242  44.460  0.00  0.00     0.043 H 
BRANCH   7   9
ATOM      9  CAB 2F7 d   1      24.169  44.215  46.043  0.00  0.00    -0.071 C 
ATOM     10  H13 2F7 d   1      24.616  43.288  46.432  0.00  0.00     0.028 H 
ATOM     11  H14 2F7 d   1      23.235  44.427  46.584  0.00  0.00     0.028 H 
ATOM     12  H15 2F7 d   1      24.872  45.049  46.185  0.00  0.00     0.028 H 
ENDBRANCH   7   9
BRANCH   7  13
ATOM     13  CAR 2F7 d   1      25.088  43.587  43.720  0.00  0.00    -0.063 C 
ATOM     14  H16 2F7 d   1      25.409  42.597  44.076  0.00  0.00     0.033 H 
ATOM     15  H17 2F7 d   1      25.907  44.309  43.856  0.00  0.00     0.033 H 
BRANCH  13  16
ATOM     16  CAA 2F7 d   1      24.732  43.500  42.239  0.00  0.00    -0.076 C 
ATOM     17  H18 2F7 d   1      25.613  43.170  41.669  0.00  0.00     0.027 H 
ATOM     18  H19 2F7 d   1      24.412  44.489  41.880  0.00  0.00     0.027 H 
ATOM     19  H20 2F7 d   1      23.914  42.778  42.100  0.00  0.00     0.027 H 
ENDBRANCH  13  16
ENDBRANCH   7  13
ENDBRANCH   5   7
BRANCH   5  20
ATOM     20  NAV 2F7 d   1      23.924  46.144  42.852  0.00  0.00    -0.343 N 
ATOM     21  CBC 2F7 d   1      24.515  47.354  42.833  0.00  0.00     0.252 C 
ATOM     22  OAF 2F7 d   1      24.932  48.026  43.787  0.00  0.00    -0.268 OA
ATOM     23  H21 2F7 d   1      23.960  45.701  41.956  0.00  0.00     0.163 HD
BRANCH  21  24
ATOM     24  CBF 2F7 d   1      24.743  47.682  41.484  0.00  0.00     0.032 A 
ATOM     25  CAP 2F7 d   1      24.463  46.639  40.585  0.00  0.00    -0.065 A 
ATOM     26  CAN 2F7 d   1      24.604  46.777  39.214  0.00  0.00    -0.045 A 
ATOM     27  H22 2F7 d   1      24.123  45.688  40.980  0.00  0.00     0.085 H 
ATOM     28  CBE 2F7 d   1      25.021  48.015  38.740  0.00  0.00     0.116 A 
ATOM     29  H23 2F7 d   1      24.398  45.954  38.539  0.00  0.00     0.088 H 
ATOM     30  FAM 2F7 d   1      25.132  48.129  37.465  0.00  0.00    -0.206 F 
ATOM     31  CAO 2F7 d   1      25.293  49.086  39.613  0.00  0.00    -0.045 A 
ATOM     32  CAQ 2F7 d   1      25.144  48.936  41.004  0.00  0.00    -0.065 A 
ATOM     33  H24 2F7 d   1      25.621  50.037  39.209  0.00  0.00     0.088 H 
ATOM     34  H25 2F7 d   1      25.333  49.761  41.681  0.00  0.00     0.085 H 
ENDBRANCH  21  24
ENDBRANCH   5  20
ENDBRANCH   2   5
BRANCH   1  35
ATOM     35  CBI 2F7 d   1      20.141  47.098  44.056  0.00  0.00     0.117 C 
ATOM     36  H9  2F7 d   1      20.134  48.079  43.559  0.00  0.00     0.093 H 
BRANCH  35  37
ATOM     37  CAU 2F7 d   1      19.177  46.134  43.369  0.00  0.00     0.059 C 
ATOM     38  H7  2F7 d   1      18.269  46.682  43.077  0.00  0.00     0.079 H 
ATOM     39  H8  2F7 d   1      19.661  45.722  42.471  0.00  0.00     0.079 H 
BRANCH  37  40
ATOM     40  OAY 2F7 d   1      18.826  45.097  44.205  0.00  0.00    -0.293 OA
BRANCH  40  41
ATOM     41  PBK 2F7 d   1      17.657  44.132  43.707  0.00  0.00     0.360 P 
ATOM     42  OAL 2F7 d   1      18.193  43.000  42.701  0.00  0.00    -0.630 OA
ATOM     43  OAH 2F7 d   1      17.042  43.555  44.863  0.00  0.00    -0.630 OA
BRANCH  41  44
ATOM     44  N   2F7 d   1      16.476  45.024  42.880  0.00  0.00    -0.311 N 
ATOM     45  H6  2F7 d   1      16.098  45.857  43.284  0.00  0.00     0.166 HD
BRANCH  44  46
ATOM     46  CA  2F7 d   1      16.000  44.550  41.527  0.00  0.00     0.100 C 
ATOM     47  H5  2F7 d   1      15.745  43.484  41.620  0.00  0.00     0.089 H 
BRANCH  46  48
ATOM     48  CB  2F7 d   1      14.727  45.314  41.027  0.00  0.00    -0.028 C 
ATOM     49  H3  2F7 d   1      14.464  44.963  40.018  0.00  0.00     0.037 H 
ATOM     50  H4  2F7 d   1      13.890  45.117  41.714  0.00  0.00     0.037 H 
BRANCH  48  51
ATOM     51  CG  2F7 d   1      15.011  46.843  40.984  0.00  0.00     0.018 C 
ATOM     52  H1  2F7 d   1      15.143  47.217  42.010  0.00  0.00     0.049 H 
ATOM     53  H2  2F7 d   1      15.929  47.026  40.406  0.00  0.00     0.049 H 
BRANCH  51  54
ATOM     54  CD  2F7 d   1      13.825  47.591  40.314  0.00  0.00     0.172 C 
ATOM     55  OE1 2F7 d   1      13.014  46.949  39.593  0.00  0.00    -0.648 OA
ATOM     56  OE2 2F7 d   1      13.779  48.815  40.506  0.00  0.00    -0.648 OA
ENDBRANCH  51  54
ENDBRANCH  48  51
ENDBRANCH  46  48
BRANCH  46  57
ATOM     57  C   2F7 d   1      17.098  44.694  40.466  0.00  0.00     0.196 C 
ATOM     58  OXT 2F7 d   1      16.963  43.904  39.484  0.00  0.00    -0.646 OA
ATOM     59  O   2F7 d   1      17.997  45.541  40.619  0.00  0.00    -0.646 OA
ENDBRANCH  46  57
ENDBRANCH  44  46
ENDBRANCH  41  44
ENDBRANCH  40  41
ENDBRANCH  37  40
ENDBRANCH  35  37
BRANCH  35  60
ATOM     60  CBB 2F7 d   1      19.910  47.319  45.549  0.00  0.00     0.198 C 
ATOM     61  OAK 2F7 d   1      20.301  46.468  46.372  0.00  0.00    -0.646 OA
ATOM     62  OAE 2F7 d   1      19.379  48.365  45.842  0.00  0.00    -0.646 OA
ENDBRANCH  35  60
ENDBRANCH   1  35
TORSDOF 18
