REMARK  17 active torsions:
REMARK  status: ('A' for Active; 'I' for Inactive)
REMARK    1  A    between atoms: CD_2  and  CG_4 
REMARK    2  A    between atoms: CG_4  and  CB_5 
REMARK    3  A    between atoms: CB_5  and  CA_6 
REMARK    4  A    between atoms: CA_6  and  C_7 
REMARK    5  A    between atoms: CA_6  and  N_10 
REMARK    6  A    between atoms: N_10  and  PBJ_11 
REMARK    7  A    between atoms: PBJ_11  and  OAX_14 
REMARK    8  A    between atoms: OAX_14  and  CAT_15 
REMARK    9  A    between atoms: CAT_15  and  CBH_16 
REMARK   10  A    between atoms: CBH_16  and  CBA_17 
REMARK   11  A    between atoms: CBH_16  and  NAV_20 
REMARK       I    between atoms: NAV_20  and  CBC_21 
REMARK   12  A    between atoms: CBC_21  and  CBI_23 
REMARK   13  A    between atoms: CBI_23  and  CBF_24 
REMARK   14  A    between atoms: CBI_23  and  NAU_27 
REMARK   15  A    between atoms: CBF_24  and  CAB_25 
REMARK   16  A    between atoms: CBF_24  and  CAA_26 
REMARK       I    between atoms: NAU_27  and  CBB_28 
REMARK   17  A    between atoms: CBB_28  and  CBE_30 
ROOT
ATOM      1  NAV 2F9 d   1      21.533  46.972  43.310  0.00  0.00    -0.343 N 
ATOM      2  CBC 2F9 d   1      22.157  48.200  43.211  0.00  0.00     0.241 C 
ATOM      3  OAG 2F9 d   1      21.774  49.237  43.784  0.00  0.00    -0.271 OA
ATOM      4  H10 2F9 d   1      21.983  46.164  42.931  0.00  0.00     0.163 HD
ENDROOT
BRANCH   1   5
ATOM      5  CBH 2F9 d   1      20.210  46.824  43.966  0.00  0.00     0.117 C 
ATOM      6  H9  2F9 d   1      19.651  47.768  43.889  0.00  0.00     0.093 H 
BRANCH   5   7
ATOM      7  CAT 2F9 d   1      19.413  45.741  43.297  0.00  0.00     0.059 C 
ATOM      8  H7  2F9 d   1      18.719  46.207  42.582  0.00  0.00     0.079 H 
ATOM      9  H8  2F9 d   1      20.106  45.079  42.757  0.00  0.00     0.079 H 
BRANCH   7  10
ATOM     10  OAX 2F9 d   1      18.652  44.950  44.225  0.00  0.00    -0.293 OA
BRANCH  10  11
ATOM     11  PBJ 2F9 d   1      17.564  44.013  43.652  0.00  0.00     0.360 P 
ATOM     12  OAL 2F9 d   1      18.192  42.923  42.683  0.00  0.00    -0.630 OA
ATOM     13  OAH 2F9 d   1      16.942  43.419  44.869  0.00  0.00    -0.630 OA
BRANCH  11  14
ATOM     14  N   2F9 d   1      16.488  44.900  42.899  0.00  0.00    -0.311 N 
ATOM     15  H6  2F9 d   1      16.136  45.737  43.319  0.00  0.00     0.166 HD
BRANCH  14  16
ATOM     16  CA  2F9 d   1      16.004  44.463  41.541  0.00  0.00     0.100 C 
ATOM     17  H5  2F9 d   1      15.754  43.395  41.629  0.00  0.00     0.089 H 
BRANCH  16  18
ATOM     18  CB  2F9 d   1      14.713  45.213  41.065  0.00  0.00    -0.028 C 
ATOM     19  H3  2F9 d   1      14.402  44.808  40.091  0.00  0.00     0.037 H 
ATOM     20  H4  2F9 d   1      13.912  45.051  41.802  0.00  0.00     0.037 H 
BRANCH  18  21
ATOM     21  CG  2F9 d   1      14.970  46.753  40.920  0.00  0.00     0.018 C 
ATOM     22  H1  2F9 d   1      15.113  47.179  41.924  0.00  0.00     0.049 H 
ATOM     23  H2  2F9 d   1      15.884  46.900  40.326  0.00  0.00     0.049 H 
BRANCH  21  24
ATOM     24  CD  2F9 d   1      13.819  47.499  40.234  0.00  0.00     0.172 C 
ATOM     25  OE1 2F9 d   1      13.754  48.720  40.414  0.00  0.00    -0.648 OA
ATOM     26  OE2 2F9 d   1      12.985  46.907  39.493  0.00  0.00    -0.648 OA
ENDBRANCH  21  24
ENDBRANCH  18  21
ENDBRANCH  16  18
BRANCH  16  27
ATOM     27  C   2F9 d   1      17.063  44.602  40.429  0.00  0.00     0.196 C 
ATOM     28  OXT 2F9 d   1      17.976  45.479  40.469  0.00  0.00    -0.646 OA
ATOM     29  O   2F9 d   1      16.873  43.803  39.437  0.00  0.00    -0.646 OA
ENDBRANCH  16  27
ENDBRANCH  14  16
ENDBRANCH  11  14
ENDBRANCH  10  11
ENDBRANCH   7  10
ENDBRANCH   5   7
BRANCH   5  30
ATOM     30  CBA 2F9 d   1      20.475  46.529  45.393  0.00  0.00     0.198 C 
ATOM     31  OAK 2F9 d   1      21.428  45.767  45.665  0.00  0.00    -0.646 OA
ATOM     32  OAE 2F9 d   1      19.909  47.277  46.141  0.00  0.00    -0.646 OA
ENDBRANCH   5  30
ENDBRANCH   1   5
BRANCH   2  33
ATOM     33  CBI 2F9 d   1      23.496  48.222  42.451  0.00  0.00     0.092 C 
ATOM     34  H11 2F9 d   1      23.355  47.841  41.429  0.00  0.00     0.088 H 
BRANCH  33  35
ATOM     35  CBF 2F9 d   1      24.452  47.280  43.210  0.00  0.00    -0.033 C 
ATOM     36  H12 2F9 d   1      23.912  46.365  43.494  0.00  0.00     0.042 H 
BRANCH  35  37
ATOM     37  CAB 2F9 d   1      24.962  47.987  44.513  0.00  0.00    -0.071 C 
ATOM     38  H13 2F9 d   1      25.644  47.313  45.053  0.00  0.00     0.028 H 
ATOM     39  H14 2F9 d   1      24.104  48.233  45.156  0.00  0.00     0.028 H 
ATOM     40  H15 2F9 d   1      25.496  48.910  44.244  0.00  0.00     0.028 H 
ENDBRANCH  35  37
BRANCH  35  41
ATOM     41  CAA 2F9 d   1      25.626  46.899  42.260  0.00  0.00    -0.071 C 
ATOM     42  H16 2F9 d   1      25.226  46.407  41.361  0.00  0.00     0.028 H 
ATOM     43  H17 2F9 d   1      26.310  46.212  42.780  0.00  0.00     0.028 H 
ATOM     44  H18 2F9 d   1      26.171  47.809  41.968  0.00  0.00     0.028 H 
ENDBRANCH  35  41
ENDBRANCH  33  35
BRANCH  33  45
ATOM     45  NAU 2F9 d   1      23.987  49.654  42.370  0.00  0.00    -0.343 N 
ATOM     46  CBB 2F9 d   1      24.578  50.222  41.266  0.00  0.00     0.252 C 
ATOM     47  OAF 2F9 d   1      24.896  49.556  40.266  0.00  0.00    -0.268 OA
ATOM     48  H19 2F9 d   1      23.872  50.229  43.180  0.00  0.00     0.163 HD
BRANCH  46  49
ATOM     49  CBE 2F9 d   1      24.943  51.602  41.370  0.00  0.00     0.032 A 
ATOM     50  CAP 2F9 d   1      24.653  52.357  42.525  0.00  0.00    -0.065 A 
ATOM     51  CAN 2F9 d   1      25.044  53.701  42.654  0.00  0.00    -0.045 A 
ATOM     52  H20 2F9 d   1      24.112  51.887  43.338  0.00  0.00     0.085 H 
ATOM     53  CBD 2F9 d   1      25.736  54.307  41.603  0.00  0.00     0.116 A 
ATOM     54  H21 2F9 d   1      24.812  54.258  43.555  0.00  0.00     0.088 H 
ATOM     55  FAM 2F9 d   1      26.193  55.779  41.750  0.00  0.00    -0.206 F 
ATOM     56  CAO 2F9 d   1      26.047  53.572  40.457  0.00  0.00    -0.045 A 
ATOM     57  CAQ 2F9 d   1      25.615  52.232  40.328  0.00  0.00    -0.065 A 
ATOM     58  H22 2F9 d   1      26.623  54.032  39.662  0.00  0.00     0.088 H 
ATOM     59  H23 2F9 d   1      25.809  51.691  39.409  0.00  0.00     0.085 H 
ENDBRANCH  46  49
ENDBRANCH  33  45
ENDBRANCH   2  33
TORSDOF 17
