REMARK  16 active torsions:
REMARK  status: ('A' for Active; 'I' for Inactive)
REMARK    1  A    between atoms: C_2  and  CA_4 
REMARK    2  A    between atoms: CA_4  and  N_5 
REMARK    3  A    between atoms: CA_4  and  CB_6 
REMARK    4  A    between atoms: CB_6  and  CAN_7 
REMARK    5  A    between atoms: CAN_7  and  CAV_8 
REMARK       I    between atoms: CAV_8  and  NAR_10 
REMARK    6  A    between atoms: NAR_10  and  CBA_11 
REMARK    7  A    between atoms: CBA_11  and  CAX_12 
REMARK    8  A    between atoms: CBA_11  and  CAQ_15 
REMARK    9  A    between atoms: CAQ_15  and  OAT_16 
REMARK   10  A    between atoms: OAT_16  and  PBC_17 
REMARK   11  A    between atoms: PBC_17  and  NAS_20 
REMARK   12  A    between atoms: NAS_20  and  CBB_21 
REMARK   13  A    between atoms: CBB_21  and  CAY_22 
REMARK   14  A    between atoms: CBB_21  and  CAP_25 
REMARK   15  A    between atoms: CAP_25  and  CAM_26 
REMARK   16  A    between atoms: CAM_26  and  CAU_27 
ROOT
ATOM      1  CBA 2G2 d   1      20.611  46.258  43.865  0.00  0.00     0.117 C 
ATOM      2  H10 2G2 d   1      20.967  47.176  43.375  0.00  0.00     0.093 H 
ENDROOT
BRANCH   1   3
ATOM      3  NAR 2G2 d   1      21.588  45.121  43.613  0.00  0.00    -0.345 N 
ATOM      4  CAV 2G2 d   1      22.903  45.305  43.465  0.00  0.00     0.218 C 
ATOM      5  OAC 2G2 d   1      23.420  46.416  43.560  0.00  0.00    -0.274 OA
ATOM      6  H9  2G2 d   1      21.229  44.190  43.555  0.00  0.00     0.163 HD
BRANCH   4   7
ATOM      7  CAN 2G2 d   1      23.795  44.064  43.088  0.00  0.00     0.012 C 
ATOM      8  H7  2G2 d   1      24.536  43.881  43.880  0.00  0.00     0.047 H 
ATOM      9  H8  2G2 d   1      23.163  43.172  42.964  0.00  0.00     0.047 H 
BRANCH   7  10
ATOM     10  CB  2G2 d   1      24.516  44.391  41.755  0.00  0.00    -0.021 C 
ATOM     11  H5  2G2 d   1      23.747  44.648  41.012  0.00  0.00     0.037 H 
ATOM     12  H6  2G2 d   1      25.163  45.264  41.929  0.00  0.00     0.037 H 
BRANCH  10  13
ATOM     13  CA  2G2 d   1      25.411  43.243  41.144  0.00  0.00     0.183 C 
ATOM     14  H1  2G2 d   1      24.748  42.407  40.876  0.00  0.00     0.101 H 
BRANCH  13  15
ATOM     15  C   2G2 d   1      26.118  43.723  39.824  0.00  0.00     0.204 C 
ATOM     16  O   2G2 d   1      27.244  44.243  39.939  0.00  0.00    -0.646 OA
ATOM     17  OXT 2G2 d   1      25.518  43.643  38.731  0.00  0.00    -0.646 OA
ENDBRANCH  13  15
BRANCH  13  18
ATOM     18  N   2G2 d   1      26.371  42.742  42.153  0.00  0.00    -0.065 N 
ATOM     19  H2  2G2 d   1      25.870  42.448  42.977  0.00  0.00     0.275 HD
ATOM     20  H3  2G2 d   1      27.016  43.477  42.397  0.00  0.00     0.275 HD
ATOM     21  H4  2G2 d   1      26.881  41.960  41.773  0.00  0.00     0.275 HD
ENDBRANCH  13  18
ENDBRANCH  10  13
ENDBRANCH   7  10
ENDBRANCH   4   7
ENDBRANCH   1   3
BRANCH   1  22
ATOM     22  CAX 2G2 d   1      20.457  46.498  45.400  0.00  0.00     0.198 C 
ATOM     23  OAJ 2G2 d   1      20.971  45.675  46.175  0.00  0.00    -0.646 OA
ATOM     24  OAE 2G2 d   1      19.768  47.454  45.747  0.00  0.00    -0.646 OA
ENDBRANCH   1  22
BRANCH   1  25
ATOM     25  CAQ 2G2 d   1      19.258  45.852  43.307  0.00  0.00     0.059 C 
ATOM     26  H11 2G2 d   1      19.380  45.454  42.289  0.00  0.00     0.079 H 
ATOM     27  H12 2G2 d   1      18.589  46.725  43.281  0.00  0.00     0.079 H 
BRANCH  25  28
ATOM     28  OAT 2G2 d   1      18.712  44.859  44.144  0.00  0.00    -0.293 OA
BRANCH  28  29
ATOM     29  PBC 2G2 d   1      17.581  43.932  43.575  0.00  0.00     0.360 P 
ATOM     30  OAL 2G2 d   1      16.855  43.294  44.774  0.00  0.00    -0.630 OA
ATOM     31  OAG 2G2 d   1      18.145  42.959  42.582  0.00  0.00    -0.630 OA
BRANCH  29  32
ATOM     32  NAS 2G2 d   1      16.525  44.888  42.785  0.00  0.00    -0.311 N 
ATOM     33  H13 2G2 d   1      16.243  45.773  43.157  0.00  0.00     0.166 HD
BRANCH  32  34
ATOM     34  CBB 2G2 d   1      15.995  44.387  41.481  0.00  0.00     0.100 C 
ATOM     35  H14 2G2 d   1      15.756  43.321  41.611  0.00  0.00     0.089 H 
BRANCH  34  36
ATOM     36  CAY 2G2 d   1      17.008  44.528  40.339  0.00  0.00     0.196 C 
ATOM     37  OAK 2G2 d   1      16.847  43.761  39.335  0.00  0.00    -0.646 OA
ATOM     38  OAF 2G2 d   1      17.893  45.412  40.421  0.00  0.00    -0.646 OA
ENDBRANCH  34  36
BRANCH  34  39
ATOM     39  CAP 2G2 d   1      14.666  45.157  41.001  0.00  0.00    -0.028 C 
ATOM     40  H15 2G2 d   1      13.856  44.967  41.721  0.00  0.00     0.037 H 
ATOM     41  H16 2G2 d   1      14.369  44.786  40.009  0.00  0.00     0.037 H 
BRANCH  39  42
ATOM     42  CAM 2G2 d   1      14.929  46.675  40.919  0.00  0.00     0.018 C 
ATOM     43  H17 2G2 d   1      15.874  46.836  40.380  0.00  0.00     0.049 H 
ATOM     44  H18 2G2 d   1      15.018  47.069  41.942  0.00  0.00     0.049 H 
BRANCH  42  45
ATOM     45  CAU 2G2 d   1      13.806  47.457  40.187  0.00  0.00     0.172 C 
ATOM     46  OAH 2G2 d   1      12.994  46.823  39.436  0.00  0.00    -0.648 OA
ATOM     47  OAB 2G2 d   1      13.746  48.697  40.433  0.00  0.00    -0.648 OA
ENDBRANCH  42  45
ENDBRANCH  39  42
ENDBRANCH  34  39
ENDBRANCH  32  34
ENDBRANCH  29  32
ENDBRANCH  28  29
ENDBRANCH  25  28
ENDBRANCH   1  25
TORSDOF 16
