REMARK  11 active torsions:
REMARK  status: ('A' for Active; 'I' for Inactive)
REMARK    1  A    between atoms: CAW_6  and  CAV_7 
REMARK       I    between atoms: CAV_7  and  NAQ_9 
REMARK    2  A    between atoms: NAQ_9  and  CAM_10 
REMARK    3  A    between atoms: CAM_10  and  CAN_11 
REMARK    4  A    between atoms: CAN_11  and  OAS_12 
REMARK    5  A    between atoms: OAS_12  and  PAY_13 
REMARK    6  A    between atoms: PAY_13  and  N_16 
REMARK    7  A    between atoms: N_16  and  CA_17 
REMARK    8  A    between atoms: CA_17  and  C_18 
REMARK    9  A    between atoms: CA_17  and  CB_21 
REMARK   10  A    between atoms: CB_21  and  CG_22 
REMARK   11  A    between atoms: CG_22  and  CD_23 
ROOT
ATOM      1  CAN 2GR d   1      19.494  45.600  43.903  0.00  0.00     0.046 C 
ATOM      2  H9  2GR d   1      19.525  45.229  42.868  0.00  0.00     0.077 H 
ATOM      3  H10 2GR d   1      19.118  46.634  43.911  0.00  0.00     0.077 H 
ENDROOT
BRANCH   1   4
ATOM      4  CAM 2GR d   1      20.916  45.554  44.520  0.00  0.00     0.016 C 
ATOM      5  H7  2GR d   1      20.835  45.179  45.551  0.00  0.00     0.067 H 
ATOM      6  H8  2GR d   1      21.530  44.862  43.925  0.00  0.00     0.067 H 
BRANCH   4   7
ATOM      7  NAQ 2GR d   1      21.605  46.893  44.553  0.00  0.00    -0.355 N 
ATOM      8  CAV 2GR d   1      21.230  47.858  45.426  0.00  0.00     0.251 C 
ATOM      9  OAC 2GR d   1      20.261  47.735  46.212  0.00  0.00    -0.268 OA
ATOM     10  H6  2GR d   1      22.355  47.073  43.917  0.00  0.00     0.162 HD
BRANCH   8  11
ATOM     11  CAW 2GR d   1      22.093  49.163  45.373  0.00  0.00     0.032 A 
ATOM     12  CAK 2GR d   1      23.492  49.082  45.359  0.00  0.00    -0.068 A 
ATOM     13  CAI 2GR d   1      24.274  50.245  45.309  0.00  0.00    -0.082 A 
ATOM     14  H1  2GR d   1      23.974  48.111  45.387  0.00  0.00     0.085 H 
ATOM     15  CAH 2GR d   1      23.667  51.510  45.286  0.00  0.00    -0.083 A 
ATOM     16  H2  2GR d   1      25.355  50.166  45.288  0.00  0.00     0.083 H 
ATOM     17  CAJ 2GR d   1      22.269  51.611  45.309  0.00  0.00    -0.082 A 
ATOM     18  H3  2GR d   1      24.277  52.406  45.251  0.00  0.00     0.083 H 
ATOM     19  CAL 2GR d   1      21.500  50.440  45.347  0.00  0.00    -0.068 A 
ATOM     20  H4  2GR d   1      21.789  52.583  45.297  0.00  0.00     0.083 H 
ATOM     21  H5  2GR d   1      20.419  50.519  45.357  0.00  0.00     0.085 H 
ENDBRANCH   8  11
ENDBRANCH   4   7
ENDBRANCH   1   4
BRANCH   1  22
ATOM     22  OAS 2GR d   1      18.625  44.755  44.701  0.00  0.00    -0.294 OA
BRANCH  22  23
ATOM     23  PAY 2GR d   1      17.547  43.824  44.037  0.00  0.00     0.360 P 
ATOM     24  OAG 2GR d   1      16.876  43.017  45.103  0.00  0.00    -0.630 OA
ATOM     25  OAD 2GR d   1      18.251  42.921  43.018  0.00  0.00    -0.630 OA
BRANCH  23  26
ATOM     26  N   2GR d   1      16.432  44.806  43.278  0.00  0.00    -0.311 N 
ATOM     27  H11 2GR d   1      16.074  45.648  43.680  0.00  0.00     0.166 HD
BRANCH  26  28
ATOM     28  CA  2GR d   1      16.023  44.293  41.929  0.00  0.00     0.100 C 
ATOM     29  H12 2GR d   1      15.812  43.218  42.025  0.00  0.00     0.089 H 
BRANCH  28  30
ATOM     30  C   2GR d   1      17.080  44.475  40.822  0.00  0.00     0.196 C 
ATOM     31  OXT 2GR d   1      17.986  45.357  40.949  0.00  0.00    -0.646 OA
ATOM     32  O   2GR d   1      16.948  43.682  39.839  0.00  0.00    -0.646 OA
ENDBRANCH  28  30
BRANCH  28  33
ATOM     33  CB  2GR d   1      14.713  45.041  41.481  0.00  0.00    -0.028 C 
ATOM     34  H13 2GR d   1      13.910  44.822  42.200  0.00  0.00     0.037 H 
ATOM     35  H14 2GR d   1      14.419  44.684  40.483  0.00  0.00     0.037 H 
BRANCH  33  36
ATOM     36  CG  2GR d   1      14.936  46.551  41.426  0.00  0.00     0.018 C 
ATOM     37  H15 2GR d   1      15.886  46.737  40.905  0.00  0.00     0.049 H 
ATOM     38  H16 2GR d   1      15.005  46.924  42.458  0.00  0.00     0.049 H 
BRANCH  36  39
ATOM     39  CD  2GR d   1      13.819  47.351  40.696  0.00  0.00     0.172 C 
ATOM     40  OE2 2GR d   1      13.049  46.764  39.877  0.00  0.00    -0.648 OA
ATOM     41  OE1 2GR d   1      13.813  48.585  40.893  0.00  0.00    -0.648 OA
ENDBRANCH  36  39
ENDBRANCH  33  36
ENDBRANCH  28  33
ENDBRANCH  26  28
ENDBRANCH  23  26
ENDBRANCH  22  23
ENDBRANCH   1  22
TORSDOF 11
