REMARK  10 active torsions:
REMARK  status: ('A' for Active; 'I' for Inactive)
REMARK    1  A    between atoms: N_1  and  CA_2 
REMARK    2  A    between atoms: PBA_22  and  N_1 
REMARK    3  A    between atoms: CA_2  and  C_3 
REMARK    4  A    between atoms: CA_2  and  CB_5 
REMARK    5  A    between atoms: CB_5  and  CG_6 
REMARK    6  A    between atoms: CG_6  and  CD_25 
REMARK    7  A    between atoms: CAI_14  and  CAN_13 
REMARK    8  A    between atoms: CAB_20  and  CAH_19 
REMARK    9  A    between atoms: OAT_21  and  CAB_20 
REMARK   10  A    between atoms: OAT_21  and  PBA_22 
ROOT
ATOM      1  CAB 2GB d   1      19.624  45.787  43.456  0.00  0.00     0.055 C 
ATOM      2  H16 2GB d   1      19.382  45.423  42.446  0.00  0.00     0.082 H 
ATOM      3  H17 2GB d   1      19.293  46.831  43.559  0.00  0.00     0.082 H 
ENDROOT
BRANCH   1   4
ATOM      4  CAH 2GB d   1      21.242  45.786  43.587  0.00  0.00    -0.034 A 
ATOM      5  CAJ 2GB d   1      21.828  44.767  44.336  0.00  0.00    -0.074 A 
ATOM      6  CAM 2GB d   1      23.216  44.699  44.529  0.00  0.00    -0.072 A 
ATOM      7  H13 2GB d   1      21.195  44.008  44.781  0.00  0.00     0.084 H 
ATOM      8  CAI 2GB d   1      24.111  45.659  44.037  0.00  0.00    -0.026 A 
ATOM      9  H12 2GB d   1      23.617  43.861  45.087  0.00  0.00     0.084 H 
ATOM     10  CAL 2GB d   1      23.543  46.734  43.315  0.00  0.00    -0.072 A 
ATOM     11  CAK 2GB d   1      22.127  46.781  43.091  0.00  0.00    -0.074 A 
ATOM     12  H14 2GB d   1      24.178  47.523  42.930  0.00  0.00     0.084 H 
ATOM     13  H15 2GB d   1      21.716  47.607  42.522  0.00  0.00     0.084 H 
BRANCH   8  14
ATOM     14  CAN 2GB d   1      25.481  45.478  44.370  0.00  0.00    -0.026 A 
ATOM     15  CAP 2GB d   1      26.482  46.424  44.134  0.00  0.00    -0.072 A 
ATOM     16  CAS 2GB d   1      27.824  46.219  44.509  0.00  0.00    -0.082 A 
ATOM     17  H7  2GB d   1      26.215  47.353  43.643  0.00  0.00     0.084 H 
ATOM     18  CAO 2GB d   1      28.219  45.039  45.149  0.00  0.00    -0.083 A 
ATOM     19  H8  2GB d   1      28.561  46.986  44.299  0.00  0.00     0.083 H 
ATOM     20  CAR 2GB d   1      27.232  44.077  45.387  0.00  0.00    -0.082 A 
ATOM     21  H9  2GB d   1      29.248  44.877  45.448  0.00  0.00     0.083 H 
ATOM     22  CAQ 2GB d   1      25.886  44.321  45.031  0.00  0.00    -0.072 A 
ATOM     23  H10 2GB d   1      27.502  43.135  45.849  0.00  0.00     0.083 H 
ATOM     24  H11 2GB d   1      25.139  43.577  45.283  0.00  0.00     0.084 H 
ENDBRANCH   8  14
ENDBRANCH   1   4
BRANCH   1  25
ATOM     25  OAT 2GB d   1      18.747  44.904  44.503  0.00  0.00    -0.291 OA
BRANCH  25  26
ATOM     26  PBA 2GB d   1      17.642  43.954  43.934  0.00  0.00     0.360 P 
ATOM     27  OAV 2GB d   1      16.842  43.079  44.922  0.00  0.00    -0.630 OA
ATOM     28  OAU 2GB d   1      18.260  43.079  42.852  0.00  0.00    -0.630 OA
BRANCH  26  29
ATOM     29  N   2GB d   1      16.502  44.943  43.161  0.00  0.00    -0.311 N 
ATOM     30  H1  2GB d   1      16.153  45.782  43.578  0.00  0.00     0.166 HD
BRANCH  29  31
ATOM     31  CA  2GB d   1      16.052  44.472  41.805  0.00  0.00     0.100 C 
ATOM     32  H2  2GB d   1      15.836  43.398  41.903  0.00  0.00     0.089 H 
BRANCH  31  33
ATOM     33  C   2GB d   1      17.053  44.621  40.655  0.00  0.00     0.196 C 
ATOM     34  O   2GB d   1      17.952  45.533  40.719  0.00  0.00    -0.646 OA
ATOM     35  OXT 2GB d   1      16.857  43.830  39.661  0.00  0.00    -0.646 OA
ENDBRANCH  31  33
BRANCH  31  36
ATOM     36  CB  2GB d   1      14.682  45.227  41.380  0.00  0.00    -0.028 C 
ATOM     37  H3  2GB d   1      13.898  45.018  42.122  0.00  0.00     0.037 H 
ATOM     38  H4  2GB d   1      14.355  44.873  40.391  0.00  0.00     0.037 H 
BRANCH  36  39
ATOM     39  CG  2GB d   1      14.961  46.772  41.324  0.00  0.00     0.018 C 
ATOM     40  H5  2GB d   1      15.928  46.929  40.823  0.00  0.00     0.049 H 
ATOM     41  H6  2GB d   1      15.018  47.149  42.356  0.00  0.00     0.049 H 
BRANCH  39  42
ATOM     42  CD  2GB d   1      13.872  47.602  40.559  0.00  0.00     0.172 C 
ATOM     43  OE2 2GB d   1      13.096  46.970  39.805  0.00  0.00    -0.648 OA
ATOM     44  OE1 2GB d   1      13.872  48.855  40.727  0.00  0.00    -0.648 OA
ENDBRANCH  39  42
ENDBRANCH  36  39
ENDBRANCH  31  36
ENDBRANCH  29  31
ENDBRANCH  26  29
ENDBRANCH  25  26
ENDBRANCH   1  25
TORSDOF 10
