REMARK  12 active torsions:
REMARK  status: ('A' for Active; 'I' for Inactive)
REMARK    1  A    between atoms: CAY_6  and  CAX_7 
REMARK       I    between atoms: CAX_7  and  NAR_9 
REMARK    2  A    between atoms: NAR_9  and  CBA_10 
REMARK    3  A    between atoms: CBA_10  and  CAW_11 
REMARK    4  A    between atoms: CBA_10  and  CAQ_14 
REMARK    5  A    between atoms: CAQ_14  and  OAT_15 
REMARK    6  A    between atoms: OAT_15  and  PBB_16 
REMARK    7  A    between atoms: PBB_16  and  N_19 
REMARK    8  A    between atoms: N_19  and  CA_20 
REMARK    9  A    between atoms: CA_20  and  C_21 
REMARK   10  A    between atoms: CA_20  and  CB_24 
REMARK   11  A    between atoms: CB_24  and  CG_25 
REMARK   12  A    between atoms: CG_25  and  CD_26 
ROOT
ATOM      1  CAQ 2G5 d   1      19.575  45.574  43.787  0.00  0.00     0.059 C 
ATOM      2  H8  2G5 d   1      20.351  44.892  43.409  0.00  0.00     0.079 H 
ATOM      3  H9  2G5 d   1      19.007  45.987  42.941  0.00  0.00     0.079 H 
ENDROOT
BRANCH   1   4
ATOM      4  CBA 2G5 d   1      20.221  46.704  44.576  0.00  0.00     0.117 C 
ATOM      5  H7  2G5 d   1      19.480  47.504  44.719  0.00  0.00     0.093 H 
BRANCH   4   6
ATOM      6  NAR 2G5 d   1      21.399  47.275  43.861  0.00  0.00    -0.340 N 
ATOM      7  CAX 2G5 d   1      21.986  48.361  44.389  0.00  0.00     0.252 C 
ATOM      8  OAD 2G5 d   1      21.650  48.864  45.475  0.00  0.00    -0.268 OA
ATOM      9  H6  2G5 d   1      21.740  46.863  43.016  0.00  0.00     0.163 HD
BRANCH   7  10
ATOM     10  CAY 2G5 d   1      23.172  48.950  43.636  0.00  0.00     0.032 A 
ATOM     11  CAM 2G5 d   1      23.745  48.281  42.548  0.00  0.00    -0.068 A 
ATOM     12  CAK 2G5 d   1      24.848  48.864  41.893  0.00  0.00    -0.082 A 
ATOM     13  H1  2G5 d   1      23.346  47.330  42.215  0.00  0.00     0.085 H 
ATOM     14  CAJ 2G5 d   1      25.358  50.096  42.339  0.00  0.00    -0.083 A 
ATOM     15  H2  2G5 d   1      25.303  48.363  41.046  0.00  0.00     0.083 H 
ATOM     16  CAL 2G5 d   1      24.785  50.755  43.436  0.00  0.00    -0.082 A 
ATOM     17  H3  2G5 d   1      26.204  50.542  41.829  0.00  0.00     0.083 H 
ATOM     18  CAN 2G5 d   1      23.689  50.181  44.089  0.00  0.00    -0.068 A 
ATOM     19  H4  2G5 d   1      25.188  51.702  43.776  0.00  0.00     0.083 H 
ATOM     20  H5  2G5 d   1      23.239  50.681  44.940  0.00  0.00     0.085 H 
ENDBRANCH   7  10
ENDBRANCH   4   6
BRANCH   4  21
ATOM     21  CAW 2G5 d   1      20.642  46.161  45.948  0.00  0.00     0.199 C 
ATOM     22  OAH 2G5 d   1      19.971  46.503  46.915  0.00  0.00    -0.646 OA
ATOM     23  OAC 2G5 d   1      21.671  45.462  45.999  0.00  0.00    -0.646 OA
ENDBRANCH   4  21
ENDBRANCH   1   4
BRANCH   1  24
ATOM     24  OAT 2G5 d   1      18.687  44.862  44.670  0.00  0.00    -0.293 OA
BRANCH  24  25
ATOM     25  PBB 2G5 d   1      17.600  43.943  43.982  0.00  0.00     0.360 P 
ATOM     26  OAI 2G5 d   1      16.911  43.247  45.122  0.00  0.00    -0.630 OA
ATOM     27  OAE 2G5 d   1      18.298  43.036  42.969  0.00  0.00    -0.630 OA
BRANCH  25  28
ATOM     28  N   2G5 d   1      16.544  44.939  43.184  0.00  0.00    -0.311 N 
ATOM     29  H10 2G5 d   1      16.250  45.821  43.552  0.00  0.00     0.166 HD
BRANCH  28  30
ATOM     30  CA  2G5 d   1      16.068  44.415  41.874  0.00  0.00     0.100 C 
ATOM     31  H11 2G5 d   1      15.850  43.344  42.000  0.00  0.00     0.089 H 
BRANCH  30  32
ATOM     32  C   2G5 d   1      17.123  44.578  40.759  0.00  0.00     0.196 C 
ATOM     33  OXT 2G5 d   1      16.972  43.793  39.756  0.00  0.00    -0.646 OA
ATOM     34  O   2G5 d   1      17.999  45.495  40.878  0.00  0.00    -0.646 OA
ENDBRANCH  30  32
BRANCH  30  35
ATOM     35  CB  2G5 d   1      14.748  45.152  41.379  0.00  0.00    -0.028 C 
ATOM     36  H12 2G5 d   1      13.919  44.897  42.056  0.00  0.00     0.037 H 
ATOM     37  H13 2G5 d   1      14.508  44.813  40.361  0.00  0.00     0.037 H 
BRANCH  35  38
ATOM     38  CG  2G5 d   1      14.935  46.685  41.368  0.00  0.00     0.018 C 
ATOM     39  H14 2G5 d   1      15.889  46.911  40.869  0.00  0.00     0.049 H 
ATOM     40  H15 2G5 d   1      14.975  47.034  42.410  0.00  0.00     0.049 H 
BRANCH  38  41
ATOM     41  CD  2G5 d   1      13.805  47.470  40.635  0.00  0.00     0.172 C 
ATOM     42  OE2 2G5 d   1      13.774  48.714  40.824  0.00  0.00    -0.648 OA
ATOM     43  OE1 2G5 d   1      13.051  46.843  39.830  0.00  0.00    -0.648 OA
ENDBRANCH  38  41
ENDBRANCH  35  38
ENDBRANCH  30  35
ENDBRANCH  28  30
ENDBRANCH  25  28
ENDBRANCH  24  25
ENDBRANCH   1  24
TORSDOF 12
