REMARK  12 active torsions:
REMARK  status: ('A' for Active; 'I' for Inactive)
REMARK    1  A    between atoms: CAY_6  and  CAX_7 
REMARK       I    between atoms: CAX_7  and  NAR_9 
REMARK    2  A    between atoms: NAR_9  and  CBA_10 
REMARK    3  A    between atoms: CBA_10  and  CAW_11 
REMARK    4  A    between atoms: CBA_10  and  CAQ_14 
REMARK    5  A    between atoms: CAQ_14  and  OAT_15 
REMARK    6  A    between atoms: OAT_15  and  PBB_16 
REMARK    7  A    between atoms: PBB_16  and  N_19 
REMARK    8  A    between atoms: N_19  and  CA_20 
REMARK    9  A    between atoms: CA_20  and  C_21 
REMARK   10  A    between atoms: CA_20  and  CB_24 
REMARK   11  A    between atoms: CB_24  and  CG_25 
REMARK   12  A    between atoms: CG_25  and  CD_26 
ROOT
ATOM      1  CAQ 2H9 d   1      19.440  45.484  43.907  0.00  0.00     0.059 C 
ATOM      2  H8  2H9 d   1      19.645  45.038  42.923  0.00  0.00     0.079 H 
ATOM      3  H9  2H9 d   1      19.020  46.492  43.772  0.00  0.00     0.079 H 
ENDROOT
BRANCH   1   4
ATOM      4  CBA 2H9 d   1      20.718  45.524  44.779  0.00  0.00     0.117 C 
ATOM      5  H7  2H9 d   1      21.104  44.499  44.885  0.00  0.00     0.093 H 
BRANCH   4   6
ATOM      6  NAR 2H9 d   1      21.765  46.313  44.090  0.00  0.00    -0.340 N 
ATOM      7  CAX 2H9 d   1      22.824  46.782  44.745  0.00  0.00     0.252 C 
ATOM      8  OAD 2H9 d   1      22.987  46.677  45.957  0.00  0.00    -0.268 OA
ATOM      9  H6  2H9 d   1      21.674  46.497  43.111  0.00  0.00     0.163 HD
BRANCH   7  10
ATOM     10  CAY 2H9 d   1      23.901  47.454  43.898  0.00  0.00     0.032 A 
ATOM     11  CAM 2H9 d   1      25.219  47.471  44.414  0.00  0.00    -0.068 A 
ATOM     12  CAK 2H9 d   1      26.217  48.097  43.641  0.00  0.00    -0.082 A 
ATOM     13  H1  2H9 d   1      25.453  47.018  45.371  0.00  0.00     0.085 H 
ATOM     14  CAJ 2H9 d   1      25.886  48.690  42.410  0.00  0.00    -0.083 A 
ATOM     15  H2  2H9 d   1      27.241  48.121  43.996  0.00  0.00     0.083 H 
ATOM     16  CAL 2H9 d   1      24.570  48.675  41.904  0.00  0.00    -0.082 A 
ATOM     17  H3  2H9 d   1      26.666  49.173  41.833  0.00  0.00     0.083 H 
ATOM     18  CAN 2H9 d   1      23.568  48.036  42.666  0.00  0.00    -0.068 A 
ATOM     19  H4  2H9 d   1      24.334  49.142  40.955  0.00  0.00     0.083 H 
ATOM     20  H5  2H9 d   1      22.548  47.995  42.301  0.00  0.00     0.085 H 
ENDBRANCH   7  10
ENDBRANCH   4   6
BRANCH   4  21
ATOM     21  CAW 2H9 d   1      20.311  46.015  46.199  0.00  0.00     0.199 C 
ATOM     22  OAH 2H9 d   1      19.909  47.196  46.273  0.00  0.00    -0.646 OA
ATOM     23  OAC 2H9 d   1      20.376  45.185  47.136  0.00  0.00    -0.646 OA
ENDBRANCH   4  21
ENDBRANCH   1   4
BRANCH   1  24
ATOM     24  OAT 2H9 d   1      18.548  44.644  44.688  0.00  0.00    -0.293 OA
BRANCH  24  25
ATOM     25  PBB 2H9 d   1      17.497  43.748  44.006  0.00  0.00     0.360 P 
ATOM     26  OAI 2H9 d   1      16.832  42.985  45.090  0.00  0.00    -0.630 OA
ATOM     27  OAE 2H9 d   1      18.171  42.783  43.003  0.00  0.00    -0.630 OA
BRANCH  25  28
ATOM     28  N   2H9 d   1      16.408  44.749  43.245  0.00  0.00    -0.311 N 
ATOM     29  H10 2H9 d   1      16.075  45.608  43.635  0.00  0.00     0.166 HD
BRANCH  28  30
ATOM     30  CA  2H9 d   1      15.979  44.215  41.901  0.00  0.00     0.100 C 
ATOM     31  H11 2H9 d   1      15.764  43.143  42.022  0.00  0.00     0.089 H 
BRANCH  30  32
ATOM     32  C   2H9 d   1      17.055  44.376  40.800  0.00  0.00     0.196 C 
ATOM     33  OXT 2H9 d   1      17.923  45.252  40.963  0.00  0.00    -0.646 OA
ATOM     34  O   2H9 d   1      16.921  43.601  39.805  0.00  0.00    -0.646 OA
ENDBRANCH  30  32
BRANCH  30  35
ATOM     35  CB  2H9 d   1      14.678  44.941  41.389  0.00  0.00    -0.028 C 
ATOM     36  H12 2H9 d   1      13.841  44.703  42.062  0.00  0.00     0.037 H 
ATOM     37  H13 2H9 d   1      14.443  44.591  40.373  0.00  0.00     0.037 H 
BRANCH  35  38
ATOM     38  CG  2H9 d   1      14.894  46.471  41.364  0.00  0.00     0.018 C 
ATOM     39  H14 2H9 d   1      15.836  46.679  40.836  0.00  0.00     0.049 H 
ATOM     40  H15 2H9 d   1      14.968  46.828  42.402  0.00  0.00     0.049 H 
BRANCH  38  41
ATOM     41  CD  2H9 d   1      13.756  47.253  40.659  0.00  0.00     0.172 C 
ATOM     42  OE2 2H9 d   1      13.703  48.493  40.880  0.00  0.00    -0.648 OA
ATOM     43  OE1 2H9 d   1      13.003  46.654  39.851  0.00  0.00    -0.648 OA
ENDBRANCH  38  41
ENDBRANCH  35  38
ENDBRANCH  30  35
ENDBRANCH  28  30
ENDBRANCH  25  28
ENDBRANCH  24  25
ENDBRANCH   1  24
TORSDOF 12
