REMARK  11 active torsions:
REMARK  status: ('A' for Active; 'I' for Inactive)
REMARK    1  A    between atoms: PG_1  and  C3B_5 
REMARK    2  A    between atoms: C3B_5  and  PB_6 
REMARK    3  A    between atoms: PB_6  and  O3A_9 
REMARK    4  A    between atoms: O3A_9  and  PA_10 
REMARK    5  A    between atoms: PA_10  and  O5'_13 
REMARK    6  A    between atoms: O5'_13  and  C5'_14 
REMARK    7  A    between atoms: C5'_14  and  C4'_15 
REMARK    8  A    between atoms: C3'_17  and  O3'_18 
REMARK    9  A    between atoms: C2'_19  and  O2'_20 
REMARK   10  A    between atoms: C1'_21  and  N9_22 
REMARK   11  A    between atoms: C2_29  and  N2_30 
ROOT
ATOM      1  C4' GCP d   1      26.505  -7.006   2.575  0.00  0.00     0.089 C 
ATOM      2  O4' GCP d   1      25.285  -6.821   3.283  0.00  0.00    -0.353 OA
ATOM      3  C3' GCP d   1      26.401  -8.371   1.986  0.00  0.00     0.091 C 
ATOM      4  C2' GCP d   1      24.908  -8.680   1.889  0.00  0.00     0.105 C 
ATOM      5  C1' GCP d   1      24.297  -7.793   2.951  0.00  0.00     0.139 C 
ATOM      6  H   GCP d   1      27.357  -6.980   3.271  0.00  0.00     0.090 H 
ATOM      7  H   GCP d   1      26.881  -8.422   0.997  0.00  0.00     0.091 H 
ATOM      8  H   GCP d   1      24.547  -8.386   0.892  0.00  0.00     0.093 H 
ATOM      9  H   GCP d   1      24.072  -8.385   3.851  0.00  0.00     0.122 H 
ENDROOT
BRANCH   1  10
ATOM     10  C5' GCP d   1      26.676  -5.890   1.584  0.00  0.00     0.058 C 
ATOM     11  H   GCP d   1      26.001  -5.069   1.869  0.00  0.00     0.079 H 
ATOM     12  H   GCP d   1      27.718  -5.542   1.633  0.00  0.00     0.079 H 
BRANCH  10  13
ATOM     13  O5' GCP d   1      26.387  -6.261   0.220  0.00  0.00    -0.287 OA
BRANCH  13  14
ATOM     14  PA  GCP d   1      27.243  -5.485  -0.895  0.00  0.00     0.416 P 
ATOM     15  O1A GCP d   1      26.516  -5.521  -2.216  0.00  0.00    -0.624 OA
ATOM     16  O2A GCP d   1      28.659  -5.936  -0.577  0.00  0.00    -0.624 OA
BRANCH  14  17
ATOM     17  O3A GCP d   1      27.186  -3.973  -0.396  0.00  0.00    -0.203 OA
BRANCH  17  18
ATOM     18  PB  GCP d   1      28.256  -2.936  -0.923  0.00  0.00     0.272 P 
ATOM     19  O1B GCP d   1      28.230  -3.011  -2.434  0.00  0.00    -0.646 OA
ATOM     20  O2B GCP d   1      27.830  -1.437  -0.444  0.00  0.00    -0.646 OA
BRANCH  18  21
ATOM     21  C3B GCP d   1      29.894  -3.394  -0.278  0.00  0.00     0.134 C 
ATOM     22  H   GCP d   1      29.850  -3.377   0.821  0.00  0.00     0.073 H 
ATOM     23  H   GCP d   1      30.128  -4.413  -0.620  0.00  0.00     0.073 H 
BRANCH  21  24
ATOM     24  PG  GCP d   1      31.262  -2.265  -0.825  0.00  0.00     0.271 P 
ATOM     25  O1G GCP d   1      31.386  -2.131  -2.432  0.00  0.00    -0.639 OA
ATOM     26  O2G GCP d   1      31.104  -0.904  -0.293  0.00  0.00    -0.639 OA
ATOM     27  O3G GCP d   1      32.654  -2.882  -0.326  0.00  0.00    -0.639 OA
ENDBRANCH  21  24
ENDBRANCH  18  21
ENDBRANCH  17  18
ENDBRANCH  14  17
ENDBRANCH  13  14
ENDBRANCH  10  13
ENDBRANCH   1  10
BRANCH   3  28
ATOM     28  O3' GCP d   1      27.019  -9.276   2.896  0.00  0.00    -0.390 OA
ATOM     29  H   GCP d   1      26.968 -10.158   2.547  0.00  0.00     0.210 HD
ENDBRANCH   3  28
BRANCH   5  30
ATOM     30  N9  GCP d   1      23.020  -7.245   2.425  0.00  0.00    -0.295 N 
ATOM     31  C8  GCP d   1      22.817  -6.564   1.301  0.00  0.00     0.071 A 
ATOM     32  N7  GCP d   1      21.511  -6.262   1.188  0.00  0.00    -0.234 NA
ATOM     33  H   GCP d   1      23.589  -6.293   0.583  0.00  0.00     0.144 H 
ATOM     34  C5  GCP d   1      20.849  -6.792   2.236  0.00  0.00     0.171 A 
ATOM     35  C6  GCP d   1      19.435  -6.893   2.738  0.00  0.00     0.292 A 
ATOM     36  C4  GCP d   1      21.873  -7.422   3.046  0.00  0.00     0.161 A 
ATOM     37  O6  GCP d   1      18.501  -6.353   2.076  0.00  0.00    -0.265 OA
ATOM     38  N1  GCP d   1      19.235  -7.548   3.912  0.00  0.00    -0.154 N 
ATOM     39  C2  GCP d   1      20.251  -8.099   4.589  0.00  0.00     0.680 A 
ATOM     40  H   GCP d   1      18.308  -7.620   4.279  0.00  0.00     0.187 HD
ATOM     41  N3  GCP d   1      21.518  -8.048   4.180  0.00  0.00    -0.174 N 
ATOM     42  H   GCP d   1      22.246  -8.502   4.750  0.00  0.00     0.186 HD
BRANCH  39  43
ATOM     43  N2  GCP d   1      20.076  -8.751   5.733  0.00  0.00    -0.234 N 
ATOM     44  H   GCP d   1      20.885  -9.160   6.222  0.00  0.00     0.174 HD
ATOM     45  H   GCP d   1      19.131  -8.848   6.131  0.00  0.00     0.174 HD
ENDBRANCH  39  43
ENDBRANCH   5  30
BRANCH   4  46
ATOM     46  O2' GCP d   1      24.515 -10.057   2.111  0.00  0.00    -0.388 OA
ATOM     47  H   GCP d   1      23.572 -10.133   2.027  0.00  0.00     0.210 HD
ENDBRANCH   4  46
TORSDOF 11
