REMARK  9 active torsions:
REMARK  status: ('A' for Active; 'I' for Inactive)
REMARK    1  A    between atoms: PB_1  and  O3A_5 
REMARK    2  A    between atoms: O3A_5  and  PA_6 
REMARK    3  A    between atoms: PA_6  and  O5'_9 
REMARK    4  A    between atoms: O5'_9  and  C5'_10 
REMARK    5  A    between atoms: C5'_10  and  C4'_11 
REMARK    6  A    between atoms: C3'_13  and  O3'_14 
REMARK    7  A    between atoms: C2'_15  and  O2'_16 
REMARK    8  A    between atoms: C1'_17  and  N9_18 
REMARK    9  A    between atoms: C2_25  and  N2_26 
ROOT
ATOM      1  C4' GDP d   1       8.684  14.006  90.932  0.00  0.00     0.089 C 
ATOM      2  O4' GDP d   1       7.452  13.702  91.600  0.00  0.00    -0.353 OA
ATOM      3  C3' GDP d   1       9.799  13.344  91.739  0.00  0.00     0.091 C 
ATOM      4  C2' GDP d   1       9.115  12.420  92.733  0.00  0.00     0.105 C 
ATOM      5  C1' GDP d   1       7.708  12.996  92.810  0.00  0.00     0.139 C 
ATOM      6  H   GDP d   1       8.841  15.095  90.931  0.00  0.00     0.090 H 
ATOM      7  H   GDP d   1      10.498  12.788  91.097  0.00  0.00     0.091 H 
ATOM      8  H   GDP d   1       9.103  11.387  92.356  0.00  0.00     0.093 H 
ATOM      9  H   GDP d   1       7.667  13.700  93.654  0.00  0.00     0.122 H 
ENDROOT
BRANCH   5  10
ATOM     10  N9  GDP d   1       6.665  11.970  93.019  0.00  0.00    -0.295 N 
ATOM     11  C8  GDP d   1       6.402  10.890  92.247  0.00  0.00     0.071 A 
ATOM     12  N7  GDP d   1       5.358  10.174  92.750  0.00  0.00    -0.234 NA
ATOM     13  H   GDP d   1       6.952  10.628  91.344  0.00  0.00     0.144 H 
ATOM     14  C5  GDP d   1       4.941  10.812  93.869  0.00  0.00     0.171 A 
ATOM     15  C6  GDP d   1       3.885  10.606  94.896  0.00  0.00     0.292 A 
ATOM     16  C4  GDP d   1       5.802  11.997  94.037  0.00  0.00     0.161 A 
ATOM     17  O6  GDP d   1       3.105   9.627  94.824  0.00  0.00    -0.265 OA
ATOM     18  N1  GDP d   1       3.790  11.502  95.897  0.00  0.00    -0.154 N 
ATOM     19  C2  GDP d   1       4.614  12.566  96.002  0.00  0.00     0.680 A 
ATOM     20  H   GDP d   1       3.081  11.374  96.590  0.00  0.00     0.187 HD
ATOM     21  N3  GDP d   1       5.599  12.825  95.098  0.00  0.00    -0.174 N 
ATOM     22  H   GDP d   1       6.196  13.655  95.218  0.00  0.00     0.186 HD
BRANCH  19  23
ATOM     23  N2  GDP d   1       4.450  13.413  97.043  0.00  0.00    -0.234 N 
ATOM     24  H   GDP d   1       5.067  14.232  97.143  0.00  0.00     0.174 HD
ATOM     25  H   GDP d   1       3.708  13.240  97.736  0.00  0.00     0.174 HD
ENDBRANCH  19  23
ENDBRANCH   5  10
BRANCH   4  26
ATOM     26  O2' GDP d   1       9.727  12.441  94.040  0.00  0.00    -0.388 OA
ATOM     27  H   GDP d   1       9.260  11.848  94.617  0.00  0.00     0.210 HD
ENDBRANCH   4  26
BRANCH   1  28
ATOM     28  C5' GDP d   1       8.643  13.526  89.482  0.00  0.00     0.058 C 
ATOM     29  H   GDP d   1       7.697  13.834  89.012  0.00  0.00     0.079 H 
ATOM     30  H   GDP d   1       9.488  13.953  88.921  0.00  0.00     0.079 H 
BRANCH  28  31
ATOM     31  O5' GDP d   1       8.739  12.098  89.496  0.00  0.00    -0.287 OA
BRANCH  31  32
ATOM     32  PA  GDP d   1       9.645  11.267  88.453  0.00  0.00     0.418 P 
ATOM     33  O1A GDP d   1      11.060  11.785  88.419  0.00  0.00    -0.624 OA
ATOM     34  O2A GDP d   1       9.399   9.798  88.687  0.00  0.00    -0.624 OA
BRANCH  32  35
ATOM     35  O3A GDP d   1       8.913  11.840  87.129  0.00  0.00    -0.173 OA
BRANCH  35  36
ATOM     36  PB  GDP d   1       9.235  11.480  85.598  0.00  0.00     0.431 P 
ATOM     37  O1B GDP d   1       7.829  11.300  85.065  0.00  0.00    -0.616 OA
ATOM     38  O2B GDP d   1      10.047  10.211  85.573  0.00  0.00    -0.616 OA
ATOM     39  O3B GDP d   1       9.937  12.718  85.115  0.00  0.00    -0.616 OA
ENDBRANCH  35  36
ENDBRANCH  32  35
ENDBRANCH  31  32
ENDBRANCH  28  31
ENDBRANCH   1  28
BRANCH   3  40
ATOM     40  O3' GDP d   1      10.459  14.398  92.427  0.00  0.00    -0.390 OA
ATOM     41  H   GDP d   1      11.167  14.039  92.949  0.00  0.00     0.210 HD
ENDBRANCH   3  40
TORSDOF 9
