REMARK  7 active torsions:
REMARK  status: ('A' for Active; 'I' for Inactive)
REMARK    1  A    between atoms: C10_10  and  C11_11 
REMARK    2  A    between atoms: N4_19  and  C16_20 
REMARK    3  A    between atoms: C17_22  and  O2_23 
REMARK    4  A    between atoms: C18_24  and  O3_25 
REMARK    5  A    between atoms: C19_26  and  C20_27 
REMARK    6  A    between atoms: C20_27  and  O4_28 
REMARK    7  A    between atoms: O4_28  and  P1_29 
ROOT
ATOM      1  C11 N6P d   1     -37.520  13.954  24.197  0.00  0.00     0.101 A 
ATOM      2  N1  N6P d   1     -36.912  15.160  24.068  0.00  0.00    -0.239 NA
ATOM      3  C12 N6P d   1     -36.068  15.430  23.086  0.00  0.00     0.089 A 
ATOM      4  N2  N6P d   1     -35.736  14.544  22.139  0.00  0.00    -0.222 NA
ATOM      5  C13 N6P d   1     -36.280  13.313  22.214  0.00  0.00     0.165 A 
ATOM      6  C14 N6P d   1     -37.206  12.964  23.221  0.00  0.00     0.134 A 
ATOM      7  N3  N6P d   1     -37.588  11.676  22.994  0.00  0.00    -0.237 NA
ATOM      8  C15 N6P d   1     -36.921  11.273  21.884  0.00  0.00     0.070 A 
ATOM      9  N4  N6P d   1     -36.124  12.240  21.375  0.00  0.00    -0.294 N 
ATOM     10  H   N6P d   1     -35.623  16.418  23.046  0.00  0.00     0.146 H 
ATOM     11  H   N6P d   1     -37.017  10.279  21.450  0.00  0.00     0.144 H 
ENDROOT
BRANCH   9  12
ATOM     12  C16 N6P d   1     -35.187  12.195  20.316  0.00  0.00     0.139 C 
ATOM     13  O1  N6P d   1     -35.276  10.733  19.728  0.00  0.00    -0.353 OA
ATOM     14  C19 N6P d   1     -34.251   9.922  20.129  0.00  0.00     0.089 C 
ATOM     15  C18 N6P d   1     -33.161  10.820  20.763  0.00  0.00     0.091 C 
ATOM     16  H   N6P d   1     -33.843   9.382  19.262  0.00  0.00     0.090 H 
ATOM     17  C17 N6P d   1     -33.910  12.208  20.853  0.00  0.00     0.105 C 
ATOM     18  H   N6P d   1     -32.950  10.472  21.785  0.00  0.00     0.091 H 
ATOM     19  H   N6P d   1     -34.020  12.469  21.916  0.00  0.00     0.093 H 
ATOM     20  H   N6P d   1     -35.354  12.987  19.571  0.00  0.00     0.122 H 
BRANCH  14  21
ATOM     21  C20 N6P d   1     -34.722   8.923  21.176  0.00  0.00     0.059 C 
ATOM     22  H   N6P d   1     -35.055   9.454  22.080  0.00  0.00     0.079 H 
ATOM     23  H   N6P d   1     -33.904   8.235  21.435  0.00  0.00     0.079 H 
BRANCH  21  24
ATOM     24  O4  N6P d   1     -35.834   8.179  20.597  0.00  0.00    -0.280 OA
BRANCH  24  25
ATOM     25  P1  N6P d   1     -36.660   7.144  21.481  0.00  0.00     0.422 P 
ATOM     26  O5  N6P d   1     -37.618   6.540  20.478  0.00  0.00    -0.617 OA
ATOM     27  O6  N6P d   1     -35.678   6.118  22.016  0.00  0.00    -0.617 OA
ATOM     28  O7  N6P d   1     -37.325   7.885  22.616  0.00  0.00    -0.617 OA
ENDBRANCH  24  25
ENDBRANCH  21  24
ENDBRANCH  14  21
BRANCH  15  29
ATOM     29  O3  N6P d   1     -31.946  10.777  20.078  0.00  0.00    -0.390 OA
ATOM     30  H   N6P d   1     -32.082  11.045  19.177  0.00  0.00     0.210 HD
ENDBRANCH  15  29
BRANCH  17  31
ATOM     31  O2  N6P d   1     -33.002  13.198  20.227  0.00  0.00    -0.388 OA
ATOM     32  H   N6P d   1     -32.915  13.005  19.301  0.00  0.00     0.210 HD
ENDBRANCH  17  31
ENDBRANCH   9  12
BRANCH   1  33
ATOM     33  C10 N6P d   1     -38.450  13.698  25.358  0.00  0.00    -0.004 A 
ATOM     34  C1  N6P d   1     -39.106  14.753  25.964  0.00  0.00    -0.060 A 
ATOM     35  C2  N6P d   1     -39.947  14.500  27.041  0.00  0.00    -0.025 A 
ATOM     36  H   N6P d   1     -38.966  15.766  25.603  0.00  0.00     0.086 H 
ATOM     37  C3  N6P d   1     -40.662  15.558  27.615  0.00  0.00    -0.072 A 
ATOM     38  C7  N6P d   1     -40.075  13.208  27.550  0.00  0.00    -0.026 A 
ATOM     39  C4  N6P d   1     -41.493  15.319  28.704  0.00  0.00    -0.082 A 
ATOM     40  H   N6P d   1     -40.568  16.560  27.212  0.00  0.00     0.084 H 
ATOM     41  C5  N6P d   1     -41.623  14.030  29.217  0.00  0.00    -0.082 A 
ATOM     42  H   N6P d   1     -42.041  16.138  29.155  0.00  0.00     0.083 H 
ATOM     43  C6  N6P d   1     -40.914  12.974  28.644  0.00  0.00    -0.072 A 
ATOM     44  H   N6P d   1     -42.276  13.848  30.063  0.00  0.00     0.083 H 
ATOM     45  H   N6P d   1     -41.013  11.973  29.047  0.00  0.00     0.084 H 
ATOM     46  C8  N6P d   1     -39.377  12.149  26.976  0.00  0.00    -0.071 A 
ATOM     47  C9  N6P d   1     -38.556  12.396  25.890  0.00  0.00    -0.070 A 
ATOM     48  H   N6P d   1     -39.475  11.146  27.374  0.00  0.00     0.084 H 
ATOM     49  H   N6P d   1     -37.991  11.585  25.446  0.00  0.00     0.084 H 
ENDBRANCH   1  33
TORSDOF 7
