REMARK  4 active torsions:
REMARK  status: ('A' for Active; 'I' for Inactive)
REMARK    1  A    between atoms: C13_7  and  C9_16 
REMARK       I    between atoms: N27_27  and  C13_7 
REMARK    2  A    between atoms: C22_12  and  N27_27 
REMARK    3  A    between atoms: N26_26  and  C12_18 
REMARK       I    between atoms: N24_24  and  C14_19 
REMARK       I    between atoms: C14_19  and  N26_26 
REMARK    4  A    between atoms: N25_25  and  C23_23 
ROOT
ATOM      1  C6  2FC d   1      20.619  30.860  14.181  0.00  0.00    -0.074 A 
ATOM      2  C7  2FC d   1      21.493  30.052  14.870  0.00  0.00    -0.057 A 
ATOM      3  C8  2FC d   1      23.289  31.445  14.165  0.00  0.00    -0.049 A 
ATOM      4  C10 2FC d   1      21.064  31.963  13.491  0.00  0.00    -0.050 A 
ATOM      5  C15 2FC d   1      20.066  32.798  12.780  0.00  0.00    -0.040 C 
ATOM      6  C17 2FC d   1      21.948  33.972  11.794  0.00  0.00    -0.042 C 
ATOM      7  C22 2FC d   1      22.965  33.428  12.761  0.00  0.00     0.038 C 
ATOM      8  C11 2FC d   1      22.413  32.256  13.483  0.00  0.00    -0.027 A 
ATOM      9  C12 2FC d   1      22.833  30.349  14.858  0.00  0.00     0.036 A 
ATOM     10  C16 2FC d   1      20.625  34.158  12.482  0.00  0.00    -0.059 C 
ATOM     11  H   2FC d   1      19.561  30.623  14.182  0.00  0.00     0.084 H 
ATOM     12  H   2FC d   1      21.128  29.190  15.416  0.00  0.00     0.086 H 
ATOM     13  H   2FC d   1      24.349  31.672  14.156  0.00  0.00     0.087 H 
ATOM     14  H   2FC d   1      19.171  32.906  13.411  0.00  0.00     0.040 H 
ATOM     15  H   2FC d   1      19.791  32.306  11.835  0.00  0.00     0.040 H 
ATOM     16  H   2FC d   1      21.827  33.267  10.959  0.00  0.00     0.036 H 
ATOM     17  H   2FC d   1      22.296  34.941  11.408  0.00  0.00     0.036 H 
ATOM     18  H   2FC d   1      23.846  33.096  12.192  0.00  0.00     0.080 H 
ATOM     19  H   2FC d   1      20.766  34.718  13.418  0.00  0.00     0.033 H 
ATOM     20  H   2FC d   1      19.936  34.710  11.825  0.00  0.00     0.033 H 
ENDROOT
BRANCH   9  21
ATOM     21  N26 2FC d   1      23.746  29.544  15.547  0.00  0.00    -0.309 N 
ATOM     22  C14 2FC d   1      23.465  29.049  16.806  0.00  0.00     0.323 C 
ATOM     23  N24 2FC d   1      24.574  28.497  17.409  0.00  0.00    -0.331 N 
ATOM     24  O29 2FC d   1      22.367  29.062  17.353  0.00  0.00    -0.247 OA
ATOM     25  C18 2FC d   1      25.741  28.122  16.654  0.00  0.00     0.022 C 
ATOM     26  C19 2FC d   1      24.682  28.496  18.856  0.00  0.00     0.022 C 
ATOM     27  C20 2FC d   1      26.408  26.927  17.295  0.00  0.00     0.098 C 
ATOM     28  H   2FC d   1      25.443  27.866  15.627  0.00  0.00     0.067 H 
ATOM     29  H   2FC d   1      26.447  28.965  16.632  0.00  0.00     0.067 H 
ATOM     30  N25 2FC d   1      26.662  27.185  18.700  0.00  0.00    -0.072 N 
ATOM     31  H   2FC d   1      27.362  26.727  16.785  0.00  0.00     0.078 H 
ATOM     32  H   2FC d   1      25.750  26.050  17.200  0.00  0.00     0.078 H 
ATOM     33  C21 2FC d   1      25.360  27.229  19.335  0.00  0.00     0.098 C 
ATOM     34  H   2FC d   1      27.170  28.046  18.830  0.00  0.00     0.279 HD
ATOM     35  H   2FC d   1      24.767  26.349  19.044  0.00  0.00     0.078 H 
ATOM     36  H   2FC d   1      25.473  27.250  20.429  0.00  0.00     0.078 H 
ATOM     37  H   2FC d   1      25.274  29.366  19.176  0.00  0.00     0.067 H 
ATOM     38  H   2FC d   1      23.675  28.556  19.294  0.00  0.00     0.067 H 
ATOM     39  H   2FC d   1      24.622  29.322  15.119  0.00  0.00     0.170 HD
BRANCH  30  40
ATOM     40  C23 2FC d   1      27.388  26.056  19.271  0.00  0.00     0.066 C 
ATOM     41  H   2FC d   1      28.385  25.991  18.811  0.00  0.00     0.068 H 
ATOM     42  H   2FC d   1      26.833  25.127  19.076  0.00  0.00     0.068 H 
ATOM     43  H   2FC d   1      27.494  26.199  20.357  0.00  0.00     0.068 H 
ENDBRANCH  30  40
ENDBRANCH   9  21
BRANCH   7  44
ATOM     44  N27 2FC d   1      23.379  34.467  13.666  0.00  0.00    -0.348 N 
ATOM     45  C13 2FC d   1      24.468  35.181  13.272  0.00  0.00     0.252 C 
ATOM     46  O28 2FC d   1      25.040  35.025  12.194  0.00  0.00    -0.268 OA
ATOM     47  H   2FC d   1      22.900  34.651  14.524  0.00  0.00     0.163 HD
BRANCH  45  48
ATOM     48  C9  2FC d   1      24.948  36.176  14.235  0.00  0.00     0.032 A 
ATOM     49  C4  2FC d   1      25.422  37.376  13.772  0.00  0.00    -0.068 A 
ATOM     50  C2  2FC d   1      25.882  38.323  14.654  0.00  0.00    -0.082 A 
ATOM     51  H   2FC d   1      25.434  37.578  12.707  0.00  0.00     0.085 H 
ATOM     52  C1  2FC d   1      25.872  38.063  16.004  0.00  0.00    -0.083 A 
ATOM     53  H   2FC d   1      26.252  39.273  14.287  0.00  0.00     0.083 H 
ATOM     54  C3  2FC d   1      25.389  36.857  16.454  0.00  0.00    -0.082 A 
ATOM     55  H   2FC d   1      26.241  38.801  16.706  0.00  0.00     0.083 H 
ATOM     56  C5  2FC d   1      24.928  35.908  15.574  0.00  0.00    -0.068 A 
ATOM     57  H   2FC d   1      25.372  36.652  17.518  0.00  0.00     0.083 H 
ATOM     58  H   2FC d   1      24.553  34.958  15.938  0.00  0.00     0.085 H 
ENDBRANCH  45  48
ENDBRANCH   7  44
TORSDOF 4
