REMARK  7 active torsions:
REMARK  status: ('A' for Active; 'I' for Inactive)
REMARK    1  A    between atoms: C13_13  and  C8_8 
REMARK    2  A    between atoms: C10_10  and  N26_26 
REMARK       I    between atoms: N28_28  and  C13_13 
REMARK       I    between atoms: C14_14  and  N29_29 
REMARK    3  A    between atoms: O34_34  and  C14_14 
REMARK    4  A    between atoms: C22_22  and  N28_28 
REMARK    5  A    between atoms: N27_27  and  C23_23 
REMARK    6  A    between atoms: C24_24  and  O34_34 
REMARK    7  A    between atoms: N29_29  and  C25_25 
ROOT
ATOM      1  C7  2FZ d   1      30.191 -21.103  16.750  0.00  0.00    -0.046 A 
ATOM      2  C4  2FZ d   1      30.015 -23.779  17.574  0.00  0.00    -0.048 A 
ATOM      3  C3  2FZ d   1      31.265 -23.218  17.341  0.00  0.00    -0.055 A 
ATOM      4  C9  2FZ d   1      28.915 -21.661  16.994  0.00  0.00     0.003 A 
ATOM      5  C10 2FZ d   1      31.348 -21.875  16.953  0.00  0.00     0.030 A 
ATOM      6  C11 2FZ d   1      28.843 -23.015  17.372  0.00  0.00     0.077 A 
ATOM      7  C21 2FZ d   1      26.535 -23.069  16.891  0.00  0.00     0.053 C 
ATOM      8  C22 2FZ d   1      27.656 -20.849  16.788  0.00  0.00     0.068 C 
ATOM      9  C24 2FZ d   1      26.372 -21.603  17.215  0.00  0.00     0.094 C 
ATOM     10  O32 2FZ d   1      27.647 -23.643  17.627  0.00  0.00    -0.348 OA
ATOM     11  H   2FZ d   1      30.277 -20.079  16.406  0.00  0.00     0.088 H 
ATOM     12  H   2FZ d   1      29.939 -24.806  17.912  0.00  0.00     0.087 H 
ATOM     13  H   2FZ d   1      32.164 -23.812  17.458  0.00  0.00     0.087 H 
ATOM     14  H   2FZ d   1      26.721 -23.181  15.813  0.00  0.00     0.079 H 
ATOM     15  H   2FZ d   1      25.611 -23.602  17.161  0.00  0.00     0.079 H 
ATOM     16  H   2FZ d   1      27.590 -20.652  15.708  0.00  0.00     0.084 H 
ATOM     17  H   2FZ d   1      26.147 -21.452  18.281  0.00  0.00     0.091 H 
ENDROOT
BRANCH   5  18
ATOM     18  N26 2FZ d   1      32.630 -21.346  16.705  0.00  0.00    -0.378 N 
ATOM     19  C15 2FZ d   1      32.755 -20.104  15.958  0.00  0.00     0.018 C 
ATOM     20  C17 2FZ d   1      34.197 -19.917  15.497  0.00  0.00     0.099 C 
ATOM     21  H   2FZ d   1      32.093 -20.139  15.080  0.00  0.00     0.066 H 
ATOM     22  H   2FZ d   1      32.466 -19.261  16.602  0.00  0.00     0.066 H 
ATOM     23  N27 2FZ d   1      35.178 -20.042  16.591  0.00  0.00    -0.060 N 
ATOM     24  H   2FZ d   1      34.295 -18.916  15.053  0.00  0.00     0.078 H 
ATOM     25  H   2FZ d   1      34.422 -20.679  14.737  0.00  0.00     0.078 H 
ATOM     26  C18 2FZ d   1      35.037 -21.364  17.235  0.00  0.00     0.099 C 
ATOM     27  H   2FZ d   1      35.028 -19.316  17.274  0.00  0.00     0.280 HD
ATOM     28  C16 2FZ d   1      33.613 -21.529  17.785  0.00  0.00     0.018 C 
ATOM     29  H   2FZ d   1      35.236 -22.153  16.495  0.00  0.00     0.078 H 
ATOM     30  H   2FZ d   1      35.759 -21.446  18.061  0.00  0.00     0.078 H 
ATOM     31  H   2FZ d   1      33.436 -20.778  18.569  0.00  0.00     0.066 H 
ATOM     32  H   2FZ d   1      33.502 -22.537  18.211  0.00  0.00     0.066 H 
BRANCH  23  33
ATOM     33  C23 2FZ d   1      36.529 -19.909  15.999  0.00  0.00     0.144 A 
ATOM     34  C19 2FZ d   1      37.580 -19.732  17.106  0.00  0.00     0.048 A 
ATOM     35  O33 2FZ d   1      37.883 -18.385  16.657  0.00  0.00    -0.387 OA
ATOM     36  H   2FZ d   1      38.429 -20.427  17.026  0.00  0.00     0.077 H 
ATOM     37  H   2FZ d   1      37.164 -19.777  18.123  0.00  0.00     0.077 H 
ATOM     38  C20 2FZ d   1      36.852 -18.459  15.621  0.00  0.00     0.048 A 
ATOM     39  H   2FZ d   1      36.015 -17.762  15.777  0.00  0.00     0.077 H 
ATOM     40  H   2FZ d   1      37.241 -18.343  14.599  0.00  0.00     0.077 H 
ATOM     41  H   2FZ d   1      36.724 -20.677  15.236  0.00  0.00     0.091 H 
ENDBRANCH  23  33
ENDBRANCH   5  18
BRANCH   8  42
ATOM     42  N28 2FZ d   1      27.630 -19.564  17.468  0.00  0.00    -0.345 N 
ATOM     43  C13 2FZ d   1      27.441 -18.413  16.753  0.00  0.00     0.252 C 
ATOM     44  O30 2FZ d   1      27.378 -18.390  15.528  0.00  0.00    -0.268 OA
ATOM     45  H   2FZ d   1      27.750 -19.521  18.460  0.00  0.00     0.163 HD
BRANCH  43  46
ATOM     46  C8  2FZ d   1      27.300 -17.170  17.590  0.00  0.00     0.032 A 
ATOM     47  C1  2FZ d   1      26.505 -16.129  17.123  0.00  0.00    -0.065 A 
ATOM     48  C5  2FZ d   1      26.340 -14.974  17.923  0.00  0.00    -0.045 A 
ATOM     49  H   2FZ d   1      26.018 -16.202  16.157  0.00  0.00     0.085 H 
ATOM     50  C12 2FZ d   1      26.951 -14.900  19.175  0.00  0.00     0.116 A 
ATOM     51  H   2FZ d   1      25.739 -14.147  17.563  0.00  0.00     0.088 H 
ATOM     52  C6  2FZ d   1      27.701 -15.961  19.657  0.00  0.00    -0.045 A 
ATOM     53  F35 2FZ d   1      26.778 -13.813  19.948  0.00  0.00    -0.206 F 
ATOM     54  C2  2FZ d   1      27.878 -17.095  18.866  0.00  0.00    -0.065 A 
ATOM     55  H   2FZ d   1      28.147 -15.909  20.643  0.00  0.00     0.088 H 
ATOM     56  H   2FZ d   1      28.467 -17.925  19.240  0.00  0.00     0.085 H 
ENDBRANCH  43  46
ENDBRANCH   8  42
BRANCH   9  57
ATOM     57  O34 2FZ d   1      25.334 -21.092  16.369  0.00  0.00    -0.294 OA
BRANCH  57  58
ATOM     58  C14 2FZ d   1      24.497 -20.180  16.969  0.00  0.00     0.360 C 
ATOM     59  N29 2FZ d   1      23.589 -19.718  16.051  0.00  0.00    -0.341 N 
ATOM     60  H   2FZ d   1      23.648 -20.021  15.100  0.00  0.00     0.164 HD
ATOM     61  O31 2FZ d   1      24.526 -19.869  18.157  0.00  0.00    -0.239 OA
BRANCH  59  62
ATOM     62  C25 2FZ d   1      22.549 -18.798  16.445  0.00  0.00    -0.016 C 
ATOM     63  H   2FZ d   1      21.929 -18.549  15.571  0.00  0.00     0.056 H 
ATOM     64  H   2FZ d   1      23.004 -17.880  16.845  0.00  0.00     0.056 H 
ATOM     65  H   2FZ d   1      21.921 -19.264  17.219  0.00  0.00     0.056 H 
ENDBRANCH  59  62
ENDBRANCH  57  58
ENDBRANCH   9  57
TORSDOF 7
