REMARK  5 active torsions:
REMARK  status: ('A' for Active; 'I' for Inactive)
REMARK    1  A    between atoms: C2_3  and  N1_2 
REMARK       I    between atoms: N1_2  and  C7_13 
REMARK       I    between atoms: C7_13  and  N2_4 
REMARK    2  A    between atoms: N2_4  and  C8_14 
REMARK    3  A    between atoms: S1_20  and  C4_6 
REMARK    4  A    between atoms: N4_7  and  S1_20 
REMARK    5  A    between atoms: N5_23  and  C15_26 
ROOT
ATOM      1  O1  GAX d   1      47.931  24.136  25.654  0.00  0.00    -0.200 OA
ATOM      2  O2  GAX d   1      46.044  24.793  27.105  0.00  0.00    -0.200 OA
ATOM      3  S1  GAX d   1      46.670  24.790  25.820  0.00  0.00     0.261 S 
ENDROOT
BRANCH   3   4
ATOM      4  C4  GAX d   1      45.533  24.095  24.669  0.00  0.00     0.081 A 
ATOM      5  C5  GAX d   1      44.173  24.113  24.946  0.00  0.00    -0.060 A 
ATOM      6  C6  GAX d   1      43.286  23.619  24.001  0.00  0.00    -0.079 A 
ATOM      7  H   GAX d   1      43.809  24.508  25.888  0.00  0.00     0.085 H 
ATOM      8  C1  GAX d   1      43.749  23.111  22.797  0.00  0.00    -0.057 A 
ATOM      9  H   GAX d   1      42.221  23.630  24.206  0.00  0.00     0.083 H 
ATOM     10  C2  GAX d   1      45.117  23.095  22.527  0.00  0.00     0.037 A 
ATOM     11  H   GAX d   1      43.048  22.726  22.066  0.00  0.00     0.086 H 
ATOM     12  C3  GAX d   1      46.010  23.581  23.473  0.00  0.00    -0.035 A 
ATOM     13  H   GAX d   1      47.076  23.559  23.277  0.00  0.00     0.089 H 
BRANCH  10  14
ATOM     14  N1  GAX d   1      45.662  22.629  21.304  0.00  0.00    -0.309 N 
ATOM     15  C7  GAX d   1      45.028  22.525  20.091  0.00  0.00     0.326 C 
ATOM     16  N2  GAX d   1      45.849  22.160  19.036  0.00  0.00    -0.287 N 
ATOM     17  O3  GAX d   1      43.829  22.738  19.920  0.00  0.00    -0.247 OA
ATOM     18  H   GAX d   1      46.834  22.129  19.205  0.00  0.00     0.172 HD
ATOM     19  H   GAX d   1      46.620  22.343  21.328  0.00  0.00     0.170 HD
BRANCH  16  20
ATOM     20  C8  GAX d   1      45.407  21.836  17.770  0.00  0.00     0.174 A 
ATOM     21  N3  GAX d   1      46.221  21.345  16.876  0.00  0.00    -0.236 NA
ATOM     22  C10 GAX d   1      45.533  21.106  15.705  0.00  0.00     0.011 A 
ATOM     23  C9  GAX d   1      44.221  21.407  15.711  0.00  0.00    -0.025 A 
ATOM     24  H   GAX d   1      46.024  20.696  14.824  0.00  0.00     0.115 H 
ATOM     25  S2  GAX d   1      43.764  22.035  17.246  0.00  0.00    -0.062 SA
ATOM     26  H   GAX d   1      43.547  21.273  14.867  0.00  0.00     0.097 H 
ENDBRANCH  16  20
ENDBRANCH  10  14
ENDBRANCH   3   4
BRANCH   3  27
ATOM     27  N4  GAX d   1      46.900  26.369  25.399  0.00  0.00    -0.304 N 
ATOM     28  C14 GAX d   1      47.854  26.637  24.300  0.00  0.00     0.020 C 
ATOM     29  C13 GAX d   1      48.267  28.103  24.328  0.00  0.00     0.012 C 
ATOM     30  H   GAX d   1      47.375  26.410  23.336  0.00  0.00     0.067 H 
ATOM     31  H   GAX d   1      48.744  26.003  24.425  0.00  0.00     0.067 H 
ATOM     32  N5  GAX d   1      47.086  28.967  24.241  0.00  0.00    -0.363 N 
ATOM     33  H   GAX d   1      48.931  28.309  23.475  0.00  0.00     0.066 H 
ATOM     34  H   GAX d   1      48.801  28.312  25.267  0.00  0.00     0.066 H 
ATOM     35  C12 GAX d   1      46.163  28.718  25.353  0.00  0.00     0.012 C 
ATOM     36  C11 GAX d   1      45.716  27.258  25.364  0.00  0.00     0.020 C 
ATOM     37  H   GAX d   1      45.281  29.365  25.242  0.00  0.00     0.066 H 
ATOM     38  H   GAX d   1      46.670  28.948  26.302  0.00  0.00     0.066 H 
ATOM     39  H   GAX d   1      45.095  27.073  26.253  0.00  0.00     0.067 H 
ATOM     40  H   GAX d   1      45.130  27.049  24.457  0.00  0.00     0.067 H 
BRANCH  32  41
ATOM     41  C15 GAX d   1      46.945  29.988  23.298  0.00  0.00     0.125 A 
ATOM     42  N6  GAX d   1      47.935  30.094  22.388  0.00  0.00    -0.244 NA
ATOM     43  C16 GAX d   1      47.819  31.057  21.454  0.00  0.00     0.004 A 
ATOM     44  C17 GAX d   1      46.750  31.929  21.377  0.00  0.00    -0.066 A 
ATOM     45  H   GAX d   1      48.611  31.154  20.720  0.00  0.00     0.114 H 
ATOM     46  C18 GAX d   1      45.747  31.811  22.311  0.00  0.00    -0.078 A 
ATOM     47  H   GAX d   1      46.703  32.685  20.602  0.00  0.00     0.085 H 
ATOM     48  C19 GAX d   1      45.824  30.840  23.300  0.00  0.00    -0.039 A 
ATOM     49  H   GAX d   1      44.894  32.478  22.275  0.00  0.00     0.083 H 
ATOM     50  H   GAX d   1      45.047  30.741  24.049  0.00  0.00     0.089 H 
ENDBRANCH  32  41
ENDBRANCH   3  27
TORSDOF 5
