REMARK  6 active torsions:
REMARK  status: ('A' for Active; 'I' for Inactive)
REMARK    1  A    between atoms: C1_1  and  C_24 
REMARK    2  A    between atoms: C7_4  and  C8_5 
REMARK    3  A    between atoms: O_20  and  C7_4 
REMARK    4  A    between atoms: C9_6  and  C11_8 
REMARK       I    between atoms: C11_8  and  N1_16 
REMARK    5  A    between atoms: N1_16  and  C12_9 
REMARK    6  A    between atoms: O_20  and  C4_21 
ROOT
ATOM      1  C8  2U9 d   1      44.438  23.012  22.217  0.00  0.00     0.100 A 
ATOM      2  C9  2U9 d   1      44.484  23.918  24.222  0.00  0.00     0.131 A 
ATOM      3  C10 2U9 d   1      43.158  23.630  24.170  0.00  0.00    -0.010 A 
ATOM      4  N   2U9 d   1      45.215  23.562  23.103  0.00  0.00    -0.238 NA
ATOM      5  S   2U9 d   1      42.774  22.884  22.669  0.00  0.00    -0.082 SA
ATOM      6  H   2U9 d   1      42.442  23.841  24.963  0.00  0.00     0.099 H 
ENDROOT
BRANCH   1   7
ATOM      7  C7  2U9 d   1      44.892  22.505  20.878  0.00  0.00     0.072 C 
ATOM      8  H   2U9 d   1      45.219  21.459  20.967  0.00  0.00     0.085 H 
ATOM      9  H   2U9 d   1      45.727  23.120  20.510  0.00  0.00     0.085 H 
BRANCH   7  10
ATOM     10  O   2U9 d   1      43.771  22.594  19.956  0.00  0.00    -0.345 OA
BRANCH  10  11
ATOM     11  C4  2U9 d   1      43.940  22.271  18.618  0.00  0.00     0.069 A 
ATOM     12  C3  2U9 d   1      42.825  22.269  17.795  0.00  0.00    -0.050 A 
ATOM     13  C2  2U9 d   1      42.965  21.948  16.455  0.00  0.00    -0.075 A 
ATOM     14  H   2U9 d   1      41.849  22.517  18.198  0.00  0.00     0.087 H 
ATOM     15  C1  2U9 d   1      44.205  21.631  15.905  0.00  0.00    -0.062 A 
ATOM     16  H   2U9 d   1      42.088  21.943  15.818  0.00  0.00     0.084 H 
ATOM     17  C6  2U9 d   1      45.307  21.641  16.742  0.00  0.00    -0.075 A 
ATOM     18  C5  2U9 d   1      45.190  21.954  18.084  0.00  0.00    -0.050 A 
ATOM     19  H   2U9 d   1      46.283  21.398  16.337  0.00  0.00     0.084 H 
ATOM     20  H   2U9 d   1      46.068  21.953  18.720  0.00  0.00     0.087 H 
BRANCH  15  21
ATOM     21  C   2U9 d   1      44.345  21.286  14.443  0.00  0.00    -0.051 C 
ATOM     22  H   2U9 d   1      43.359  21.335  13.959  0.00  0.00     0.033 H 
ATOM     23  H   2U9 d   1      44.752  20.269  14.344  0.00  0.00     0.033 H 
ATOM     24  H   2U9 d   1      45.027  22.002  13.961  0.00  0.00     0.033 H 
ENDBRANCH  15  21
ENDBRANCH  10  11
ENDBRANCH   7  10
ENDBRANCH   1   7
BRANCH   2  25
ATOM     25  C11 2U9 d   1      45.139  24.567  25.389  0.00  0.00     0.271 C 
ATOM     26  N1  2U9 d   1      46.462  24.781  25.278  0.00  0.00    -0.350 N 
ATOM     27  H   2U9 d   1      46.918  24.496  24.435  0.00  0.00     0.163 HD
ATOM     28  O1  2U9 d   1      44.484  24.882  26.384  0.00  0.00    -0.266 OA
BRANCH  26  29
ATOM     29  C12 2U9 d   1      47.166  25.327  26.188  0.00  0.00     0.026 C 
ATOM     30  C13 2U9 d   1      47.007  24.664  27.589  0.00  0.00    -0.033 C 
ATOM     31  C14 2U9 d   1      48.183  24.919  28.519  0.00  0.00     0.030 C 
ATOM     32  H   2U9 d   1      46.902  23.578  27.450  0.00  0.00     0.037 H 
ATOM     33  H   2U9 d   1      46.097  25.063  28.061  0.00  0.00     0.037 H 
ATOM     34  S1  2U9 d   1      49.469  25.516  27.449  0.00  0.00     0.146 S 
ATOM     35  H   2U9 d   1      48.493  23.989  29.019  0.00  0.00     0.056 H 
ATOM     36  H   2U9 d   1      47.924  25.674  29.276  0.00  0.00     0.056 H 
ATOM     37  C15 2U9 d   1      48.653  25.125  25.908  0.00  0.00     0.047 C 
ATOM     38  O3  2U9 d   1      50.667  24.733  27.598  0.00  0.00    -0.228 OA
ATOM     39  O2  2U9 d   1      49.577  26.943  27.588  0.00  0.00    -0.228 OA
ATOM     40  H   2U9 d   1      48.992  25.801  25.109  0.00  0.00     0.059 H 
ATOM     41  H   2U9 d   1      48.854  24.083  25.617  0.00  0.00     0.059 H 
ATOM     42  H   2U9 d   1      46.913  26.396  26.238  0.00  0.00     0.073 H 
ENDBRANCH  26  29
ENDBRANCH   2  25
TORSDOF 6
