REMARK  5 active torsions:
REMARK  status: ('A' for Active; 'I' for Inactive)
REMARK    1  A    between atoms: C8_1  and  C7_6 
REMARK    2  A    between atoms: C7_6  and  N6_25 
REMARK    3  A    between atoms: C14_12  and  C11_9 
REMARK    4  A    between atoms: N23_28  and  C21_17 
REMARK    5  A    between atoms: C24_18  and  C26_19 
REMARK       I    between atoms: C24_18  and  N23_28 
ROOT
ATOM      1  C8  2HB d   1       0.418  47.429   7.540  0.00  0.00    -0.033 A 
ATOM      2  C9  2HB d   1       1.043  46.649   8.519  0.00  0.00    -0.074 A 
ATOM      3  C10 2HB d   1       2.301  46.085   8.282  0.00  0.00    -0.070 A 
ATOM      4  C11 2HB d   1       2.955  46.268   7.057  0.00  0.00    -0.007 A 
ATOM      5  C12 2HB d   1       2.302  47.004   6.060  0.00  0.00    -0.070 A 
ATOM      6  C13 2HB d   1       1.070  47.616   6.316  0.00  0.00    -0.074 A 
ATOM      7  H   2HB d   1       0.548  46.480   9.469  0.00  0.00     0.084 H 
ATOM      8  H   2HB d   1       2.777  45.497   9.059  0.00  0.00     0.084 H 
ATOM      9  H   2HB d   1       2.756  47.100   5.080  0.00  0.00     0.084 H 
ATOM     10  H   2HB d   1       0.615  48.242   5.557  0.00  0.00     0.084 H 
ENDROOT
BRANCH   4  11
ATOM     11  C14 2HB d   1       4.236  45.729   6.863  0.00  0.00     0.071 A 
ATOM     12  C15 2HB d   1       5.205  45.847   7.876  0.00  0.00    -0.054 A 
ATOM     13  C16 2HB d   1       6.474  45.266   7.745  0.00  0.00    -0.077 A 
ATOM     14  H   2HB d   1       4.965  46.399   8.777  0.00  0.00     0.087 H 
ATOM     15  C17 2HB d   1       6.784  44.556   6.583  0.00  0.00    -0.038 A 
ATOM     16  H   2HB d   1       7.207  45.367   8.537  0.00  0.00     0.083 H 
ATOM     17  C18 2HB d   1       5.808  44.523   5.587  0.00  0.00     0.145 A 
ATOM     18  H   2HB d   1       7.737  44.055   6.461  0.00  0.00     0.089 H 
ATOM     19  N19 2HB d   1       4.593  45.092   5.721  0.00  0.00    -0.201 N 
ATOM     20  N22 2HB d   1       5.889  43.961   4.376  0.00  0.00    -0.171 N 
ATOM     21  N20 2HB d   1       3.881  44.870   4.610  0.00  0.00     0.026 NA
ATOM     22  C21 2HB d   1       4.707  44.190   3.785  0.00  0.00     0.726 A 
ATOM     23  H1  2HB d   1       6.694  43.456   3.979  0.00  0.00     0.186 HD
BRANCH  22  24
ATOM     24  N23 2HB d   1       4.403  43.756   2.466  0.00  0.00    -0.156 N 
ATOM     25  C24 2HB d   1       3.209  44.020   1.885  0.00  0.00     0.240 C 
ATOM     26  O25 2HB d   1       2.345  44.684   2.435  0.00  0.00    -0.272 OA
ATOM     27  H   2HB d   1       5.090  43.241   1.953  0.00  0.00     0.187 HD
BRANCH  25  28
ATOM     28  C26 2HB d   1       2.948  43.461   0.501  0.00  0.00     0.024 A 
ATOM     29  C27 2HB d   1       1.466  43.214   0.140  0.00  0.00    -0.053 A 
ATOM     30  C28 2HB d   1       2.228  44.387  -0.503  0.00  0.00    -0.053 A 
ATOM     31  H   2HB d   1       0.679  43.411   0.883  0.00  0.00     0.034 H 
ATOM     32  H   2HB d   1       1.186  42.341  -0.468  0.00  0.00     0.034 H 
ATOM     33  H   2HB d   1       2.492  44.352  -1.570  0.00  0.00     0.034 H 
ATOM     34  H   2HB d   1       1.985  45.422  -0.220  0.00  0.00     0.034 H 
ATOM     35  H   2HB d   1       3.747  42.775   0.183  0.00  0.00     0.054 H 
ENDBRANCH  25  28
ENDBRANCH  22  24
ENDBRANCH   4  11
BRANCH   1  36
ATOM     36  C7  2HB d   1      -0.965  48.044   7.814  0.00  0.00     0.107 C 
ATOM     37  H   2HB d   1      -1.541  47.351   8.445  0.00  0.00     0.083 H 
ATOM     38  H   2HB d   1      -1.485  48.185   6.855  0.00  0.00     0.083 H 
BRANCH  36  39
ATOM     39  N6  2HB d   1      -0.877  49.354   8.504  0.00  0.00    -0.066 N 
ATOM     40  C5  2HB d   1      -0.642  49.365   9.971  0.00  0.00     0.096 C 
ATOM     41  C4  2HB d   1       0.576  50.182  10.312  0.00  0.00     0.051 C 
ATOM     42  H   2HB d   1      -1.519  49.799  10.473  0.00  0.00     0.077 H 
ATOM     43  H   2HB d   1      -0.493  48.333  10.320  0.00  0.00     0.077 H 
ATOM     44  S3  2HB d   1       0.532  51.920   9.946  0.00  0.00     0.147 S 
ATOM     45  H   2HB d   1       1.425  49.752   9.761  0.00  0.00     0.058 H 
ATOM     46  H   2HB d   1       0.749  50.078  11.393  0.00  0.00     0.058 H 
ATOM     47  C2  2HB d   1      -0.433  51.777   8.460  0.00  0.00     0.051 C 
ATOM     48  O30 2HB d   1       1.869  52.370   9.610  0.00  0.00    -0.228 OA
ATOM     49  O29 2HB d   1      -0.248  52.614  10.953  0.00  0.00    -0.228 OA
ATOM     50  C1  2HB d   1      -0.348  50.481   7.697  0.00  0.00     0.096 C 
ATOM     51  H   2HB d   1      -1.487  51.928   8.736  0.00  0.00     0.058 H 
ATOM     52  H   2HB d   1      -0.113  52.581   7.781  0.00  0.00     0.058 H 
ATOM     53  H   2HB d   1       0.704  50.280   7.445  0.00  0.00     0.077 H 
ATOM     54  H   2HB d   1      -0.937  50.569   6.772  0.00  0.00     0.077 H 
ATOM     55  H   2HB d   1      -1.854  49.601   8.504  0.00  0.00     0.280 HD
ENDBRANCH  36  39
ENDBRANCH   1  36
TORSDOF 5
