REMARK  5 active torsions:
REMARK  status: ('A' for Active; 'I' for Inactive)
REMARK    1  A    between atoms: CAQ_2  and  OAB_3 
REMARK    2  A    between atoms: CAR_7  and  OAO_8 
REMARK    3  A    between atoms: OAO_8  and  CAS_9 
REMARK    4  A    between atoms: CAP_12  and  CAA_13 
REMARK    5  A    between atoms: CAU_15  and  CAT_16 
ROOT
ATOM      1  CAS 2OE d   1      -1.253 -30.673 -14.887  0.00  0.00     0.080 A 
ATOM      2  CAM 2OE d   1      -2.187 -30.797 -13.893  0.00  0.00    -0.022 A 
ATOM      3  CAK 2OE d   1      -0.171 -31.524 -14.869  0.00  0.00    -0.027 A 
ATOM      4  CAP 2OE d   1      -0.062 -32.468 -13.879  0.00  0.00     0.034 A 
ATOM      5  NAN 2OE d   1      -0.991 -32.580 -12.931  0.00  0.00    -0.253 NA
ATOM      6  CAU 2OE d   1      -2.044 -31.774 -12.919  0.00  0.00     0.070 A 
ATOM      7  H   2OE d   1      -3.041 -30.130 -13.867  0.00  0.00     0.091 H 
ATOM      8  H   2OE d   1       0.593 -31.449 -15.635  0.00  0.00     0.090 H 
ENDROOT
BRANCH   1   9
ATOM      9  OAO 2OE d   1      -1.384 -29.710 -15.811  0.00  0.00    -0.311 OA
BRANCH   9  10
ATOM     10  CAR 2OE d   1      -2.191 -30.076 -16.800  0.00  0.00     0.078 A 
ATOM     11  CAL 2OE d   1      -1.658 -30.343 -18.060  0.00  0.00    -0.018 A 
ATOM     12  CAQ 2OE d   1      -2.436 -30.714 -19.136  0.00  0.00     0.068 A 
ATOM     13  H   2OE d   1      -0.587 -30.255 -18.200  0.00  0.00     0.092 H 
ATOM     14  CAG 2OE d   1      -3.785 -30.808 -18.939  0.00  0.00    -0.051 A 
ATOM     15  CAF 2OE d   1      -4.323 -30.535 -17.676  0.00  0.00    -0.078 A 
ATOM     16  H   2OE d   1      -4.436 -31.093 -19.758  0.00  0.00     0.087 H 
ATOM     17  CAH 2OE d   1      -3.545 -30.161 -16.582  0.00  0.00    -0.050 A 
ATOM     18  H   2OE d   1      -5.396 -30.618 -17.543  0.00  0.00     0.083 H 
ATOM     19  H   2OE d   1      -3.983 -29.949 -15.614  0.00  0.00     0.087 H 
BRANCH  12  20
ATOM     20  OAB 2OE d   1      -1.912 -30.965 -20.337  0.00  0.00    -0.361 OA
ATOM     21  H   2OE d   1      -2.606 -31.203 -20.941  0.00  0.00     0.217 HD
ENDBRANCH  12  20
ENDBRANCH   9  10
ENDBRANCH   1   9
BRANCH   6  22
ATOM     22  CAT 2OE d   1      -3.012 -31.832 -11.939  0.00  0.00    -0.007 A 
ATOM     23  CAI 2OE d   1      -4.335 -31.951 -12.288  0.00  0.00    -0.071 A 
ATOM     24  CAD 2OE d   1      -5.317 -31.980 -11.331  0.00  0.00    -0.082 A 
ATOM     25  H   2OE d   1      -4.607 -32.023 -13.335  0.00  0.00     0.084 H 
ATOM     26  CAC 2OE d   1      -4.945 -31.862 -10.014  0.00  0.00    -0.083 A 
ATOM     27  H   2OE d   1      -6.359 -32.093 -11.607  0.00  0.00     0.083 H 
ATOM     28  CAE 2OE d   1      -3.623 -31.721  -9.651  0.00  0.00    -0.082 A 
ATOM     29  H   2OE d   1      -5.707 -31.880  -9.244  0.00  0.00     0.083 H 
ATOM     30  CAJ 2OE d   1      -2.653 -31.699 -10.624  0.00  0.00    -0.071 A 
ATOM     31  H   2OE d   1      -3.350 -31.628  -8.606  0.00  0.00     0.083 H 
ATOM     32  H   2OE d   1      -1.611 -31.577 -10.353  0.00  0.00     0.084 H 
ENDBRANCH   6  22
BRANCH   4  33
ATOM     33  CAA 2OE d   1       1.026 -33.309 -13.899  0.00  0.00    -0.035 C 
ATOM     34  H   2OE d   1       0.969 -34.002 -13.047  0.00  0.00     0.035 H 
ATOM     35  H   2OE d   1       1.950 -32.716 -13.828  0.00  0.00     0.035 H 
ATOM     36  H   2OE d   1       1.030 -33.882 -14.838  0.00  0.00     0.035 H 
ENDBRANCH   4  33
TORSDOF 5
