REMARK  9 active torsions:
REMARK  status: ('A' for Active; 'I' for Inactive)
REMARK    1  A    between atoms: CAB_1  and  OAP_2 
REMARK    2  A    between atoms: OAP_2  and  CAU_3 
REMARK    3  A    between atoms: CAR_6  and  CAC_7 
REMARK    4  A    between atoms: CAV_9  and  OAQ_10 
REMARK    5  A    between atoms: OAQ_10  and  CAW_11 
REMARK    6  A    between atoms: CAS_14  and  CAD_15 
REMARK    7  A    between atoms: CAY_17  and  CAX_18 
REMARK    8  A    between atoms: CAT_21  and  OAO_22 
REMARK    9  A    between atoms: OAO_22  and  CAA_23 
ROOT
ATOM      1  CAW 2OK d   1     -30.017 -24.909  -2.619  0.00  0.00     0.080 A 
ATOM      2  CAM 2OK d   1     -30.495 -23.764  -3.198  0.00  0.00    -0.022 A 
ATOM      3  CAK 2OK d   1     -30.913 -25.619  -1.770  0.00  0.00    -0.027 A 
ATOM      4  CAS 2OK d   1     -32.246 -25.176  -1.538  0.00  0.00     0.034 A 
ATOM      5  NAN 2OK d   1     -32.638 -24.047  -2.137  0.00  0.00    -0.253 NA
ATOM      6  CAY 2OK d   1     -31.801 -23.373  -2.957  0.00  0.00     0.070 A 
ATOM      7  H   2OK d   1     -29.856 -23.169  -3.840  0.00  0.00     0.091 H 
ATOM      8  H   2OK d   1     -30.569 -26.526  -1.285  0.00  0.00     0.090 H 
ENDROOT
BRANCH   1   9
ATOM      9  OAQ 2OK d   1     -28.704 -25.214  -2.930  0.00  0.00    -0.311 OA
BRANCH   9  10
ATOM     10  CAV 2OK d   1     -28.406 -26.345  -3.672  0.00  0.00     0.079 A 
ATOM     11  CAL 2OK d   1     -28.731 -27.562  -3.074  0.00  0.00    -0.018 A 
ATOM     12  CAU 2OK d   1     -28.468 -28.763  -3.695  0.00  0.00     0.071 A 
ATOM     13  H   2OK d   1     -29.202 -27.563  -2.098  0.00  0.00     0.092 H 
ATOM     14  CAI 2OK d   1     -27.825 -28.781  -4.945  0.00  0.00    -0.045 A 
ATOM     15  CAR 2OK d   1     -27.446 -27.578  -5.567  0.00  0.00    -0.057 A 
ATOM     16  H   2OK d   1     -27.620 -29.727  -5.432  0.00  0.00     0.088 H 
ATOM     17  CAJ 2OK d   1     -27.734 -26.344  -4.930  0.00  0.00    -0.044 A 
ATOM     18  H   2OK d   1     -27.446 -25.408  -5.395  0.00  0.00     0.088 H 
BRANCH  12  19
ATOM     19  OAP 2OK d   1     -28.868 -29.882  -3.043  0.00  0.00    -0.356 OA
BRANCH  19  20
ATOM     20  CAB 2OK d   1     -30.301 -29.884  -2.822  0.00  0.00     0.010 C 
ATOM     21  H   2OK d   1     -30.589 -30.804  -2.292  0.00  0.00     0.066 H 
ATOM     22  H   2OK d   1     -30.821 -29.840  -3.790  0.00  0.00     0.066 H 
ATOM     23  H   2OK d   1     -30.580 -29.009  -2.216  0.00  0.00     0.066 H 
ENDBRANCH  19  20
ENDBRANCH  12  19
BRANCH  15  24
ATOM     24  CAC 2OK d   1     -26.817 -27.670  -6.794  0.00  0.00    -0.051 C 
ATOM     25  H   2OK d   1     -26.579 -26.661  -7.161  0.00  0.00     0.033 H 
ATOM     26  H   2OK d   1     -27.483 -28.173  -7.511  0.00  0.00     0.033 H 
ATOM     27  H   2OK d   1     -25.888 -28.250  -6.687  0.00  0.00     0.033 H 
ENDBRANCH  15  24
ENDBRANCH   9  10
ENDBRANCH   1   9
BRANCH   6  28
ATOM     28  CAX 2OK d   1     -32.269 -22.223  -3.534  0.00  0.00    -0.007 A 
ATOM     29  CAG 2OK d   1     -33.486 -22.238  -4.220  0.00  0.00    -0.068 A 
ATOM     30  CAE 2OK d   1     -34.001 -21.083  -4.766  0.00  0.00    -0.050 A 
ATOM     31  H   2OK d   1     -34.031 -23.169  -4.324  0.00  0.00     0.085 H 
ATOM     32  CAT 2OK d   1     -33.261 -19.923  -4.615  0.00  0.00     0.068 A 
ATOM     33  H   2OK d   1     -34.948 -21.082  -5.293  0.00  0.00     0.087 H 
ATOM     34  CAF 2OK d   1     -32.031 -19.920  -3.927  0.00  0.00    -0.050 A 
ATOM     35  CAH 2OK d   1     -31.534 -21.072  -3.376  0.00  0.00    -0.068 A 
ATOM     36  H   2OK d   1     -31.472 -18.996  -3.833  0.00  0.00     0.087 H 
ATOM     37  H   2OK d   1     -30.595 -21.076  -2.835  0.00  0.00     0.085 H 
BRANCH  32  38
ATOM     38  OAO 2OK d   1     -33.750 -18.768  -5.152  0.00  0.00    -0.356 OA
BRANCH  38  39
ATOM     39  CAA 2OK d   1     -33.329 -17.565  -4.476  0.00  0.00     0.010 C 
ATOM     40  H   2OK d   1     -33.770 -16.690  -4.976  0.00  0.00     0.066 H 
ATOM     41  H   2OK d   1     -32.232 -17.491  -4.508  0.00  0.00     0.066 H 
ATOM     42  H   2OK d   1     -33.664 -17.596  -3.429  0.00  0.00     0.066 H 
ENDBRANCH  38  39
ENDBRANCH  32  38
ENDBRANCH   6  28
BRANCH   4  43
ATOM     43  CAD 2OK d   1     -33.164 -25.846  -0.698  0.00  0.00    -0.035 C 
ATOM     44  H   2OK d   1     -34.119 -25.301  -0.691  0.00  0.00     0.035 H 
ATOM     45  H   2OK d   1     -32.760 -25.892   0.324  0.00  0.00     0.035 H 
ATOM     46  H   2OK d   1     -33.327 -26.867  -1.074  0.00  0.00     0.035 H 
ENDBRANCH   4  43
TORSDOF 9
