REMARK  6 active torsions:
REMARK  status: ('A' for Active; 'I' for Inactive)
REMARK    1  A    between atoms: C7_4  and  C3_3 
REMARK    2  A    between atoms: C8_5  and  C7_4 
REMARK    3  A    between atoms: C15_12  and  C13_10 
REMARK    4  A    between atoms: C5_20  and  C6_21 
REMARK    5  A    between atoms: C6_21  and  O_22 
REMARK    6  A    between atoms: N3_28  and  C18_30 
ROOT
ATOM      1  C8  2K0 d   1       4.708 -32.982  17.699  0.00  0.00     0.044 A 
ATOM      2  C9  2K0 d   1       3.644 -33.731  17.246  0.00  0.00    -0.006 A 
ATOM      3  C10 2K0 d   1       5.198 -33.894  15.661  0.00  0.00     0.138 A 
ATOM      4  C11 2K0 d   1       5.737 -33.105  16.691  0.00  0.00     0.026 A 
ATOM      5  C12 2K0 d   1       7.003 -32.565  16.463  0.00  0.00    -0.056 A 
ATOM      6  C13 2K0 d   1       7.678 -32.865  15.279  0.00  0.00    -0.004 A 
ATOM      7  C14 2K0 d   1       7.042 -33.683  14.353  0.00  0.00     0.015 A 
ATOM      8  N1  2K0 d   1       5.807 -34.170  14.504  0.00  0.00    -0.242 NA
ATOM      9  N   2K0 d   1       3.945 -34.291  16.032  0.00  0.00    -0.349 N 
ATOM     10  H   2K0 d   1       2.701 -33.859  17.776  0.00  0.00     0.112 H 
ATOM     11  H   2K0 d   1       7.460 -31.916  17.201  0.00  0.00     0.086 H 
ATOM     12  H   2K0 d   1       7.583 -33.943  13.450  0.00  0.00     0.116 H 
ATOM     13  H   2K0 d   1       3.327 -34.910  15.488  0.00  0.00     0.167 HD
ENDROOT
BRANCH   6  14
ATOM     14  C15 2K0 d   1       9.040 -32.316  15.017  0.00  0.00     0.012 A 
ATOM     15  C16 2K0 d   1       9.946 -32.490  13.920  0.00  0.00     0.034 A 
ATOM     16  N2  2K0 d   1      11.080 -31.840  14.117  0.00  0.00    -0.184 NA
ATOM     17  H   2K0 d   1       9.727 -33.084  13.034  0.00  0.00     0.118 H 
ATOM     18  N3  2K0 d   1      10.940 -31.198  15.306  0.00  0.00    -0.276 N 
ATOM     19  C17 2K0 d   1       9.742 -31.477  15.842  0.00  0.00     0.011 A 
ATOM     20  H   2K0 d   1       9.380 -31.092  16.794  0.00  0.00     0.115 H 
BRANCH  18  21
ATOM     21  C18 2K0 d   1      12.078 -30.408  15.896  0.00  0.00     0.037 C 
ATOM     22  C19 2K0 d   1      11.822 -28.916  16.086  0.00  0.00    -0.022 C 
ATOM     23  C20 2K0 d   1      12.940 -28.428  16.986  0.00  0.00     0.084 C 
ATOM     24  H   2K0 d   1      11.851 -28.394  15.118  0.00  0.00     0.038 H 
ATOM     25  H   2K0 d   1      10.844 -28.751  16.562  0.00  0.00     0.038 H 
ATOM     26  N4  2K0 d   1      14.260 -28.674  16.353  0.00  0.00    -0.075 N 
ATOM     27  H   2K0 d   1      12.893 -28.964  17.945  0.00  0.00     0.075 H 
ATOM     28  H   2K0 d   1      12.818 -27.349  17.162  0.00  0.00     0.075 H 
ATOM     29  C21 2K0 d   1      14.500 -30.121  16.092  0.00  0.00     0.084 C 
ATOM     30  H   2K0 d   1      14.983 -28.331  16.966  0.00  0.00     0.277 HD
ATOM     31  H   2K0 d   1      14.298 -28.176  15.477  0.00  0.00     0.277 HD
ATOM     32  C22 2K0 d   1      13.409 -30.689  15.198  0.00  0.00    -0.022 C 
ATOM     33  H   2K0 d   1      15.474 -30.243  15.596  0.00  0.00     0.075 H 
ATOM     34  H   2K0 d   1      14.505 -30.665  17.048  0.00  0.00     0.075 H 
ATOM     35  H   2K0 d   1      13.549 -31.773  15.071  0.00  0.00     0.038 H 
ATOM     36  H   2K0 d   1      13.432 -30.198  14.214  0.00  0.00     0.038 H 
ATOM     37  H   2K0 d   1      12.194 -30.804  16.916  0.00  0.00     0.076 H 
ENDBRANCH  18  21
ENDBRANCH   6  14
BRANCH   1  38
ATOM     38  C7  2K0 d   1       4.794 -32.249  18.955  0.00  0.00     0.196 C 
ATOM     39  O1  2K0 d   1       5.800 -31.655  19.341  0.00  0.00    -0.287 OA
BRANCH  38  40
ATOM     40  C3  2K0 d   1       3.571 -32.264  19.827  0.00  0.00     0.037 A 
ATOM     41  C2  2K0 d   1       3.152 -33.407  20.516  0.00  0.00     0.048 A 
ATOM     42  C1  2K0 d   1       2.034 -33.379  21.336  0.00  0.00    -0.060 A 
ATOM     43 CL   2K0 d   1       3.992 -34.918  20.321  0.00  0.00    -0.083 Cl
ATOM     44  C   2K0 d   1       1.320 -32.204  21.483  0.00  0.00    -0.073 A 
ATOM     45  H   2K0 d   1       1.721 -34.275  21.860  0.00  0.00     0.086 H 
ATOM     46  C5  2K0 d   1       1.716 -31.039  20.834  0.00  0.00    -0.034 A 
ATOM     47  H   2K0 d   1       0.438 -32.191  22.113  0.00  0.00     0.084 H 
ATOM     48  C4  2K0 d   1       2.847 -31.079  20.020  0.00  0.00    -0.059 A 
ATOM     49  H   2K0 d   1       3.175 -30.172  19.524  0.00  0.00     0.086 H 
BRANCH  46  50
ATOM     50  C6  2K0 d   1       0.963 -29.750  21.024  0.00  0.00     0.040 C 
ATOM     51  H   2K0 d   1      -0.056 -29.880  20.631  0.00  0.00     0.081 H 
ATOM     52  H   2K0 d   1       1.476 -28.959  20.457  0.00  0.00     0.081 H 
BRANCH  50  53
ATOM     53  O   2K0 d   1       0.873 -29.343  22.385  0.00  0.00    -0.396 OA
ATOM     54  H   2K0 d   1       0.389 -28.527  22.439  0.00  0.00     0.209 HD
ENDBRANCH  50  53
ENDBRANCH  46  50
ENDBRANCH  38  40
ENDBRANCH   1  38
TORSDOF 6
