REMARK  2 active torsions:
REMARK  status: ('A' for Active; 'I' for Inactive)
REMARK    1  A    between atoms: C5_1  and  O5_2 
REMARK    2  A    between atoms: C3_5  and  C9_6 
ROOT
ATOM      1  C5  NU1 d   1      39.844  22.514  21.982  0.00  0.00     0.095 A 
ATOM      2  C4A NU1 d   1      40.864  23.064  21.118  0.00  0.00     0.107 A 
ATOM      3  N4  NU1 d   1      40.581  23.514  19.854  0.00  0.00    -0.232 NA
ATOM      4  C3  NU1 d   1      41.475  24.012  19.081  0.00  0.00     0.103 A 
ATOM      5  N2  NU1 d   1      42.765  24.131  19.415  0.00  0.00    -0.311 N 
ATOM      6  C1  NU1 d   1      43.208  23.734  20.620  0.00  0.00     0.259 A 
ATOM      7  O1  NU1 d   1      44.388  23.836  20.966  0.00  0.00    -0.267 OA
ATOM      8  C8A NU1 d   1      42.200  23.153  21.586  0.00  0.00     0.064 A 
ATOM      9  C8  NU1 d   1      42.544  22.708  22.885  0.00  0.00    -0.065 A 
ATOM     10  C7  NU1 d   1      41.541  22.169  23.724  0.00  0.00    -0.079 A 
ATOM     11  C6  NU1 d   1      40.208  22.068  23.273  0.00  0.00    -0.049 A 
ATOM     12  H5  NU1 d   1      43.410  24.521  18.758  0.00  0.00     0.170 HD
ATOM     13  H6  NU1 d   1      43.568  22.780  23.234  0.00  0.00     0.085 H 
ATOM     14  H7  NU1 d   1      41.798  21.831  24.721  0.00  0.00     0.083 H 
ATOM     15  H8  NU1 d   1      39.453  21.643  23.925  0.00  0.00     0.087 H 
ENDROOT
BRANCH   4  16
ATOM     16  C9  NU1 d   1      41.066  24.471  17.721  0.00  0.00    -0.021 C 
ATOM     17  H2  NU1 d   1      39.985  24.312  17.590  0.00  0.00     0.037 H 
ATOM     18  H3  NU1 d   1      41.616  23.898  16.960  0.00  0.00     0.037 H 
ATOM     19  H4  NU1 d   1      41.295  25.541  17.611  0.00  0.00     0.037 H 
ENDBRANCH   4  16
BRANCH   1  20
ATOM     20  O5  NU1 d   1      38.495  22.389  21.585  0.00  0.00    -0.358 OA
ATOM     21  H1  NU1 d   1      37.992  22.007  22.294  0.00  0.00     0.217 HD
ENDBRANCH   1  20
TORSDOF 2
