REMARK  6 active torsions:
REMARK  status: ('A' for Active; 'I' for Inactive)
REMARK    1  A    between atoms: N1_1  and  C1'_9 
REMARK    2  A    between atoms: C3_3  and  C6_8 
REMARK       I    between atoms: C6_8  and  N3_4 
REMARK    3  A    between atoms: C2'_10  and  O2'_11 
REMARK    4  A    between atoms: C3'_12  and  O3'_13 
REMARK    5  A    between atoms: C4'_14  and  C5'_16 
REMARK    6  A    between atoms: C5'_16  and  O5'_17 
ROOT
ATOM      1  C1' RBV d   1      52.559 -19.410  -8.243  0.00  0.00     0.154 C 
ATOM      2  C2' RBV d   1      51.977 -18.014  -8.392  0.00  0.00     0.106 C 
ATOM      3  C3' RBV d   1      52.131 -17.385  -7.026  0.00  0.00     0.091 C 
ATOM      4  C4' RBV d   1      53.296 -18.131  -6.402  0.00  0.00     0.088 C 
ATOM      5  O4' RBV d   1      53.333 -19.413  -7.038  0.00  0.00    -0.352 OA
ATOM      6  H   RBV d   1      53.190 -19.659  -9.109  0.00  0.00     0.125 H 
ATOM      7  H   RBV d   1      50.922 -18.053  -8.700  0.00  0.00     0.094 H 
ATOM      8  H   RBV d   1      51.217 -17.526  -6.430  0.00  0.00     0.091 H 
ATOM      9  H   RBV d   1      54.233 -17.588  -6.595  0.00  0.00     0.090 H 
ENDROOT
BRANCH   1  10
ATOM     10  N1  RBV d   1      51.460 -20.399  -8.112  0.00  0.00    -0.229 N 
ATOM     11  N2  RBV d   1      50.773 -20.717  -9.286  0.00  0.00    -0.143 NA
ATOM     12  C3  RBV d   1      49.837 -21.619  -8.908  0.00  0.00     0.238 A 
ATOM     13  N4  RBV d   1      49.955 -21.831  -7.574  0.00  0.00    -0.216 NA
ATOM     14  C5  RBV d   1      50.960 -21.072  -7.078  0.00  0.00     0.088 A 
ATOM     15  H   RBV d   1      51.292 -21.022  -6.042  0.00  0.00     0.146 H 
BRANCH  12  16
ATOM     16  C6  RBV d   1      48.836 -22.281  -9.793  0.00  0.00     0.288 C 
ATOM     17  N3  RBV d   1      48.042 -23.210  -9.264  0.00  0.00    -0.363 N 
ATOM     18  H   RBV d   1      47.362 -23.670  -9.835  0.00  0.00     0.159 HD
ATOM     19  H   RBV d   1      48.126 -23.448  -8.296  0.00  0.00     0.159 HD
ATOM     20  O3  RBV d   1      48.761 -21.965 -10.971  0.00  0.00    -0.264 OA
ENDBRANCH  12  16
ENDBRANCH   1  10
BRANCH   2  21
ATOM     21  O2' RBV d   1      52.744 -17.265  -9.335  0.00  0.00    -0.388 OA
ATOM     22  H   RBV d   1      52.374 -16.394  -9.422  0.00  0.00     0.210 HD
ENDBRANCH   2  21
BRANCH   3  23
ATOM     23  O3' RBV d   1      52.413 -15.987  -7.132  0.00  0.00    -0.390 OA
ATOM     24  H   RBV d   1      52.505 -15.617  -6.262  0.00  0.00     0.210 HD
ENDBRANCH   3  23
BRANCH   4  25
ATOM     25  C5' RBV d   1      53.117 -18.287  -4.900  0.00  0.00     0.043 C 
ATOM     26  H   RBV d   1      53.191 -17.302  -4.416  0.00  0.00     0.078 H 
ATOM     27  H   RBV d   1      53.900 -18.950  -4.503  0.00  0.00     0.078 H 
BRANCH  25  28
ATOM     28  O5' RBV d   1      51.830 -18.855  -4.636  0.00  0.00    -0.398 OA
ATOM     29  H   RBV d   1      51.155 -18.282  -4.980  0.00  0.00     0.209 HD
ENDBRANCH  25  28
ENDBRANCH   4  25
TORSDOF 6
