REMARK  4 active torsions:
REMARK  status: ('A' for Active; 'I' for Inactive)
REMARK    1  A    between atoms: N_9  and  C6_13 
REMARK    2  A    between atoms: C2_10  and  C1_11 
REMARK    3  A    between atoms: C1_11  and  C_12 
REMARK    4  A    between atoms: C6_13  and  C7_14 
ROOT
ATOM      1  O   2N0 d   1      15.331   4.360   0.024  0.00  0.00    -0.292 OA
ATOM      2  C16 2N0 d   1      14.195   4.816  -0.012  0.00  0.00     0.161 C 
ATOM      3  C4  2N0 d   1      13.738   5.837   0.962  0.00  0.00     0.034 A 
ATOM      4  C3  2N0 d   1      14.414   6.555   1.934  0.00  0.00    -0.046 A 
ATOM      5  C15 2N0 d   1      13.168   4.278  -0.988  0.00  0.00    -0.005 C 
ATOM      6  C14 2N0 d   1      11.974   5.217  -1.168  0.00  0.00    -0.054 C 
ATOM      7  C13 2N0 d   1      11.314   5.593   0.152  0.00  0.00    -0.025 C 
ATOM      8  C5  2N0 d   1      12.398   6.165   1.023  0.00  0.00     0.026 A 
ATOM      9  N   2N0 d   1      12.244   7.072   1.986  0.00  0.00    -0.349 N 
ATOM     10  C2  2N0 d   1      13.437   7.330   2.558  0.00  0.00     0.012 A 
ATOM     11  H   2N0 d   1      15.478   6.522   2.162  0.00  0.00     0.088 H 
ATOM     12  H   2N0 d   1      12.801   3.310  -0.615  0.00  0.00     0.044 H 
ATOM     13  H   2N0 d   1      13.653   4.134  -1.965  0.00  0.00     0.044 H 
ATOM     14  H   2N0 d   1      11.228   4.719  -1.804  0.00  0.00     0.034 H 
ATOM     15  H   2N0 d   1      12.322   6.137  -1.661  0.00  0.00     0.034 H 
ATOM     16  H   2N0 d   1      10.877   4.702   0.626  0.00  0.00     0.042 H 
ATOM     17  H   2N0 d   1      10.527   6.343  -0.017  0.00  0.00     0.042 H 
ENDROOT
BRANCH   9  18
ATOM     18  C6  2N0 d   1      10.954   7.655   2.373  0.00  0.00     0.024 C 
ATOM     19  H   2N0 d   1      10.373   7.902   1.472  0.00  0.00     0.072 H 
ATOM     20  H   2N0 d   1      11.122   8.568   2.963  0.00  0.00     0.072 H 
BRANCH  18  21
ATOM     21  C7  2N0 d   1      10.193   6.634   3.211  0.00  0.00    -0.040 A 
ATOM     22  C12 2N0 d   1      10.751   6.150   4.393  0.00  0.00    -0.075 A 
ATOM     23  C11 2N0 d   1      10.071   5.214   5.172  0.00  0.00    -0.082 A 
ATOM     24  H   2N0 d   1      11.725   6.505   4.710  0.00  0.00     0.084 H 
ATOM     25  C10 2N0 d   1       8.825   4.755   4.767  0.00  0.00    -0.083 A 
ATOM     26  H   2N0 d   1      10.514   4.846   6.090  0.00  0.00     0.083 H 
ATOM     27  C9  2N0 d   1       8.265   5.234   3.588  0.00  0.00    -0.082 A 
ATOM     28  H   2N0 d   1       8.291   4.027   5.367  0.00  0.00     0.083 H 
ATOM     29  C8  2N0 d   1       8.941   6.171   2.809  0.00  0.00    -0.075 A 
ATOM     30  H   2N0 d   1       7.292   4.875   3.272  0.00  0.00     0.083 H 
ATOM     31  H   2N0 d   1       8.494   6.539   1.892  0.00  0.00     0.084 H 
ENDBRANCH  18  21
ENDBRANCH   9  18
BRANCH  10  32
ATOM     32  C1  2N0 d   1      13.638   8.318   3.691  0.00  0.00    -0.030 C 
ATOM     33  H   2N0 d   1      13.041   7.992   4.555  0.00  0.00     0.041 H 
ATOM     34  H   2N0 d   1      13.294   9.309   3.361  0.00  0.00     0.041 H 
BRANCH  32  35
ATOM     35  C   2N0 d   1      15.087   8.421   4.112  0.00  0.00    -0.071 C 
ATOM     36  H   2N0 d   1      15.180   9.147   4.933  0.00  0.00     0.028 H 
ATOM     37  H   2N0 d   1      15.694   8.754   3.258  0.00  0.00     0.028 H 
ATOM     38  H   2N0 d   1      15.441   7.436   4.452  0.00  0.00     0.028 H 
ENDBRANCH  32  35
ENDBRANCH  10  32
TORSDOF 4
