REMARK  2 active torsions:
REMARK  status: ('A' for Active; 'I' for Inactive)
REMARK    1  A    between atoms: N_3  and  C_4 
REMARK    2  A    between atoms: C7_6  and  C10_7 
ROOT
ATOM      1  O   2NJ d   1      14.769   4.614   0.096  0.00  0.00    -0.273 OA
ATOM      2  C9  2NJ d   1      13.769   5.322   0.201  0.00  0.00     0.226 C 
ATOM      3  N   2NJ d   1      12.600   4.948  -0.304  0.00  0.00    -0.320 N 
ATOM      4  C8  2NJ d   1      13.806   6.644   0.932  0.00  0.00     0.032 C 
ATOM      5  C7  2NJ d   1      13.271   6.462   2.353  0.00  0.00     0.043 C 
ATOM      6  N1  2NJ d   1      11.934   5.875   2.309  0.00  0.00    -0.379 N 
ATOM      7  C6  2NJ d   1      11.083   6.059   1.255  0.00  0.00     0.055 A 
ATOM      8  C1  2NJ d   1      11.401   5.640  -0.034  0.00  0.00     0.063 A 
ATOM      9  C5  2NJ d   1       9.857   6.683   1.474  0.00  0.00    -0.055 A 
ATOM     10  C4  2NJ d   1       8.949   6.877   0.435  0.00  0.00    -0.081 A 
ATOM     11  C3  2NJ d   1       9.270   6.460  -0.848  0.00  0.00    -0.081 A 
ATOM     12  C2  2NJ d   1      10.494   5.842  -1.077  0.00  0.00    -0.055 A 
ATOM     13  H   2NJ d   1      13.182   7.375   0.397  0.00  0.00     0.050 H 
ATOM     14  H   2NJ d   1      14.843   7.009   0.976  0.00  0.00     0.050 H 
ATOM     15  H   2NJ d   1      13.928   5.759   2.886  0.00  0.00     0.080 H 
ATOM     16  H   2NJ d   1      11.620   5.300   3.104  0.00  0.00     0.160 HD
ATOM     17  H   2NJ d   1       9.605   7.024   2.471  0.00  0.00     0.087 H 
ATOM     18  H   2NJ d   1       7.994   7.353   0.629  0.00  0.00     0.083 H 
ATOM     19  H   2NJ d   1       8.573   6.614  -1.664  0.00  0.00     0.083 H 
ATOM     20  H   2NJ d   1      10.748   5.513  -2.078  0.00  0.00     0.087 H 
ENDROOT
BRANCH   5  21
ATOM     21  C10 2NJ d   1      13.321   7.772   3.074  0.00  0.00    -0.035 A 
ATOM     22  C15 2NJ d   1      12.352   8.763   2.891  0.00  0.00    -0.075 A 
ATOM     23  C14 2NJ d   1      12.434   9.980   3.574  0.00  0.00    -0.082 A 
ATOM     24  H   2NJ d   1      11.527   8.585   2.211  0.00  0.00     0.084 H 
ATOM     25  C13 2NJ d   1      13.491  10.201   4.447  0.00  0.00    -0.083 A 
ATOM     26  H   2NJ d   1      11.680  10.744   3.424  0.00  0.00     0.083 H 
ATOM     27  C12 2NJ d   1      14.468   9.227   4.625  0.00  0.00    -0.082 A 
ATOM     28  H   2NJ d   1      13.555  11.136   4.992  0.00  0.00     0.083 H 
ATOM     29  C11 2NJ d   1      14.383   8.021   3.936  0.00  0.00    -0.075 A 
ATOM     30  H   2NJ d   1      15.296   9.408   5.301  0.00  0.00     0.083 H 
ATOM     31  H   2NJ d   1      15.152   7.269   4.073  0.00  0.00     0.084 H 
ENDBRANCH   5  21
BRANCH   3  32
ATOM     32  C   2NJ d   1      12.473   3.717  -1.085  0.00  0.00    -0.011 C 
ATOM     33  H   2NJ d   1      13.468   3.270  -1.230  0.00  0.00     0.057 H 
ATOM     34  H   2NJ d   1      12.029   3.948  -2.064  0.00  0.00     0.057 H 
ATOM     35  H   2NJ d   1      11.827   3.007  -0.548  0.00  0.00     0.057 H 
ENDBRANCH   3  32
TORSDOF 2
