REMARK  4 active torsions:
REMARK  status: ('A' for Active; 'I' for Inactive)
REMARK    1  A    between atoms: CAF_2  and  CAD_3 
REMARK    2  A    between atoms: CAA_5  and  CAH_6 
REMARK    3  A    between atoms: CAB_7  and  OAI_8 
REMARK    4  A    between atoms: CAC_9  and  OAJ_10 
ROOT
ATOM      1  CAG H76 d   1      33.181   6.987  57.624  0.00  0.00    -0.152 C 
ATOM      2  CAF H76 d   1      32.585   6.507  56.943  0.00  0.00    -0.082 C 
ATOM      3  H   H76 d   1      33.795   7.482  58.326  0.00  0.00     0.166 H 
ENDROOT
BRANCH   2   4
ATOM      4  CAD H76 d   1      31.711   5.844  55.892  0.00  0.00     0.186 C 
ATOM      5  NAE H76 d   1      30.285   6.116  56.185  0.00  0.00    -0.051 N 
ATOM      6  CAA H76 d   1      29.635   4.789  56.247  0.00  0.00     0.127 C 
ATOM      7  H   H76 d   1      29.875   6.675  55.453  0.00  0.00     0.279 HD
ATOM      8  H   H76 d   1      30.192   6.596  57.067  0.00  0.00     0.279 HD
ATOM      9  CAB H76 d   1      30.517   3.936  55.364  0.00  0.00     0.090 C 
ATOM     10  H   H76 d   1      29.661   4.416  57.281  0.00  0.00     0.087 H 
ATOM     11  CAC H76 d   1      31.840   4.285  55.955  0.00  0.00     0.100 C 
ATOM     12  H   H76 d   1      30.289   2.863  55.443  0.00  0.00     0.090 H 
ATOM     13  H   H76 d   1      31.922   3.946  56.998  0.00  0.00     0.091 H 
ATOM     14  H   H76 d   1      31.985   6.216  54.894  0.00  0.00     0.109 H 
BRANCH   6  15
ATOM     15  CAH H76 d   1      28.163   4.767  55.772  0.00  0.00    -0.047 C 
ATOM     16  H   H76 d   1      27.767   3.744  55.854  0.00  0.00     0.030 H 
ATOM     17  H   H76 d   1      28.111   5.098  54.724  0.00  0.00     0.030 H 
ATOM     18  H   H76 d   1      27.565   5.443  56.400  0.00  0.00     0.030 H 
ENDBRANCH   6  15
BRANCH   9  19
ATOM     19  OAI H76 d   1      30.420   4.369  53.994  0.00  0.00    -0.391 OA
ATOM     20  H   H76 d   1      30.978   3.825  53.451  0.00  0.00     0.210 HD
ENDBRANCH   9  19
BRANCH  11  21
ATOM     21  OAJ H76 d   1      32.911   3.698  55.211  0.00  0.00    -0.390 OA
ATOM     22  H   H76 d   1      32.817   2.753  55.215  0.00  0.00     0.210 HD
ENDBRANCH  11  21
ENDBRANCH   2   4
TORSDOF 4
