REMARK  5 active torsions:
REMARK  status: ('A' for Active; 'I' for Inactive)
REMARK    1  A    between atoms: O5'_1  and  C5'_2 
REMARK    2  A    between atoms: C5'_2  and  C4'_3 
REMARK    3  A    between atoms: C1'_5  and  N1_6 
REMARK    4  A    between atoms: C4_9  and  N4_13 
REMARK    5  A    between atoms: C3'_17  and  O3'_18 
ROOT
ATOM      1  C4' GEO d   1     -10.597  54.901  -1.368  0.00  0.00     0.092 C 
ATOM      2  O4' GEO d   1      -9.456  55.478  -2.070  0.00  0.00    -0.350 OA
ATOM      3  C1' GEO d   1      -9.324  54.849  -3.338  0.00  0.00     0.179 C 
ATOM      4  C2' GEO d   1     -10.452  53.815  -3.433  0.00  0.00     0.314 C 
ATOM      5  F1  GEO d   1     -10.048  52.694  -4.046  0.00  0.00    -0.198 F 
ATOM      6  F2  GEO d   1     -11.509  54.347  -4.073  0.00  0.00    -0.198 F 
ATOM      7  C3' GEO d   1     -10.801  53.541  -1.981  0.00  0.00     0.129 C 
ATOM      8  H   GEO d   1     -11.492  55.523  -1.515  0.00  0.00     0.091 H 
ATOM      9  H   GEO d   1      -9.436  55.593  -4.141  0.00  0.00     0.128 H 
ATOM     10  H   GEO d   1     -10.137  52.786  -1.534  0.00  0.00     0.096 H 
ENDROOT
BRANCH   3  11
ATOM     11  N1  GEO d   1      -7.996  54.220  -3.449  0.00  0.00    -0.276 N 
ATOM     12  C6  GEO d   1      -7.251  54.003  -2.322  0.00  0.00    -0.009 A 
ATOM     13  C5  GEO d   1      -6.042  53.436  -2.418  0.00  0.00    -0.024 A 
ATOM     14  H   GEO d   1      -7.641  54.291  -1.347  0.00  0.00     0.112 H 
ATOM     15  C4  GEO d   1      -5.533  53.065  -3.696  0.00  0.00     0.125 A 
ATOM     16  H   GEO d   1      -5.449  53.259  -1.522  0.00  0.00     0.091 H 
ATOM     17  N3  GEO d   1      -6.263  53.282  -4.794  0.00  0.00    -0.293 N 
ATOM     18  C2  GEO d   1      -7.485  53.857  -4.699  0.00  0.00     0.330 A 
ATOM     19  H   GEO d   1      -5.905  53.019  -5.690  0.00  0.00     0.172 HD
ATOM     20  O2  GEO d   1      -8.154  54.051  -5.725  0.00  0.00    -0.246 OA
BRANCH  15  21
ATOM     21  N4  GEO d   1      -4.328  52.500  -3.796  0.00  0.00    -0.284 NA
ATOM     22  H   GEO d   1      -3.778  52.337  -2.967  0.00  0.00     0.188 HD
ENDBRANCH  15  21
ENDBRANCH   3  11
BRANCH   1  23
ATOM     23  C5' GEO d   1     -10.300  54.789   0.121  0.00  0.00     0.043 C 
ATOM     24  H   GEO d   1     -10.093  55.787   0.535  0.00  0.00     0.078 H 
ATOM     25  H   GEO d   1     -11.164  54.348   0.640  0.00  0.00     0.078 H 
BRANCH  23  26
ATOM     26  O5' GEO d   1      -9.145  53.942   0.291  0.00  0.00    -0.398 OA
ATOM     27  H   GEO d   1      -9.328  53.083  -0.070  0.00  0.00     0.209 HD
ENDBRANCH  23  26
ENDBRANCH   1  23
BRANCH   7  28
ATOM     28  O3' GEO d   1     -12.154  53.130  -1.860  0.00  0.00    -0.387 OA
ATOM     29  H   GEO d   1     -12.353  52.964  -0.946  0.00  0.00     0.210 HD
ENDBRANCH   7  28
TORSDOF 5
