REMARK  5 active torsions:
REMARK  status: ('A' for Active; 'I' for Inactive)
REMARK    1  A    between atoms: N1_1  and  C1'_9 
REMARK    2  A    between atoms: C2'_10  and  O2'_13 
REMARK    3  A    between atoms: C3'_11  and  O3'_14 
REMARK    4  A    between atoms: C4'_12  and  C5'_16 
REMARK    5  A    between atoms: C5'_16  and  O5'_17 
ROOT
ATOM      1  C1' URI d   1      52.489 -19.342  -9.055  0.00  0.00     0.141 C 
ATOM      2  C2' URI d   1      52.069 -17.890  -9.261  0.00  0.00     0.105 C 
ATOM      3  C3' URI d   1      52.048 -17.379  -7.825  0.00  0.00     0.091 C 
ATOM      4  C4' URI d   1      53.215 -18.117  -7.193  0.00  0.00     0.088 C 
ATOM      5  O4' URI d   1      53.210 -19.417  -7.841  0.00  0.00    -0.353 OA
ATOM      6  H   URI d   1      53.131 -19.655  -9.892  0.00  0.00     0.123 H 
ATOM      7  H   URI d   1      51.090 -17.794  -9.754  0.00  0.00     0.093 H 
ATOM      8  H   URI d   1      51.109 -17.677  -7.336  0.00  0.00     0.091 H 
ATOM      9  H   URI d   1      54.145 -17.579  -7.428  0.00  0.00     0.090 H 
ENDROOT
BRANCH   1  10
ATOM     10  N1  URI d   1      51.324 -20.255  -8.972  0.00  0.00    -0.280 N 
ATOM     11  C2  URI d   1      50.650 -20.548 -10.142  0.00  0.00     0.331 A 
ATOM     12  N3  URI d   1      49.586 -21.402  -9.998  0.00  0.00    -0.275 N 
ATOM     13  O2  URI d   1      50.966 -20.093 -11.226  0.00  0.00    -0.246 OA
ATOM     14  C4  URI d   1      49.136 -21.980  -8.828  0.00  0.00     0.250 A 
ATOM     15  H   URI d   1      49.082 -21.631 -10.831  0.00  0.00     0.173 HD
ATOM     16  C5  URI d   1      49.884 -21.629  -7.661  0.00  0.00    -0.002 A 
ATOM     17  O4  URI d   1      48.161 -22.728  -8.862  0.00  0.00    -0.268 OA
ATOM     18  C6  URI d   1      50.927 -20.799  -7.771  0.00  0.00    -0.008 A 
ATOM     19  H   URI d   1      49.606 -22.035  -6.689  0.00  0.00     0.094 H 
ATOM     20  H   URI d   1      51.486 -20.543  -6.872  0.00  0.00     0.112 H 
ENDBRANCH   1  10
BRANCH   2  21
ATOM     21  O2' URI d   1      53.081 -17.234 -10.008  0.00  0.00    -0.388 OA
ATOM     22  H   URI d   1      52.912 -16.299 -10.015  0.00  0.00     0.210 HD
ENDBRANCH   2  21
BRANCH   3  23
ATOM     23  O3' URI d   1      52.157 -15.971  -7.729  0.00  0.00    -0.390 OA
ATOM     24  H   URI d   1      52.193 -15.719  -6.814  0.00  0.00     0.210 HD
ENDBRANCH   3  23
BRANCH   4  25
ATOM     25  C5' URI d   1      53.151 -18.298  -5.694  0.00  0.00     0.043 C 
ATOM     26  H   URI d   1      53.294 -17.321  -5.209  0.00  0.00     0.078 H 
ATOM     27  H   URI d   1      53.953 -18.983  -5.382  0.00  0.00     0.078 H 
BRANCH  25  28
ATOM     28  O5' URI d   1      51.901 -18.836  -5.290  0.00  0.00    -0.398 OA
ATOM     29  H   URI d   1      51.204 -18.247  -5.553  0.00  0.00     0.209 HD
ENDBRANCH  25  28
ENDBRANCH   4  25
TORSDOF 5
