REMARK  5 active torsions:
REMARK  status: ('A' for Active; 'I' for Inactive)
REMARK    1  A    between atoms: N1_1  and  C1'_8 
REMARK    2  A    between atoms: C2'_9  and  O2'_10 
REMARK    3  A    between atoms: C3'_11  and  O3'_12 
REMARK    4  A    between atoms: C4'_13  and  C5'_15 
REMARK    5  A    between atoms: C5'_15  and  O5'_16 
ROOT
ATOM      1  C1' ZE8 d   1      52.325 -19.327  -8.599  0.00  0.00     0.141 C 
ATOM      2  C2' ZE8 d   1      51.863 -17.876  -8.604  0.00  0.00     0.105 C 
ATOM      3  C3' ZE8 d   1      51.900 -17.487  -7.138  0.00  0.00     0.091 C 
ATOM      4  C4' ZE8 d   1      52.988 -18.375  -6.555  0.00  0.00     0.088 C 
ATOM      5  O4' ZE8 d   1      53.159 -19.496  -7.464  0.00  0.00    -0.353 OA
ATOM      6  H   ZE8 d   1      52.923 -19.502  -9.505  0.00  0.00     0.123 H 
ATOM      7  H   ZE8 d   1      50.838 -17.786  -8.993  0.00  0.00     0.093 H 
ATOM      8  H   ZE8 d   1      50.931 -17.692  -6.659  0.00  0.00     0.091 H 
ATOM      9  H   ZE8 d   1      53.917 -17.793  -6.647  0.00  0.00     0.090 H 
ENDROOT
BRANCH   1  10
ATOM     10  N1  ZE8 d   1      51.201 -20.308  -8.609  0.00  0.00    -0.278 N 
ATOM     11  C2  ZE8 d   1      50.548 -20.602  -9.790  0.00  0.00     0.350 A 
ATOM     12  O2  ZE8 d   1      50.887 -20.059 -10.827  0.00  0.00    -0.244 OA
ATOM     13  N3  ZE8 d   1      49.509 -21.503  -9.804  0.00  0.00    -0.206 NA
ATOM     14  C4  ZE8 d   1      49.122 -22.120  -8.631  0.00  0.00     0.009 A 
ATOM     15  C5  ZE8 d   1      49.815 -21.803  -7.410  0.00  0.00    -0.051 A 
ATOM     16  H   ZE8 d   1      48.303 -22.837  -8.630  0.00  0.00     0.115 H 
ATOM     17  C6  ZE8 d   1      50.822 -20.918  -7.427  0.00  0.00    -0.012 A 
ATOM     18  H   ZE8 d   1      49.523 -22.280  -6.476  0.00  0.00     0.087 H 
ATOM     19  H   ZE8 d   1      51.346 -20.678  -6.503  0.00  0.00     0.112 H 
ENDBRANCH   1  10
BRANCH   2  20
ATOM     20  O2' ZE8 d   1      52.735 -17.125  -9.423  0.00  0.00    -0.388 OA
ATOM     21  H   ZE8 d   1      53.618 -17.181  -9.078  0.00  0.00     0.210 HD
ENDBRANCH   2  20
BRANCH   3  22
ATOM     22  O3' ZE8 d   1      52.224 -16.114  -6.969  0.00  0.00    -0.390 OA
ATOM     23  H   ZE8 d   1      52.239 -15.905  -6.043  0.00  0.00     0.210 HD
ENDBRANCH   3  22
BRANCH   4  24
ATOM     24  C5' ZE8 d   1      52.906 -18.656  -5.068  0.00  0.00     0.043 C 
ATOM     25  H   ZE8 d   1      53.191 -17.734  -4.539  0.00  0.00     0.078 H 
ATOM     26  H   ZE8 d   1      53.633 -19.449  -4.839  0.00  0.00     0.078 H 
BRANCH  24  27
ATOM     27  O5' ZE8 d   1      51.644 -19.070  -4.561  0.00  0.00    -0.398 OA
ATOM     28  H   ZE8 d   1      50.998 -18.394  -4.731  0.00  0.00     0.209 HD
ENDBRANCH  24  27
ENDBRANCH   4  24
TORSDOF 5
