REMARK  6 active torsions:
REMARK  status: ('A' for Active; 'I' for Inactive)
REMARK    1  A    between atoms: C16_2  and  C17_3 
REMARK    2  A    between atoms: C02_5  and  O01_4 
REMARK    3  A    between atoms: C03_6  and  C04_7 
REMARK    4  A    between atoms: C04_7  and  O05_8 
REMARK    5  A    between atoms: N10_13  and  C07_10 
REMARK    6  A    between atoms: C08_11  and  O09_12 
ROOT
ATOM      1  C14 P0C d   1     -16.211 135.903  -7.062  0.00  0.00     0.006 A 
ATOM      2  C16 P0C d   1     -15.782 133.715  -6.618  0.00  0.00     0.007 A 
ATOM      3  N10 P0C d   1     -16.717 137.861  -8.255  0.00  0.00    -0.300 N 
ATOM      4  C11 P0C d   1     -16.780 137.123  -9.440  0.00  0.00     0.326 A 
ATOM      5  N12 P0C d   1     -16.558 135.788  -9.419  0.00  0.00    -0.294 N 
ATOM      6  C13 P0C d   1     -16.276 135.163  -8.273  0.00  0.00     0.117 A 
ATOM      7  C15 P0C d   1     -15.901 134.988  -6.036  0.00  0.00    -0.050 A 
ATOM      8  N18 P0C d   1     -16.010 133.851  -7.967  0.00  0.00    -0.346 N 
ATOM      9  C19 P0C d   1     -16.431 137.224  -7.076  0.00  0.00     0.029 A 
ATOM     10  O20 P0C d   1     -17.039 137.675 -10.519  0.00  0.00    -0.247 OA
ATOM     11  H   P0C d   1     -16.606 135.265 -10.270  0.00  0.00     0.172 HD
ATOM     12  H   P0C d   1     -15.776 135.225  -4.981  0.00  0.00     0.087 H 
ATOM     13  H   P0C d   1     -15.985 133.080  -8.650  0.00  0.00     0.167 HD
ATOM     14  H   P0C d   1     -15.527 137.700  -6.670  0.00  0.00     0.072 H 
ATOM     15  H   P0C d   1     -17.279 137.411  -6.401  0.00  0.00     0.072 H 
ENDROOT
BRANCH   3  16
ATOM     16  C07 P0C d   1     -16.960 139.312  -8.250  0.00  0.00     0.137 C 
ATOM     17  O06 P0C d   1     -16.406 139.923  -7.093  0.00  0.00    -0.354 OA
ATOM     18  C03 P0C d   1     -17.476 140.494  -6.283  0.00  0.00     0.088 C 
ATOM     19  C02 P0C d   1     -18.779 139.944  -6.842  0.00  0.00     0.091 C 
ATOM     20  H   P0C d   1     -17.478 141.585  -6.420  0.00  0.00     0.090 H 
ATOM     21  C08 P0C d   1     -18.437 139.694  -8.296  0.00  0.00     0.104 C 
ATOM     22  H   P0C d   1     -19.052 139.007  -6.334  0.00  0.00     0.091 H 
ATOM     23  H   P0C d   1     -19.033 138.865  -8.705  0.00  0.00     0.093 H 
ATOM     24  H   P0C d   1     -16.469 139.731  -9.141  0.00  0.00     0.122 H 
BRANCH  18  25
ATOM     25  C04 P0C d   1     -17.264 140.232  -4.813  0.00  0.00     0.043 C 
ATOM     26  H   P0C d   1     -17.825 140.996  -4.255  0.00  0.00     0.078 H 
ATOM     27  H   P0C d   1     -16.189 140.344  -4.608  0.00  0.00     0.078 H 
BRANCH  25  28
ATOM     28  O05 P0C d   1     -17.670 138.945  -4.313  0.00  0.00    -0.398 OA
ATOM     29  H   P0C d   1     -18.601 138.828  -4.462  0.00  0.00     0.209 HD
ENDBRANCH  25  28
ENDBRANCH  18  25
BRANCH  19  30
ATOM     30  O01 P0C d   1     -19.859 140.862  -6.732  0.00  0.00    -0.390 OA
ATOM     31  H   P0C d   1     -20.002 141.073  -5.817  0.00  0.00     0.210 HD
ENDBRANCH  19  30
BRANCH  21  32
ATOM     32  O09 P0C d   1     -18.689 140.860  -9.051  0.00  0.00    -0.388 OA
ATOM     33  H   P0C d   1     -19.621 141.046  -9.043  0.00  0.00     0.210 HD
ENDBRANCH  21  32
ENDBRANCH   3  16
BRANCH   2  34
ATOM     34  C17 P0C d   1     -15.459 132.420  -5.887  0.00  0.00    -0.037 C 
ATOM     35  H   P0C d   1     -15.329 132.627  -4.814  0.00  0.00     0.035 H 
ATOM     36  H   P0C d   1     -14.531 131.992  -6.293  0.00  0.00     0.035 H 
ATOM     37  H   P0C d   1     -16.284 131.705  -6.025  0.00  0.00     0.035 H 
ENDBRANCH   2  34
TORSDOF 6
