REMARK  6 active torsions:
REMARK  status: ('A' for Active; 'I' for Inactive)
REMARK    1  A    between atoms: O5'_1  and  C5'_2 
REMARK    2  A    between atoms: C5'_2  and  C4'_3 
REMARK    3  A    between atoms: C3'_5  and  O3'_6 
REMARK    4  A    between atoms: C2'_7  and  O2'_8 
REMARK    5  A    between atoms: C1'_9  and  N9_10 
REMARK    6  A    between atoms: C6_14  and  N6_15 
ROOT
ATOM      1  C4' ADN d   1      53.494 -18.135  -3.851  0.00  0.00     0.088 C 
ATOM      2  O4' ADN d   1      53.482 -19.479  -4.397  0.00  0.00    -0.353 OA
ATOM      3  C3' ADN d   1      52.355 -17.433  -4.573  0.00  0.00     0.091 C 
ATOM      4  C2' ADN d   1      52.407 -18.052  -5.963  0.00  0.00     0.105 C 
ATOM      5  C1' ADN d   1      52.811 -19.491  -5.638  0.00  0.00     0.139 C 
ATOM      6  H   ADN d   1      54.439 -17.631  -4.101  0.00  0.00     0.090 H 
ATOM      7  H   ADN d   1      51.397 -17.678  -4.091  0.00  0.00     0.091 H 
ATOM      8  H   ADN d   1      51.441 -17.989  -6.484  0.00  0.00     0.093 H 
ATOM      9  H   ADN d   1      53.481 -19.867  -6.425  0.00  0.00     0.122 H 
ENDROOT
BRANCH   5  10
ATOM     10  N9  ADN d   1      51.643 -20.385  -5.531  0.00  0.00    -0.294 N 
ATOM     11  C8  ADN d   1      51.086 -20.911  -4.391  0.00  0.00     0.071 A 
ATOM     12  N7  ADN d   1      50.048 -21.681  -4.615  0.00  0.00    -0.236 NA
ATOM     13  H   ADN d   1      51.471 -20.707  -3.393  0.00  0.00     0.144 H 
ATOM     14  C5  ADN d   1      49.914 -21.661  -5.997  0.00  0.00     0.149 A 
ATOM     15  C6  ADN d   1      49.000 -22.280  -6.868  0.00  0.00     0.155 A 
ATOM     16  C4  ADN d   1      50.890 -20.868  -6.574  0.00  0.00     0.167 A 
ATOM     17  N1  ADN d   1      49.143 -22.053  -8.193  0.00  0.00    -0.222 NA
ATOM     18  C2  ADN d   1      50.139 -21.259  -8.605  0.00  0.00     0.091 A 
ATOM     19  N3  ADN d   1      51.060 -20.622  -7.885  0.00  0.00    -0.222 NA
ATOM     20  H   ADN d   1      50.205 -21.114  -9.677  0.00  0.00     0.146 H 
BRANCH  15  21
ATOM     21  N6  ADN d   1      48.007 -23.071  -6.457  0.00  0.00    -0.382 N 
ATOM     22  H   ADN d   1      47.369 -23.496  -7.145  0.00  0.00     0.157 HD
ATOM     23  H   ADN d   1      47.879 -23.256  -5.452  0.00  0.00     0.157 HD
ENDBRANCH  15  21
ENDBRANCH   5  10
BRANCH   4  24
ATOM     24  O2' ADN d   1      53.440 -17.460  -6.737  0.00  0.00    -0.388 OA
ATOM     25  H   ADN d   1      53.277 -16.528  -6.821  0.00  0.00     0.210 HD
ENDBRANCH   4  24
BRANCH   1  26
ATOM     26  C5' ADN d   1      53.386 -18.195  -2.348  0.00  0.00     0.043 C 
ATOM     27  H   ADN d   1      54.221 -18.792  -1.953  0.00  0.00     0.078 H 
ATOM     28  H   ADN d   1      53.442 -17.173  -1.944  0.00  0.00     0.078 H 
BRANCH  26  29
ATOM     29  O5' ADN d   1      52.161 -18.787  -1.938  0.00  0.00    -0.398 OA
ATOM     30  H   ADN d   1      51.435 -18.273  -2.272  0.00  0.00     0.209 HD
ENDBRANCH  26  29
ENDBRANCH   1  26
BRANCH   3  31
ATOM     31  O3' ADN d   1      52.491 -16.022  -4.577  0.00  0.00    -0.390 OA
ATOM     32  H   ADN d   1      52.507 -15.704  -3.682  0.00  0.00     0.210 HD
ENDBRANCH   3  31
TORSDOF 6
