REMARK  6 active torsions:
REMARK  status: ('A' for Active; 'I' for Inactive)
REMARK    1  A    between atoms: O5'_1  and  C5'_2 
REMARK    2  A    between atoms: C5'_2  and  C4'_3 
REMARK    3  A    between atoms: C1'_5  and  N1_6 
REMARK    4  A    between atoms: C4_9  and  N4_13 
REMARK    5  A    between atoms: C2'_14  and  O2'_15 
REMARK    6  A    between atoms: C3'_16  and  O3'_17 
ROOT
ATOM      1  C4' CTN d   1      53.211 -18.375  -5.977  0.00  0.00     0.088 C 
ATOM      2  O4' CTN d   1      53.131 -19.644  -6.675  0.00  0.00    -0.353 OA
ATOM      3  C1' CTN d   1      52.365 -19.499  -7.853  0.00  0.00     0.141 C 
ATOM      4  C2' CTN d   1      51.940 -18.032  -7.955  0.00  0.00     0.105 C 
ATOM      5  C3' CTN d   1      52.018 -17.592  -6.500  0.00  0.00     0.091 C 
ATOM      6  H   CTN d   1      54.134 -17.846  -6.255  0.00  0.00     0.090 H 
ATOM      7  H   CTN d   1      52.976 -19.759  -8.730  0.00  0.00     0.123 H 
ATOM      8  H   CTN d   1      50.930 -17.910  -8.374  0.00  0.00     0.093 H 
ATOM      9  H   CTN d   1      51.105 -17.898  -5.968  0.00  0.00     0.091 H 
ENDROOT
BRANCH   3  10
ATOM     10  N1  CTN d   1      51.206 -20.419  -7.785  0.00  0.00    -0.280 N 
ATOM     11  C6  CTN d   1      50.799 -20.953  -6.593  0.00  0.00    -0.010 A 
ATOM     12  C5  CTN d   1      49.753 -21.788  -6.528  0.00  0.00    -0.026 A 
ATOM     13  H   CTN d   1      51.335 -20.695  -5.681  0.00  0.00     0.112 H 
ATOM     14  C4  CTN d   1      49.086 -22.099  -7.749  0.00  0.00     0.103 A 
ATOM     15  H   CTN d   1      49.425 -22.212  -5.580  0.00  0.00     0.091 H 
ATOM     16  N3  CTN d   1      49.475 -21.587  -8.917  0.00  0.00    -0.295 N 
ATOM     17  C2  CTN d   1      50.533 -20.745  -8.968  0.00  0.00     0.330 A 
ATOM     18  H   CTN d   1      48.985 -21.825  -9.755  0.00  0.00     0.172 HD
ATOM     19  O2  CTN d   1      50.920 -20.252 -10.039  0.00  0.00    -0.246 OA
BRANCH  14  20
ATOM     20  N4  CTN d   1      48.037 -22.925  -7.749  0.00  0.00    -0.385 N 
ATOM     21  H   CTN d   1      47.708 -23.340  -6.865  0.00  0.00     0.157 HD
ATOM     22  H   CTN d   1      47.557 -23.148  -8.633  0.00  0.00     0.157 HD
ENDBRANCH  14  20
ENDBRANCH   3  10
BRANCH   4  23
ATOM     23  O2' CTN d   1      52.901 -17.340  -8.739  0.00  0.00    -0.388 OA
ATOM     24  H   CTN d   1      52.651 -16.427  -8.811  0.00  0.00     0.210 HD
ENDBRANCH   4  23
BRANCH   1  25
ATOM     25  C5' CTN d   1      53.246 -18.611  -4.488  0.00  0.00     0.043 C 
ATOM     26  H   CTN d   1      54.071 -19.301  -4.255  0.00  0.00     0.078 H 
ATOM     27  H   CTN d   1      53.416 -17.651  -3.978  0.00  0.00     0.078 H 
BRANCH  25  28
ATOM     28  O5' CTN d   1      52.029 -19.173  -4.020  0.00  0.00    -0.398 OA
ATOM     29  H   CTN d   1      51.312 -18.580  -4.214  0.00  0.00     0.209 HD
ENDBRANCH  25  28
ENDBRANCH   1  25
BRANCH   5  30
ATOM     30  O3' CTN d   1      52.166 -16.192  -6.342  0.00  0.00    -0.390 OA
ATOM     31  H   CTN d   1      52.208 -15.982  -5.417  0.00  0.00     0.210 HD
ENDBRANCH   5  30
TORSDOF 6
