REMARK  9 active torsions:
REMARK  status: ('A' for Active; 'I' for Inactive)
REMARK    1  A    between atoms: PB_1  and  O3A_5 
REMARK    2  A    between atoms: O3A_5  and  PA_6 
REMARK    3  A    between atoms: PA_6  and  O5'_9 
REMARK    4  A    between atoms: O5'_9  and  C5'_10 
REMARK    5  A    between atoms: C5'_10  and  C4'_11 
REMARK    6  A    between atoms: C3'_13  and  O3'_14 
REMARK    7  A    between atoms: C2'_15  and  O2'_16 
REMARK    8  A    between atoms: C1'_17  and  N9_18 
REMARK    9  A    between atoms: C2_25  and  N2_26 
ROOT
ATOM      1  C4' GDP d   1     -27.701  47.038   4.760  0.00  0.00     0.089 C 
ATOM      2  O4' GDP d   1     -27.740  47.923   3.650  0.00  0.00    -0.353 OA
ATOM      3  C3' GDP d   1     -29.113  46.541   5.008  0.00  0.00     0.091 C 
ATOM      4  C2' GDP d   1     -29.986  47.219   3.970  0.00  0.00     0.105 C 
ATOM      5  C1' GDP d   1     -29.038  47.982   3.065  0.00  0.00     0.139 C 
ATOM      6  H3  GDP d   1     -27.312  47.542   5.657  0.00  0.00     0.090 H 
ATOM      7  H4  GDP d   1     -29.165  45.448   4.899  0.00  0.00     0.091 H 
ATOM      8  H6  GDP d   1     -30.557  46.471   3.401  0.00  0.00     0.093 H 
ATOM      9  H8  GDP d   1     -29.367  49.027   2.965  0.00  0.00     0.122 H 
ENDROOT
BRANCH   5  10
ATOM     10  N9  GDP d   1     -28.984  47.337   1.729  0.00  0.00    -0.295 N 
ATOM     11  C8  GDP d   1     -28.913  46.009   1.492  0.00  0.00     0.071 A 
ATOM     12  N7  GDP d   1     -28.873  45.743   0.164  0.00  0.00    -0.234 NA
ATOM     13  H9  GDP d   1     -28.891  45.248   2.271  0.00  0.00     0.144 H 
ATOM     14  C5  GDP d   1     -28.908  46.929  -0.469  0.00  0.00     0.171 A 
ATOM     15  C6  GDP d   1     -28.885  47.373  -1.874  0.00  0.00     0.292 A 
ATOM     16  C4  GDP d   1     -28.978  47.980   0.564  0.00  0.00     0.161 A 
ATOM     17  O6  GDP d   1     -28.824  46.551  -2.813  0.00  0.00    -0.265 OA
ATOM     18  N1  GDP d   1     -28.935  48.692  -2.096  0.00  0.00    -0.154 N 
ATOM     19  C2  GDP d   1     -28.998  49.613  -1.117  0.00  0.00     0.680 A 
ATOM     20  H10 GDP d   1     -28.925  49.011  -3.044  0.00  0.00     0.187 HD
ATOM     21  N3  GDP d   1     -29.022  49.284   0.197  0.00  0.00    -0.174 N 
ATOM     22  H13 GDP d   1     -29.073  50.022   0.914  0.00  0.00     0.186 HD
BRANCH  19  23
ATOM     23  N2  GDP d   1     -29.040  50.918  -1.474  0.00  0.00    -0.234 N 
ATOM     24  H11 GDP d   1     -29.089  51.649  -0.750  0.00  0.00     0.174 HD
ATOM     25  H12 GDP d   1     -29.023  51.180  -2.470  0.00  0.00     0.174 HD
ENDBRANCH  19  23
ENDBRANCH   5  10
BRANCH   4  26
ATOM     26  O2' GDP d   1     -30.881  48.153   4.580  0.00  0.00    -0.388 OA
ATOM     27  H7  GDP d   1     -31.441  47.697   5.197  0.00  0.00     0.210 HD
ENDBRANCH   4  26
BRANCH   1  28
ATOM     28  C5' GDP d   1     -26.793  45.899   4.355  0.00  0.00     0.058 C 
ATOM     29  H1  GDP d   1     -27.400  45.005   4.150  0.00  0.00     0.079 H 
ATOM     30  H2  GDP d   1     -26.238  46.181   3.448  0.00  0.00     0.079 H 
BRANCH  28  31
ATOM     31  O5' GDP d   1     -25.877  45.615   5.396  0.00  0.00    -0.287 OA
BRANCH  31  32
ATOM     32  PA  GDP d   1     -25.380  44.100   5.535  0.00  0.00     0.418 P 
ATOM     33  O1A GDP d   1     -24.003  43.941   4.938  0.00  0.00    -0.624 OA
ATOM     34  O2A GDP d   1     -26.389  43.175   4.894  0.00  0.00    -0.624 OA
BRANCH  32  35
ATOM     35  O3A GDP d   1     -25.370  43.881   7.124  0.00  0.00    -0.173 OA
BRANCH  35  36
ATOM     36  PB  GDP d   1     -26.742  43.384   7.815  0.00  0.00     0.431 P 
ATOM     37  O1B GDP d   1     -27.219  42.093   7.180  0.00  0.00    -0.616 OA
ATOM     38  O2B GDP d   1     -26.500  43.207   9.294  0.00  0.00    -0.616 OA
ATOM     39  O3B GDP d   1     -27.813  44.433   7.634  0.00  0.00    -0.616 OA
ENDBRANCH  35  36
ENDBRANCH  32  35
ENDBRANCH  31  32
ENDBRANCH  28  31
ENDBRANCH   1  28
BRANCH   3  40
ATOM     40  O3' GDP d   1     -29.524  46.917   6.327  0.00  0.00    -0.390 OA
ATOM     41  H5  GDP d   1     -29.501  47.863   6.407  0.00  0.00     0.210 HD
ENDBRANCH   3  40
TORSDOF 9
