REMARK WARNING: 32 MAX_TORS EXCEEDED!!!
REMARK  41 active torsions:
REMARK  status: ('A' for Active; 'I' for Inactive)
REMARK    1  A    between atoms: C11_21  and  C10_1 
REMARK    2  A    between atoms: C13_2  and  C12_22 
REMARK    3  A    between atoms: C14_23  and  C13_2 
REMARK    4  A    between atoms: C15_3  and  C14_23 
REMARK    5  A    between atoms: C16_24  and  C15_3 
REMARK    6  A    between atoms: C17_4  and  C16_24 
REMARK    7  A    between atoms: C18_25  and  C17_4 
REMARK    8  A    between atoms: C22_6  and  C21_5 
REMARK    9  A    between atoms: C21_5  and  S20_27 
REMARK   10  A    between atoms: N23_28  and  C22_6 
REMARK   11  A    between atoms: C26_8  and  C24_7 
REMARK       I    between atoms: C24_7  and  N23_28 
REMARK   12  A    between atoms: C27_30  and  C26_8 
REMARK   13  A    between atoms: P38_9  and  O37_40 
REMARK   14  A    between atoms: O41_43  and  P38_9 
REMARK   15  A    between atoms: P42_10  and  O41_43 
REMARK   16  A    between atoms: O45_46  and  P42_10 
REMARK   17  A    between atoms: O53_54  and  P54_11 
REMARK   18  A    between atoms: C02_13  and  C01_12 
REMARK   19  A    between atoms: C03_14  and  C02_13 
REMARK   20  A    between atoms: C04_15  and  C03_14 
REMARK   21  A    between atoms: C05_16  and  C04_15 
REMARK   22  A    between atoms: C06_17  and  C05_16 
REMARK   23  A    between atoms: C07_18  and  C06_17 
REMARK   24  A    between atoms: C08_19  and  C07_18 
REMARK   25  A    between atoms: C09_20  and  C08_19 
REMARK   26  A    between atoms: C12_22  and  C11_21 
REMARK   27  A    between atoms: S20_27  and  C18_25 
REMARK   28  A    between atoms: N28_31  and  C27_30 
REMARK       I    between atoms: C29_32  and  N28_31 
REMARK   29  A    between atoms: C31_34  and  C29_32 
REMARK   30  A    between atoms: C31_34  and  O32_35 
REMARK   31  A    between atoms: C33_36  and  C31_34 
REMARK   32  A    between atoms: C33_36  and  C34_37 
REMARK   33  A    between atoms: C33_36  and  C35_38 
REMARK   34  A    between atoms: C36_39  and  C33_36 
REMARK   35  A    between atoms: O37_40  and  C36_39 
REMARK   36  A    between atoms: C46_47  and  O45_46 
REMARK   37  A    between atoms: C47_48  and  C46_47 
REMARK   38  A    between atoms: C49_50  and  N58_58 
REMARK   39  A    between atoms: C50_51  and  O51_52 
REMARK   40  A    between atoms: C52_53  and  O53_54 
REMARK   41  A    between atoms: C62_62  and  N63_63 
ROOT
ATOM      1  C26 3VV d   1      21.829  -7.779   2.732  0.00  0.00     0.024 C 
ATOM      2  H12 3VV d   1      21.892  -7.691   3.827  0.00  0.00     0.049 H 
ATOM      3  H13 3VV d   1      22.804  -7.530   2.287  0.00  0.00     0.049 H 
ENDROOT
BRANCH   1   4
ATOM      4  C24 3VV d   1      20.779  -6.799   2.213  0.00  0.00     0.219 C 
ATOM      5  N23 3VV d   1      21.225  -5.644   1.437  0.00  0.00    -0.360 N 
ATOM      6  H40 3VV d   1      22.202  -5.514   1.266  0.00  0.00     0.162 HD
ATOM      7  O25 3VV d   1      19.634  -6.981   2.448  0.00  0.00    -0.274 OA
BRANCH   5   8
ATOM      8  C22 3VV d   1      20.264  -4.672   0.905  0.00  0.00     0.003 C 
ATOM      9  H10 3VV d   1      19.257  -5.114   0.894  0.00  0.00     0.065 H 
ATOM     10  H11 3VV d   1      20.262  -3.770   1.534  0.00  0.00     0.065 H 
BRANCH   8  11
ATOM     11  C21 3VV d   1      20.687  -4.304  -0.531  0.00  0.00    -0.002 C 
ATOM     12  H8  3VV d   1      21.193  -5.164  -0.994  0.00  0.00     0.052 H 
ATOM     13  H9  3VV d   1      21.376  -3.447  -0.500  0.00  0.00     0.052 H 
BRANCH  11  14
ATOM     14  S20 3VV d   1      19.205  -3.860  -1.525  0.00  0.00    -0.091 SA
BRANCH  14  15
ATOM     15  C18 3VV d   1      19.795  -3.367  -3.200  0.00  0.00     0.186 C 
ATOM     16  O19 3VV d   1      20.939  -3.498  -3.480  0.00  0.00    -0.286 OA
BRANCH  15  17
ATOM     17  C17 3VV d   1      18.802  -2.788  -4.234  0.00  0.00     0.000 C 
ATOM     18  H6  3VV d   1      17.853  -2.560  -3.727  0.00  0.00     0.045 H 
ATOM     19  H7  3VV d   1      19.224  -1.863  -4.654  0.00  0.00     0.045 H 
BRANCH  17  20
ATOM     20  C16 3VV d   1      18.527  -3.784  -5.390  0.00  0.00    -0.058 C 
ATOM     21  H38 3VV d   1      17.654  -3.439  -5.963  0.00  0.00     0.033 H 
ATOM     22  H39 3VV d   1      19.406  -3.823  -6.050  0.00  0.00     0.033 H 
BRANCH  20  23
ATOM     23  C15 3VV d   1      18.246  -5.192  -4.841  0.00  0.00    -0.065 C 
ATOM     24  H4  3VV d   1      18.835  -5.918  -5.420  0.00  0.00     0.033 H 
ATOM     25  H5  3VV d   1      18.556  -5.226  -3.786  0.00  0.00     0.033 H 
BRANCH  23  26
ATOM     26  C14 3VV d   1      16.756  -5.584  -4.929  0.00  0.00    -0.065 C 
ATOM     27  H36 3VV d   1      16.173  -4.946  -4.249  0.00  0.00     0.033 H 
ATOM     28  H37 3VV d   1      16.404  -5.438  -5.961  0.00  0.00     0.033 H 
BRANCH  26  29
ATOM     29  C13 3VV d   1      16.564  -7.054  -4.532  0.00  0.00    -0.065 C 
ATOM     30  H2  3VV d   1      17.354  -7.644  -5.020  0.00  0.00     0.033 H 
ATOM     31  H3  3VV d   1      16.673  -7.128  -3.440  0.00  0.00     0.033 H 
BRANCH  29  32
ATOM     32  C12 3VV d   1      15.209  -7.663  -4.917  0.00  0.00    -0.062 C 
ATOM     33  H34 3VV d   1      14.972  -7.386  -5.955  0.00  0.00     0.033 H 
ATOM     34  H35 3VV d   1      14.433  -7.268  -4.245  0.00  0.00     0.033 H 
BRANCH  32  35
ATOM     35  C11 3VV d   1      15.242  -9.200  -4.800  0.00  0.00    -0.050 C 
ATOM     36  H32 3VV d   1      16.167  -9.502  -4.286  0.00  0.00     0.038 H 
ATOM     37  H33 3VV d   1      14.372  -9.535  -4.216  0.00  0.00     0.038 H 
BRANCH  35  38
ATOM     38  C10 3VV d   1      15.200  -9.856  -6.181  0.00  0.00    -0.107 C 
ATOM     39  C09 3VV d   1      16.347 -10.176  -6.819  0.00  0.00    -0.107 C 
ATOM     40  H31 3VV d   1      16.306 -10.659  -7.794  0.00  0.00     0.076 H 
ATOM     41  H1  3VV d   1      14.241 -10.066  -6.652  0.00  0.00     0.076 H 
BRANCH  39  42
ATOM     42  C08 3VV d   1      17.736  -9.858  -6.166  0.00  0.00    -0.050 C 
ATOM     43  H29 3VV d   1      18.133  -8.928  -6.598  0.00  0.00     0.038 H 
ATOM     44  H30 3VV d   1      17.604  -9.732  -5.081  0.00  0.00     0.038 H 
BRANCH  42  45
ATOM     45  C07 3VV d   1      18.750 -11.020  -6.428  0.00  0.00    -0.062 C 
ATOM     46  H27 3VV d   1      19.055 -10.995  -7.484  0.00  0.00     0.033 H 
ATOM     47  H28 3VV d   1      19.632 -10.874  -5.788  0.00  0.00     0.033 H 
BRANCH  45  48
ATOM     48  C06 3VV d   1      18.119 -12.429  -6.113  0.00  0.00    -0.065 C 
ATOM     49  H25 3VV d   1      17.692 -12.411  -5.099  0.00  0.00     0.033 H 
ATOM     50  H26 3VV d   1      17.322 -12.635  -6.843  0.00  0.00     0.033 H 
BRANCH  48  51
ATOM     51  C05 3VV d   1      19.186 -13.566  -6.193  0.00  0.00    -0.065 C 
ATOM     52  H23 3VV d   1      19.662 -13.536  -7.184  0.00  0.00     0.033 H 
ATOM     53  H24 3VV d   1      19.945 -13.393  -5.416  0.00  0.00     0.033 H 
BRANCH  51  54
ATOM     54  C04 3VV d   1      18.561 -14.982  -5.979  0.00  0.00    -0.065 C 
ATOM     55  H21 3VV d   1      18.197 -15.062  -4.944  0.00  0.00     0.033 H 
ATOM     56  H22 3VV d   1      17.719 -15.113  -6.675  0.00  0.00     0.033 H 
BRANCH  54  57
ATOM     57  C03 3VV d   1      19.602 -16.088  -6.234  0.00  0.00    -0.065 C 
ATOM     58  H19 3VV d   1      19.863 -16.082  -7.302  0.00  0.00     0.033 H 
ATOM     59  H20 3VV d   1      20.499 -15.869  -5.636  0.00  0.00     0.033 H 
BRANCH  57  60
ATOM     60  C02 3VV d   1      19.099 -17.486  -5.863  0.00  0.00    -0.069 C 
ATOM     61  H17 3VV d   1      18.698 -17.460  -4.839  0.00  0.00     0.032 H 
ATOM     62  H18 3VV d   1      18.300 -17.774  -6.562  0.00  0.00     0.032 H 
BRANCH  60  63
ATOM     63  C01 3VV d   1      20.216 -18.526  -5.931  0.00  0.00    -0.077 C 
ATOM     64  H14 3VV d   1      19.815 -19.513  -5.658  0.00  0.00     0.027 H 
ATOM     65  H15 3VV d   1      21.017 -18.250  -5.230  0.00  0.00     0.027 H 
ATOM     66  H16 3VV d   1      20.620 -18.564  -6.953  0.00  0.00     0.027 H 
ENDBRANCH  60  63
ENDBRANCH  57  60
ENDBRANCH  54  57
ENDBRANCH  51  54
ENDBRANCH  48  51
ENDBRANCH  45  48
ENDBRANCH  42  45
ENDBRANCH  39  42
ENDBRANCH  35  38
ENDBRANCH  32  35
ENDBRANCH  29  32
ENDBRANCH  26  29
ENDBRANCH  23  26
ENDBRANCH  20  23
ENDBRANCH  17  20
ENDBRANCH  15  17
ENDBRANCH  14  15
ENDBRANCH  11  14
ENDBRANCH   8  11
ENDBRANCH   5   8
ENDBRANCH   1   4
BRANCH   1  67
ATOM     67  C27 3VV d   1      21.466  -9.227   2.365  0.00  0.00     0.003 C 
ATOM     68  H41 3VV d   1      21.906  -9.485   1.391  0.00  0.00     0.064 H 
ATOM     69  H42 3VV d   1      20.372  -9.335   2.313  0.00  0.00     0.064 H 
BRANCH  67  70
ATOM     70  N28 3VV d   1      22.002 -10.111   3.400  0.00  0.00    -0.358 N 
ATOM     71  C29 3VV d   1      23.419 -10.464   3.318  0.00  0.00     0.247 C 
ATOM     72  O30 3VV d   1      24.073 -10.040   2.431  0.00  0.00    -0.271 OA
ATOM     73  H43 3VV d   1      21.422 -10.461   4.136  0.00  0.00     0.162 HD
BRANCH  71  74
ATOM     74  C31 3VV d   1      24.022 -11.390   4.385  0.00  0.00     0.120 C 
ATOM     75  H44 3VV d   1      24.410 -12.298   3.901  0.00  0.00     0.099 H 
BRANCH  74  76
ATOM     76  O32 3VV d   1      23.024 -11.722   5.288  0.00  0.00    -0.385 OA
ATOM     77  H45 3VV d   1      23.381 -12.296   5.956  0.00  0.00     0.210 HD
ENDBRANCH  74  76
BRANCH  74  78
ATOM     78  C33 3VV d   1      25.156 -10.703   5.162  0.00  0.00     0.009 C 
BRANCH  78  79
ATOM     79  C34 3VV d   1      24.674  -9.367   5.746  0.00  0.00    -0.065 C 
ATOM     80  H46 3VV d   1      25.497  -8.890   6.298  0.00  0.00     0.028 H 
ATOM     81  H47 3VV d   1      23.831  -9.548   6.429  0.00  0.00     0.028 H 
ATOM     82  H48 3VV d   1      24.349  -8.706   4.929  0.00  0.00     0.028 H 
ENDBRANCH  78  79
BRANCH  78  83
ATOM     83  C35 3VV d   1      26.410 -10.481   4.293  0.00  0.00    -0.065 C 
ATOM     84  H49 3VV d   1      26.745 -11.444   3.881  0.00  0.00     0.028 H 
ATOM     85  H50 3VV d   1      27.211 -10.047   4.909  0.00  0.00     0.028 H 
ATOM     86  H51 3VV d   1      26.168  -9.794   3.469  0.00  0.00     0.028 H 
ENDBRANCH  78  83
BRANCH  78  87
ATOM     87  C36 3VV d   1      25.536 -11.655   6.298  0.00  0.00     0.041 C 
ATOM     88  H52 3VV d   1      24.659 -11.865   6.928  0.00  0.00     0.076 H 
ATOM     89  H53 3VV d   1      26.333 -11.213   6.914  0.00  0.00     0.076 H 
BRANCH  87  90
ATOM     90  O37 3VV d   1      25.989 -12.833   5.691  0.00  0.00    -0.289 OA
BRANCH  90  91
ATOM     91  P38 3VV d   1      26.469 -14.062   6.687  0.00  0.00     0.417 P 
ATOM     92  O39 3VV d   1      25.269 -14.925   7.006  0.00  0.00    -0.624 OA
ATOM     93  O40 3VV d   1      27.530 -14.890   5.999  0.00  0.00    -0.624 OA
BRANCH  91  94
ATOM     94  O41 3VV d   1      27.059 -13.414   8.089  0.00  0.00    -0.180 OA
BRANCH  94  95
ATOM     95  P42 3VV d   1      26.584 -13.963   9.579  0.00  0.00     0.417 P 
ATOM     96  O43 3VV d   1      25.508 -15.014   9.408  0.00  0.00    -0.624 OA
ATOM     97  O44 3VV d   1      26.044 -12.814  10.400  0.00  0.00    -0.624 OA
BRANCH  95  98
ATOM     98  O45 3VV d   1      27.894 -14.641  10.353  0.00  0.00    -0.287 OA
BRANCH  98  99
ATOM     99  C46 3VV d   1      29.142 -14.637   9.687  0.00  0.00     0.058 C 
ATOM    100  H54 3VV d   1      29.351 -13.625   9.311  0.00  0.00     0.079 H 
ATOM    101  H55 3VV d   1      29.107 -15.342   8.843  0.00  0.00     0.079 H 
BRANCH  99 102
ATOM    102  C47 3VV d   1      30.257 -15.059  10.656  0.00  0.00     0.090 C 
ATOM    103  O48 3VV d   1      31.121 -14.115  10.777  0.00  0.00    -0.353 OA
ATOM    104  C49 3VV d   1      30.955 -13.539  12.169  0.00  0.00     0.140 C 
ATOM    105  C50 3VV d   1      29.707 -14.272  12.767  0.00  0.00     0.106 C 
ATOM    106  H57 3VV d   1      31.847 -13.740  12.781  0.00  0.00     0.122 H 
ATOM    107  C52 3VV d   1      29.662 -15.362  12.159  0.00  0.00     0.107 C 
ATOM    108  H58 3VV d   1      28.792 -13.688  12.587  0.00  0.00     0.093 H 
ATOM    109  H60 3VV d   1      28.627 -15.730  12.097  0.00  0.00     0.092 H 
ATOM    110  H56 3VV d   1      30.746 -15.963  10.265  0.00  0.00     0.090 H 
BRANCH 104 111
ATOM    111  N58 3VV d   1      30.753 -12.208  12.095  0.00  0.00    -0.294 N 
ATOM    112  C59 3VV d   1      29.631 -11.617  11.716  0.00  0.00     0.071 A 
ATOM    113  N60 3VV d   1      29.785 -10.300  11.756  0.00  0.00    -0.236 NA
ATOM    114  H61 3VV d   1      28.720 -12.133  11.417  0.00  0.00     0.144 H 
ATOM    115  C61 3VV d   1      31.038 -10.039  12.168  0.00  0.00     0.149 A 
ATOM    116  C62 3VV d   1      31.778  -8.862  12.403  0.00  0.00     0.155 A 
ATOM    117  C67 3VV d   1      31.658 -11.249  12.384  0.00  0.00     0.167 A 
ATOM    118  N64 3VV d   1      33.033  -8.948  12.819  0.00  0.00    -0.222 NA
ATOM    119  C65 3VV d   1      33.595 -10.139  13.018  0.00  0.00     0.091 A 
ATOM    120  N66 3VV d   1      32.936 -11.270  12.806  0.00  0.00    -0.222 NA
ATOM    121  H64 3VV d   1      34.621 -10.185  13.364  0.00  0.00     0.146 H 
BRANCH 116 122
ATOM    122  N63 3VV d   1      31.162  -7.557  12.188  0.00  0.00    -0.382 N 
ATOM    123  H62 3VV d   1      31.703  -6.697  12.360  0.00  0.00     0.157 HD
ATOM    124  H63 3VV d   1      30.186  -7.495  11.864  0.00  0.00     0.157 HD
ENDBRANCH 116 122
ENDBRANCH 104 111
BRANCH 105 125
ATOM    125  O51 3VV d   1      29.873 -14.504  14.262  0.00  0.00    -0.388 OA
ATOM    126  H59 3VV d   1      30.643 -15.039  14.415  0.00  0.00     0.210 HD
ENDBRANCH 105 125
BRANCH 107 127
ATOM    127  O53 3VV d   1      30.509 -16.361  12.861  0.00  0.00    -0.272 OA
BRANCH 127 128
ATOM    128  P54 3VV d   1      30.304 -17.960  12.555  0.00  0.00     0.422 P 
ATOM    129  O55 3VV d   1      31.191 -18.767  13.477  0.00  0.00    -0.617 OA
ATOM    130  O56 3VV d   1      30.678 -18.250  11.122  0.00  0.00    -0.617 OA
ATOM    131  O57 3VV d   1      28.863 -18.341  12.785  0.00  0.00    -0.617 OA
ENDBRANCH 127 128
ENDBRANCH 107 127
ENDBRANCH  99 102
ENDBRANCH  98  99
ENDBRANCH  95  98
ENDBRANCH  94  95
ENDBRANCH  91  94
ENDBRANCH  90  91
ENDBRANCH  87  90
ENDBRANCH  78  87
ENDBRANCH  74  78
ENDBRANCH  71  74
ENDBRANCH  67  70
ENDBRANCH   1  67
TORSDOF 41
