REMARK  7 active torsions:
REMARK  status: ('A' for Active; 'I' for Inactive)
REMARK    1  A    between atoms: N1_1  and  C19_17 
REMARK    2  A    between atoms: C1_21  and  C5_4 
REMARK    3  A    between atoms: C20_12  and  C21_13 
REMARK    4  A    between atoms: C19_17  and  C20_12 
REMARK    5  A    between atoms: C21_13  and  O3_16 
REMARK    6  A    between atoms: C3_19  and  C18_20 
REMARK    7  A    between atoms: C2_22  and  C12_23 
ROOT
ATOM      1  N1  HFN d   1      -0.449  30.394  38.628  0.00  0.00    -0.262 N 
ATOM      2  N2  HFN d   1      -0.877  29.123  38.907  0.00  0.00    -0.176 NA
ATOM      3  C3  HFN d   1      -0.625  28.936  40.207  0.00  0.00     0.064 A 
ATOM      4  C1  HFN d   1      -0.005  30.090  40.741  0.00  0.00     0.029 A 
ATOM      5  C2  HFN d   1       0.081  30.987  39.713  0.00  0.00     0.076 A 
ENDROOT
BRANCH   4   6
ATOM      6  C5  HFN d   1       0.492  30.178  42.119  0.00  0.00    -0.019 A 
ATOM      7  C4  HFN d   1      -0.365  29.727  43.140  0.00  0.00    -0.043 A 
ATOM      8  C8  HFN d   1       0.048  29.654  44.448  0.00  0.00     0.069 A 
ATOM      9  H   HFN d   1      -1.377  29.430  42.888  0.00  0.00     0.088 H 
ATOM     10  N3  HFN d   1      -0.805  29.172  45.436  0.00  0.00    -0.323 N 
ATOM     11  C9  HFN d   1       1.360  30.047  44.742  0.00  0.00     0.096 A 
ATOM     12  C11 HFN d   1      -0.493  29.202  46.714  0.00  0.00     0.246 C 
ATOM     13  H   HFN d   1      -1.688  28.789  45.165  0.00  0.00     0.169 HD
ATOM     14  C10 HFN d   1       0.786  29.945  47.089  0.00  0.00     0.100 C 
ATOM     15  O2  HFN d   1      -1.192  28.689  47.548  0.00  0.00    -0.271 OA
ATOM     16  O1  HFN d   1       1.783  29.915  46.041  0.00  0.00    -0.340 OA
ATOM     17  H   HFN d   1       0.533  30.994  47.302  0.00  0.00     0.089 H 
ATOM     18  H   HFN d   1       1.211  29.480  47.991  0.00  0.00     0.089 H 
ATOM     19  C7  HFN d   1       2.239  30.517  43.745  0.00  0.00    -0.048 A 
ATOM     20  C6  HFN d   1       1.804  30.574  42.411  0.00  0.00    -0.069 A 
ATOM     21  H   HFN d   1       3.243  30.832  44.006  0.00  0.00     0.087 H 
ATOM     22  H   HFN d   1       2.468  30.916  41.625  0.00  0.00     0.085 H 
ENDBRANCH   4   6
BRANCH   3  23
ATOM     23  C18 HFN d   1      -0.942  27.641  40.890  0.00  0.00    -0.033 C 
ATOM     24  H   HFN d   1      -0.655  27.706  41.950  0.00  0.00     0.035 H 
ATOM     25  H   HFN d   1      -0.383  26.826  40.408  0.00  0.00     0.035 H 
ATOM     26  H   HFN d   1      -2.021  27.441  40.814  0.00  0.00     0.035 H 
ENDBRANCH   3  23
BRANCH   5  27
ATOM     27  C12 HFN d   1       0.641  32.376  39.689  0.00  0.00    -0.007 A 
ATOM     28  C13 HFN d   1       0.199  33.282  40.643  0.00  0.00    -0.068 A 
ATOM     29  C14 HFN d   1       0.702  34.565  40.653  0.00  0.00    -0.045 A 
ATOM     30  H   HFN d   1      -0.539  32.981  41.378  0.00  0.00     0.085 H 
ATOM     31  C15 HFN d   1       1.638  34.906  39.688  0.00  0.00     0.116 A 
ATOM     32  H   HFN d   1       0.376  35.286  41.393  0.00  0.00     0.088 H 
ATOM     33  C16 HFN d   1       2.119  34.018  38.735  0.00  0.00    -0.045 A 
ATOM     34  F1  HFN d   1       2.098  36.170  39.677  0.00  0.00    -0.206 F 
ATOM     35  C17 HFN d   1       1.605  32.732  38.728  0.00  0.00    -0.068 A 
ATOM     36  H   HFN d   1       2.874  34.322  38.019  0.00  0.00     0.088 H 
ATOM     37  H   HFN d   1       1.941  32.010  37.992  0.00  0.00     0.085 H 
ENDBRANCH   5  27
BRANCH   1  38
ATOM     38  C19 HFN d   1      -0.811  30.924  37.308  0.00  0.00     0.080 C 
ATOM     39  H   HFN d   1      -0.700  30.129  36.556  0.00  0.00     0.076 H 
ATOM     40  H   HFN d   1      -0.142  31.761  37.059  0.00  0.00     0.076 H 
BRANCH  38  41
ATOM     41  C20 HFN d   1      -2.283  31.428  37.305  0.00  0.00     0.281 C 
ATOM     42  F3  HFN d   1      -2.513  32.268  38.352  0.00  0.00    -0.202 F 
ATOM     43  F2  HFN d   1      -2.530  32.087  36.185  0.00  0.00    -0.202 F 
BRANCH  41  44
ATOM     44  C21 HFN d   1      -3.320  30.321  37.462  0.00  0.00     0.079 C 
ATOM     45  H   HFN d   1      -4.326  30.761  37.397  0.00  0.00     0.083 H 
ATOM     46  H   HFN d   1      -3.190  29.846  38.446  0.00  0.00     0.083 H 
BRANCH  44  47
ATOM     47  O3  HFN d   1      -3.183  29.337  36.455  0.00  0.00    -0.395 OA
ATOM     48  H   HFN d   1      -3.299  29.740  35.602  0.00  0.00     0.209 HD
ENDBRANCH  44  47
ENDBRANCH  41  44
ENDBRANCH  38  41
ENDBRANCH   1  38
TORSDOF 7
