REMARK  5 active torsions:
REMARK  status: ('A' for Active; 'I' for Inactive)
REMARK    1  A    between atoms: C3_6  and  O2_7 
REMARK    2  A    between atoms: C1_9  and  O1_10 
REMARK    3  A    between atoms: C7_12  and  C10_14 
REMARK    4  A    between atoms: C10_14  and  C11_15 
REMARK    5  A    between atoms: C12_17  and  C16_18 
ROOT
ATOM      1  C10 KRS d   1     -48.638  36.011  -9.352  0.00  0.00    -0.016 C 
ATOM      2  H   KRS d   1     -48.945  36.712 -10.142  0.00  0.00     0.040 H 
ATOM      3  H   KRS d   1     -49.071  36.328  -8.392  0.00  0.00     0.040 H 
ENDROOT
BRANCH   1   4
ATOM      4  C7  KRS d   1     -47.141  36.064  -9.233  0.00  0.00     0.054 C 
ATOM      5  O3  KRS d   1     -46.796  35.285  -8.045  0.00  0.00    -0.311 OA
ATOM      6  C8  KRS d   1     -45.564  35.324  -7.550  0.00  0.00     0.297 C 
ATOM      7  O4  KRS d   1     -45.209  34.378  -6.877  0.00  0.00    -0.259 OA
ATOM      8  C9  KRS d   1     -44.776  36.516  -7.711  0.00  0.00     0.079 A 
ATOM      9  C5  KRS d   1     -45.255  37.570  -8.471  0.00  0.00    -0.034 A 
ATOM     10  C1  KRS d   1     -43.520  36.618  -7.112  0.00  0.00     0.085 A 
ATOM     11  C4  KRS d   1     -44.488  38.697  -8.614  0.00  0.00    -0.044 A 
ATOM     12  C6  KRS d   1     -46.607  37.467  -9.119  0.00  0.00    -0.015 C 
ATOM     13  C3  KRS d   1     -43.250  38.759  -8.002  0.00  0.00     0.068 A 
ATOM     14  H   KRS d   1     -44.849  39.533  -9.202  0.00  0.00     0.088 H 
ATOM     15  C2  KRS d   1     -42.768  37.729  -7.257  0.00  0.00    -0.018 A 
ATOM     16  H   KRS d   1     -41.794  37.799  -6.786  0.00  0.00     0.092 H 
ATOM     17  H   KRS d   1     -46.535  37.890 -10.132  0.00  0.00     0.044 H 
ATOM     18  H   KRS d   1     -47.319  38.058  -8.524  0.00  0.00     0.044 H 
ATOM     19  H   KRS d   1     -46.693  35.597 -10.123  0.00  0.00     0.084 H 
BRANCH  13  20
ATOM     20  O2  KRS d   1     -42.520  39.886  -8.166  0.00  0.00    -0.361 OA
ATOM     21  H   KRS d   1     -43.004  40.628  -7.824  0.00  0.00     0.217 HD
ENDBRANCH  13  20
BRANCH  10  22
ATOM     22  O1  KRS d   1     -43.008  35.607  -6.361  0.00  0.00    -0.360 OA
ATOM     23  H   KRS d   1     -43.628  34.888  -6.336  0.00  0.00     0.217 HD
ENDBRANCH  10  22
ENDBRANCH   1   4
BRANCH   1  24
ATOM     24  C11 KRS d   1     -49.185  34.657  -9.689  0.00  0.00     0.041 C 
ATOM     25  O5  KRS d   1     -48.559  34.110 -10.841  0.00  0.00    -0.381 OA
ATOM     26  C12 KRS d   1     -48.905  34.756 -12.063  0.00  0.00     0.035 C 
ATOM     27  C13 KRS d   1     -50.391  34.700 -12.277  0.00  0.00    -0.041 C 
ATOM     28  H   KRS d   1     -48.599  35.812 -12.024  0.00  0.00     0.082 H 
ATOM     29  C14 KRS d   1     -51.124  35.315 -11.124  0.00  0.00    -0.060 C 
ATOM     30  H   KRS d   1     -50.700  33.649 -12.380  0.00  0.00     0.036 H 
ATOM     31  H   KRS d   1     -50.643  35.248 -13.197  0.00  0.00     0.036 H 
ATOM     32  C15 KRS d   1     -50.702  34.656  -9.843  0.00  0.00    -0.041 C 
ATOM     33  H   KRS d   1     -52.206  35.179 -11.265  0.00  0.00     0.033 H 
ATOM     34  H   KRS d   1     -50.893  36.389 -11.075  0.00  0.00     0.033 H 
ATOM     35  H   KRS d   1     -51.148  35.200  -8.997  0.00  0.00     0.036 H 
ATOM     36  H   KRS d   1     -51.061  33.616  -9.841  0.00  0.00     0.036 H 
ATOM     37  H   KRS d   1     -48.946  33.996  -8.843  0.00  0.00     0.083 H 
BRANCH  26  38
ATOM     38  C16 KRS d   1     -48.137  34.062 -13.138  0.00  0.00    -0.052 C 
ATOM     39  H   KRS d   1     -48.368  34.523 -14.110  0.00  0.00     0.030 H 
ATOM     40  H   KRS d   1     -48.418  32.999 -13.161  0.00  0.00     0.030 H 
ATOM     41  H   KRS d   1     -47.060  34.153 -12.936  0.00  0.00     0.030 H 
ENDBRANCH  26  38
ENDBRANCH   1  24
TORSDOF 5
