REMARK  28 active torsions:
REMARK  status: ('A' for Active; 'I' for Inactive)
REMARK    1  A    between atoms: N_1  and  CA_2 
REMARK    2  A    between atoms: CA_2  and  C_3 
REMARK    3  A    between atoms: CA_2  and  CB_5 
REMARK       I    between atoms: C_3  and  N_12 
REMARK    4  A    between atoms: CB_5  and  CG_6 
REMARK    5  A    between atoms: N_12  and  CA_13 
REMARK    6  A    between atoms: CA_13  and  C_14 
REMARK    7  A    between atoms: CA_13  and  CB_16 
REMARK       I    between atoms: C_14  and  N_17 
REMARK    8  A    between atoms: CA_18  and  C_19 
REMARK       I    between atoms: C_19  and  N_24 
REMARK    9  A    between atoms: N_24  and  CA_25 
REMARK   10  A    between atoms: CA_25  and  C_26 
REMARK       I    between atoms: C_26  and  N_28 
REMARK   11  A    between atoms: N_28  and  CA_29 
REMARK   12  A    between atoms: CA_29  and  C_30 
REMARK   13  A    between atoms: CA_29  and  CB_32 
REMARK       I    between atoms: C_30  and  N_36 
REMARK   14  A    between atoms: CB_32  and  CG_33 
REMARK       I    between atoms: CG_33  and  ND2_35 
REMARK   15  A    between atoms: N_36  and  CA_37 
REMARK   16  A    between atoms: CA_37  and  C_38 
REMARK   17  A    between atoms: CA_37  and  CB_40 
REMARK       I    between atoms: C_38  and  N_50 
REMARK   18  A    between atoms: CB_40  and  CG_41 
REMARK   19  A    between atoms: CA_51  and  C_52 
REMARK       I    between atoms: C_52  and  N_57 
REMARK   20  A    between atoms: N_57  and  CA_58 
REMARK   21  A    between atoms: CA_58  and  C_59 
REMARK   22  A    between atoms: CA_58  and  CB_61 
REMARK       I    between atoms: C_59  and  N_62 
REMARK   23  A    between atoms: N_62  and  CA_63 
REMARK   24  A    between atoms: CA_63  and  C_64 
REMARK   25  A    between atoms: CA_63  and  CB_66 
REMARK   26  A    between atoms: CB_66  and  CG_67 
REMARK   27  A    between atoms: CG_67  and  CD1_68 
REMARK   28  A    between atoms: CG_67  and  CD2_69 
ROOT
ATOM      1  C   ASN d   1     -20.585   8.874  33.730  0.00  0.00     0.241 C 
ATOM      2  O   ASN d   1     -20.245   9.530  34.718  0.00  0.00    -0.271 OA
ATOM      3  N   TRP d   1     -20.072   9.060  32.515  0.00  0.00    -0.346 N 
ATOM      4  H33 TRP d   1     -20.386   8.478  31.765  0.00  0.00     0.163 HD
ENDROOT
BRANCH   3   5
ATOM      5  CA  TRP d   1     -19.067  10.083  32.238  0.00  0.00     0.093 C 
ATOM      6  H34 TRP d   1     -18.282  10.034  33.008  0.00  0.00     0.088 H 
BRANCH   5   7
ATOM      7  C   TRP d   1     -19.727  11.467  32.282  0.00  0.00     0.243 C 
ATOM      8  O   TRP d   1     -20.759  11.677  31.645  0.00  0.00    -0.271 OA
ATOM      9  N   PRO d   1     -19.136  12.419  33.030  0.00  0.00    -0.337 N 
ATOM     10  CA  PRO d   1     -19.770  13.733  33.102  0.00  0.00     0.091 C 
ATOM     11  CD  PRO d   1     -17.890  12.370  33.818  0.00  0.00    -0.001 C 
ATOM     12  CB  PRO d   1     -19.000  14.430  34.221  0.00  0.00    -0.036 C 
ATOM     13  H43 PRO d   1     -20.835  13.634  33.359  0.00  0.00     0.087 H 
ATOM     14  CG  PRO d   1     -17.655  13.802  34.196  0.00  0.00    -0.048 C 
ATOM     15  H44 PRO d   1     -19.489  14.262  35.192  0.00  0.00     0.036 H 
ATOM     16  H45 PRO d   1     -18.928  15.511  34.028  0.00  0.00     0.036 H 
ATOM     17  H46 PRO d   1     -17.182  13.866  35.187  0.00  0.00     0.035 H 
ATOM     18  H47 PRO d   1     -17.014  14.296  33.451  0.00  0.00     0.035 H 
ATOM     19  H48 PRO d   1     -17.058  11.982  33.213  0.00  0.00     0.064 H 
ATOM     20  H49 PRO d   1     -18.016  11.743  34.713  0.00  0.00     0.064 H 
BRANCH  10  21
ATOM     21  C   PRO d   1     -19.642  14.514  31.801  0.00  0.00     0.241 C 
ATOM     22  O   PRO d   1     -18.609  14.439  31.137  0.00  0.00    -0.271 OA
ATOM     23  N   ALA d   1     -20.691  15.252  31.450  0.00  0.00    -0.346 N 
ATOM     24  H50 ALA d   1     -21.492  15.271  32.048  0.00  0.00     0.163 HD
BRANCH  23  25
ATOM     25  CA  ALA d   1     -20.709  16.035  30.219  0.00  0.00     0.086 C 
ATOM     26  H51 ALA d   1     -20.361  15.396  29.394  0.00  0.00     0.086 H 
BRANCH  25  27
ATOM     27  C   ALA d   1     -19.776  17.234  30.329  0.00  0.00     0.240 C 
ATOM     28  O   ALA d   1     -19.627  17.815  31.404  0.00  0.00    -0.271 OA
ATOM     29  N   LEU d   1     -19.156  17.600  29.210  0.00  0.00    -0.345 N 
ATOM     30  H55 LEU d   1     -19.337  17.093  28.367  0.00  0.00     0.163 HD
BRANCH  29  31
ATOM     31  CA  LEU d   1     -18.218  18.721  29.175  0.00  0.00     0.096 C 
ATOM     32  H56 LEU d   1     -17.527  18.622  30.025  0.00  0.00     0.089 H 
BRANCH  31  33
ATOM     33  C   LEU d   1     -18.952  20.054  29.300  0.00  0.00     0.196 C 
ATOM     34  O   LEU d   1     -18.374  21.062  29.699  0.00  0.00    -0.646 OA
ATOM     35  OXT LEU d   1     -20.143  20.158  29.009  0.00  0.00    -0.646 OA
ENDBRANCH  31  33
BRANCH  31  36
ATOM     36  CB  LEU d   1     -17.403  18.699  27.878  0.00  0.00    -0.034 C 
ATOM     37  H57 LEU d   1     -16.731  19.570  27.894  0.00  0.00     0.037 H 
ATOM     38  H58 LEU d   1     -18.109  18.796  27.040  0.00  0.00     0.037 H 
BRANCH  36  39
ATOM     39  CG  LEU d   1     -16.545  17.457  27.617  0.00  0.00    -0.059 C 
ATOM     40  H59 LEU d   1     -17.195  16.572  27.686  0.00  0.00     0.038 H 
BRANCH  39  41
ATOM     41  CD1 LEU d   1     -15.958  17.511  26.218  0.00  0.00    -0.073 C 
ATOM     42  H60 LEU d   1     -15.345  16.615  26.043  0.00  0.00     0.028 H 
ATOM     43  H61 LEU d   1     -15.331  18.409  26.118  0.00  0.00     0.028 H 
ATOM     44  H62 LEU d   1     -16.773  17.548  25.480  0.00  0.00     0.028 H 
ENDBRANCH  39  41
BRANCH  39  45
ATOM     45  CD2 LEU d   1     -15.438  17.312  28.650  0.00  0.00    -0.073 C 
ATOM     46  H63 LEU d   1     -15.879  17.274  29.657  0.00  0.00     0.028 H 
ATOM     47  H64 LEU d   1     -14.756  18.172  28.580  0.00  0.00     0.028 H 
ATOM     48  H65 LEU d   1     -14.878  16.384  28.460  0.00  0.00     0.028 H 
ENDBRANCH  39  45
ENDBRANCH  36  39
ENDBRANCH  31  36
ENDBRANCH  29  31
ENDBRANCH  25  27
BRANCH  25  49
ATOM     49  CB  ALA d   1     -22.124  16.499  29.911  0.00  0.00    -0.049 C 
ATOM     50  H52 ALA d   1     -22.123  17.087  28.982  0.00  0.00     0.030 H 
ATOM     51  H53 ALA d   1     -22.494  17.122  30.739  0.00  0.00     0.030 H 
ATOM     52  H54 ALA d   1     -22.779  15.623  29.790  0.00  0.00     0.030 H 
ENDBRANCH  25  49
ENDBRANCH  23  25
ENDBRANCH  10  21
ENDBRANCH   5   7
BRANCH   5  53
ATOM     53  CB  TRP d   1     -18.429   9.844  30.861  0.00  0.00    -0.012 C 
ATOM     54  H35 TRP d   1     -18.760  10.644  30.183  0.00  0.00     0.044 H 
ATOM     55  H36 TRP d   1     -18.779   8.873  30.481  0.00  0.00     0.044 H 
BRANCH  53  56
ATOM     56  CG  TRP d   1     -16.935   9.831  30.879  0.00  0.00    -0.028 A 
ATOM     57  CD1 TRP d   1     -16.105  10.909  30.944  0.00  0.00    -0.015 A 
ATOM     58  NE1 TRP d   1     -14.794  10.500  30.935  0.00  0.00    -0.365 N 
ATOM     59  H37 TRP d   1     -16.434  11.946  30.996  0.00  0.00     0.112 H 
ATOM     60  CE2 TRP d   1     -14.756   9.133  30.859  0.00  0.00     0.042 A 
ATOM     61  H38 TRP d   1     -13.973  11.120  30.978  0.00  0.00     0.165 HD
ATOM     62  CD2 TRP d   1     -16.088   8.676  30.818  0.00  0.00    -0.002 A 
ATOM     63  CZ2 TRP d   1     -13.668   8.265  30.819  0.00  0.00    -0.056 A 
ATOM     64  CE3 TRP d   1     -16.326   7.301  30.738  0.00  0.00    -0.070 A 
ATOM     65  CZ3 TRP d   1     -15.243   6.440  30.698  0.00  0.00    -0.082 A 
ATOM     66  H39 TRP d   1     -17.339   6.916  30.708  0.00  0.00     0.084 H 
ATOM     67  CH2 TRP d   1     -13.931   6.926  30.740  0.00  0.00    -0.081 A 
ATOM     68  H41 TRP d   1     -15.414   5.372  30.633  0.00  0.00     0.083 H 
ATOM     69  H42 TRP d   1     -13.105   6.225  30.709  0.00  0.00     0.083 H 
ATOM     70  H40 TRP d   1     -12.650   8.637  30.849  0.00  0.00     0.086 H 
ENDBRANCH  53  56
ENDBRANCH   5  53
ENDBRANCH   3   5
BRANCH   1  71
ATOM     71  CA  ASN d   1     -21.637   7.771  33.843  0.00  0.00     0.097 C 
ATOM     72  H28 ASN d   1     -22.402   7.959  33.076  0.00  0.00     0.088 H 
BRANCH  71  73
ATOM     73  N   ASN d   1     -21.078   6.440  33.595  0.00  0.00    -0.346 N 
ATOM     74  C   GLY d   1     -19.977   6.002  34.200  0.00  0.00     0.236 C 
ATOM     75  O   GLY d   1     -19.339   6.675  35.010  0.00  0.00    -0.272 OA
ATOM     76  H27 ASN d   1     -21.542   5.837  32.946  0.00  0.00     0.163 HD
BRANCH  74  77
ATOM     77  CA  GLY d   1     -19.525   4.600  33.844  0.00  0.00     0.069 C 
ATOM     78  H25 GLY d   1     -20.226   3.872  34.278  0.00  0.00     0.078 H 
ATOM     79  H26 GLY d   1     -19.512   4.490  32.750  0.00  0.00     0.078 H 
BRANCH  77  80
ATOM     80  N   GLY d   1     -18.185   4.352  34.370  0.00  0.00    -0.351 N 
ATOM     81  C   PRO d   1     -17.098   4.397  33.605  0.00  0.00     0.241 C 
ATOM     82  O   PRO d   1     -17.134   4.529  32.382  0.00  0.00    -0.271 OA
ATOM     83  H24 GLY d   1     -18.081   4.140  35.342  0.00  0.00     0.163 HD
BRANCH  81  84
ATOM     84  CA  PRO d   1     -15.756   4.247  34.320  0.00  0.00     0.091 C 
ATOM     85  N   PRO d   1     -14.922   3.214  33.709  0.00  0.00    -0.337 N 
ATOM     86  C   ALA d   1     -15.282   1.924  33.835  0.00  0.00     0.243 C 
ATOM     87  CD  PRO d   1     -13.744   3.793  33.043  0.00  0.00    -0.001 C 
ATOM     88  O   ALA d   1     -16.279   1.571  34.466  0.00  0.00    -0.271 OA
ATOM     89  CG  PRO d   1     -13.547   5.077  33.781  0.00  0.00    -0.048 C 
ATOM     90  H22 PRO d   1     -13.941   3.975  31.976  0.00  0.00     0.064 H 
ATOM     91  H23 PRO d   1     -12.867   3.137  33.147  0.00  0.00     0.064 H 
ATOM     92  CB  PRO d   1     -14.914   5.527  34.171  0.00  0.00    -0.036 C 
ATOM     93  H20 PRO d   1     -12.926   4.915  34.675  0.00  0.00     0.035 H 
ATOM     94  H21 PRO d   1     -13.067   5.824  33.131  0.00  0.00     0.035 H 
ATOM     95  H18 PRO d   1     -14.879   6.074  35.124  0.00  0.00     0.036 H 
ATOM     96  H19 PRO d   1     -15.340   6.176  33.391  0.00  0.00     0.036 H 
ATOM     97  H17 PRO d   1     -15.936   4.019  35.381  0.00  0.00     0.087 H 
BRANCH  86  98
ATOM     98  CA  ALA d   1     -14.395   0.880  33.161  0.00  0.00     0.086 C 
ATOM     99  H13 ALA d   1     -13.348   1.201  33.262  0.00  0.00     0.086 H 
BRANCH  98 100
ATOM    100  N   ALA d   1     -14.536  -0.425  33.798  0.00  0.00    -0.346 N 
ATOM    101  C   PHE d   1     -14.147  -0.644  35.051  0.00  0.00     0.249 C 
ATOM    102  O   PHE d   1     -13.710   0.241  35.788  0.00  0.00    -0.271 OA
ATOM    103  H12 ALA d   1     -14.937  -1.178  33.277  0.00  0.00     0.163 HD
BRANCH 101 104
ATOM    104  CA  PHE d   1     -14.261  -2.083  35.537  0.00  0.00     0.179 C 
ATOM    105  H4  PHE d   1     -15.046  -2.593  34.959  0.00  0.00     0.099 H 
BRANCH 104 106
ATOM    106  N   PHE d   1     -12.964  -2.773  35.308  0.00  0.00    -0.066 N 
ATOM    107  H1  PHE d   1     -13.030  -3.727  35.627  0.00  0.00     0.275 HD
ATOM    108  H2  PHE d   1     -12.236  -2.298  35.818  0.00  0.00     0.275 HD
ATOM    109  H3  PHE d   1     -12.747  -2.762  34.324  0.00  0.00     0.275 HD
ENDBRANCH 104 106
BRANCH 104 110
ATOM    110  CB  PHE d   1     -14.633  -2.136  37.021  0.00  0.00    -0.006 C 
ATOM    111  H5  PHE d   1     -13.979  -1.440  37.567  0.00  0.00     0.043 H 
ATOM    112  H6  PHE d   1     -14.462  -3.160  37.384  0.00  0.00     0.043 H 
BRANCH 110 113
ATOM    113  CG  PHE d   1     -16.060  -1.766  37.306  0.00  0.00    -0.056 A 
ATOM    114  CD1 PHE d   1     -17.049  -2.742  37.340  0.00  0.00    -0.077 A 
ATOM    115  CE1 PHE d   1     -18.366  -2.409  37.607  0.00  0.00    -0.082 A 
ATOM    116  H7  PHE d   1     -16.786  -3.777  37.155  0.00  0.00     0.084 H 
ATOM    117  CZ  PHE d   1     -18.709  -1.089  37.847  0.00  0.00    -0.083 A 
ATOM    118  H9  PHE d   1     -19.127  -3.180  37.628  0.00  0.00     0.083 H 
ATOM    119  CE2 PHE d   1     -17.733  -0.107  37.819  0.00  0.00    -0.082 A 
ATOM    120  H11 PHE d   1     -19.739  -0.825  38.056  0.00  0.00     0.083 H 
ATOM    121  CD2 PHE d   1     -16.417  -0.447  37.551  0.00  0.00    -0.077 A 
ATOM    122  H10 PHE d   1     -17.999   0.927  38.007  0.00  0.00     0.083 H 
ATOM    123  H8  PHE d   1     -15.657   0.326  37.532  0.00  0.00     0.084 H 
ENDBRANCH 110 113
ENDBRANCH 104 110
ENDBRANCH 101 104
ENDBRANCH  98 100
BRANCH  98 124
ATOM    124  CB  ALA d   1     -14.728   0.786  31.679  0.00  0.00    -0.049 C 
ATOM    125  H14 ALA d   1     -14.617   1.777  31.215  0.00  0.00     0.030 H 
ATOM    126  H15 ALA d   1     -15.764   0.438  31.557  0.00  0.00     0.030 H 
ATOM    127  H16 ALA d   1     -14.043   0.075  31.194  0.00  0.00     0.030 H 
ENDBRANCH  98 124
ENDBRANCH  86  98
ENDBRANCH  81  84
ENDBRANCH  77  80
ENDBRANCH  74  77
ENDBRANCH  71  73
BRANCH  71 128
ATOM    128  CB  ASN d   1     -22.319   7.824  35.218  0.00  0.00     0.036 C 
ATOM    129  H29 ASN d   1     -22.708   8.840  35.378  0.00  0.00     0.051 H 
ATOM    130  H30 ASN d   1     -21.571   7.592  35.990  0.00  0.00     0.051 H 
BRANCH 128 131
ATOM    131  CG  ASN d   1     -23.467   6.840  35.345  0.00  0.00     0.217 C 
ATOM    132  OD1 ASN d   1     -23.623   6.185  36.376  0.00  0.00    -0.274 OA
ATOM    133  ND2 ASN d   1     -24.278   6.731  34.299  0.00  0.00    -0.370 N 
ATOM    134  H31 ASN d   1     -25.051   6.097  34.329  0.00  0.00     0.159 HD
ATOM    135  H32 ASN d   1     -24.116   7.283  33.481  0.00  0.00     0.159 HD
ENDBRANCH 128 131
ENDBRANCH  71 128
ENDBRANCH   1  71
TORSDOF 28
