REMARK  29 active torsions:
REMARK  status: ('A' for Active; 'I' for Inactive)
REMARK    1  A    between atoms: N_1  and  CA_2 
REMARK    2  A    between atoms: CA_2  and  C_3 
REMARK    3  A    between atoms: CA_2  and  CB_5 
REMARK       I    between atoms: C_3  and  N_12 
REMARK    4  A    between atoms: CB_5  and  CG_6 
REMARK    5  A    between atoms: N_12  and  CA_13 
REMARK    6  A    between atoms: CA_13  and  C_14 
REMARK    7  A    between atoms: CA_13  and  CB_16 
REMARK       I    between atoms: C_14  and  N_17 
REMARK    8  A    between atoms: CA_18  and  C_19 
REMARK       I    between atoms: C_19  and  N_24 
REMARK    9  A    between atoms: N_24  and  CA_25 
REMARK   10  A    between atoms: CA_25  and  C_26 
REMARK       I    between atoms: C_26  and  N_28 
REMARK   11  A    between atoms: N_28  and  CA_29 
REMARK   12  A    between atoms: CA_29  and  C_30 
REMARK   13  A    between atoms: CA_29  and  CB_32 
REMARK       I    between atoms: C_30  and  N_36 
REMARK   14  A    between atoms: CB_32  and  CG_33 
REMARK       I    between atoms: CG_33  and  ND2_35 
REMARK   15  A    between atoms: N_36  and  CA_37 
REMARK   16  A    between atoms: CA_37  and  CB_38 
REMARK   17  A    between atoms: CA_37  and  C_46 
REMARK   18  A    between atoms: CB_38  and  CG_39 
REMARK   19  A    between atoms: CZ_44  and  OH_45 
REMARK       I    between atoms: C_46  and  N_50 
REMARK   20  A    between atoms: CA_51  and  C_52 
REMARK       I    between atoms: C_52  and  N_57 
REMARK   21  A    between atoms: N_57  and  CA_58 
REMARK   22  A    between atoms: CA_58  and  C_59 
REMARK   23  A    between atoms: CA_58  and  CB_61 
REMARK       I    between atoms: C_59  and  N_62 
REMARK   24  A    between atoms: N_62  and  CA_63 
REMARK   25  A    between atoms: CA_63  and  C_64 
REMARK   26  A    between atoms: CA_63  and  CB_66 
REMARK   27  A    between atoms: CB_66  and  CG_67 
REMARK   28  A    between atoms: CG_67  and  CD1_68 
REMARK   29  A    between atoms: CG_67  and  CD2_69 
ROOT
ATOM      1  C   ASN d   1     -37.196  28.765  -8.293  0.00  0.00     0.241 C 
ATOM      2  O   ASN d   1     -37.188  29.095  -7.102  0.00  0.00    -0.271 OA
ATOM      3  N   TYI d   1     -36.384  29.308  -9.199  0.00  0.00    -0.346 N 
ATOM      4  H33 TYI d   1     -36.315  28.884 -10.102  0.00  0.00     0.163 HD
ENDROOT
BRANCH   1   5
ATOM      5  CA  ASN d   1     -38.153  27.674  -8.803  0.00  0.00     0.097 C 
ATOM      6  H28 ASN d   1     -38.839  28.155  -9.517  0.00  0.00     0.088 H 
BRANCH   5   7
ATOM      7  N   ASN d   1     -37.500  26.570  -9.497  0.00  0.00    -0.346 N 
ATOM      8  C   GLY d   1     -36.550  25.821  -8.938  0.00  0.00     0.236 C 
ATOM      9  O   GLY d   1     -35.851  26.183  -7.980  0.00  0.00    -0.272 OA
ATOM     10  H27 ASN d   1     -37.778  26.366 -10.436  0.00  0.00     0.163 HD
BRANCH   8  11
ATOM     11  CA  GLY d   1     -36.336  24.474  -9.594  0.00  0.00     0.069 C 
ATOM     12  H25 GLY d   1     -37.300  23.949  -9.655  0.00  0.00     0.078 H 
ATOM     13  H26 GLY d   1     -35.938  24.629 -10.608  0.00  0.00     0.078 H 
BRANCH  11  14
ATOM     14  N   GLY d   1     -35.403  23.660  -8.842  0.00  0.00    -0.351 N 
ATOM     15  C   PRO d   1     -34.093  23.724  -9.056  0.00  0.00     0.241 C 
ATOM     16  O   PRO d   1     -33.584  24.494  -9.875  0.00  0.00    -0.271 OA
ATOM     17  H24 GLY d   1     -35.753  23.035  -8.145  0.00  0.00     0.163 HD
BRANCH  15  18
ATOM     18  CA  PRO d   1     -33.203  22.814  -8.207  0.00  0.00     0.091 C 
ATOM     19  N   PRO d   1     -31.829  23.257  -8.316  0.00  0.00    -0.337 N 
ATOM     20  C   ALA d   1     -30.748  22.757  -8.958  0.00  0.00     0.243 C 
ATOM     21  CD  PRO d   1     -31.636  24.428  -7.444  0.00  0.00    -0.001 C 
ATOM     22  O   ALA d   1     -29.701  23.404  -9.083  0.00  0.00    -0.271 OA
ATOM     23  CG  PRO d   1     -32.783  24.335  -6.455  0.00  0.00    -0.048 C 
ATOM     24  H22 PRO d   1     -31.692  25.361  -8.023  0.00  0.00     0.064 H 
ATOM     25  H23 PRO d   1     -30.667  24.376  -6.926  0.00  0.00     0.064 H 
ATOM     26  CB  PRO d   1     -33.487  23.046  -6.728  0.00  0.00    -0.036 C 
ATOM     27  H20 PRO d   1     -32.396  24.344  -5.425  0.00  0.00     0.035 H 
ATOM     28  H21 PRO d   1     -33.473  25.180  -6.595  0.00  0.00     0.035 H 
ATOM     29  H18 PRO d   1     -33.076  22.232  -6.113  0.00  0.00     0.036 H 
ATOM     30  H19 PRO d   1     -34.567  23.137  -6.541  0.00  0.00     0.036 H 
ATOM     31  H17 PRO d   1     -33.330  21.761  -8.497  0.00  0.00     0.087 H 
BRANCH  20  32
ATOM     32  CA  ALA d   1     -30.848  21.352  -9.588  0.00  0.00     0.086 C 
ATOM     33  H13 ALA d   1     -29.848  21.127  -9.987  0.00  0.00     0.086 H 
BRANCH  32  34
ATOM     34  N   ALA d   1     -31.173  20.248  -8.656  0.00  0.00    -0.346 N 
ATOM     35  C   PHE d   1     -30.560  20.072  -7.480  0.00  0.00     0.249 C 
ATOM     36  O   PHE d   1     -29.757  20.881  -7.002  0.00  0.00    -0.271 OA
ATOM     37  H12 ALA d   1     -31.888  19.600  -8.919  0.00  0.00     0.163 HD
BRANCH  35  38
ATOM     38  CA  PHE d   1     -30.888  18.781  -6.726  0.00  0.00     0.179 C 
ATOM     39  H4  PHE d   1     -31.773  18.311  -7.180  0.00  0.00     0.099 H 
BRANCH  38  40
ATOM     40  N   PHE d   1     -29.719  17.857  -6.842  0.00  0.00    -0.066 N 
ATOM     41  H1  PHE d   1     -29.918  17.000  -6.350  0.00  0.00     0.275 HD
ATOM     42  H2  PHE d   1     -28.904  18.294  -6.440  0.00  0.00     0.275 HD
ATOM     43  H3  PHE d   1     -29.546  17.654  -7.814  0.00  0.00     0.275 HD
ENDBRANCH  38  40
BRANCH  38  44
ATOM     44  CB  PHE d   1     -31.180  19.070  -5.245  0.00  0.00    -0.006 C 
ATOM     45  H5  PHE d   1     -30.828  20.087  -5.017  0.00  0.00     0.043 H 
ATOM     46  H6  PHE d   1     -30.622  18.343  -4.636  0.00  0.00     0.043 H 
BRANCH  44  47
ATOM     47  CG  PHE d   1     -32.641  18.980  -4.867  0.00  0.00    -0.056 A 
ATOM     48  CD1 PHE d   1     -33.303  17.753  -4.860  0.00  0.00    -0.077 A 
ATOM     49  CE1 PHE d   1     -34.643  17.665  -4.498  0.00  0.00    -0.082 A 
ATOM     50  H7  PHE d   1     -32.766  16.855  -5.141  0.00  0.00     0.084 H 
ATOM     51  CZ  PHE d   1     -35.338  18.807  -4.127  0.00  0.00    -0.083 A 
ATOM     52  H9  PHE d   1     -35.144  16.704  -4.506  0.00  0.00     0.083 H 
ATOM     53  CE2 PHE d   1     -34.691  20.035  -4.120  0.00  0.00    -0.082 A 
ATOM     54  H11 PHE d   1     -36.382  18.741  -3.844  0.00  0.00     0.083 H 
ATOM     55  CD2 PHE d   1     -33.352  20.118  -4.483  0.00  0.00    -0.077 A 
ATOM     56  H10 PHE d   1     -35.230  20.930  -3.831  0.00  0.00     0.083 H 
ATOM     57  H8  PHE d   1     -32.853  21.080  -4.468  0.00  0.00     0.084 H 
ENDBRANCH  44  47
ENDBRANCH  38  44
ENDBRANCH  35  38
ENDBRANCH  32  34
BRANCH  32  58
ATOM     58  CB  ALA d   1     -31.812  21.357 -10.774  0.00  0.00    -0.049 C 
ATOM     59  H14 ALA d   1     -31.554  22.183 -11.453  0.00  0.00     0.030 H 
ATOM     60  H15 ALA d   1     -32.841  21.490 -10.409  0.00  0.00     0.030 H 
ATOM     61  H16 ALA d   1     -31.735  20.401 -11.313  0.00  0.00     0.030 H 
ENDBRANCH  32  58
ENDBRANCH  20  32
ENDBRANCH  15  18
ENDBRANCH  11  14
ENDBRANCH   8  11
ENDBRANCH   5   7
BRANCH   5  62
ATOM     62  CB  ASN d   1     -38.987  27.094  -7.650  0.00  0.00     0.036 C 
ATOM     63  H29 ASN d   1     -38.365  27.070  -6.743  0.00  0.00     0.051 H 
ATOM     64  H30 ASN d   1     -39.289  26.070  -7.915  0.00  0.00     0.051 H 
BRANCH  62  65
ATOM     65  CG  ASN d   1     -40.231  27.905  -7.361  0.00  0.00     0.217 C 
ATOM     66  OD1 ASN d   1     -41.140  27.985  -8.189  0.00  0.00    -0.274 OA
ATOM     67  ND2 ASN d   1     -40.287  28.498  -6.175  0.00  0.00    -0.370 N 
ATOM     68  H31 ASN d   1     -41.085  29.047  -5.928  0.00  0.00     0.159 HD
ATOM     69  H32 ASN d   1     -39.531  28.395  -5.528  0.00  0.00     0.159 HD
ENDBRANCH  62  65
ENDBRANCH   5  62
ENDBRANCH   1   5
BRANCH   3  70
ATOM     70  CA  TYI d   1     -35.590  30.505  -8.917  0.00  0.00     0.093 C 
ATOM     71  H34 TYI d   1     -35.275  30.492  -7.863  0.00  0.00     0.088 H 
BRANCH  70  72
ATOM     72  CB  TYI d   1     -34.361  30.587  -9.807  0.00  0.00    -0.014 C 
ATOM     73  H35 TYI d   1     -33.900  31.574  -9.653  0.00  0.00     0.043 H 
ATOM     74  H36 TYI d   1     -34.696  30.498 -10.851  0.00  0.00     0.043 H 
BRANCH  72  75
ATOM     75  CG  TYI d   1     -33.297  29.537  -9.571  0.00  0.00    -0.053 A 
ATOM     76  CD1 TYI d   1     -32.849  29.141  -8.291  0.00  0.00    -0.058 A 
ATOM     77  CE1 TYI d   1     -31.839  28.166  -8.169  0.00  0.00     0.041 A 
ATOM     78  H37 TYI d   1     -33.282  29.587  -7.403  0.00  0.00     0.086 H 
ATOM     79  CZ  TYI d   1     -31.265  27.607  -9.322  0.00  0.00     0.098 A 
ATOM     80  I1  TYI d   1     -31.087  27.483  -6.333  0.00  0.00    -0.042 I 
ATOM     81  CE2 TYI d   1     -31.720  28.024 -10.571  0.00  0.00     0.041 A 
ATOM     82  CD2 TYI d   1     -32.722  28.975 -10.711  0.00  0.00    -0.058 A 
ATOM     83  I2  TYI d   1     -30.822  27.130 -12.214  0.00  0.00    -0.042 I 
ATOM     84  H38 TYI d   1     -33.054  29.278 -11.697  0.00  0.00     0.086 H 
BRANCH  79  85
ATOM     85  OH  TYI d   1     -30.270  26.657  -9.256  0.00  0.00    -0.358 OA
ATOM     86  H39 TYI d   1     -29.494  26.982  -9.696  0.00  0.00     0.217 HD
ENDBRANCH  79  85
ENDBRANCH  72  75
ENDBRANCH  70  72
BRANCH  70  87
ATOM     87  C   TYI d   1     -36.449  31.719  -9.184  0.00  0.00     0.243 C 
ATOM     88  O   TYI d   1     -37.330  31.683 -10.035  0.00  0.00    -0.271 OA
ATOM     89  N   PRO d   1     -36.197  32.819  -8.481  0.00  0.00    -0.337 N 
ATOM     90  CA  PRO d   1     -37.025  34.018  -8.663  0.00  0.00     0.091 C 
ATOM     91  CD  PRO d   1     -35.124  33.037  -7.487  0.00  0.00    -0.001 C 
ATOM     92  CB  PRO d   1     -36.621  34.904  -7.480  0.00  0.00    -0.036 C 
ATOM     93  H40 PRO d   1     -38.092  33.757  -8.610  0.00  0.00     0.087 H 
ATOM     94  CG  PRO d   1     -35.218  34.502  -7.172  0.00  0.00    -0.048 C 
ATOM     95  H41 PRO d   1     -37.276  34.721  -6.616  0.00  0.00     0.036 H 
ATOM     96  H42 PRO d   1     -36.668  35.968  -7.757  0.00  0.00     0.036 H 
ATOM     97  H43 PRO d   1     -34.995  34.679  -6.109  0.00  0.00     0.035 H 
ATOM     98  H44 PRO d   1     -34.513  35.072  -7.794  0.00  0.00     0.035 H 
ATOM     99  H45 PRO d   1     -34.140  32.790  -7.912  0.00  0.00     0.064 H 
ATOM    100  H46 PRO d   1     -35.296  32.431  -6.585  0.00  0.00     0.064 H 
BRANCH  90 101
ATOM    101  C   PRO d   1     -36.757  34.729  -9.982  0.00  0.00     0.241 C 
ATOM    102  O   PRO d   1     -35.648  34.672 -10.492  0.00  0.00    -0.271 OA
ATOM    103  N   ALA d   1     -37.767  35.405 -10.515  0.00  0.00    -0.346 N 
ATOM    104  H47 ALA d   1     -38.633  35.451 -10.017  0.00  0.00     0.163 HD
BRANCH 103 105
ATOM    105  CA  ALA d   1     -37.658  36.087 -11.808  0.00  0.00     0.086 C 
ATOM    106  H48 ALA d   1     -37.326  35.357 -12.561  0.00  0.00     0.086 H 
BRANCH 105 107
ATOM    107  C   ALA d   1     -36.643  37.208 -11.738  0.00  0.00     0.240 C 
ATOM    108  O   ALA d   1     -36.530  37.877 -10.711  0.00  0.00    -0.271 OA
ATOM    109  N   LEU d   1     -35.905  37.402 -12.829  0.00  0.00    -0.345 N 
ATOM    110  H52 LEU d   1     -35.976  36.752 -13.586  0.00  0.00     0.163 HD
BRANCH 109 111
ATOM    111  CA  LEU d   1     -34.998  38.532 -12.951  0.00  0.00     0.096 C 
ATOM    112  H53 LEU d   1     -34.356  38.571 -12.059  0.00  0.00     0.089 H 
BRANCH 111 113
ATOM    113  C   LEU d   1     -35.808  39.820 -13.039  0.00  0.00     0.196 C 
ATOM    114  O   LEU d   1     -36.999  39.770 -13.328  0.00  0.00    -0.646 OA
ATOM    115  OXT LEU d   1     -35.309  40.932 -12.820  0.00  0.00    -0.646 OA
ENDBRANCH 111 113
BRANCH 111 116
ATOM    116  CB  LEU d   1     -34.110  38.390 -14.190  0.00  0.00    -0.034 C 
ATOM    117  H54 LEU d   1     -33.545  39.328 -14.298  0.00  0.00     0.037 H 
ATOM    118  H55 LEU d   1     -34.774  38.260 -15.057  0.00  0.00     0.037 H 
BRANCH 116 119
ATOM    119  CG  LEU d   1     -33.098  37.241 -14.213  0.00  0.00    -0.059 C 
ATOM    120  H56 LEU d   1     -33.650  36.295 -14.110  0.00  0.00     0.038 H 
BRANCH 119 121
ATOM    121  CD1 LEU d   1     -32.339  37.216 -15.531  0.00  0.00    -0.073 C 
ATOM    122  H57 LEU d   1     -31.619  36.384 -15.524  0.00  0.00     0.028 H 
ATOM    123  H58 LEU d   1     -31.800  38.166 -15.662  0.00  0.00     0.028 H 
ATOM    124  H59 LEU d   1     -33.049  37.080 -16.360  0.00  0.00     0.028 H 
ENDBRANCH 119 121
BRANCH 119 125
ATOM    125  CD2 LEU d   1     -32.117  37.351 -13.064  0.00  0.00    -0.073 C 
ATOM    126  H60 LEU d   1     -32.668  37.369 -12.112  0.00  0.00     0.028 H 
ATOM    127  H61 LEU d   1     -31.534  38.278 -13.167  0.00  0.00     0.028 H 
ATOM    128  H62 LEU d   1     -31.437  36.486 -13.078  0.00  0.00     0.028 H 
ENDBRANCH 119 125
ENDBRANCH 116 119
ENDBRANCH 111 116
ENDBRANCH 109 111
ENDBRANCH 105 107
BRANCH 105 129
ATOM    129  CB  ALA d   1     -39.011  36.649 -12.234  0.00  0.00    -0.049 C 
ATOM    130  H49 ALA d   1     -38.908  37.156 -13.205  0.00  0.00     0.030 H 
ATOM    131  H50 ALA d   1     -39.363  37.368 -11.480  0.00  0.00     0.030 H 
ATOM    132  H51 ALA d   1     -39.737  35.828 -12.324  0.00  0.00     0.030 H 
ENDBRANCH 105 129
ENDBRANCH 103 105
ENDBRANCH  90 101
ENDBRANCH  70  87
ENDBRANCH   3  70
TORSDOF 29
