REMARK  27 active torsions:
REMARK  status: ('A' for Active; 'I' for Inactive)
REMARK    1  A    between atoms: N_1  and  CA_2 
REMARK    2  A    between atoms: CA_2  and  C_3 
REMARK    3  A    between atoms: CA_2  and  CB_5 
REMARK       I    between atoms: C_3  and  N_12 
REMARK    4  A    between atoms: CB_5  and  CG_6 
REMARK    5  A    between atoms: N_12  and  CA_13 
REMARK    6  A    between atoms: CA_13  and  C_14 
REMARK    7  A    between atoms: CA_13  and  CB_16 
REMARK       I    between atoms: C_14  and  N_17 
REMARK    8  A    between atoms: CA_18  and  C_19 
REMARK       I    between atoms: C_19  and  N_24 
REMARK    9  A    between atoms: N_24  and  CA_25 
REMARK   10  A    between atoms: CA_25  and  C_26 
REMARK       I    between atoms: C_26  and  N_28 
REMARK   11  A    between atoms: N_28  and  CA_29 
REMARK   12  A    between atoms: CA_29  and  C_30 
REMARK   13  A    between atoms: CA_29  and  CB_32 
REMARK       I    between atoms: C_30  and  N_36 
REMARK   14  A    between atoms: CB_32  and  CG_33 
REMARK       I    between atoms: CG_33  and  ND2_35 
REMARK   15  A    between atoms: N_36  and  CA_37 
REMARK   16  A    between atoms: CA_37  and  C_38 
REMARK   17  A    between atoms: CA_37  and  CB_40 
REMARK       I    between atoms: C_38  and  N_48 
REMARK   18  A    between atoms: CB_40  and  CG_41 
REMARK   19  A    between atoms: CZ_46  and  OH_47 
REMARK   20  A    between atoms: CA_49  and  C_50 
REMARK       I    between atoms: C_50  and  N_55 
REMARK   21  A    between atoms: N_55  and  CA_56 
REMARK   22  A    between atoms: CA_56  and  C_57 
REMARK   23  A    between atoms: CA_56  and  CB_59 
REMARK       I    between atoms: C_57  and  N_60 
REMARK   24  A    between atoms: N_60  and  CA_61 
REMARK   25  A    between atoms: CA_61  and  C_62 
REMARK   26  A    between atoms: CA_61  and  CB_64 
REMARK   27  A    between atoms: CB_64  and  CG_65 
ROOT
ATOM      1  C   ASN d   1      59.520  26.153  -5.775  0.00  0.00     0.241 C 
ATOM      2  O   ASN d   1      59.413  25.063  -6.334  0.00  0.00    -0.271 OA
ATOM      3  N   TYR d   1      58.706  27.175  -6.014  0.00  0.00    -0.346 N 
ATOM      4  H33 TYR d   1      58.709  27.957  -5.391  0.00  0.00     0.163 HD
ENDROOT
BRANCH   1   5
ATOM      5  CA  ASN d   1      60.617  26.395  -4.749  0.00  0.00     0.097 C 
ATOM      6  H28 ASN d   1      60.670  27.477  -4.556  0.00  0.00     0.088 H 
BRANCH   5   7
ATOM      7  N   ASN d   1      60.353  25.730  -3.480  0.00  0.00    -0.346 N 
ATOM      8  C   GLY d   1      60.626  26.320  -2.319  0.00  0.00     0.236 C 
ATOM      9  O   GLY d   1      61.125  27.440  -2.247  0.00  0.00    -0.272 OA
ATOM     10  H27 ASN d   1      59.959  24.811  -3.482  0.00  0.00     0.163 HD
BRANCH   8  11
ATOM     11  CA  GLY d   1      60.304  25.552  -1.053  0.00  0.00     0.069 C 
ATOM     12  H25 GLY d   1      61.250  25.314  -0.545  0.00  0.00     0.078 H 
ATOM     13  H26 GLY d   1      59.693  26.198  -0.406  0.00  0.00     0.078 H 
BRANCH  11  14
ATOM     14  N   GLY d   1      59.577  24.305  -1.270  0.00  0.00    -0.351 N 
ATOM     15  C   PRO d   1      58.261  24.208  -1.104  0.00  0.00     0.241 C 
ATOM     16  O   PRO d   1      57.539  25.163  -0.810  0.00  0.00    -0.271 OA
ATOM     17  H24 GLY d   1      60.087  23.493  -1.554  0.00  0.00     0.163 HD
BRANCH  15  18
ATOM     18  CA  PRO d   1      57.654  22.824  -1.294  0.00  0.00     0.091 C 
ATOM     19  N   PRO d   1      56.730  22.496  -0.215  0.00  0.00    -0.337 N 
ATOM     20  C   ALA d   1      57.158  22.481   1.059  0.00  0.00     0.243 C 
ATOM     21  CD  PRO d   1      55.397  22.123  -0.721  0.00  0.00    -0.001 C 
ATOM     22  O   ALA d   1      58.345  22.617   1.361  0.00  0.00    -0.271 OA
ATOM     23  CG  PRO d   1      55.629  21.921  -2.190  0.00  0.00    -0.048 C 
ATOM     24  H22 PRO d   1      54.669  22.928  -0.544  0.00  0.00     0.064 H 
ATOM     25  H23 PRO d   1      55.041  21.196  -0.247  0.00  0.00     0.064 H 
ATOM     26  CB  PRO d   1      56.769  22.801  -2.543  0.00  0.00    -0.036 C 
ATOM     27  H20 PRO d   1      55.878  20.870  -2.398  0.00  0.00     0.035 H 
ATOM     28  H21 PRO d   1      54.734  22.206  -2.762  0.00  0.00     0.035 H 
ATOM     29  H18 PRO d   1      57.322  22.392  -3.401  0.00  0.00     0.036 H 
ATOM     30  H19 PRO d   1      56.415  23.814  -2.785  0.00  0.00     0.036 H 
ATOM     31  H17 PRO d   1      58.457  22.076  -1.363  0.00  0.00     0.087 H 
BRANCH  20  32
ATOM     32  CA  ALA d   1      56.106  22.273   2.148  0.00  0.00     0.086 C 
ATOM     33  H13 ALA d   1      55.335  21.592   1.759  0.00  0.00     0.086 H 
BRANCH  32  34
ATOM     34  N   ALA d   1      56.698  21.668   3.331  0.00  0.00    -0.346 N 
ATOM     35  C   PHE d   1      57.038  20.383   3.360  0.00  0.00     0.249 C 
ATOM     36  O   PHE d   1      56.944  19.639   2.380  0.00  0.00    -0.271 OA
ATOM     37  H12 ALA d   1      56.853  22.232   4.142  0.00  0.00     0.163 HD
BRANCH  35  38
ATOM     38  CA  PHE d   1      57.533  19.850   4.699  0.00  0.00     0.179 C 
ATOM     39  H4  PHE d   1      57.838  20.695   5.333  0.00  0.00     0.099 H 
BRANCH  38  40
ATOM     40  N   PHE d   1      56.419  19.114   5.355  0.00  0.00    -0.066 N 
ATOM     41  H1  PHE d   1      56.731  18.755   6.244  0.00  0.00     0.275 HD
ATOM     42  H2  PHE d   1      56.129  18.349   4.766  0.00  0.00     0.275 HD
ATOM     43  H3  PHE d   1      55.642  19.740   5.500  0.00  0.00     0.275 HD
ENDBRANCH  38  40
BRANCH  38  44
ATOM     44  CB  PHE d   1      58.727  18.913   4.515  0.00  0.00    -0.006 C 
ATOM     45  H5  PHE d   1      58.558  18.312   3.609  0.00  0.00     0.043 H 
ATOM     46  H6  PHE d   1      58.783  18.249   5.390  0.00  0.00     0.043 H 
BRANCH  44  47
ATOM     47  CG  PHE d   1      60.041  19.617   4.374  0.00  0.00    -0.056 A 
ATOM     48  CD1 PHE d   1      60.599  19.833   3.122  0.00  0.00    -0.077 A 
ATOM     49  CE1 PHE d   1      61.821  20.475   2.993  0.00  0.00    -0.082 A 
ATOM     50  H7  PHE d   1      60.074  19.496   2.236  0.00  0.00     0.084 H 
ATOM     51  CZ  PHE d   1      62.499  20.908   4.121  0.00  0.00    -0.083 A 
ATOM     52  H9  PHE d   1      62.246  20.638   2.009  0.00  0.00     0.083 H 
ATOM     53  CE2 PHE d   1      61.955  20.692   5.375  0.00  0.00    -0.082 A 
ATOM     54  H11 PHE d   1      63.452  21.414   4.022  0.00  0.00     0.083 H 
ATOM     55  CD2 PHE d   1      60.733  20.048   5.498  0.00  0.00    -0.077 A 
ATOM     56  H10 PHE d   1      62.484  21.026   6.261  0.00  0.00     0.083 H 
ATOM     57  H8  PHE d   1      60.313  19.879   6.483  0.00  0.00     0.084 H 
ENDBRANCH  44  47
ENDBRANCH  38  44
ENDBRANCH  35  38
ENDBRANCH  32  34
BRANCH  32  58
ATOM     58  CB  ALA d   1      55.445  23.595   2.506  0.00  0.00    -0.049 C 
ATOM     59  H14 ALA d   1      55.002  24.040   1.603  0.00  0.00     0.030 H 
ATOM     60  H15 ALA d   1      56.198  24.281   2.921  0.00  0.00     0.030 H 
ATOM     61  H16 ALA d   1      54.656  23.420   3.253  0.00  0.00     0.030 H 
ENDBRANCH  32  58
ENDBRANCH  20  32
ENDBRANCH  15  18
ENDBRANCH  11  14
ENDBRANCH   8  11
ENDBRANCH   5   7
BRANCH   5  62
ATOM     62  CB  ASN d   1      61.960  25.942  -5.329  0.00  0.00     0.036 C 
ATOM     63  H29 ASN d   1      61.969  24.843  -5.383  0.00  0.00     0.051 H 
ATOM     64  H30 ASN d   1      62.766  26.283  -4.662  0.00  0.00     0.051 H 
BRANCH  62  65
ATOM     65  CG  ASN d   1      62.210  26.502  -6.724  0.00  0.00     0.217 C 
ATOM     66  OD1 ASN d   1      62.065  27.704  -6.961  0.00  0.00    -0.274 OA
ATOM     67  ND2 ASN d   1      62.570  25.627  -7.658  0.00  0.00    -0.370 N 
ATOM     68  H31 ASN d   1      62.747  25.937  -8.592  0.00  0.00     0.159 HD
ATOM     69  H32 ASN d   1      62.663  24.659  -7.426  0.00  0.00     0.159 HD
ENDBRANCH  62  65
ENDBRANCH   5  62
ENDBRANCH   1   5
BRANCH   3  70
ATOM     70  CA  TYR d   1      57.810  27.184  -7.160  0.00  0.00     0.093 C 
ATOM     71  H34 TYR d   1      57.666  26.156  -7.523  0.00  0.00     0.088 H 
BRANCH  70  72
ATOM     72  C   TYR d   1      58.478  28.024  -8.240  0.00  0.00     0.243 C 
ATOM     73  O   TYR d   1      58.550  29.248  -8.114  0.00  0.00    -0.271 OA
ATOM     74  N   PRO d   1      58.986  27.374  -9.300  0.00  0.00    -0.337 N 
ATOM     75  CA  PRO d   1      59.695  28.127 -10.333  0.00  0.00     0.091 C 
ATOM     76  CD  PRO d   1      58.830  25.953  -9.656  0.00  0.00    -0.001 C 
ATOM     77  CB  PRO d   1      60.187  27.039 -11.292  0.00  0.00    -0.036 C 
ATOM     78  H42 PRO d   1      60.542  28.680  -9.901  0.00  0.00     0.087 H 
ATOM     79  CG  PRO d   1      59.257  25.900 -11.090  0.00  0.00    -0.048 C 
ATOM     80  H43 PRO d   1      61.218  26.744 -11.046  0.00  0.00     0.036 H 
ATOM     81  H44 PRO d   1      60.145  27.393 -12.333  0.00  0.00     0.036 H 
ATOM     82  H45 PRO d   1      59.769  24.949 -11.300  0.00  0.00     0.035 H 
ATOM     83  H46 PRO d   1      58.383  26.000 -11.751  0.00  0.00     0.035 H 
ATOM     84  H47 PRO d   1      57.783  25.633  -9.546  0.00  0.00     0.064 H 
ATOM     85  H48 PRO d   1      59.475  25.318  -9.031  0.00  0.00     0.064 H 
BRANCH  75  86
ATOM     86  C   PRO d   1      58.768  29.102 -11.041  0.00  0.00     0.241 C 
ATOM     87  O   PRO d   1      57.592  28.800 -11.231  0.00  0.00    -0.271 OA
ATOM     88  N   ALA d   1      59.289  30.265 -11.411  0.00  0.00    -0.346 N 
ATOM     89  H49 ALA d   1      60.264  30.433 -11.268  0.00  0.00     0.163 HD
BRANCH  88  90
ATOM     90  CA  ALA d   1      58.465  31.303 -12.023  0.00  0.00     0.086 C 
ATOM     91  H50 ALA d   1      57.583  31.454 -11.383  0.00  0.00     0.086 H 
BRANCH  90  92
ATOM     92  C   ALA d   1      57.973  30.891 -13.412  0.00  0.00     0.240 C 
ATOM     93  O   ALA d   1      58.657  30.159 -14.134  0.00  0.00    -0.271 OA
ATOM     94  N   PHE d   1      56.783  31.371 -13.774  0.00  0.00    -0.344 N 
ATOM     95  H54 PHE d   1      56.284  31.957 -13.135  0.00  0.00     0.163 HD
BRANCH  94  96
ATOM     96  CA  PHE d   1      56.181  31.071 -15.073  0.00  0.00     0.100 C 
ATOM     97  H55 PHE d   1      56.244  29.985 -15.233  0.00  0.00     0.090 H 
BRANCH  96  98
ATOM     98  C   PHE d   1      56.911  31.769 -16.222  0.00  0.00     0.197 C 
ATOM     99  O   PHE d   1      57.910  32.469 -16.032  0.00  0.00    -0.646 OA
ATOM    100  OXT PHE d   1      56.506  31.647 -17.382  0.00  0.00    -0.646 OA
ENDBRANCH  96  98
BRANCH  96 101
ATOM    101  CB  PHE d   1      54.702  31.484 -15.095  0.00  0.00    -0.013 C 
ATOM    102  H56 PHE d   1      54.319  31.335 -16.116  0.00  0.00     0.043 H 
ATOM    103  H57 PHE d   1      54.640  32.550 -14.832  0.00  0.00     0.043 H 
BRANCH 101 104
ATOM    104  CG  PHE d   1      53.818  30.712 -14.143  0.00  0.00    -0.056 A 
ATOM    105  CD1 PHE d   1      54.225  29.507 -13.578  0.00  0.00    -0.077 A 
ATOM    106  CE1 PHE d   1      53.393  28.806 -12.723  0.00  0.00    -0.082 A 
ATOM    107  H58 PHE d   1      55.207  29.112 -13.811  0.00  0.00     0.084 H 
ATOM    108  CZ  PHE d   1      52.135  29.292 -12.436  0.00  0.00    -0.083 A 
ATOM    109  H60 PHE d   1      53.730  27.876 -12.279  0.00  0.00     0.083 H 
ATOM    110  CE2 PHE d   1      51.714  30.480 -12.997  0.00  0.00    -0.082 A 
ATOM    111  H62 PHE d   1      51.478  28.742 -11.771  0.00  0.00     0.083 H 
ATOM    112  CD2 PHE d   1      52.548  31.180 -13.849  0.00  0.00    -0.077 A 
ATOM    113  H61 PHE d   1      50.727  30.866 -12.769  0.00  0.00     0.083 H 
ATOM    114  H59 PHE d   1      52.203  32.107 -14.293  0.00  0.00     0.084 H 
ENDBRANCH 101 104
ENDBRANCH  96 101
ENDBRANCH  94  96
ENDBRANCH  90  92
BRANCH  90 115
ATOM    115  CB  ALA d   1      59.227  32.619 -12.097  0.00  0.00    -0.049 C 
ATOM    116  H51 ALA d   1      58.589  33.386 -12.560  0.00  0.00     0.030 H 
ATOM    117  H52 ALA d   1      60.136  32.483 -12.702  0.00  0.00     0.030 H 
ATOM    118  H53 ALA d   1      59.506  32.938 -11.082  0.00  0.00     0.030 H 
ENDBRANCH  90 115
ENDBRANCH  88  90
ENDBRANCH  75  86
ENDBRANCH  70  72
BRANCH  70 119
ATOM    119  CB  TYR d   1      56.451  27.777  -6.797  0.00  0.00    -0.014 C 
ATOM    120  H35 TYR d   1      55.842  27.835  -7.712  0.00  0.00     0.043 H 
ATOM    121  H36 TYR d   1      56.610  28.789  -6.397  0.00  0.00     0.043 H 
BRANCH 119 122
ATOM    122  CG  TYR d   1      55.694  26.977  -5.774  0.00  0.00    -0.056 A 
ATOM    123  CD1 TYR d   1      54.848  25.944  -6.154  0.00  0.00    -0.074 A 
ATOM    124  CE1 TYR d   1      54.150  25.210  -5.210  0.00  0.00    -0.051 A 
ATOM    125  H37 TYR d   1      54.732  25.709  -7.206  0.00  0.00     0.084 H 
ATOM    126  CZ  TYR d   1      54.295  25.510  -3.864  0.00  0.00     0.065 A 
ATOM    127  H39 TYR d   1      53.494  24.405  -5.521  0.00  0.00     0.087 H 
ATOM    128  CE2 TYR d   1      55.130  26.533  -3.469  0.00  0.00    -0.051 A 
ATOM    129  CD2 TYR d   1      55.821  27.258  -4.422  0.00  0.00    -0.074 A 
ATOM    130  H40 TYR d   1      55.244  26.768  -2.417  0.00  0.00     0.087 H 
ATOM    131  H38 TYR d   1      56.475  28.062  -4.106  0.00  0.00     0.084 H 
BRANCH 126 132
ATOM    132  OH  TYR d   1      53.612  24.791  -2.907  0.00  0.00    -0.361 OA
ATOM    133  H41 TYR d   1      53.082  24.126  -3.330  0.00  0.00     0.217 HD
ENDBRANCH 126 132
ENDBRANCH 119 122
ENDBRANCH  70 119
ENDBRANCH   3  70
TORSDOF 27
