REMARK  27 active torsions:
REMARK  status: ('A' for Active; 'I' for Inactive)
REMARK    1  A    between atoms: N_1  and  CA_2 
REMARK    2  A    between atoms: CA_2  and  C_3 
REMARK    3  A    between atoms: CA_2  and  CB_5 
REMARK       I    between atoms: C_3  and  N_12 
REMARK    4  A    between atoms: CB_5  and  CG_6 
REMARK    5  A    between atoms: N_12  and  CA_13 
REMARK    6  A    between atoms: CA_13  and  C_14 
REMARK    7  A    between atoms: CA_13  and  CB_16 
REMARK       I    between atoms: C_14  and  N_17 
REMARK    8  A    between atoms: CA_18  and  C_19 
REMARK       I    between atoms: C_19  and  N_24 
REMARK    9  A    between atoms: N_24  and  CA_25 
REMARK   10  A    between atoms: CA_25  and  C_26 
REMARK       I    between atoms: C_26  and  N_28 
REMARK   11  A    between atoms: N_28  and  CA_29 
REMARK   12  A    between atoms: CA_29  and  C_30 
REMARK   13  A    between atoms: CA_29  and  CB_32 
REMARK       I    between atoms: C_30  and  N_36 
REMARK   14  A    between atoms: CB_32  and  CG_33 
REMARK       I    between atoms: CG_33  and  ND2_35 
REMARK   15  A    between atoms: N_36  and  CA_37 
REMARK   16  A    between atoms: CA_37  and  C_38 
REMARK   17  A    between atoms: CA_37  and  CB_40 
REMARK       I    between atoms: C_38  and  N_48 
REMARK   18  A    between atoms: CB_40  and  CG_41 
REMARK   19  A    between atoms: CZ_46  and  OH_47 
REMARK   20  A    between atoms: CA_49  and  C_50 
REMARK       I    between atoms: C_50  and  N_55 
REMARK   21  A    between atoms: N_55  and  CA_56 
REMARK   22  A    between atoms: CA_56  and  C_57 
REMARK   23  A    between atoms: CA_56  and  CB_59 
REMARK       I    between atoms: C_57  and  N_60 
REMARK   24  A    between atoms: N_60  and  CA_61 
REMARK   25  A    between atoms: CA_61  and  C_62 
REMARK   26  A    between atoms: CA_61  and  CB_64 
REMARK   27  A    between atoms: CB_64  and  CG_65 
ROOT
ATOM      1  C   ASN d   1      60.258  25.689  -5.771  0.00  0.00     0.241 C 
ATOM      2  O   ASN d   1      60.023  24.539  -6.135  0.00  0.00    -0.271 OA
ATOM      3  N   TYR d   1      59.569  26.749  -6.184  0.00  0.00    -0.346 N 
ATOM      4  H33 TYR d   1      59.692  27.618  -5.704  0.00  0.00     0.163 HD
ENDROOT
BRANCH   3   5
ATOM      5  CA  TYR d   1      58.647  26.696  -7.302  0.00  0.00     0.093 C 
ATOM      6  H34 TYR d   1      58.501  25.656  -7.628  0.00  0.00     0.088 H 
BRANCH   5   7
ATOM      7  C   TYR d   1      59.298  27.520  -8.424  0.00  0.00     0.243 C 
ATOM      8  O   TYR d   1      59.430  28.739  -8.295  0.00  0.00    -0.271 OA
ATOM      9  N   PRO d   1      59.739  26.862  -9.513  0.00  0.00    -0.337 N 
ATOM     10  CA  PRO d   1      60.458  27.621 -10.548  0.00  0.00     0.091 C 
ATOM     11  CD  PRO d   1      59.594  25.437  -9.873  0.00  0.00    -0.001 C 
ATOM     12  CB  PRO d   1      60.852  26.550 -11.570  0.00  0.00    -0.036 C 
ATOM     13  H42 PRO d   1      61.355  28.092 -10.119  0.00  0.00     0.087 H 
ATOM     14  CG  PRO d   1      59.908  25.418 -11.336  0.00  0.00    -0.048 C 
ATOM     15  H43 PRO d   1      61.891  26.226 -11.408  0.00  0.00     0.036 H 
ATOM     16  H44 PRO d   1      60.744  26.936 -12.594  0.00  0.00     0.036 H 
ATOM     17  H45 PRO d   1      60.380  24.464 -11.613  0.00  0.00     0.035 H 
ATOM     18  H46 PRO d   1      58.990  25.558 -11.925  0.00  0.00     0.035 H 
ATOM     19  H47 PRO d   1      58.569  25.085  -9.685  0.00  0.00     0.064 H 
ATOM     20  H48 PRO d   1      60.304  24.814  -9.309  0.00  0.00     0.064 H 
BRANCH  10  21
ATOM     21  C   PRO d   1      59.595  28.706 -11.192  0.00  0.00     0.241 C 
ATOM     22  O   PRO d   1      58.389  28.526 -11.338  0.00  0.00    -0.271 OA
ATOM     23  N   ALA d   1      60.215  29.832 -11.540  0.00  0.00    -0.346 N 
ATOM     24  H49 ALA d   1      61.197  29.918 -11.374  0.00  0.00     0.163 HD
BRANCH  23  25
ATOM     25  CA  ALA d   1      59.501  30.941 -12.155  0.00  0.00     0.086 C 
ATOM     26  H50 ALA d   1      58.686  31.248 -11.483  0.00  0.00     0.086 H 
BRANCH  25  27
ATOM     27  C   ALA d   1      58.900  30.509 -13.485  0.00  0.00     0.240 C 
ATOM     28  O   ALA d   1      59.515  29.745 -14.239  0.00  0.00    -0.271 OA
ATOM     29  N   TRP d   1      57.700  31.012 -13.770  0.00  0.00    -0.344 N 
ATOM     30  H54 TRP d   1      57.280  31.654 -13.128  0.00  0.00     0.163 HD
BRANCH  29  31
ATOM     31  CA  TRP d   1      56.979  30.659 -14.984  0.00  0.00     0.100 C 
ATOM     32  H55 TRP d   1      57.090  29.580 -15.165  0.00  0.00     0.090 H 
BRANCH  31  33
ATOM     33  C   TRP d   1      57.546  31.426 -16.164  0.00  0.00     0.197 C 
ATOM     34  O   TRP d   1      58.345  32.354 -15.979  0.00  0.00    -0.646 OA
ATOM     35  OXT TRP d   1      57.201  31.142 -17.320  0.00  0.00    -0.646 OA
ENDBRANCH  31  33
BRANCH  31  36
ATOM     36  CB  TRP d   1      55.495  30.995 -14.843  0.00  0.00    -0.011 C 
ATOM     37  H56 TRP d   1      55.007  30.797 -15.809  0.00  0.00     0.044 H 
ATOM     38  H57 TRP d   1      55.409  32.065 -14.602  0.00  0.00     0.044 H 
BRANCH  36  39
ATOM     39  CG  TRP d   1      54.761  30.213 -13.777  0.00  0.00    -0.028 A 
ATOM     40  CD1 TRP d   1      55.296  29.554 -12.699  0.00  0.00    -0.015 A 
ATOM     41  NE1 TRP d   1      54.294  28.982 -11.949  0.00  0.00    -0.365 N 
ATOM     42  H58 TRP d   1      56.359  29.493 -12.470  0.00  0.00     0.112 H 
ATOM     43  CE2 TRP d   1      53.088  29.272 -12.530  0.00  0.00     0.042 A 
ATOM     44  H59 TRP d   1      54.429  28.427 -11.092  0.00  0.00     0.165 HD
ATOM     45  CD2 TRP d   1      53.346  30.050 -13.679  0.00  0.00    -0.002 A 
ATOM     46  CZ2 TRP d   1      51.796  28.914 -12.150  0.00  0.00    -0.056 A 
ATOM     47  CE3 TRP d   1      52.269  30.482 -14.456  0.00  0.00    -0.070 A 
ATOM     48  CZ3 TRP d   1      50.987  30.124 -14.075  0.00  0.00    -0.082 A 
ATOM     49  H60 TRP d   1      52.434  31.086 -15.341  0.00  0.00     0.084 H 
ATOM     50  CH2 TRP d   1      50.762  29.350 -12.931  0.00  0.00    -0.081 A 
ATOM     51  H62 TRP d   1      50.143  30.449 -14.673  0.00  0.00     0.083 H 
ATOM     52  H63 TRP d   1      49.745  29.090 -12.658  0.00  0.00     0.083 H 
ATOM     53  H61 TRP d   1      51.617  28.311 -11.267  0.00  0.00     0.086 H 
ENDBRANCH  36  39
ENDBRANCH  31  36
ENDBRANCH  29  31
ENDBRANCH  25  27
BRANCH  25  54
ATOM     54  CB  ALA d   1      60.434  32.131 -12.366  0.00  0.00    -0.049 C 
ATOM     55  H51 ALA d   1      59.876  32.957 -12.831  0.00  0.00     0.030 H 
ATOM     56  H52 ALA d   1      61.264  31.834 -13.024  0.00  0.00     0.030 H 
ATOM     57  H53 ALA d   1      60.834  32.460 -11.396  0.00  0.00     0.030 H 
ENDBRANCH  25  54
ENDBRANCH  23  25
ENDBRANCH  10  21
ENDBRANCH   5   7
BRANCH   5  58
ATOM     58  CB  TYR d   1      57.301  27.298  -6.905  0.00  0.00    -0.014 C 
ATOM     59  H35 TYR d   1      56.679  27.368  -7.809  0.00  0.00     0.043 H 
ATOM     60  H36 TYR d   1      57.483  28.307  -6.506  0.00  0.00     0.043 H 
BRANCH  58  61
ATOM     61  CG  TYR d   1      56.531  26.516  -5.866  0.00  0.00    -0.056 A 
ATOM     62  CD1 TYR d   1      55.722  25.446  -6.231  0.00  0.00    -0.074 A 
ATOM     63  CE1 TYR d   1      55.003  24.733  -5.288  0.00  0.00    -0.051 A 
ATOM     64  H37 TYR d   1      55.653  25.165  -7.276  0.00  0.00     0.084 H 
ATOM     65  CZ  TYR d   1      55.089  25.079  -3.955  0.00  0.00     0.065 A 
ATOM     66  H39 TYR d   1      54.374  23.905  -5.595  0.00  0.00     0.087 H 
ATOM     67  CE2 TYR d   1      55.884  26.143  -3.563  0.00  0.00    -0.051 A 
ATOM     68  CD2 TYR d   1      56.595  26.854  -4.518  0.00  0.00    -0.074 A 
ATOM     69  H40 TYR d   1      55.950  26.418  -2.517  0.00  0.00     0.087 H 
ATOM     70  H38 TYR d   1      57.213  27.689  -4.208  0.00  0.00     0.084 H 
BRANCH  65  71
ATOM     71  OH  TYR d   1      54.375  24.359  -3.022  0.00  0.00    -0.361 OA
ATOM     72  H41 TYR d   1      53.888  23.671  -3.460  0.00  0.00     0.217 HD
ENDBRANCH  65  71
ENDBRANCH  58  61
ENDBRANCH   5  58
ENDBRANCH   3   5
BRANCH   1  73
ATOM     73  CA  ASN d   1      61.367  25.964  -4.775  0.00  0.00     0.097 C 
ATOM     74  H28 ASN d   1      61.401  27.043  -4.563  0.00  0.00     0.088 H 
BRANCH  73  75
ATOM     75  N   ASN d   1      61.100  25.253  -3.536  0.00  0.00    -0.346 N 
ATOM     76  C   GLY d   1      61.457  25.753  -2.360  0.00  0.00     0.236 C 
ATOM     77  O   GLY d   1      62.116  26.784  -2.248  0.00  0.00    -0.272 OA
ATOM     78  H27 ASN d   1      60.637  24.367  -3.571  0.00  0.00     0.163 HD
BRANCH  76  79
ATOM     79  CA  GLY d   1      61.019  24.987  -1.131  0.00  0.00     0.069 C 
ATOM     80  H25 GLY d   1      61.918  24.688  -0.572  0.00  0.00     0.078 H 
ATOM     81  H26 GLY d   1      60.406  25.655  -0.508  0.00  0.00     0.078 H 
BRANCH  79  82
ATOM     82  N   GLY d   1      60.238  23.785  -1.421  0.00  0.00    -0.351 N 
ATOM     83  C   PRO d   1      58.919  23.719  -1.252  0.00  0.00     0.241 C 
ATOM     84  O   PRO d   1      58.220  24.674  -0.878  0.00  0.00    -0.271 OA
ATOM     85  H24 GLY d   1      60.717  22.976  -1.762  0.00  0.00     0.163 HD
BRANCH  83  86
ATOM     86  CA  PRO d   1      58.272  22.357  -1.516  0.00  0.00     0.091 C 
ATOM     87  N   PRO d   1      57.374  22.003  -0.422  0.00  0.00    -0.337 N 
ATOM     88  C   ALA d   1      57.841  21.972   0.841  0.00  0.00     0.243 C 
ATOM     89  CD  PRO d   1      56.018  21.666  -0.897  0.00  0.00    -0.001 C 
ATOM     90  O   ALA d   1      59.040  22.019   1.113  0.00  0.00    -0.271 OA
ATOM     91  CG  PRO d   1      56.186  21.566  -2.388  0.00  0.00    -0.048 C 
ATOM     92  H22 PRO d   1      55.301  22.457  -0.634  0.00  0.00     0.064 H 
ATOM     93  H23 PRO d   1      55.679  20.709  -0.474  0.00  0.00     0.064 H 
ATOM     94  CB  PRO d   1      57.343  22.434  -2.729  0.00  0.00    -0.036 C 
ATOM     95  H20 PRO d   1      56.389  20.525  -2.681  0.00  0.00     0.035 H 
ATOM     96  H21 PRO d   1      55.279  21.920  -2.899  0.00  0.00     0.035 H 
ATOM     97  H18 PRO d   1      57.853  22.061  -3.630  0.00  0.00     0.036 H 
ATOM     98  H19 PRO d   1      57.012  23.470  -2.897  0.00  0.00     0.036 H 
ATOM     99  H17 PRO d   1      59.051  21.593  -1.657  0.00  0.00     0.087 H 
BRANCH  88 100
ATOM    100  CA  ALA d   1      56.810  21.873   1.950  0.00  0.00     0.086 C 
ATOM    101  H13 ALA d   1      55.979  21.250   1.589  0.00  0.00     0.086 H 
BRANCH 100 102
ATOM    102  N   ALA d   1      57.358  21.243   3.146  0.00  0.00    -0.346 N 
ATOM    103  C   PHE d   1      57.614  19.937   3.201  0.00  0.00     0.249 C 
ATOM    104  O   PHE d   1      57.574  19.194   2.217  0.00  0.00    -0.271 OA
ATOM    105  H12 ALA d   1      57.547  21.808   3.949  0.00  0.00     0.163 HD
BRANCH 103 106
ATOM    106  CA  PHE d   1      57.922  19.381   4.581  0.00  0.00     0.179 C 
ATOM    107  H4  PHE d   1      58.113  20.211   5.278  0.00  0.00     0.099 H 
BRANCH 106 108
ATOM    108  N   PHE d   1      56.718  18.619   5.008  0.00  0.00    -0.066 N 
ATOM    109  H1  PHE d   1      56.875  18.228   5.924  0.00  0.00     0.275 HD
ATOM    110  H2  PHE d   1      56.541  17.875   4.351  0.00  0.00     0.275 HD
ATOM    111  H3  PHE d   1      55.922  19.237   5.038  0.00  0.00     0.275 HD
ENDBRANCH 106 108
BRANCH 106 112
ATOM    112  CB  PHE d   1      59.134  18.447   4.575  0.00  0.00    -0.006 C 
ATOM    113  H5  PHE d   1      59.056  17.790   3.696  0.00  0.00     0.043 H 
ATOM    114  H6  PHE d   1      59.102  17.839   5.491  0.00  0.00     0.043 H 
BRANCH 112 115
ATOM    115  CG  PHE d   1      60.467  19.144   4.521  0.00  0.00    -0.056 A 
ATOM    116  CD1 PHE d   1      61.068  19.616   5.680  0.00  0.00    -0.077 A 
ATOM    117  CE1 PHE d   1      62.313  20.230   5.638  0.00  0.00    -0.082 A 
ATOM    118  H7  PHE d   1      60.559  19.504   6.630  0.00  0.00     0.084 H 
ATOM    119  CZ  PHE d   1      62.979  20.362   4.432  0.00  0.00    -0.083 A 
ATOM    120  H9  PHE d   1      62.763  20.606   6.550  0.00  0.00     0.083 H 
ATOM    121  CE2 PHE d   1      62.400  19.883   3.270  0.00  0.00    -0.082 A 
ATOM    122  H11 PHE d   1      63.952  20.839   4.398  0.00  0.00     0.083 H 
ATOM    123  CD2 PHE d   1      61.152  19.273   3.320  0.00  0.00    -0.077 A 
ATOM    124  H10 PHE d   1      62.918  19.983   2.323  0.00  0.00     0.083 H 
ATOM    125  H8  PHE d   1      60.707  18.892   2.408  0.00  0.00     0.084 H 
ENDBRANCH 112 115
ENDBRANCH 106 112
ENDBRANCH 103 106
ENDBRANCH 100 102
BRANCH 100 126
ATOM    126  CB  ALA d   1      56.264  23.259   2.278  0.00  0.00    -0.049 C 
ATOM    127  H14 ALA d   1      55.856  23.718   1.365  0.00  0.00     0.030 H 
ATOM    128  H15 ALA d   1      57.075  23.888   2.673  0.00  0.00     0.030 H 
ATOM    129  H16 ALA d   1      55.468  23.171   3.032  0.00  0.00     0.030 H 
ENDBRANCH 100 126
ENDBRANCH  88 100
ENDBRANCH  83  86
ENDBRANCH  79  82
ENDBRANCH  76  79
ENDBRANCH  73  75
BRANCH  73 130
ATOM    130  CB  ASN d   1      62.707  25.538  -5.378  0.00  0.00     0.036 C 
ATOM    131  H29 ASN d   1      62.752  24.439  -5.397  0.00  0.00     0.051 H 
ATOM    132  H30 ASN d   1      63.518  25.927  -4.745  0.00  0.00     0.051 H 
BRANCH 130 133
ATOM    133  CG  ASN d   1      62.899  26.059  -6.793  0.00  0.00     0.217 C 
ATOM    134  OD1 ASN d   1      62.732  27.250  -7.057  0.00  0.00    -0.274 OA
ATOM    135  ND2 ASN d   1      63.240  25.165  -7.714  0.00  0.00    -0.370 N 
ATOM    136  H31 ASN d   1      63.380  25.452  -8.662  0.00  0.00     0.159 HD
ATOM    137  H32 ASN d   1      63.357  24.205  -7.460  0.00  0.00     0.159 HD
ENDBRANCH 130 133
ENDBRANCH  73 130
ENDBRANCH   1  73
TORSDOF 27
