REMARK  6 active torsions:
REMARK  status: ('A' for Active; 'I' for Inactive)
REMARK    1  A    between atoms: C3_3  and  C2_2 
REMARK    2  A    between atoms: C12_5  and  C13_6 
REMARK    3  A    between atoms: C13_6  and  C14_7 
REMARK    4  A    between atoms: C_11  and  N_10 
REMARK    5  A    between atoms: N3_19  and  C6_15 
REMARK    6  A    between atoms: N3_19  and  C7_20 
ROOT
ATOM      1  C1  2UG d   1       2.284   6.548 -13.643  0.00  0.00     0.035 A 
ATOM      2  C2  2UG d   1       1.266   5.631 -13.365  0.00  0.00     0.037 A 
ATOM      3  C12 2UG d   1       0.699   5.734 -12.071  0.00  0.00     0.068 A 
ATOM      4  C   2UG d   1       2.037   7.571 -11.634  0.00  0.00     0.720 A 
ATOM      5  N6  2UG d   1       1.076   6.712 -11.227  0.00  0.00    -0.067 NA
ATOM      6  N1  2UG d   1       2.685   7.519 -12.818  0.00  0.00    -0.075 NA
ATOM      7  H   2UG d   1       2.786   6.465 -14.600  0.00  0.00     0.117 H 
ENDROOT
BRANCH   2   8
ATOM      8  C3  2UG d   1       0.813   4.717 -14.450  0.00  0.00     0.091 A 
ATOM      9  N5  2UG d   1       0.364   3.503 -14.078  0.00  0.00    -0.062 NA
ATOM     10  C6  2UG d   1       0.064   2.645 -15.071  0.00  0.00     0.727 A 
ATOM     11  N2  2UG d   1       0.158   2.889 -16.388  0.00  0.00    -0.075 NA
ATOM     12  C5  2UG d   1       0.597   4.111 -16.715  0.00  0.00     0.023 A 
ATOM     13  C4  2UG d   1       0.935   5.068 -15.788  0.00  0.00    -0.036 A 
ATOM     14  H   2UG d   1       0.691   4.359 -17.766  0.00  0.00     0.115 H 
ATOM     15  H   2UG d   1       1.281   6.051 -16.087  0.00  0.00     0.089 H 
BRANCH  10  16
ATOM     16  N3  2UG d   1      -0.361   1.392 -14.752  0.00  0.00    -0.188 N 
ATOM     17  H   2UG d   1      -0.565   0.812 -15.579  0.00  0.00     0.184 HD
BRANCH  16  18
ATOM     18  C7  2UG d   1      -0.582   0.716 -13.536  0.00  0.00     0.052 A 
ATOM     19  C11 2UG d   1      -1.150  -0.554 -13.568  0.00  0.00    -0.040 A 
ATOM     20  C10 2UG d   1      -1.368  -1.204 -12.363  0.00  0.00     0.004 A 
ATOM     21  H   2UG d   1      -1.415  -1.022 -14.509  0.00  0.00     0.089 H 
ATOM     22  N4  2UG d   1      -1.053  -0.688 -11.171  0.00  0.00    -0.273 NA
ATOM     23  H   2UG d   1      -1.821  -2.189 -12.389  0.00  0.00     0.114 H 
ATOM     24  C9  2UG d   1      -0.495   0.528 -11.162  0.00  0.00     0.004 A 
ATOM     25  C8  2UG d   1      -0.248   1.272 -12.304  0.00  0.00    -0.040 A 
ATOM     26  H   2UG d   1      -0.220   0.956 -10.205  0.00  0.00     0.114 H 
ATOM     27  H   2UG d   1       0.193   2.260 -12.240  0.00  0.00     0.089 H 
ENDBRANCH  16  18
ENDBRANCH  10  16
ENDBRANCH   2   8
BRANCH   3  28
ATOM     28  C13 2UG d   1      -0.239   4.719 -11.458  0.00  0.00    -0.020 C 
ATOM     29  H   2UG d   1       0.201   4.392 -10.504  0.00  0.00     0.043 H 
ATOM     30  H   2UG d   1      -0.299   3.863 -12.146  0.00  0.00     0.043 H 
BRANCH  28  31
ATOM     31  C14 2UG d   1      -1.671   5.186 -11.172  0.00  0.00    -0.049 A 
ATOM     32  C15 2UG d   1      -2.177   4.944  -9.792  0.00  0.00    -0.061 A 
ATOM     33  C16 2UG d   1      -1.904   6.339 -10.244  0.00  0.00    -0.061 A 
ATOM     34  H   2UG d   1      -1.524   4.472  -9.043  0.00  0.00     0.033 H 
ATOM     35  H   2UG d   1      -3.214   4.610  -9.638  0.00  0.00     0.033 H 
ATOM     36  H   2UG d   1      -2.739   7.032 -10.426  0.00  0.00     0.033 H 
ATOM     37  H   2UG d   1      -1.049   6.894  -9.831  0.00  0.00     0.033 H 
ATOM     38  H   2UG d   1      -2.311   5.042 -12.055  0.00  0.00     0.040 H 
ENDBRANCH  28  31
ENDBRANCH   3  28
BRANCH   4  39
ATOM     39  N   2UG d   1       2.334   8.584 -10.815  0.00  0.00    -0.231 N 
ATOM     40  H   2UG d   1       1.864   8.663  -9.902  0.00  0.00     0.174 HD
ATOM     41  H   2UG d   1       3.033   9.286 -11.097  0.00  0.00     0.174 HD
ENDBRANCH   4  39
TORSDOF 6
