REMARK  15 active torsions:
REMARK  status: ('A' for Active; 'I' for Inactive)
REMARK    1  A    between atoms: C1_1  and  O2_40 
REMARK    2  A    between atoms: C1_1  and  C4_3 
REMARK    3  A    between atoms: C1_1  and  C3_2 
REMARK    4  A    between atoms: C3_2  and  C9_5 
REMARK    5  A    between atoms: C4_3  and  C6_4 
REMARK    6  A    between atoms: C6_4  and  C13_7 
REMARK    7  A    between atoms: C6_4  and  C12_6 
REMARK    8  A    between atoms: C9_5  and  C31_15 
REMARK    9  A    between atoms: C9_5  and  C30_14 
REMARK   10  A    between atoms: C12_6  and  C16_8 
REMARK       I    between atoms: C13_7  and  N19_45 
REMARK   11  A    between atoms: N19_45  and  C20_9 
REMARK   12  A    between atoms: C21_10  and  O22_42 
REMARK       I    between atoms: C30_14  and  N86_46 
REMARK   13  A    between atoms: C31_15  and  C33_16 
REMARK   14  A    between atoms: C69_32  and  O70_44 
REMARK   15  A    between atoms: N86_46  and  C71_33 
ROOT
ATOM      1  C1  VAC d   1      14.274  23.880   4.704  0.00  0.00     0.037 C 
ATOM      2  H1  VAC d   1      15.106  23.226   4.403  0.00  0.00     0.083 H 
ENDROOT
BRANCH   1   3
ATOM      3  O2  VAC d   1      14.674  25.182   4.407  0.00  0.00    -0.396 OA
ATOM      4  H38 VAC d   1      14.783  25.272   3.468  0.00  0.00     0.210 HD
ENDBRANCH   1   3
BRANCH   1   5
ATOM      5  C4  VAC d   1      14.095  23.733   6.242  0.00  0.00    -0.029 C 
ATOM      6  H4  VAC d   1      13.151  23.216   6.471  0.00  0.00     0.038 H 
ATOM      7  H5  VAC d   1      14.099  24.721   6.725  0.00  0.00     0.038 H 
BRANCH   5   8
ATOM      8  C6  VAC d   1      15.277  22.909   6.715  0.00  0.00     0.029 C 
ATOM      9  H6  VAC d   1      16.203  23.389   6.367  0.00  0.00     0.055 H 
BRANCH   8  10
ATOM     10  C13 VAC d   1      15.245  21.460   6.226  0.00  0.00     0.222 C 
ATOM     11  N19 VAC d   1      16.380  20.981   5.772  0.00  0.00    -0.350 N 
ATOM     12  H41 VAC d   1      17.146  21.618   5.681  0.00  0.00     0.163 HD
ATOM     13  O15 VAC d   1      14.169  20.874   6.271  0.00  0.00    -0.273 OA
BRANCH  11  14
ATOM     14  C20 VAC d   1      16.607  19.613   5.396  0.00  0.00     0.063 C 
ATOM     15  C23 VAC d   1      16.496  19.191   3.979  0.00  0.00    -0.027 A 
ATOM     16  C25 VAC d   1      17.370  18.174   3.719  0.00  0.00    -0.047 A 
ATOM     17  C40 VAC d   1      15.646  19.678   2.986  0.00  0.00    -0.074 A 
ATOM     18  C26 VAC d   1      18.192  17.858   4.929  0.00  0.00    -0.014 C 
ATOM     19  C37 VAC d   1      17.502  17.551   2.461  0.00  0.00    -0.076 A 
ATOM     20  C21 VAC d   1      18.026  19.169   5.769  0.00  0.00     0.063 C 
ATOM     21  H12 VAC d   1      17.797  16.983   5.466  0.00  0.00     0.044 H 
ATOM     22  H13 VAC d   1      19.245  17.681   4.665  0.00  0.00     0.044 H 
ATOM     23  H11 VAC d   1      18.068  18.954   6.847  0.00  0.00     0.087 H 
ATOM     24  C38 VAC d   1      16.636  18.018   1.485  0.00  0.00    -0.082 A 
ATOM     25  H16 VAC d   1      18.226  16.767   2.272  0.00  0.00     0.084 H 
ATOM     26  C39 VAC d   1      15.756  19.084   1.736  0.00  0.00    -0.082 A 
ATOM     27  H17 VAC d   1      16.638  17.551   0.507  0.00  0.00     0.083 H 
ATOM     28  H18 VAC d   1      15.141  19.456   0.925  0.00  0.00     0.083 H 
ATOM     29  H19 VAC d   1      14.939  20.476   3.180  0.00  0.00     0.084 H 
ATOM     30  H10 VAC d   1      15.879  19.021   5.971  0.00  0.00     0.084 H 
BRANCH  20  31
ATOM     31  O22 VAC d   1      19.083  20.053   5.460  0.00  0.00    -0.393 OA
ATOM     32  H39 VAC d   1      19.907  19.669   5.737  0.00  0.00     0.210 HD
ENDBRANCH  20  31
ENDBRANCH  11  14
ENDBRANCH   8  10
BRANCH   8  33
ATOM     33  C12 VAC d   1      15.259  22.843   8.238  0.00  0.00    -0.029 C 
ATOM     34  H8  VAC d   1      14.287  22.449   8.568  0.00  0.00     0.041 H 
ATOM     35  H9  VAC d   1      15.401  23.856   8.643  0.00  0.00     0.041 H 
BRANCH  33  36
ATOM     36  C16 VAC d   1      16.355  21.948   8.759  0.00  0.00    -0.057 A 
ATOM     37  C59 VAC d   1      15.995  20.773   9.424  0.00  0.00    -0.077 A 
ATOM     38  C58 VAC d   1      16.961  19.895   9.922  0.00  0.00    -0.082 A 
ATOM     39  H29 VAC d   1      14.945  20.538   9.556  0.00  0.00     0.084 H 
ATOM     40  C57 VAC d   1      18.321  20.239   9.712  0.00  0.00    -0.083 A 
ATOM     41  H28 VAC d   1      16.683  18.988  10.447  0.00  0.00     0.083 H 
ATOM     42  C56 VAC d   1      18.694  21.389   9.015  0.00  0.00    -0.082 A 
ATOM     43  H27 VAC d   1      19.094  19.589  10.105  0.00  0.00     0.083 H 
ATOM     44  C55 VAC d   1      17.691  22.253   8.528  0.00  0.00    -0.077 A 
ATOM     45  H26 VAC d   1      19.741  21.615   8.850  0.00  0.00     0.083 H 
ATOM     46  H25 VAC d   1      17.960  23.148   7.978  0.00  0.00     0.084 H 
ENDBRANCH  33  36
ENDBRANCH   8  33
ENDBRANCH   5   8
ENDBRANCH   1   5
BRANCH   1  47
ATOM     47  C3  VAC d   1      13.063  23.367   3.988  0.00  0.00    -0.029 C 
ATOM     48  H2  VAC d   1      12.674  22.539   4.598  0.00  0.00     0.038 H 
ATOM     49  H3  VAC d   1      13.420  22.976   3.024  0.00  0.00     0.038 H 
BRANCH  47  50
ATOM     50  C9  VAC d   1      11.911  24.223   3.680  0.00  0.00     0.029 C 
ATOM     51  H7  VAC d   1      12.259  25.218   3.364  0.00  0.00     0.055 H 
BRANCH  50  52
ATOM     52  C31 VAC d   1      11.092  23.537   2.555  0.00  0.00    -0.029 C 
ATOM     53  H14 VAC d   1      10.969  22.475   2.812  0.00  0.00     0.041 H 
ATOM     54  H15 VAC d   1      11.654  23.624   1.613  0.00  0.00     0.041 H 
BRANCH  52  55
ATOM     55  C33 VAC d   1       9.722  24.141   2.352  0.00  0.00    -0.057 A 
ATOM     56  C49 VAC d   1       9.551  25.339   1.685  0.00  0.00    -0.077 A 
ATOM     57  C48 VAC d   1       8.337  25.983   1.505  0.00  0.00    -0.082 A 
ATOM     58  H24 VAC d   1      10.434  25.811   1.271  0.00  0.00     0.084 H 
ATOM     59  C47 VAC d   1       7.177  25.341   1.976  0.00  0.00    -0.083 A 
ATOM     60  H23 VAC d   1       8.283  26.950   1.017  0.00  0.00     0.083 H 
ATOM     61  C46 VAC d   1       7.322  24.107   2.646  0.00  0.00    -0.082 A 
ATOM     62  H22 VAC d   1       6.198  25.782   1.828  0.00  0.00     0.083 H 
ATOM     63  C45 VAC d   1       8.579  23.526   2.833  0.00  0.00    -0.077 A 
ATOM     64  H21 VAC d   1       6.441  23.600   3.023  0.00  0.00     0.083 H 
ATOM     65  H20 VAC d   1       8.660  22.583   3.361  0.00  0.00     0.084 H 
ENDBRANCH  52  55
ENDBRANCH  50  52
BRANCH  50  66
ATOM     66  C30 VAC d   1      10.956  24.350   4.880  0.00  0.00     0.222 C 
ATOM     67  N86 VAC d   1      10.356  25.497   5.042  0.00  0.00    -0.350 N 
ATOM     68  H42 VAC d   1      10.622  26.266   4.460  0.00  0.00     0.163 HD
ATOM     69  O36 VAC d   1      10.772  23.347   5.625  0.00  0.00    -0.273 OA
BRANCH  67  70
ATOM     70  C71 VAC d   1       9.308  25.701   6.044  0.00  0.00     0.063 C 
ATOM     71  C73 VAC d   1       9.646  26.425   7.317  0.00  0.00    -0.027 A 
ATOM     72  C76 VAC d   1       8.584  27.189   7.729  0.00  0.00    -0.047 A 
ATOM     73  C77 VAC d   1      10.863  26.355   7.997  0.00  0.00    -0.074 A 
ATOM     74  C68 VAC d   1       7.416  27.059   6.790  0.00  0.00    -0.014 C 
ATOM     75  C80 VAC d   1       8.656  27.953   8.901  0.00  0.00    -0.076 A 
ATOM     76  C69 VAC d   1       8.174  26.617   5.502  0.00  0.00     0.063 C 
ATOM     77  H30 VAC d   1       6.700  26.295   7.128  0.00  0.00     0.044 H 
ATOM     78  H31 VAC d   1       6.892  28.016   6.651  0.00  0.00     0.044 H 
ATOM     79  H32 VAC d   1       7.503  26.063   4.829  0.00  0.00     0.087 H 
ATOM     80  C79 VAC d   1       9.867  27.863   9.595  0.00  0.00    -0.082 A 
ATOM     81  H37 VAC d   1       7.833  28.569   9.245  0.00  0.00     0.084 H 
ATOM     82  C78 VAC d   1      10.963  27.120   9.151  0.00  0.00    -0.082 A 
ATOM     83  H36 VAC d   1       9.960  28.401  10.531  0.00  0.00     0.083 H 
ATOM     84  H35 VAC d   1      11.893  27.141   9.708  0.00  0.00     0.083 H 
ATOM     85  H34 VAC d   1      11.682  25.739   7.644  0.00  0.00     0.084 H 
ATOM     86  H33 VAC d   1       8.912  24.706   6.295  0.00  0.00     0.084 H 
BRANCH  76  87
ATOM     87  O70 VAC d   1       8.747  27.730   4.794  0.00  0.00    -0.393 OA
ATOM     88  H40 VAC d   1       8.051  28.287   4.465  0.00  0.00     0.210 HD
ENDBRANCH  76  87
ENDBRANCH  67  70
ENDBRANCH  50  66
ENDBRANCH  47  50
ENDBRANCH   1  47
TORSDOF 15
