REMARK  5 active torsions:
REMARK  status: ('A' for Active; 'I' for Inactive)
REMARK    1  A    between atoms: C02_2  and  C03_3 
REMARK    2  A    between atoms: C02_2  and  C12_12 
REMARK    3  A    between atoms: C15_15  and  O16_16 
REMARK    4  A    between atoms: O16_16  and  C17_17 
REMARK    5  A    between atoms: C22_22  and  C23_23 
ROOT
ATOM      1  C12 2W1 d   1      24.974  78.024  20.708  0.00  0.00     0.018 A 
ATOM      2  C13 2W1 d   1      25.833  78.796  21.531  0.00  0.00    -0.066 A 
ATOM      3  C14 2W1 d   1      26.207  78.314  22.783  0.00  0.00    -0.049 A 
ATOM      4  C15 2W1 d   1      25.744  77.073  23.221  0.00  0.00     0.077 A 
ATOM      5  C29 2W1 d   1      24.888  76.283  22.381  0.00  0.00    -0.049 A 
ATOM      6  C30 2W1 d   1      24.515  76.766  21.153  0.00  0.00    -0.066 A 
ATOM      7  H   2W1 d   1      26.197  79.757  21.187  0.00  0.00     0.085 H 
ATOM      8  H   2W1 d   1      26.858  78.904  23.418  0.00  0.00     0.087 H 
ATOM      9  H   2W1 d   1      24.540  75.312  22.715  0.00  0.00     0.087 H 
ATOM     10  H   2W1 d   1      23.862  76.177  20.519  0.00  0.00     0.085 H 
ENDROOT
BRANCH   4  11
ATOM     11  O16 2W1 d   1      26.168  76.583  24.491  0.00  0.00    -0.292 OA
BRANCH  11  12
ATOM     12  C17 2W1 d   1      25.134  76.128  25.377  0.00  0.00     0.176 A 
ATOM     13  N18 2W1 d   1      24.027  76.873  25.513  0.00  0.00    -0.236 NA
ATOM     14  C19 2W1 d   1      23.025  76.510  26.353  0.00  0.00     0.005 A 
ATOM     15  C20 2W1 d   1      23.139  75.315  27.119  0.00  0.00    -0.065 A 
ATOM     16  H   2W1 d   1      22.139  77.129  26.441  0.00  0.00     0.114 H 
ATOM     17  C21 2W1 d   1      24.280  74.538  26.992  0.00  0.00    -0.071 A 
ATOM     18  H   2W1 d   1      22.344  75.017  27.793  0.00  0.00     0.085 H 
ATOM     19  C22 2W1 d   1      25.318  74.917  26.128  0.00  0.00    -0.001 A 
ATOM     20  H   2W1 d   1      24.371  73.625  27.569  0.00  0.00     0.084 H 
BRANCH  19  21
ATOM     21  C23 2W1 d   1      26.571  74.002  26.019  0.00  0.00    -0.021 C 
ATOM     22  C24 2W1 d   1      27.753  74.768  26.439  0.00  0.00    -0.038 C 
ATOM     23  C25 2W1 d   1      28.996  73.893  26.480  0.00  0.00     0.020 C 
ATOM     24  H   2W1 d   1      27.573  75.182  27.442  0.00  0.00     0.037 H 
ATOM     25  H   2W1 d   1      27.918  75.591  25.727  0.00  0.00     0.037 H 
ATOM     26  O26 2W1 d   1      29.239  73.145  25.249  0.00  0.00    -0.391 OA
ATOM     27  H   2W1 d   1      28.885  73.174  27.305  0.00  0.00     0.074 H 
ATOM     28  H   2W1 d   1      29.867  74.538  26.670  0.00  0.00     0.074 H 
ATOM     29  C27 2W1 d   1      28.020  72.508  24.713  0.00  0.00     0.020 C 
ATOM     30  C28 2W1 d   1      26.807  73.430  24.702  0.00  0.00    -0.038 C 
ATOM     31  H   2W1 d   1      27.785  71.630  25.333  0.00  0.00     0.074 H 
ATOM     32  H   2W1 d   1      28.221  72.185  23.681  0.00  0.00     0.074 H 
ATOM     33  H   2W1 d   1      26.981  74.244  23.983  0.00  0.00     0.037 H 
ATOM     34  H   2W1 d   1      25.921  72.854  24.396  0.00  0.00     0.037 H 
ATOM     35  H   2W1 d   1      26.429  73.165  26.718  0.00  0.00     0.047 H 
ENDBRANCH  19  21
ENDBRANCH  11  12
ENDBRANCH   4  11
BRANCH   1  36
ATOM     36  C02 2W1 d   1      24.510  78.500  19.299  0.00  0.00     0.227 C 
ATOM     37  O01 2W1 d   1      23.952  77.700  18.568  0.00  0.00    -0.283 OA
BRANCH  36  38
ATOM     38  C03 2W1 d   1      24.761  79.885  18.789  0.00  0.00     0.180 A 
ATOM     39  N04 2W1 d   1      24.920  80.989  19.517  0.00  0.00    -0.336 N 
ATOM     40  C05 2W1 d   1      25.141  82.054  18.642  0.00  0.00     0.062 A 
ATOM     41  H   2W1 d   1      24.886  81.047  20.545  0.00  0.00     0.168 HD
ATOM     42  C06 2W1 d   1      25.390  83.457  18.843  0.00  0.00    -0.055 A 
ATOM     43  C10 2W1 d   1      25.099  81.550  17.371  0.00  0.00     0.086 A 
ATOM     44  C07 2W1 d   1      25.577  84.312  17.718  0.00  0.00    -0.081 A 
ATOM     45  H   2W1 d   1      25.435  83.862  19.847  0.00  0.00     0.087 H 
ATOM     46  C08 2W1 d   1      25.533  83.796  16.434  0.00  0.00    -0.081 A 
ATOM     47  H   2W1 d   1      25.754  85.371  17.868  0.00  0.00     0.083 H 
ATOM     48  C09 2W1 d   1      25.296  82.410  16.240  0.00  0.00    -0.053 A 
ATOM     49  H   2W1 d   1      25.679  84.448  15.580  0.00  0.00     0.083 H 
ATOM     50  H   2W1 d   1      25.264  82.001  15.236  0.00  0.00     0.087 H 
ATOM     51  N11 2W1 d   1      24.861  80.196  17.476  0.00  0.00    -0.225 NA
ENDBRANCH  36  38
ENDBRANCH   1  36
TORSDOF 5
