REMARK  6 active torsions:
REMARK  status: ('A' for Active; 'I' for Inactive)
REMARK    1  A    between atoms: CAL_1  and  N_2 
REMARK    2  A    between atoms: N_2  and  CAM_3 
REMARK    3  A    between atoms: N_2  and  CA_4 
REMARK    4  A    between atoms: CA_4  and  C_5 
REMARK    5  A    between atoms: CA_4  and  CB_8 
REMARK    6  A    between atoms: CB_8  and  CG_9 
ROOT
ATOM      1  CA  AVI d   1      17.389   3.351  16.441  0.00  0.00     0.190 C 
ATOM      2  H   AVI d   1      16.824   3.332  15.498  0.00  0.00     0.102 H 
ENDROOT
BRANCH   1   3
ATOM      3  N   AVI d   1      18.679   2.729  16.189  0.00  0.00    -0.064 N 
ATOM      4  H   AVI d   1      19.247   2.707  17.021  0.00  0.00     0.280 HD
BRANCH   3   5
ATOM      5  CAL AVI d   1      18.450   1.412  15.641  0.00  0.00     0.067 C 
ATOM      6  H   AVI d   1      19.416   0.924  15.443  0.00  0.00     0.068 H 
ATOM      7  H   AVI d   1      17.884   1.499  14.702  0.00  0.00     0.068 H 
ATOM      8  H   AVI d   1      17.876   0.810  16.361  0.00  0.00     0.068 H 
ENDBRANCH   3   5
BRANCH   3   9
ATOM      9  CAM AVI d   1      19.321   3.440  15.097  0.00  0.00     0.067 C 
ATOM     10  H   AVI d   1      19.543   4.471  15.411  0.00  0.00     0.068 H 
ATOM     11  H   AVI d   1      18.649   3.459  14.226  0.00  0.00     0.068 H 
ATOM     12  H   AVI d   1      20.257   2.929  14.827  0.00  0.00     0.068 H 
ENDBRANCH   3   9
ENDBRANCH   1   3
BRANCH   1  13
ATOM     13  C   AVI d   1      17.547   4.803  16.859  0.00  0.00     0.205 C 
ATOM     14  OXT AVI d   1      18.230   4.975  17.802  0.00  0.00    -0.646 OA
ATOM     15  O   AVI d   1      16.986   5.630  16.151  0.00  0.00    -0.646 OA
ENDBRANCH   1  13
BRANCH   1  16
ATOM     16  CB  AVI d   1      16.578   2.589  17.481  0.00  0.00     0.013 C 
ATOM     17  H   AVI d   1      17.183   2.510  18.396  0.00  0.00     0.046 H 
ATOM     18  H   AVI d   1      16.376   1.582  17.087  0.00  0.00     0.046 H 
BRANCH  16  19
ATOM     19  CG  AVI d   1      15.258   3.225  17.843  0.00  0.00     0.053 A 
ATOM     20  ND1 AVI d   1      14.828   3.340  19.093  0.00  0.00    -0.247 NA
ATOM     21  CE1 AVI d   1      13.649   3.941  19.096  0.00  0.00     0.064 A 
ATOM     22  NE2 AVI d   1      13.310   4.209  17.858  0.00  0.00    -0.359 N 
ATOM     23  H   AVI d   1      13.058   4.174  19.980  0.00  0.00     0.143 H 
ATOM     24  CD2 AVI d   1      14.300   3.750  17.048  0.00  0.00     0.002 A 
ATOM     25  H   AVI d   1      12.447   4.683  17.554  0.00  0.00     0.166 HD
ATOM     26  H   AVI d   1      14.318   3.797  15.960  0.00  0.00     0.114 H 
ENDBRANCH  16  19
ENDBRANCH   1  16
TORSDOF 6
