REMARK  11 active torsions:
REMARK  status: ('A' for Active; 'I' for Inactive)
REMARK    1  A    between atoms: C12_1  and  C13_2 
REMARK       I    between atoms: N9_12  and  C12_1 
REMARK    2  A    between atoms: C13_2  and  C15_3 
REMARK    3  A    between atoms: C8_13  and  N9_12 
REMARK    4  A    between atoms: C6_14  and  C8_13 
REMARK    5  A    between atoms: C8_13  and  C10_16 
REMARK       I    between atoms: N5_19  and  C6_14 
REMARK    6  A    between atoms: C10_16  and  O26_17 
REMARK    7  A    between atoms: C10_16  and  C11_18 
REMARK    8  A    between atoms: C4_20  and  N5_19 
REMARK    9  A    between atoms: C2_21  and  C4_20 
REMARK       I    between atoms: N1_26  and  C2_21 
REMARK   10  A    between atoms: C23_25  and  C24_23 
REMARK   11  A    between atoms: C23_25  and  N1_26 
ROOT
ATOM      1  C8  3FS d   1      33.333 -26.781  17.774  0.00  0.00     0.113 C 
ATOM      2  H   3FS d   1      32.404 -26.974  17.218  0.00  0.00     0.091 H 
ENDROOT
BRANCH   1   3
ATOM      3  N9  3FS d   1      34.441 -26.776  16.792  0.00  0.00    -0.345 N 
ATOM      4  C12 3FS d   1      34.350 -27.179  15.486  0.00  0.00     0.222 C 
ATOM      5  O14 3FS d   1      33.332 -27.599  14.940  0.00  0.00    -0.273 OA
ATOM      6  H   3FS d   1      35.332 -26.451  17.109  0.00  0.00     0.163 HD
BRANCH   4   7
ATOM      7  C13 3FS d   1      35.602 -27.042  14.642  0.00  0.00     0.033 C 
ATOM      8  H   3FS d   1      35.623 -27.821  13.866  0.00  0.00     0.054 H 
ATOM      9  H   3FS d   1      36.498 -27.130  15.275  0.00  0.00     0.054 H 
BRANCH   7  10
ATOM     10  C15 3FS d   1      35.546 -25.649  13.994  0.00  0.00    -0.046 A 
ATOM     11  C16 3FS d   1      36.243 -24.559  14.561  0.00  0.00    -0.055 A 
ATOM     12  C17 3FS d   1      36.138 -23.265  14.005  0.00  0.00     0.036 A 
ATOM     13  H   3FS d   1      36.866 -24.718  15.434  0.00  0.00     0.086 H 
ATOM     14  C18 3FS d   1      35.309 -23.047  12.893  0.00  0.00    -0.041 A 
ATOM     15 CL2  3FS d   1      37.017 -21.922  14.717  0.00  0.00    -0.084 Cl
ATOM     16  C19 3FS d   1      34.601 -24.125  12.333  0.00  0.00     0.036 A 
ATOM     17  H   3FS d   1      35.215 -22.054  12.469  0.00  0.00     0.088 H 
ATOM     18  C20 3FS d   1      34.718 -25.416  12.877  0.00  0.00    -0.055 A 
ATOM     19 CL1  3FS d   1      33.574 -23.864  10.947  0.00  0.00    -0.084 Cl
ATOM     20  H   3FS d   1      34.168 -26.238  12.434  0.00  0.00     0.086 H 
ENDBRANCH   7  10
ENDBRANCH   4   7
ENDBRANCH   1   3
BRANCH   1  21
ATOM     21  C6  3FS d   1      33.187 -25.428  18.488  0.00  0.00     0.243 C 
ATOM     22  O7  3FS d   1      33.860 -24.471  18.116  0.00  0.00    -0.271 OA
ATOM     23  N5  3FS d   1      32.323 -25.355  19.546  0.00  0.00    -0.350 N 
ATOM     24  H   3FS d   1      31.811 -26.183  19.774  0.00  0.00     0.163 HD
BRANCH  23  25
ATOM     25  C4  3FS d   1      32.081 -24.174  20.372  0.00  0.00     0.069 C 
ATOM     26  H   3FS d   1      31.894 -23.312  19.715  0.00  0.00     0.078 H 
ATOM     27  H   3FS d   1      32.972 -23.980  20.987  0.00  0.00     0.078 H 
BRANCH  25  28
ATOM     28  C2  3FS d   1      30.886 -24.365  21.285  0.00  0.00     0.235 C 
ATOM     29  O3  3FS d   1      29.956 -25.063  20.892  0.00  0.00    -0.272 OA
ATOM     30  N1  3FS d   1      30.910 -23.727  22.489  0.00  0.00    -0.355 N 
ATOM     31  H   3FS d   1      31.721 -23.189  22.721  0.00  0.00     0.162 HD
BRANCH  30  32
ATOM     32  C23 3FS d   1      29.815 -23.783  23.465  0.00  0.00     0.025 C 
ATOM     33  H   3FS d   1      29.356 -24.782  23.424  0.00  0.00     0.072 H 
ATOM     34  H   3FS d   1      30.228 -23.610  24.470  0.00  0.00     0.072 H 
BRANCH  32  35
ATOM     35  C24 3FS d   1      28.774 -22.770  23.198  0.00  0.00    -0.010 C 
ATOM     36  N25 3FS d   1      28.401 -22.124  24.156  0.00  0.00    -0.315 NA
ATOM     37  H   3FS d   1      27.692 -21.416  24.042  0.00  0.00     0.185 HD
ATOM     38  H   3FS d   1      28.365 -22.612  22.201  0.00  0.00     0.109 H 
ENDBRANCH  32  35
ENDBRANCH  30  32
ENDBRANCH  25  28
ENDBRANCH  23  25
ENDBRANCH   1  21
BRANCH   1  39
ATOM     39  C10 3FS d   1      33.494 -27.909  18.853  0.00  0.00     0.060 C 
ATOM     40  H   3FS d   1      32.584 -27.875  19.470  0.00  0.00     0.086 H 
BRANCH  39  41
ATOM     41  O26 3FS d   1      34.602 -27.604  19.721  0.00  0.00    -0.393 OA
ATOM     42  H   3FS d   1      34.443 -26.774  20.156  0.00  0.00     0.210 HD
ENDBRANCH  39  41
BRANCH  39  43
ATOM     43  C11 3FS d   1      33.580 -29.363  18.304  0.00  0.00    -0.050 C 
ATOM     44  H   3FS d   1      33.691 -30.066  19.143  0.00  0.00     0.031 H 
ATOM     45  H   3FS d   1      34.448 -29.451  17.635  0.00  0.00     0.031 H 
ATOM     46  H   3FS d   1      32.662 -29.599  17.747  0.00  0.00     0.031 H 
ENDBRANCH  39  43
ENDBRANCH   1  39
TORSDOF 11
