REMARK  14 active torsions:
REMARK  status: ('A' for Active; 'I' for Inactive)
REMARK    1  A    between atoms: N21_14  and  C22_5 
REMARK    2  A    between atoms: N21_14  and  C23_6 
REMARK    3  A    between atoms: C7_7  and  C8_8 
REMARK       I    between atoms: N3_15  and  C7_7 
REMARK    4  A    between atoms: C8_8  and  C9_9 
REMARK    5  A    between atoms: C8_8  and  N21_14 
REMARK    6  A    between atoms: C2_16  and  N3_15 
REMARK    7  A    between atoms: C1_17  and  C2_16 
REMARK    8  A    between atoms: C2_16  and  C5_19 
REMARK       I    between atoms: N6_28  and  C1_17 
REMARK    9  A    between atoms: C5_19  and  C18_20 
REMARK   10  A    between atoms: C5_19  and  C20_21 
REMARK   11  A    between atoms: C18_20  and  C19_22 
REMARK   12  A    between atoms: C24_23  and  C25_24 
REMARK   13  A    between atoms: C24_23  and  N6_28 
REMARK   14  A    between atoms: C27_25  and  C31_31 
ROOT
ATOM      1  C2  3FU d   1     -39.537  15.222 -18.104  0.00  0.00     0.092 C 
ATOM      2  H   3FU d   1     -39.254  14.286 -17.601  0.00  0.00     0.088 H 
ENDROOT
BRANCH   1   3
ATOM      3  N3  3FU d   1     -40.144  16.097 -17.073  0.00  0.00    -0.345 N 
ATOM      4  C7  3FU d   1     -40.360  15.741 -15.771  0.00  0.00     0.254 C 
ATOM      5  O17 3FU d   1     -40.089  14.641 -15.298  0.00  0.00    -0.271 OA
ATOM      6  H   3FU d   1     -40.416  17.018 -17.351  0.00  0.00     0.163 HD
BRANCH   4   7
ATOM      7  C8  3FU d   1     -40.972  16.741 -14.803  0.00  0.00     0.204 C 
ATOM      8  H   3FU d   1     -41.442  16.194 -13.973  0.00  0.00     0.107 H 
BRANCH   7   9
ATOM      9  C9  3FU d   1     -39.734  17.490 -14.279  0.00  0.00    -0.015 A 
ATOM     10  C14 3FU d   1     -39.116  18.609 -14.897  0.00  0.00    -0.053 A 
ATOM     11  C13 3FU d   1     -37.984  19.218 -14.302  0.00  0.00     0.036 A 
ATOM     12  H   3FU d   1     -39.512  18.999 -15.828  0.00  0.00     0.087 H 
ATOM     13  C12 3FU d   1     -37.467  18.702 -13.096  0.00  0.00    -0.041 A 
ATOM     14 CL2  3FU d   1     -37.241  20.635 -15.029  0.00  0.00    -0.084 Cl
ATOM     15  C11 3FU d   1     -38.091  17.590 -12.492  0.00  0.00     0.036 A 
ATOM     16  H   3FU d   1     -36.597  19.156 -12.636  0.00  0.00     0.088 H 
ATOM     17  C10 3FU d   1     -39.205  16.995 -13.083  0.00  0.00    -0.053 A 
ATOM     18 CL1  3FU d   1     -37.485  16.842 -11.037  0.00  0.00    -0.084 Cl
ATOM     19  H   3FU d   1     -39.667  16.137 -12.609  0.00  0.00     0.087 H 
ENDBRANCH   7   9
BRANCH   7  20
ATOM     20  N21 3FU d   1     -42.031  17.635 -15.386  0.00  0.00    -0.062 N 
ATOM     21  H   3FU d   1     -41.649  17.997 -16.246  0.00  0.00     0.280 HD
BRANCH  20  22
ATOM     22  C22 3FU d   1     -43.278  16.885 -15.729  0.00  0.00     0.067 C 
ATOM     23  H   3FU d   1     -44.020  17.580 -16.150  0.00  0.00     0.068 H 
ATOM     24  H   3FU d   1     -43.687  16.419 -14.821  0.00  0.00     0.068 H 
ATOM     25  H   3FU d   1     -43.045  16.105 -16.468  0.00  0.00     0.068 H 
ENDBRANCH  20  22
BRANCH  20  26
ATOM     26  C23 3FU d   1     -42.408  18.816 -14.547  0.00  0.00     0.067 C 
ATOM     27  H   3FU d   1     -41.503  19.382 -14.283  0.00  0.00     0.068 H 
ATOM     28  H   3FU d   1     -42.904  18.470 -13.629  0.00  0.00     0.068 H 
ATOM     29  H   3FU d   1     -43.094  19.464 -15.113  0.00  0.00     0.068 H 
ENDBRANCH  20  26
ENDBRANCH   7  20
ENDBRANCH   4   7
ENDBRANCH   1   3
BRANCH   1  30
ATOM     30  C1  3FU d   1     -38.249  15.837 -18.661  0.00  0.00     0.241 C 
ATOM     31  O4  3FU d   1     -37.763  16.813 -18.094  0.00  0.00    -0.271 OA
ATOM     32  N6  3FU d   1     -37.664  15.297 -19.762  0.00  0.00    -0.354 N 
ATOM     33  H   3FU d   1     -38.068  14.494 -20.199  0.00  0.00     0.162 HD
BRANCH  32  34
ATOM     34  C24 3FU d   1     -36.448  15.887 -20.307  0.00  0.00     0.035 C 
ATOM     35  H   3FU d   1     -36.586  16.973 -20.413  0.00  0.00     0.073 H 
ATOM     36  H   3FU d   1     -35.609  15.689 -19.624  0.00  0.00     0.073 H 
BRANCH  34  37
ATOM     37  C25 3FU d   1     -36.141  15.279 -21.677  0.00  0.00     0.056 A 
ATOM     38  C30 3FU d   1     -37.025  15.408 -22.765  0.00  0.00    -0.041 A 
ATOM     39  C29 3FU d   1     -36.655  14.818 -23.988  0.00  0.00     0.006 A 
ATOM     40  H   3FU d   1     -37.961  15.945 -22.664  0.00  0.00     0.088 H 
ATOM     41  N28 3FU d   1     -35.471  14.152 -24.093  0.00  0.00    -0.240 NA
ATOM     42  H   3FU d   1     -37.312  14.893 -24.847  0.00  0.00     0.114 H 
ATOM     43  C27 3FU d   1     -34.613  14.067 -23.034  0.00  0.00     0.166 A 
ATOM     44  N26 3FU d   1     -34.957  14.643 -21.843  0.00  0.00    -0.231 NA
BRANCH  43  45
ATOM     45  C31 3FU d   1     -33.331  13.391 -23.180  0.00  0.00     0.040 C 
ATOM     46  N32 3FU d   1     -32.636  13.433 -24.288  0.00  0.00    -0.308 NA
ATOM     47  H   3FU d   1     -31.753  12.951 -24.348  0.00  0.00     0.186 HD
ATOM     48  H   3FU d   1     -32.936  12.829 -22.335  0.00  0.00     0.119 H 
ENDBRANCH  43  45
ENDBRANCH  34  37
ENDBRANCH  32  34
ENDBRANCH   1  30
BRANCH   1  49
ATOM     49  C5  3FU d   1     -40.553  14.832 -19.245  0.00  0.00    -0.030 C 
ATOM     50  H   3FU d   1     -39.952  14.432 -20.075  0.00  0.00     0.043 H 
BRANCH  49  51
ATOM     51  C18 3FU d   1     -41.390  16.013 -19.841  0.00  0.00    -0.063 C 
ATOM     52  H   3FU d   1     -41.617  16.712 -19.022  0.00  0.00     0.033 H 
ATOM     53  H   3FU d   1     -42.328  15.595 -20.236  0.00  0.00     0.033 H 
BRANCH  51  54
ATOM     54  C19 3FU d   1     -40.712  16.822 -20.982  0.00  0.00    -0.076 C 
ATOM     55  H   3FU d   1     -41.390  17.620 -21.319  0.00  0.00     0.027 H 
ATOM     56  H   3FU d   1     -40.489  16.151 -21.825  0.00  0.00     0.027 H 
ATOM     57  H   3FU d   1     -39.778  17.268 -20.610  0.00  0.00     0.027 H 
ENDBRANCH  51  54
ENDBRANCH  49  51
BRANCH  49  58
ATOM     58  C20 3FU d   1     -41.480  13.689 -18.748  0.00  0.00    -0.071 C 
ATOM     59  H   3FU d   1     -40.868  12.874 -18.335  0.00  0.00     0.028 H 
ATOM     60  H   3FU d   1     -42.077  13.309 -19.590  0.00  0.00     0.028 H 
ATOM     61  H   3FU d   1     -42.152  14.075 -17.967  0.00  0.00     0.028 H 
ENDBRANCH  49  58
ENDBRANCH   1  49
TORSDOF 14
