REMARK  3 active torsions:
REMARK  status: ('A' for Active; 'I' for Inactive)
REMARK    1  A    between atoms: C6_2  and  C9_5 
REMARK    2  A    between atoms: C10_6  and  C11_3 
REMARK       I    between atoms: N2_8  and  C10_6 
REMARK    3  A    between atoms: C2_11  and  N2_8 
ROOT
ATOM      1  C4  30W d   1     217.014  67.011 165.477  0.00  0.00     0.292 A 
ATOM      2  C6  30W d   1     215.917  70.161 164.078  0.00  0.00     0.049 A 
ATOM      3  C7  30W d   1     217.070  70.920 164.211  0.00  0.00     0.028 A 
ATOM      4  N1  30W d   1     219.364  68.609 165.643  0.00  0.00    -0.172 N 
ATOM      5  N3  30W d   1     218.207  66.577 166.009  0.00  0.00    -0.154 N 
ATOM      6  C2  30W d   1     219.373  67.279 166.124  0.00  0.00     0.689 A 
ATOM      7  C8A 30W d   1     218.223  69.144 165.093  0.00  0.00     0.177 A 
ATOM      8  N8  30W d   1     218.219  70.430 164.697  0.00  0.00    -0.238 NA
ATOM      9  N5  30W d   1     215.891  68.875 164.466  0.00  0.00    -0.243 NA
ATOM     10  C4A 30W d   1     217.020  68.360 164.981  0.00  0.00     0.172 A 
ATOM     11  O4  30W d   1     216.028  66.280 165.478  0.00  0.00    -0.265 OA
ATOM     12  H4  30W d   1     217.041  71.960 163.907  0.00  0.00     0.117 H 
ATOM     13  H8  30W d   1     220.218  69.181 165.705  0.00  0.00     0.186 HD
ATOM     14  H10 30W d   1     218.222  65.638 166.351  0.00  0.00     0.187 HD
ENDROOT
BRANCH   6  15
ATOM     15  N2  30W d   1     220.576  66.874 166.553  0.00  0.00    -0.160 N 
ATOM     16  C10 30W d   1     220.890  65.552 166.803  0.00  0.00     0.231 C 
ATOM     17  O10 30W d   1     220.122  64.621 166.600  0.00  0.00    -0.273 OA
ATOM     18  H9  30W d   1     221.284  67.565 166.700  0.00  0.00     0.187 HD
BRANCH  16  19
ATOM     19  C11 30W d   1     222.289  65.319 167.285  0.00  0.00    -0.002 C 
ATOM     20  H1  30W d   1     222.444  64.243 167.456  0.00  0.00     0.040 H 
ATOM     21  H2  30W d   1     222.449  65.866 168.226  0.00  0.00     0.040 H 
ATOM     22  H3  30W d   1     223.002  65.676 166.528  0.00  0.00     0.040 H 
ENDBRANCH  16  19
ENDBRANCH   6  15
BRANCH   2  23
ATOM     23  C9  30W d   1     214.675  70.705 163.447  0.00  0.00    -0.034 C 
ATOM     24  H5  30W d   1     213.893  69.931 163.450  0.00  0.00     0.035 H 
ATOM     25  H6  30W d   1     214.891  71.004 162.411  0.00  0.00     0.035 H 
ATOM     26  H7  30W d   1     214.327  71.579 164.016  0.00  0.00     0.035 H 
ENDBRANCH   2  23
TORSDOF 3
