REMARK  3 active torsions:
REMARK  status: ('A' for Active; 'I' for Inactive)
REMARK    1  A    between atoms: C5_4  and  C17_11 
REMARK    2  A    between atoms: C11_16  and  C6_5 
REMARK    3  A    between atoms: N4_20  and  C19_21 
ROOT
ATOM      1  N1  2YQ d   1     -40.422   6.025 -10.001  0.00  0.00    -0.175 NA
ATOM      2  N3  2YQ d   1     -37.918   8.786  -8.269  0.00  0.00    -0.379 N 
ATOM      3  C4  2YQ d   1     -41.676   7.708 -11.076  0.00  0.00     0.272 A 
ATOM      4  C5  2YQ d   1     -38.493   6.442  -8.560  0.00  0.00     0.073 C 
ATOM      5  C6  2YQ d   1     -38.006   7.503  -7.559  0.00  0.00     0.051 C 
ATOM      6  C7  2YQ d   1     -38.923   9.161  -9.081  0.00  0.00     0.045 A 
ATOM      7  C8  2YQ d   1     -39.129  10.515  -9.324  0.00  0.00    -0.019 A 
ATOM      8  C10 2YQ d   1     -41.029  10.025 -10.727  0.00  0.00    -0.029 A 
ATOM      9  C3  2YQ d   1     -39.614   6.907  -9.414  0.00  0.00     0.082 A 
ATOM     10  C2  2YQ d   1     -39.791   8.250  -9.655  0.00  0.00     0.034 A 
ATOM     11  C9  2YQ d   1     -40.157  10.931 -10.120  0.00  0.00     0.119 A 
ATOM     12  F1  2YQ d   1     -40.319  12.229 -10.275  0.00  0.00    -0.206 F 
ATOM     13  C1  2YQ d   1     -40.850   8.665 -10.476  0.00  0.00     0.051 A 
ATOM     14  O   2YQ d   1     -42.601   8.009 -11.835  0.00  0.00    -0.266 OA
ATOM     15  N2  2YQ d   1     -41.467   6.427 -10.846  0.00  0.00    -0.242 N 
ATOM     16  H   2YQ d   1     -37.095   9.393  -8.146  0.00  0.00     0.160 HD
ATOM     17  H   2YQ d   1     -37.654   6.242  -9.243  0.00  0.00     0.065 H 
ATOM     18  H   2YQ d   1     -38.694   7.598  -6.706  0.00  0.00     0.082 H 
ATOM     19  H   2YQ d   1     -38.467  11.247  -8.877  0.00  0.00     0.091 H 
ATOM     20  H   2YQ d   1     -41.825  10.370 -11.377  0.00  0.00     0.089 H 
ATOM     21  H   2YQ d   1     -42.054   5.741 -11.275  0.00  0.00     0.192 HD
ENDROOT
BRANCH   5  22
ATOM     22  C11 2YQ d   1     -36.676   6.995  -7.103  0.00  0.00    -0.034 A 
ATOM     23  C12 2YQ d   1     -35.519   7.161  -7.866  0.00  0.00    -0.072 A 
ATOM     24  C13 2YQ d   1     -34.287   6.636  -7.460  0.00  0.00    -0.045 A 
ATOM     25  H   2YQ d   1     -35.576   7.711  -8.798  0.00  0.00     0.084 H 
ATOM     26  C14 2YQ d   1     -34.229   5.945  -6.262  0.00  0.00     0.116 A 
ATOM     27  H   2YQ d   1     -33.400   6.767  -8.069  0.00  0.00     0.088 H 
ATOM     28  C15 2YQ d   1     -35.378   5.776  -5.506  0.00  0.00    -0.045 A 
ATOM     29  F2  2YQ d   1     -33.098   5.382  -5.827  0.00  0.00    -0.206 F 
ATOM     30  C16 2YQ d   1     -36.592   6.314  -5.912  0.00  0.00    -0.072 A 
ATOM     31  H   2YQ d   1     -35.328   5.213  -4.581  0.00  0.00     0.088 H 
ATOM     32  H   2YQ d   1     -37.472   6.197  -5.290  0.00  0.00     0.084 H 
ENDBRANCH   5  22
BRANCH   4  33
ATOM     33  C17 2YQ d   1     -38.769   5.199  -7.865  0.00  0.00     0.136 A 
ATOM     34  N6  2YQ d   1     -39.695   4.942  -6.923  0.00  0.00    -0.225 NA
ATOM     35  C18 2YQ d   1     -39.523   3.660  -6.508  0.00  0.00     0.108 A 
ATOM     36  N5  2YQ d   1     -38.495   3.098  -7.160  0.00  0.00    -0.165 NA
ATOM     37  H   2YQ d   1     -40.132   3.161  -5.755  0.00  0.00     0.149 H 
ATOM     38  N4  2YQ d   1     -38.021   4.092  -7.984  0.00  0.00    -0.258 N 
BRANCH  38  39
ATOM     39  C19 2YQ d   1     -36.860   3.733  -8.837  0.00  0.00     0.004 C 
ATOM     40  H   2YQ d   1     -36.544   2.704  -8.611  0.00  0.00     0.059 H 
ATOM     41  H   2YQ d   1     -36.029   4.425  -8.635  0.00  0.00     0.059 H 
ATOM     42  H   2YQ d   1     -37.147   3.804  -9.896  0.00  0.00     0.059 H 
ENDBRANCH  38  39
ENDBRANCH   4  33
TORSDOF 3
