REMARK  4 active torsions:
REMARK  status: ('A' for Active; 'I' for Inactive)
REMARK    1  A    between atoms: C1_1  and  P1_3 
REMARK    2  A    between atoms: C1_1  and  C2_4 
REMARK    3  A    between atoms: P1_3  and  O2_5 
REMARK    4  A    between atoms: O2_5  and  CM_6 
ROOT
ATOM      1  O1  MAY d   1      14.058 -29.062 -11.587  0.00  0.00    -0.294 OA
ATOM      2  P1  MAY d   1      14.074 -30.542 -11.761  0.00  0.00     0.188 P 
ATOM      3  H3  MAY d   1      14.964 -30.760 -12.181  0.00  0.00     0.128 HD
ENDROOT
BRANCH   2   4
ATOM      4  C1  MAY d   1      13.967 -31.326 -10.309  0.00  0.00     0.002 C 
ATOM      5  H1  MAY d   1      14.031 -32.411 -10.477  0.00  0.00     0.046 H 
ATOM      6  H2  MAY d   1      13.004 -31.084  -9.836  0.00  0.00     0.046 H 
BRANCH   4   7
ATOM      7  C2  MAY d   1      15.051 -30.911  -9.432  0.00  0.00    -0.068 C 
ATOM      8  H4  MAY d   1      14.968 -31.439  -8.471  0.00  0.00     0.028 H 
ATOM      9  H5  MAY d   1      14.989 -29.826  -9.261  0.00  0.00     0.028 H 
ATOM     10  H6  MAY d   1      16.016 -31.154  -9.901  0.00  0.00     0.028 H 
ENDBRANCH   4   7
ENDBRANCH   2   4
BRANCH   2  11
ATOM     11  O2  MAY d   1      12.830 -31.294 -12.756  0.00  0.00    -0.341 OA
BRANCH  11  12
ATOM     12  CM  MAY d   1      12.420 -32.698 -12.563  0.00  0.00     0.011 C 
ATOM     13  H7  MAY d   1      11.635 -32.954 -13.290  0.00  0.00     0.066 H 
ATOM     14  H8  MAY d   1      12.032 -32.830 -11.542  0.00  0.00     0.066 H 
ATOM     15  H9  MAY d   1      13.288 -33.357 -12.713  0.00  0.00     0.066 H 
ENDBRANCH  11  12
ENDBRANCH   2  11
TORSDOF 4
