REMARK  9 active torsions:
REMARK  status: ('A' for Active; 'I' for Inactive)
REMARK    1  A    between atoms: C2_13  and  C6_2 
REMARK    2  A    between atoms: C11_3  and  C12_4 
REMARK    3  A    between atoms: N7_16  and  C11_3 
REMARK    4  A    between atoms: S8_17  and  C18_9 
REMARK    5  A    between atoms: C20_11  and  C25_25 
REMARK    6  A    between atoms: C2_13  and  C1_12 
REMARK       I    between atoms: C1_12  and  N3_14 
REMARK    7  A    between atoms: N7_16  and  C2_13 
REMARK    8  A    between atoms: N3_14  and  O5_15 
REMARK    9  A    between atoms: N7_16  and  S8_17 
ROOT
ATOM      1  N7  30H d   1       9.345  19.911  26.711  0.00  0.00    -0.289 N 
ENDROOT
BRANCH   1   2
ATOM      2  C11 30H d   1       8.694  18.741  27.298  0.00  0.00     0.031 C 
ATOM      3  H   30H d   1       9.468  17.980  27.477  0.00  0.00     0.072 H 
ATOM      4  H   30H d   1       8.253  19.048  28.258  0.00  0.00     0.072 H 
BRANCH   2   5
ATOM      5  C12 30H d   1       7.601  18.102  26.470  0.00  0.00    -0.022 A 
ATOM      6  C13 30H d   1       7.685  17.997  25.088  0.00  0.00    -0.072 A 
ATOM      7  C14 30H d   1       6.636  17.391  24.406  0.00  0.00    -0.065 A 
ATOM      8  H   30H d   1       8.548  18.378  24.554  0.00  0.00     0.084 H 
ATOM      9  C15 30H d   1       5.542  16.903  25.113  0.00  0.00     0.002 A 
ATOM     10  H   30H d   1       6.670  17.299  23.326  0.00  0.00     0.085 H 
ATOM     11  N16 30H d   1       5.490  17.013  26.446  0.00  0.00    -0.273 NA
ATOM     12  H   30H d   1       4.725  16.430  24.580  0.00  0.00     0.114 H 
ATOM     13  C17 30H d   1       6.486  17.592  27.127  0.00  0.00     0.009 A 
ATOM     14  H   30H d   1       6.423  17.665  28.207  0.00  0.00     0.115 H 
ENDBRANCH   2   5
ENDBRANCH   1   2
BRANCH   1  15
ATOM     15  C2  30H d   1      10.780  19.741  26.461  0.00  0.00     0.098 C 
ATOM     16  H   30H d   1      11.094  20.545  25.779  0.00  0.00     0.088 H 
BRANCH  15  17
ATOM     17  C6  30H d   1      11.078  18.405  25.792  0.00  0.00    -0.048 C 
ATOM     18  H   30H d   1      12.161  18.314  25.621  0.00  0.00     0.030 H 
ATOM     19  H   30H d   1      10.549  18.351  24.829  0.00  0.00     0.030 H 
ATOM     20  H   30H d   1      10.739  17.585  26.443  0.00  0.00     0.030 H 
ENDBRANCH  15  17
BRANCH  15  21
ATOM     21  C1  30H d   1      11.602  19.850  27.721  0.00  0.00     0.264 C 
ATOM     22  O4  30H d   1      11.556  18.989  28.585  0.00  0.00    -0.269 OA
ATOM     23  N3  30H d   1      12.379  20.922  27.843  0.00  0.00    -0.236 N 
ATOM     24  H   30H d   1      12.205  21.738  27.292  0.00  0.00     0.197 HD
BRANCH  23  25
ATOM     25  O5  30H d   1      13.438  20.895  28.746  0.00  0.00    -0.287 OA
ATOM     26  H   30H d   1      13.897  21.727  28.720  0.00  0.00     0.244 HD
ENDBRANCH  23  25
ENDBRANCH  15  21
ENDBRANCH   1  15
BRANCH   1  27
ATOM     27  S8  30H d   1       8.620  21.239  26.466  0.00  0.00     0.261 S 
ATOM     28  O9  30H d   1       7.353  21.040  25.816  0.00  0.00    -0.200 OA
ATOM     29  O10 30H d   1       9.434  22.101  25.652  0.00  0.00    -0.200 OA
BRANCH  27  30
ATOM     30  C18 30H d   1       8.393  21.902  27.902  0.00  0.00     0.080 A 
ATOM     31  C19 30H d   1       7.291  21.529  28.663  0.00  0.00    -0.052 A 
ATOM     32  C20 30H d   1       7.085  22.092  29.916  0.00  0.00    -0.022 A 
ATOM     33  H   30H d   1       6.591  20.797  28.277  0.00  0.00     0.086 H 
ATOM     34  C21 30H d   1       7.976  23.029  30.406  0.00  0.00     0.122 A 
ATOM     35  C22 30H d   1       9.080  23.408  29.649  0.00  0.00    -0.044 A 
ATOM     36  F24 30H d   1       7.767  23.572  31.618  0.00  0.00    -0.206 F 
ATOM     37  C23 30H d   1       9.287  22.847  28.393  0.00  0.00    -0.057 A 
ATOM     38  H   30H d   1       9.779  24.140  30.038  0.00  0.00     0.088 H 
ATOM     39  H   30H d   1      10.143  23.146  27.799  0.00  0.00     0.086 H 
BRANCH  32  40
ATOM     40  C25 30H d   1       5.892  21.686  30.741  0.00  0.00    -0.048 C 
ATOM     41  H   30H d   1       5.303  20.937  30.191  0.00  0.00     0.033 H 
ATOM     42  H   30H d   1       5.267  22.569  30.941  0.00  0.00     0.033 H 
ATOM     43  H   30H d   1       6.234  21.256  31.694  0.00  0.00     0.033 H 
ENDBRANCH  32  40
ENDBRANCH  27  30
ENDBRANCH   1  27
TORSDOF 9
