REMARK  10 active torsions:
REMARK  status: ('A' for Active; 'I' for Inactive)
REMARK    1  A    between atoms: C22_3  and  N1_26 
REMARK    2  A    between atoms: C19_6  and  C18_7 
REMARK    3  A    between atoms: C18_7  and  N6_8 
REMARK    4  A    between atoms: N6_8  and  C1_9 
REMARK    5  A    between atoms: N6_8  and  S7_15 
REMARK    6  A    between atoms: C1_9  and  C28_10 
REMARK    7  A    between atoms: C1_9  and  C2_11 
REMARK       I    between atoms: C2_11  and  N4_12 
REMARK    8  A    between atoms: N4_12  and  O5_13 
REMARK    9  A    between atoms: S7_15  and  C10_18 
REMARK   10  A    between atoms: C12_23  and  C17_25 
ROOT
ATOM      1  N6  30O d   1       9.684  18.858  27.034  0.00  0.00    -0.289 N 
ENDROOT
BRANCH   1   2
ATOM      2  C18 30O d   1       9.174  17.675  27.720  0.00  0.00     0.030 C 
ATOM      3  H   30O d   1      10.017  16.978  27.833  0.00  0.00     0.072 H 
ATOM      4  H   30O d   1       8.832  18.000  28.714  0.00  0.00     0.072 H 
BRANCH   2   5
ATOM      5  C19 30O d   1       8.038  16.901  27.089  0.00  0.00    -0.040 A 
ATOM      6  C20 30O d   1       7.031  16.449  27.943  0.00  0.00    -0.073 A 
ATOM      7  C21 30O d   1       5.963  15.719  27.440  0.00  0.00    -0.050 A 
ATOM      8  H   30O d   1       7.083  16.669  29.003  0.00  0.00     0.084 H 
ATOM      9  C22 30O d   1       5.889  15.433  26.077  0.00  0.00     0.102 A 
ATOM     10  H   30O d   1       5.184  15.370  28.108  0.00  0.00     0.087 H 
ATOM     11  C23 30O d   1       6.904  15.893  25.226  0.00  0.00    -0.050 A 
ATOM     12  C24 30O d   1       7.989  16.623  25.722  0.00  0.00    -0.073 A 
ATOM     13  H   30O d   1       6.847  15.679  24.165  0.00  0.00     0.087 H 
ATOM     14  H   30O d   1       8.775  16.966  25.059  0.00  0.00     0.084 H 
BRANCH   9  15
ATOM     15  N1  30O d   1       4.788  14.692  25.595  0.00  0.00    -0.116 N 
ATOM     16  O1  30O d   1       4.669  14.379  24.240  0.00  0.00    -0.532 OA
ATOM     17  O4  30O d   1       3.804  14.262  26.494  0.00  0.00    -0.532 OA
ENDBRANCH   9  15
ENDBRANCH   2   5
ENDBRANCH   1   2
BRANCH   1  18
ATOM     18  C1  30O d   1      11.149  18.740  26.828  0.00  0.00     0.098 C 
ATOM     19  H   30O d   1      11.431  19.525  26.111  0.00  0.00     0.088 H 
BRANCH  18  20
ATOM     20  C28 30O d   1      11.501  17.384  26.226  0.00  0.00    -0.048 C 
ATOM     21  H   30O d   1      12.590  17.318  26.082  0.00  0.00     0.030 H 
ATOM     22  H   30O d   1      10.995  17.271  25.256  0.00  0.00     0.030 H 
ATOM     23  H   30O d   1      11.172  16.584  26.906  0.00  0.00     0.030 H 
ENDBRANCH  18  20
BRANCH  18  24
ATOM     24  C2  30O d   1      12.027  18.919  28.073  0.00  0.00     0.264 C 
ATOM     25  N4  30O d   1      13.104  19.692  27.943  0.00  0.00    -0.236 N 
ATOM     26  H   30O d   1      13.369  20.043  27.045  0.00  0.00     0.197 HD
ATOM     27  O3  30O d   1      11.813  18.371  29.155  0.00  0.00    -0.269 OA
BRANCH  25  28
ATOM     28  O5  30O d   1      13.855  20.005  29.071  0.00  0.00    -0.287 OA
ATOM     29  H   30O d   1      14.585  20.559  28.820  0.00  0.00     0.244 HD
ENDBRANCH  25  28
ENDBRANCH  18  24
ENDBRANCH   1  18
BRANCH   1  30
ATOM     30  S7  30O d   1       8.790  20.106  26.732  0.00  0.00     0.261 S 
ATOM     31  O8  30O d   1       7.503  19.824  26.127  0.00  0.00    -0.200 OA
ATOM     32  O9  30O d   1       9.517  21.046  25.923  0.00  0.00    -0.200 OA
BRANCH  30  33
ATOM     33  C10 30O d   1       8.596  20.698  28.202  0.00  0.00     0.080 A 
ATOM     34  C15 30O d   1       9.589  21.541  28.713  0.00  0.00    -0.057 A 
ATOM     35  C14 30O d   1       9.451  22.033  29.998  0.00  0.00    -0.044 A 
ATOM     36  H   30O d   1      10.452  21.804  28.112  0.00  0.00     0.086 H 
ATOM     37  C13 30O d   1       8.348  21.673  30.772  0.00  0.00     0.122 A 
ATOM     38  H   30O d   1      10.202  22.700  30.405  0.00  0.00     0.088 H 
ATOM     39  F16 30O d   1       8.243  22.178  32.010  0.00  0.00    -0.206 F 
ATOM     40  C12 30O d   1       7.365  20.820  30.275  0.00  0.00    -0.022 A 
ATOM     41  C11 30O d   1       7.492  20.322  28.981  0.00  0.00    -0.052 A 
ATOM     42  H   30O d   1       6.744  19.649  28.579  0.00  0.00     0.086 H 
BRANCH  40  43
ATOM     43  C17 30O d   1       6.176  20.432  31.124  0.00  0.00    -0.048 C 
ATOM     44  H   30O d   1       6.252  20.921  32.106  0.00  0.00     0.033 H 
ATOM     45  H   30O d   1       6.162  19.340  31.258  0.00  0.00     0.033 H 
ATOM     46  H   30O d   1       5.249  20.752  30.625  0.00  0.00     0.033 H 
ENDBRANCH  40  43
ENDBRANCH  30  33
ENDBRANCH   1  30
TORSDOF 10
