REMARK  10 active torsions:
REMARK  status: ('A' for Active; 'I' for Inactive)
REMARK    1  A    between atoms: C21_1  and  N1_26 
REMARK    2  A    between atoms: C19_6  and  C18_7 
REMARK    3  A    between atoms: C18_7  and  N6_8 
REMARK    4  A    between atoms: N6_8  and  C1_9 
REMARK    5  A    between atoms: N6_8  and  S7_15 
REMARK    6  A    between atoms: C1_9  and  C28_10 
REMARK    7  A    between atoms: C1_9  and  C2_11 
REMARK    8  A    between atoms: N4_12  and  O5_13 
REMARK    9  A    between atoms: S7_15  and  C10_18 
REMARK   10  A    between atoms: C12_23  and  C17_25 
ROOT
ATOM      1  N6  30P d   1       9.632  17.953  26.685  0.00  0.00    -0.290 N 
ENDROOT
BRANCH   1   2
ATOM      2  C18 30P d   1       9.088  16.664  27.104  0.00  0.00     0.030 C 
ATOM      3  H   30P d   1       9.922  16.048  27.471  0.00  0.00     0.072 H 
ATOM      4  H   30P d   1       8.379  16.847  27.924  0.00  0.00     0.072 H 
BRANCH   2   5
ATOM      5  C19 30P d   1       8.363  15.875  26.026  0.00  0.00    -0.037 A 
ATOM      6  C20 30P d   1       8.554  16.119  24.667  0.00  0.00    -0.050 A 
ATOM      7  C21 30P d   1       7.879  15.360  23.716  0.00  0.00     0.026 A 
ATOM      8  H   30P d   1       9.231  16.904  24.350  0.00  0.00     0.087 H 
ATOM      9  C22 30P d   1       7.011  14.352  24.119  0.00  0.00    -0.058 A 
ATOM     10  C23 30P d   1       6.820  14.103  25.472  0.00  0.00    -0.080 A 
ATOM     11  H   30P d   1       6.484  13.761  23.379  0.00  0.00     0.086 H 
ATOM     12  C24 30P d   1       7.498  14.860  26.421  0.00  0.00    -0.075 A 
ATOM     13  H   30P d   1       6.142  13.318  25.788  0.00  0.00     0.083 H 
ATOM     14  H   30P d   1       7.351  14.658  27.476  0.00  0.00     0.084 H 
BRANCH   7  15
ATOM     15  N1  30P d   1       8.078  15.621  22.264  0.00  0.00    -0.399 N 
ATOM     16  H   30P d   1       8.720  16.366  21.958  0.00  0.00     0.156 HD
ATOM     17  H   30P d   1       7.574  15.056  21.565  0.00  0.00     0.156 HD
ENDBRANCH   7  15
ENDBRANCH   2   5
ENDBRANCH   1   2
BRANCH   1  18
ATOM     18  C1  30P d   1      11.080  18.017  26.468  0.00  0.00     0.085 C 
ATOM     19  H   30P d   1      11.264  18.849  25.773  0.00  0.00     0.086 H 
BRANCH  18  20
ATOM     20  C28 30P d   1      11.633  16.741  25.839  0.00  0.00    -0.049 C 
ATOM     21  H   30P d   1      12.719  16.842  25.699  0.00  0.00     0.030 H 
ATOM     22  H   30P d   1      11.151  16.574  24.864  0.00  0.00     0.030 H 
ATOM     23  H   30P d   1      11.427  15.887  26.501  0.00  0.00     0.030 H 
ENDBRANCH  18  20
BRANCH  18  24
ATOM     24  C2  30P d   1      11.862  18.282  27.724  0.00  0.00     0.198 C 
ATOM     25  N4  30P d   1      12.734  19.292  27.756  0.00  0.00    -0.247 N 
ATOM     26  H   30P d   1      12.717  20.016  27.066  0.00  0.00     0.196 HD
ATOM     27  O3  30P d   1      11.755  17.475  28.929  0.00  0.00    -0.173 OA
BRANCH  25  28
ATOM     28  O5  30P d   1      13.634  19.297  28.751  0.00  0.00    -0.288 OA
ATOM     29  H   30P d   1      14.194  20.060  28.666  0.00  0.00     0.244 HD
ENDBRANCH  25  28
ENDBRANCH  18  24
ENDBRANCH   1  18
BRANCH   1  30
ATOM     30  S7  30P d   1       8.749  19.181  26.521  0.00  0.00     0.261 S 
ATOM     31  O8  30P d   1       7.486  18.779  25.969  0.00  0.00    -0.200 OA
ATOM     32  O9  30P d   1       9.393  20.122  25.651  0.00  0.00    -0.200 OA
BRANCH  30  33
ATOM     33  C10 30P d   1       8.523  19.874  27.943  0.00  0.00     0.080 A 
ATOM     34  C15 30P d   1       9.234  21.024  28.268  0.00  0.00    -0.057 A 
ATOM     35  C14 30P d   1       9.047  21.634  29.502  0.00  0.00    -0.044 A 
ATOM     36  H   30P d   1       9.935  21.445  27.557  0.00  0.00     0.086 H 
ATOM     37  C13 30P d   1       8.149  21.092  30.415  0.00  0.00     0.122 A 
ATOM     38  H   30P d   1       9.601  22.532  29.753  0.00  0.00     0.088 H 
ATOM     39  F16 30P d   1       7.963  21.681  31.609  0.00  0.00    -0.206 F 
ATOM     40  C12 30P d   1       7.440  19.947  30.094  0.00  0.00    -0.022 A 
ATOM     41  C11 30P d   1       7.627  19.335  28.859  0.00  0.00    -0.052 A 
ATOM     42  H   30P d   1       7.073  18.437  28.610  0.00  0.00     0.086 H 
BRANCH  40  43
ATOM     43  C17 30P d   1       6.468  19.364  31.085  0.00  0.00    -0.048 C 
ATOM     44  H   30P d   1       6.458  19.982  31.995  0.00  0.00     0.033 H 
ATOM     45  H   30P d   1       6.775  18.339  31.341  0.00  0.00     0.033 H 
ATOM     46  H   30P d   1       5.461  19.345  30.643  0.00  0.00     0.033 H 
ENDBRANCH  40  43
ENDBRANCH  30  33
ENDBRANCH   1  30
TORSDOF 10
