REMARK  11 active torsions:
REMARK  status: ('A' for Active; 'I' for Inactive)
REMARK    1  A    between atoms: C1_1  and  C2_2 
REMARK    2  A    between atoms: C1_1  and  C28_21 
REMARK    3  A    between atoms: N6_22  and  C1_1 
REMARK    4  A    between atoms: C3_3  and  N5_6 
REMARK    5  A    between atoms: C22_18  and  C3_3 
REMARK    6  A    between atoms: N4_5  and  O5_23 
REMARK    7  A    between atoms: S7_24  and  C10_7 
REMARK    8  A    between atoms: C12_9  and  C17_13 
REMARK    9  A    between atoms: C18_14  and  C19_15 
REMARK   10  A    between atoms: N6_22  and  C18_14 
REMARK   11  A    between atoms: N6_22  and  S7_24 
ROOT
ATOM      1  N6  30R d   1      10.083  19.144  26.700  0.00  0.00    -0.290 N 
ENDROOT
BRANCH   1   2
ATOM      2  C1  30R d   1      11.584  19.118  26.679  0.00  0.00     0.085 C 
ATOM      3  H   30R d   1      11.887  19.992  26.084  0.00  0.00     0.086 H 
BRANCH   2   4
ATOM      4  C2  30R d   1      12.351  19.200  28.001  0.00  0.00     0.198 C 
ATOM      5  O3  30R d   1      12.319  18.210  29.079  0.00  0.00    -0.173 OA
ATOM      6  N4  30R d   1      13.166  20.245  28.231  0.00  0.00    -0.247 N 
ATOM      7  H   30R d   1      13.201  21.003  27.579  0.00  0.00     0.196 HD
BRANCH   6   8
ATOM      8  O5  30R d   1      13.937  20.275  29.338  0.00  0.00    -0.288 OA
ATOM      9  H   30R d   1      14.447  21.076  29.346  0.00  0.00     0.244 HD
ENDBRANCH   6   8
ENDBRANCH   2   4
BRANCH   2  10
ATOM     10  C28 30R d   1      12.104  17.855  25.979  0.00  0.00    -0.049 C 
ATOM     11  H   30R d   1      13.204  17.863  25.978  0.00  0.00     0.030 H 
ATOM     12  H   30R d   1      11.737  17.833  24.942  0.00  0.00     0.030 H 
ATOM     13  H   30R d   1      11.744  16.964  26.515  0.00  0.00     0.030 H 
ENDBRANCH   2  10
ENDBRANCH   1   2
BRANCH   1  14
ATOM     14  C18 30R d   1       9.631  17.796  27.081  0.00  0.00     0.030 C 
ATOM     15  H   30R d   1      10.419  17.104  26.748  0.00  0.00     0.072 H 
ATOM     16  H   30R d   1       9.578  17.791  28.180  0.00  0.00     0.072 H 
BRANCH  14  17
ATOM     17  C19 30R d   1       8.317  17.206  26.592  0.00  0.00    -0.040 A 
ATOM     18  C20 30R d   1       8.048  16.945  25.245  0.00  0.00    -0.075 A 
ATOM     19  C21 30R d   1       6.820  16.370  24.888  0.00  0.00    -0.075 A 
ATOM     20  H   30R d   1       8.782  17.185  24.484  0.00  0.00     0.084 H 
ATOM     21  C22 30R d   1       5.875  16.045  25.873  0.00  0.00    -0.033 A 
ATOM     22  H   30R d   1       6.599  16.175  23.845  0.00  0.00     0.084 H 
ATOM     23  C23 30R d   1       6.155  16.295  27.215  0.00  0.00    -0.075 A 
ATOM     24  C24 30R d   1       7.373  16.865  27.569  0.00  0.00    -0.075 A 
ATOM     25  H   30R d   1       5.427  16.047  27.979  0.00  0.00     0.084 H 
ATOM     26  H   30R d   1       7.595  17.048  28.614  0.00  0.00     0.084 H 
BRANCH  21  27
ATOM     27  C3  30R d   1       4.545  15.420  25.512  0.00  0.00     0.103 C 
ATOM     28  H   30R d   1       3.953  16.130  24.916  0.00  0.00     0.082 H 
ATOM     29  H   30R d   1       4.714  14.503  24.928  0.00  0.00     0.082 H 
BRANCH  27  30
ATOM     30  N5  30R d   1       3.812  15.086  26.768  0.00  0.00    -0.075 N 
ATOM     31  H   30R d   1       2.924  14.669  26.538  0.00  0.00     0.274 HD
ATOM     32  H   30R d   1       3.660  15.927  27.302  0.00  0.00     0.274 HD
ATOM     33  H   30R d   1       4.357  14.436  27.313  0.00  0.00     0.274 HD
ENDBRANCH  27  30
ENDBRANCH  21  27
ENDBRANCH  14  17
ENDBRANCH   1  14
BRANCH   1  34
ATOM     34  S7  30R d   1       9.136  20.400  26.457  0.00  0.00     0.261 S 
ATOM     35  O8  30R d   1       7.967  20.198  25.603  0.00  0.00    -0.200 OA
ATOM     36  O9  30R d   1       9.868  21.495  25.860  0.00  0.00    -0.200 OA
BRANCH  34  37
ATOM     37  C10 30R d   1       8.614  20.810  27.924  0.00  0.00     0.080 A 
ATOM     38  C11 30R d   1       7.518  20.131  28.466  0.00  0.00    -0.052 A 
ATOM     39  C12 30R d   1       7.062  20.440  29.739  0.00  0.00    -0.022 A 
ATOM     40  H   30R d   1       7.022  19.359  27.888  0.00  0.00     0.086 H 
ATOM     41  C13 30R d   1       7.707  21.423  30.473  0.00  0.00     0.122 A 
ATOM     42  C14 30R d   1       8.809  22.104  29.948  0.00  0.00    -0.044 A 
ATOM     43  F16 30R d   1       7.252  21.721  31.705  0.00  0.00    -0.206 F 
ATOM     44  C15 30R d   1       9.267  21.798  28.668  0.00  0.00    -0.057 A 
ATOM     45  H   30R d   1       9.306  22.868  30.535  0.00  0.00     0.088 H 
ATOM     46  H   30R d   1      10.121  22.321  28.253  0.00  0.00     0.086 H 
BRANCH  39  47
ATOM     47  C17 30R d   1       5.879  19.709  30.329  0.00  0.00    -0.048 C 
ATOM     48  H   30R d   1       5.504  18.972  29.603  0.00  0.00     0.033 H 
ATOM     49  H   30R d   1       5.082  20.430  30.564  0.00  0.00     0.033 H 
ATOM     50  H   30R d   1       6.189  19.192  31.249  0.00  0.00     0.033 H 
ENDBRANCH  39  47
ENDBRANCH  34  37
ENDBRANCH   1  34
TORSDOF 11
