REMARK  13 active torsions:
REMARK  status: ('A' for Active; 'I' for Inactive)
REMARK    1  A    between atoms: OAG_1  and  NAF_2 
REMARK       I    between atoms: NAF_2  and  CAD_3 
REMARK    2  A    between atoms: CAD_3  and  CAC_5 
REMARK    3  A    between atoms: CAC_5  and  CAB_6 
REMARK    4  A    between atoms: CAB_6  and  CAK_7 
REMARK    5  A    between atoms: CAB_6  and  CAA_25 
REMARK       I    between atoms: CAK_7  and  NAM_9 
REMARK    6  A    between atoms: NAM_9  and  CAN_10 
REMARK    7  A    between atoms: CAN_10  and  CAY_11 
REMARK    8  A    between atoms: CAN_10  and  CAO_15 
REMARK       I    between atoms: CAY_11  and  NBB_13 
REMARK    9  A    between atoms: NBB_13  and  CBA_14 
REMARK   10  A    between atoms: CAO_15  and  CAP_16 
REMARK   11  A    between atoms: CAA_25  and  CAH_26 
REMARK   12  A    between atoms: CAH_26  and  CAJ_27 
REMARK   13  A    between atoms: CAH_26  and  CAI_28 
ROOT
ATOM      1  CAK GM6 d   1       9.960  19.110  25.772  0.00  0.00     0.223 C 
ATOM      2  OAL GM6 d   1      10.147  20.094  25.079  0.00  0.00    -0.273 OA
ATOM      3  NAM GM6 d   1       9.081  18.166  25.430  0.00  0.00    -0.347 N 
ATOM      4  H   GM6 d   1       8.933  17.388  26.040  0.00  0.00     0.163 HD
ENDROOT
BRANCH   3   5
ATOM      5  CAN GM6 d   1       8.333  18.250  24.182  0.00  0.00     0.093 C 
ATOM      6  H   GM6 d   1       9.032  18.533  23.381  0.00  0.00     0.088 H 
BRANCH   5   7
ATOM      7  CAY GM6 d   1       7.231  19.274  24.257  0.00  0.00     0.240 C 
ATOM      8  OAZ GM6 d   1       6.834  19.674  25.344  0.00  0.00    -0.271 OA
ATOM      9  NBB GM6 d   1       6.702  19.682  23.105  0.00  0.00    -0.364 N 
ATOM     10  H   GM6 d   1       5.781  19.372  22.868  0.00  0.00     0.161 HD
BRANCH   9  11
ATOM     11  CBA GM6 d   1       7.398  20.555  22.177  0.00  0.00    -0.018 C 
ATOM     12  H   GM6 d   1       6.757  20.748  21.304  0.00  0.00     0.056 H 
ATOM     13  H   GM6 d   1       8.330  20.072  21.848  0.00  0.00     0.056 H 
ATOM     14  H   GM6 d   1       7.634  21.507  22.676  0.00  0.00     0.056 H 
ENDBRANCH   9  11
ENDBRANCH   5   7
BRANCH   5  15
ATOM     15  CAO GM6 d   1       7.683  16.917  23.829  0.00  0.00    -0.012 C 
ATOM     16  H   GM6 d   1       7.391  16.934  22.769  0.00  0.00     0.044 H 
ATOM     17  H   GM6 d   1       6.788  16.781  24.454  0.00  0.00     0.044 H 
BRANCH  15  18
ATOM     18  CAP GM6 d   1       8.620  15.754  24.059  0.00  0.00    -0.028 A 
ATOM     19  CAT GM6 d   1       8.454  14.738  24.987  0.00  0.00    -0.015 A 
ATOM     20  NAU GM6 d   1       9.473  13.837  24.928  0.00  0.00    -0.365 N 
ATOM     21  H   GM6 d   1       7.614  14.669  25.677  0.00  0.00     0.112 H 
ATOM     22  CAR GM6 d   1      10.368  14.182  23.989  0.00  0.00     0.042 A 
ATOM     23  H   GM6 d   1       9.547  13.001  25.525  0.00  0.00     0.165 HD
ATOM     24  CAV GM6 d   1      11.557  13.633  23.532  0.00  0.00    -0.056 A 
ATOM     25  CAQ GM6 d   1       9.881  15.426  23.364  0.00  0.00    -0.002 A 
ATOM     26  CAX GM6 d   1      12.238  14.278  22.503  0.00  0.00    -0.081 A 
ATOM     27  H   GM6 d   1      11.948  12.720  23.967  0.00  0.00     0.086 H 
ATOM     28  CAW GM6 d   1      11.761  15.453  21.918  0.00  0.00    -0.082 A 
ATOM     29  H   GM6 d   1      13.169  13.854  22.144  0.00  0.00     0.083 H 
ATOM     30  CAS GM6 d   1      10.579  16.049  22.342  0.00  0.00    -0.070 A 
ATOM     31  H   GM6 d   1      12.326  15.911  21.114  0.00  0.00     0.083 H 
ATOM     32  H   GM6 d   1      10.217  16.966  21.891  0.00  0.00     0.084 H 
ENDBRANCH  15  18
ENDBRANCH   5  15
ENDBRANCH   3   5
BRANCH   1  33
ATOM     33  CAB GM6 d   1      10.753  18.918  27.036  0.00  0.00     0.032 C 
ATOM     34  H   GM6 d   1      10.242  18.197  27.690  0.00  0.00     0.055 H 
BRANCH  33  35
ATOM     35  CAC GM6 d   1      12.137  18.407  26.641  0.00  0.00     0.022 C 
ATOM     36  H   GM6 d   1      12.043  17.400  26.209  0.00  0.00     0.048 H 
ATOM     37  H   GM6 d   1      12.576  19.086  25.895  0.00  0.00     0.048 H 
BRANCH  35  38
ATOM     38  CAD GM6 d   1      13.036  18.349  27.854  0.00  0.00     0.241 C 
ATOM     39  NAF GM6 d   1      14.066  19.191  27.901  0.00  0.00    -0.237 N 
ATOM     40  H   GM6 d   1      14.241  19.821  27.144  0.00  0.00     0.197 HD
ATOM     41  OAE GM6 d   1      12.813  17.538  28.737  0.00  0.00    -0.271 OA
BRANCH  39  42
ATOM     42  OAG GM6 d   1      14.894  19.183  29.015  0.00  0.00    -0.287 OA
ATOM     43  H   GM6 d   1      15.578  19.833  28.904  0.00  0.00     0.244 HD
ENDBRANCH  39  42
ENDBRANCH  35  38
ENDBRANCH  33  35
BRANCH  33  44
ATOM     44  CAA GM6 d   1      10.966  20.237  27.779  0.00  0.00    -0.051 C 
ATOM     45  H   GM6 d   1      11.412  20.953  27.074  0.00  0.00     0.034 H 
ATOM     46  H   GM6 d   1      11.668  20.050  28.605  0.00  0.00     0.034 H 
BRANCH  44  47
ATOM     47  CAH GM6 d   1       9.714  20.877  28.366  0.00  0.00    -0.060 C 
ATOM     48  H   GM6 d   1       8.911  20.831  27.616  0.00  0.00     0.038 H 
BRANCH  47  49
ATOM     49  CAJ GM6 d   1       9.252  20.146  29.620  0.00  0.00    -0.073 C 
ATOM     50  H   GM6 d   1       8.349  20.633  30.016  0.00  0.00     0.028 H 
ATOM     51  H   GM6 d   1      10.049  20.178  30.378  0.00  0.00     0.028 H 
ATOM     52  H   GM6 d   1       9.025  19.099  29.371  0.00  0.00     0.028 H 
ENDBRANCH  47  49
BRANCH  47  53
ATOM     53  CAI GM6 d   1       9.994  22.338  28.704  0.00  0.00    -0.073 C 
ATOM     54  H   GM6 d   1      10.328  22.866  27.799  0.00  0.00     0.028 H 
ATOM     55  H   GM6 d   1      10.780  22.393  29.471  0.00  0.00     0.028 H 
ATOM     56  H   GM6 d   1       9.076  22.808  29.086  0.00  0.00     0.028 H 
ENDBRANCH  47  53
ENDBRANCH  44  47
ENDBRANCH  33  44
ENDBRANCH   1  33
TORSDOF 13
