REMARK  11 active torsions:
REMARK  status: ('A' for Active; 'I' for Inactive)
REMARK    1  A    between atoms: N3B_8  and  PG_1 
REMARK    2  A    between atoms: PB_5  and  N3B_8 
REMARK    3  A    between atoms: O3A_12  and  PB_5 
REMARK    4  A    between atoms: PA_9  and  O3A_12 
REMARK    5  A    between atoms: PA_9  and  O5'_13 
REMARK    6  A    between atoms: O5'_13  and  C5'_14 
REMARK    7  A    between atoms: C5'_14  and  C4'_15 
REMARK    8  A    between atoms: C3'_17  and  O3'_18 
REMARK    9  A    between atoms: C2'_19  and  O2'_20 
REMARK   10  A    between atoms: C1'_21  and  N9_22 
REMARK   11  A    between atoms: C6_26  and  N6_27 
ROOT
ATOM      1  C4' ANP d   1     -34.083 -29.548  15.645  0.00  0.00     0.089 C 
ATOM      2  O4' ANP d   1     -33.820 -29.825  17.037  0.00  0.00    -0.353 OA
ATOM      3  C3' ANP d   1     -34.913 -28.264  15.616  0.00  0.00     0.091 C 
ATOM      4  C2' ANP d   1     -34.504 -27.561  16.913  0.00  0.00     0.105 C 
ATOM      5  C1' ANP d   1     -34.247 -28.744  17.849  0.00  0.00     0.139 C 
ATOM      6  H   ANP d   1     -34.714 -30.352  15.239  0.00  0.00     0.090 H 
ATOM      7  H   ANP d   1     -34.654 -27.649  14.742  0.00  0.00     0.091 H 
ATOM      8  H   ANP d   1     -33.588 -26.971  16.762  0.00  0.00     0.093 H 
ATOM      9  H   ANP d   1     -35.185 -29.005  18.362  0.00  0.00     0.122 H 
ENDROOT
BRANCH   1  10
ATOM     10  C5' ANP d   1     -32.797 -29.571  14.847  0.00  0.00     0.058 C 
ATOM     11  H   ANP d   1     -32.371 -30.585  14.870  0.00  0.00     0.079 H 
ATOM     12  H   ANP d   1     -33.008 -29.285  13.806  0.00  0.00     0.079 H 
BRANCH  10  13
ATOM     13  O5' ANP d   1     -31.853 -28.644  15.415  0.00  0.00    -0.287 OA
BRANCH  13  14
ATOM     14  PA  ANP d   1     -30.442 -28.235  14.747  0.00  0.00     0.417 P 
ATOM     15  O1A ANP d   1     -29.690 -29.579  14.680  0.00  0.00    -0.624 OA
ATOM     16  O2A ANP d   1     -29.716 -27.106  15.382  0.00  0.00    -0.624 OA
BRANCH  14  17
ATOM     17  O3A ANP d   1     -30.745 -27.857  13.277  0.00  0.00    -0.186 OA
BRANCH  17  18
ATOM     18  PB  ANP d   1     -30.265 -27.477  11.865  0.00  0.00     0.379 P 
ATOM     19  O1B ANP d   1     -31.326 -28.342  11.076  0.00  0.00    -0.629 OA
ATOM     20  O2B ANP d   1     -28.859 -27.892  11.697  0.00  0.00    -0.629 OA
BRANCH  18  21
ATOM     21  N3B ANP d   1     -30.598 -25.906  11.530  0.00  0.00    -0.218 N 
ATOM     22  H   ANP d   1     -31.564 -25.649  11.541  0.00  0.00     0.179 HD
BRANCH  21  23
ATOM     23  PG  ANP d   1     -29.535 -24.703  11.178  0.00  0.00     0.381 P 
ATOM     24  O1G ANP d   1     -29.854 -24.084   9.767  0.00  0.00    -0.622 OA
ATOM     25  O2G ANP d   1     -30.015 -23.475  12.024  0.00  0.00    -0.622 OA
ATOM     26  O3G ANP d   1     -28.085 -25.084  11.231  0.00  0.00    -0.622 OA
ENDBRANCH  21  23
ENDBRANCH  18  21
ENDBRANCH  17  18
ENDBRANCH  14  17
ENDBRANCH  13  14
ENDBRANCH  10  13
ENDBRANCH   1  10
BRANCH   3  27
ATOM     27  O3' ANP d   1     -36.307 -28.555  15.586  0.00  0.00    -0.390 OA
ATOM     28  H   ANP d   1     -36.799 -27.742  15.568  0.00  0.00     0.210 HD
ENDBRANCH   3  27
BRANCH   5  29
ATOM     29  N9  ANP d   1     -33.219 -28.488  18.856  0.00  0.00    -0.294 N 
ATOM     30  C8  ANP d   1     -31.913 -28.129  18.636  0.00  0.00     0.071 A 
ATOM     31  N7  ANP d   1     -31.211 -27.967  19.732  0.00  0.00    -0.236 NA
ATOM     32  H   ANP d   1     -31.496 -27.991  17.639  0.00  0.00     0.144 H 
ATOM     33  C5  ANP d   1     -32.119 -28.232  20.746  0.00  0.00     0.149 A 
ATOM     34  C6  ANP d   1     -32.007 -28.210  22.150  0.00  0.00     0.155 A 
ATOM     35  C4  ANP d   1     -33.361 -28.555  20.221  0.00  0.00     0.167 A 
ATOM     36  N1  ANP d   1     -33.116 -28.489  22.878  0.00  0.00    -0.222 NA
ATOM     37  C2  ANP d   1     -34.252 -28.786  22.232  0.00  0.00     0.091 A 
ATOM     38  N3  ANP d   1     -34.475 -28.850  20.915  0.00  0.00    -0.222 NA
ATOM     39  H   ANP d   1     -35.106 -29.004  22.863  0.00  0.00     0.146 H 
BRANCH  34  40
ATOM     40  N6  ANP d   1     -30.863 -27.962  22.795  0.00  0.00    -0.382 N 
ATOM     41  H   ANP d   1     -30.843 -27.959  23.825  0.00  0.00     0.157 HD
ATOM     42  H   ANP d   1     -30.002 -27.774  22.262  0.00  0.00     0.157 HD
ENDBRANCH  34  40
ENDBRANCH   5  29
BRANCH   4  43
ATOM     43  O2' ANP d   1     -35.520 -26.710  17.427  0.00  0.00    -0.388 OA
ATOM     44  H   ANP d   1     -35.724 -26.039  16.786  0.00  0.00     0.210 HD
ENDBRANCH   4  43
TORSDOF 11
