REMARK  12 active torsions:
REMARK  status: ('A' for Active; 'I' for Inactive)
REMARK    1  A    between atoms: O02_4  and  C01_3 
REMARK    2  A    between atoms: C03_5  and  O02_4 
REMARK    3  A    between atoms: C04_6  and  C03_5 
REMARK    4  A    between atoms: O05_7  and  C04_6 
REMARK    5  A    between atoms: C06_8  and  O05_7 
REMARK    6  A    between atoms: C07_9  and  C06_8 
REMARK    7  A    between atoms: C07_9  and  C08_10 
REMARK    8  A    between atoms: C09_11  and  C10_12 
REMARK    9  A    between atoms: C13_15  and  O14_16 
REMARK   10  A    between atoms: O14_16  and  C15_17 
REMARK   11  A    between atoms: C16_18  and  O17_19 
REMARK   12  A    between atoms: C18_20  and  C19_21 
ROOT
ATOM      1  C21 31J d   1      62.729  43.122   1.337  0.00  0.00     0.099 A 
ATOM      2  C23 31J d   1      61.845  42.515  -0.811  0.00  0.00     0.295 A 
ATOM      3  C08 31J d   1      61.673  43.937  -1.195  0.00  0.00     0.026 A 
ATOM      4  C09 31J d   1      62.077  44.959  -0.219  0.00  0.00    -0.036 A 
ATOM      5  C11 31J d   1      62.615  44.489   1.079  0.00  0.00     0.008 A 
ATOM      6  C12 31J d   1      62.999  45.426   2.025  0.00  0.00    -0.035 A 
ATOM      7  C13 31J d   1      63.505  45.002   3.245  0.00  0.00     0.102 A 
ATOM      8  C16 31J d   1      63.627  43.639   3.506  0.00  0.00     0.107 A 
ATOM      9  C18 31J d   1      63.241  42.710   2.562  0.00  0.00     0.009 A 
ATOM     10  O22 31J d   1      62.354  42.176   0.414  0.00  0.00    -0.274 OA
ATOM     11  O24 31J d   1      61.518  41.621  -1.606  0.00  0.00    -0.259 OA
ATOM     12  H   31J d   1      62.904  46.485   1.813  0.00  0.00     0.089 H 
ENDROOT
BRANCH   3  13
ATOM     13  C07 31J d   1      61.134  44.371  -2.536  0.00  0.00    -0.015 C 
ATOM     14  H   31J d   1      60.244  43.774  -2.783  0.00  0.00     0.043 H 
ATOM     15  H   31J d   1      60.861  45.436  -2.493  0.00  0.00     0.043 H 
BRANCH  13  16
ATOM     16  C06 31J d   1      62.203  44.162  -3.613  0.00  0.00     0.023 C 
ATOM     17  H   31J d   1      62.629  43.156  -3.482  0.00  0.00     0.074 H 
ATOM     18  H   31J d   1      61.715  44.229  -4.597  0.00  0.00     0.074 H 
BRANCH  16  19
ATOM     19  O05 31J d   1      63.281  45.111  -3.583  0.00  0.00    -0.389 OA
BRANCH  19  20
ATOM     20  C04 31J d   1      64.390  44.585  -4.316  0.00  0.00     0.039 C 
ATOM     21  H   31J d   1      64.771  43.701  -3.784  0.00  0.00     0.077 H 
ATOM     22  H   31J d   1      64.037  44.288  -5.315  0.00  0.00     0.077 H 
BRANCH  20  23
ATOM     23  C03 31J d   1      65.531  45.573  -4.484  0.00  0.00     0.039 C 
ATOM     24  H   31J d   1      65.998  45.426  -5.469  0.00  0.00     0.077 H 
ATOM     25  H   31J d   1      65.138  46.598  -4.413  0.00  0.00     0.077 H 
BRANCH  23  26
ATOM     26  O02 31J d   1      66.506  45.370  -3.465  0.00  0.00    -0.394 OA
BRANCH  26  27
ATOM     27  C01 31J d   1      67.843  45.645  -3.879  0.00  0.00     0.004 C 
ATOM     28  H   31J d   1      68.531  45.465  -3.040  0.00  0.00     0.066 H 
ATOM     29  H   31J d   1      67.920  46.695  -4.197  0.00  0.00     0.066 H 
ATOM     30  H   31J d   1      68.109  44.987  -4.719  0.00  0.00     0.066 H 
ENDBRANCH  26  27
ENDBRANCH  23  26
ENDBRANCH  20  23
ENDBRANCH  19  20
ENDBRANCH  16  19
ENDBRANCH  13  16
ENDBRANCH   3  13
BRANCH   4  31
ATOM     31  C10 31J d   1      61.944  46.422  -0.544  0.00  0.00    -0.050 C 
ATOM     32  H   31J d   1      61.525  46.536  -1.554  0.00  0.00     0.033 H 
ATOM     33  H   31J d   1      62.934  46.898  -0.502  0.00  0.00     0.033 H 
ATOM     34  H   31J d   1      61.275  46.901   0.187  0.00  0.00     0.033 H 
ENDBRANCH   4  31
BRANCH   9  35
ATOM     35  C19 31J d   1      63.382  41.278   2.917  0.00  0.00    -0.046 C 
ATOM     36  H   31J d   1      63.039  40.657   2.077  0.00  0.00     0.033 H 
ATOM     37  H   31J d   1      62.774  41.059   3.807  0.00  0.00     0.033 H 
ATOM     38  H   31J d   1      64.438  41.055   3.131  0.00  0.00     0.033 H 
ENDBRANCH   9  35
BRANCH   7  39
ATOM     39  O14 31J d   1      63.875  45.958   4.164  0.00  0.00    -0.353 OA
BRANCH  39  40
ATOM     40  C15 31J d   1      63.436  47.311   3.990  0.00  0.00     0.010 C 
ATOM     41  H   31J d   1      63.824  47.931   4.812  0.00  0.00     0.066 H 
ATOM     42  H   31J d   1      62.337  47.343   3.994  0.00  0.00     0.066 H 
ATOM     43  H   31J d   1      63.811  47.698   3.031  0.00  0.00     0.066 H 
ENDBRANCH  39  40
ENDBRANCH   7  39
BRANCH   8  44
ATOM     44  O17 31J d   1      64.117  43.172   4.689  0.00  0.00    -0.357 OA
ATOM     45  H   31J d   1      63.567  43.477   5.401  0.00  0.00     0.217 HD
ENDBRANCH   8  44
TORSDOF 12
