REMARK  6 active torsions:
REMARK  status: ('A' for Active; 'I' for Inactive)
REMARK    1  A    between atoms: C12_15  and  C10_4 
REMARK    2  A    between atoms: C03_7  and  C01_6 
REMARK    3  A    between atoms: C04_8  and  O05_9 
REMARK    4  A    between atoms: C06_10  and  O07_11 
REMARK    5  A    between atoms: O07_11  and  C08_12 
REMARK    6  A    between atoms: N16_18  and  C17_19 
ROOT
ATOM      1  C22 31K d   1      88.135 -11.783  70.088  0.00  0.00    -0.038 A 
ATOM      2  C19 31K d   1      89.345 -10.738  66.797  0.00  0.00     0.041 C 
ATOM      3  C18 31K d   1      90.009  -9.385  67.116  0.00  0.00     0.015 C 
ATOM      4  C13 31K d   1      88.561 -10.017  71.673  0.00  0.00    -0.070 A 
ATOM      5  C12 31K d   1      87.944 -11.233  71.355  0.00  0.00    -0.023 A 
ATOM      6  C14 31K d   1      89.372  -9.350  70.744  0.00  0.00    -0.054 A 
ATOM      7  C15 31K d   1      89.548  -9.920  69.494  0.00  0.00     0.063 A 
ATOM      8  N16 31K d   1      90.346  -9.300  68.538  0.00  0.00    -0.381 N 
ATOM      9  O20 31K d   1      89.181 -11.615  67.915  0.00  0.00    -0.347 OA
ATOM     10  C21 31K d   1      88.950 -11.116  69.167  0.00  0.00     0.096 A 
ATOM     11  H   31K d   1      87.657 -12.718  69.819  0.00  0.00     0.089 H 
ATOM     12  H   31K d   1      89.965 -11.253  66.049  0.00  0.00     0.077 H 
ATOM     13  H   31K d   1      88.350 -10.537  66.373  0.00  0.00     0.077 H 
ATOM     14  H   31K d   1      89.314  -8.572  66.860  0.00  0.00     0.067 H 
ATOM     15  H   31K d   1      90.928  -9.284  66.520  0.00  0.00     0.067 H 
ATOM     16  H   31K d   1      88.409  -9.584  72.655  0.00  0.00     0.084 H 
ATOM     17  H   31K d   1      89.850  -8.411  70.998  0.00  0.00     0.087 H 
ENDROOT
BRANCH   5  18
ATOM     18  C10 31K d   1      87.098 -11.867  72.395  0.00  0.00    -0.022 A 
ATOM     19  C09 31K d   1      86.795 -11.078  73.488  0.00  0.00    -0.037 A 
ATOM     20  C06 31K d   1      86.001 -11.540  74.528  0.00  0.00     0.102 A 
ATOM     21  H   31K d   1      87.189 -10.069  73.534  0.00  0.00     0.089 H 
ATOM     22  C04 31K d   1      85.518 -12.839  74.486  0.00  0.00     0.104 A 
ATOM     23  C03 31K d   1      85.818 -13.679  73.401  0.00  0.00    -0.025 A 
ATOM     24  C11 31K d   1      86.612 -13.176  72.332  0.00  0.00    -0.064 A 
ATOM     25  H   31K d   1      86.838 -13.803  71.477  0.00  0.00     0.085 H 
BRANCH  20  26
ATOM     26  O07 31K d   1      85.730 -10.708  75.579  0.00  0.00    -0.353 OA
BRANCH  26  27
ATOM     27  C08 31K d   1      84.994  -9.496  75.417  0.00  0.00     0.010 C 
ATOM     28  H   31K d   1      84.898  -8.992  76.390  0.00  0.00     0.066 H 
ATOM     29  H   31K d   1      83.993  -9.725  75.022  0.00  0.00     0.066 H 
ATOM     30  H   31K d   1      85.524  -8.837  74.714  0.00  0.00     0.066 H 
ENDBRANCH  26  27
ENDBRANCH  20  26
BRANCH  22  31
ATOM     31  O05 31K d   1      84.755 -13.325  75.477  0.00  0.00    -0.357 OA
ATOM     32  H   31K d   1      84.633 -12.655  76.139  0.00  0.00     0.217 HD
ENDBRANCH  22  31
BRANCH  23  33
ATOM     33  C01 31K d   1      85.269 -15.058  73.363  0.00  0.00    -0.049 C 
ATOM     34  H   31K d   1      85.608 -15.562  72.446  0.00  0.00     0.033 H 
ATOM     35  H   31K d   1      84.170 -15.015  73.373  0.00  0.00     0.033 H 
ATOM     36  H   31K d   1      85.623 -15.618  74.241  0.00  0.00     0.033 H 
ENDBRANCH  23  33
ENDBRANCH   5  18
BRANCH   8  37
ATOM     37  C17 31K d   1      91.528  -8.560  68.954  0.00  0.00    -0.018 C 
ATOM     38  H   31K d   1      91.622  -8.604  70.049  0.00  0.00     0.056 H 
ATOM     39  H   31K d   1      91.435  -7.511  68.636  0.00  0.00     0.056 H 
ATOM     40  H   31K d   1      92.421  -9.005  68.492  0.00  0.00     0.056 H 
ENDBRANCH   8  37
TORSDOF 6
