REMARK  6 active torsions:
REMARK  status: ('A' for Active; 'I' for Inactive)
REMARK    1  A    between atoms: C12_3  and  C10_1 
REMARK    2  A    between atoms: N18_20  and  C15_5 
REMARK    3  A    between atoms: C03_11  and  C01_10 
REMARK    4  A    between atoms: C04_12  and  O05_13 
REMARK    5  A    between atoms: C06_14  and  O07_15 
REMARK    6  A    between atoms: O07_15  and  C08_16 
ROOT
ATOM      1  C12 31L d   1      87.842 -12.726  70.923  0.00  0.00    -0.026 A 
ATOM      2  C14 31L d   1      88.378 -12.663  68.599  0.00  0.00    -0.057 A 
ATOM      3  C15 31L d   1      89.029 -11.464  68.808  0.00  0.00     0.030 A 
ATOM      4  C16 31L d   1      89.099 -10.888  70.060  0.00  0.00    -0.057 A 
ATOM      5  C13 31L d   1      87.778 -13.294  69.669  0.00  0.00    -0.070 A 
ATOM      6  C17 31L d   1      88.506 -11.509  71.126  0.00  0.00    -0.070 A 
ATOM      7  H   31L d   1      88.339 -13.102  67.609  0.00  0.00     0.086 H 
ATOM      8  H   31L d   1      89.621  -9.948  70.199  0.00  0.00     0.086 H 
ATOM      9  H   31L d   1      87.258 -14.234  69.524  0.00  0.00     0.084 H 
ATOM     10  H   31L d   1      88.549 -11.065  72.114  0.00  0.00     0.084 H 
ENDROOT
BRANCH   1  11
ATOM     11  C10 31L d   1      87.176 -13.426  72.058  0.00  0.00    -0.023 A 
ATOM     12  C11 31L d   1      86.460 -14.601  71.852  0.00  0.00    -0.064 A 
ATOM     13  C03 31L d   1      85.849 -15.243  72.907  0.00  0.00    -0.025 A 
ATOM     14  H   31L d   1      86.382 -15.015  70.853  0.00  0.00     0.085 H 
ATOM     15  C04 31L d   1      85.958 -14.663  74.164  0.00  0.00     0.104 A 
ATOM     16  C06 31L d   1      86.664 -13.507  74.388  0.00  0.00     0.102 A 
ATOM     17  C09 31L d   1      87.282 -12.844  73.336  0.00  0.00    -0.037 A 
ATOM     18  H   31L d   1      87.823 -11.918  73.492  0.00  0.00     0.089 H 
BRANCH  13  19
ATOM     19  C01 31L d   1      85.100 -16.544  72.684  0.00  0.00    -0.049 C 
ATOM     20  H   31L d   1      85.143 -16.814  71.618  0.00  0.00     0.033 H 
ATOM     21  H   31L d   1      84.050 -16.420  72.989  0.00  0.00     0.033 H 
ATOM     22  H   31L d   1      85.564 -17.341  73.283  0.00  0.00     0.033 H 
ENDBRANCH  13  19
BRANCH  15  23
ATOM     23  O05 31L d   1      85.353 -15.284  75.198  0.00  0.00    -0.357 OA
ATOM     24  H   31L d   1      85.503 -14.789  75.995  0.00  0.00     0.217 HD
ENDBRANCH  15  23
BRANCH  16  25
ATOM     25  O07 31L d   1      86.787 -12.933  75.615  0.00  0.00    -0.353 OA
BRANCH  25  26
ATOM     26  C08 31L d   1      88.045 -12.876  76.317  0.00  0.00     0.010 C 
ATOM     27  H   31L d   1      87.903 -12.370  77.283  0.00  0.00     0.066 H 
ATOM     28  H   31L d   1      88.776 -12.318  75.714  0.00  0.00     0.066 H 
ATOM     29  H   31L d   1      88.415 -13.897  76.489  0.00  0.00     0.066 H 
ENDBRANCH  25  26
ENDBRANCH  16  25
ENDBRANCH   1  11
BRANCH   3  30
ATOM     30  N18 31L d   1      89.629 -10.830  67.736  0.00  0.00    -0.377 N 
ATOM     31  C23 31L d   1      90.404  -9.623  67.960  0.00  0.00     0.015 C 
ATOM     32  C22 31L d   1      91.825 -10.141  67.770  0.00  0.00     0.034 C 
ATOM     33  H   31L d   1      90.158  -8.844  67.224  0.00  0.00     0.067 H 
ATOM     34  H   31L d   1      90.251  -9.229  68.976  0.00  0.00     0.067 H 
ATOM     35  O21 31L d   1      91.834 -11.363  67.033  0.00  0.00    -0.388 OA
ATOM     36  H   31L d   1      92.279 -10.314  68.757  0.00  0.00     0.076 H 
ATOM     37  H   31L d   1      92.412  -9.388  67.223  0.00  0.00     0.076 H 
ATOM     38  C20 31L d   1      90.929 -11.343  65.931  0.00  0.00     0.034 C 
ATOM     39  C19 31L d   1      89.486 -11.400  66.417  0.00  0.00     0.015 C 
ATOM     40  H   31L d   1      91.080 -10.417  65.357  0.00  0.00     0.076 H 
ATOM     41  H   31L d   1      91.127 -12.211  65.285  0.00  0.00     0.076 H 
ATOM     42  H   31L d   1      89.113 -12.434  66.460  0.00  0.00     0.067 H 
ATOM     43  H   31L d   1      88.820 -10.796  65.784  0.00  0.00     0.067 H 
ENDBRANCH   3  30
TORSDOF 6
