REMARK  10 active torsions:
REMARK  status: ('A' for Active; 'I' for Inactive)
REMARK    1  A    between atoms: N_1  and  CA_2 
REMARK    2  A    between atoms: CA_2  and  CB_3 
REMARK    3  A    between atoms: CA_2  and  C_8 
REMARK    4  A    between atoms: CB_3  and  CG_4 
REMARK    5  A    between atoms: CG_4  and  CD_5 
REMARK    6  A    between atoms: CD_5  and  CE_6 
REMARK    7  A    between atoms: CE_6  and  NZ_7 
REMARK    8  A    between atoms: NZ_7  and  CM1_10 
REMARK    9  A    between atoms: NZ_7  and  CM2_11 
REMARK   10  A    between atoms: NZ_7  and  CM3_12 
ROOT
ATOM      1  CD  M3L d   1       2.013   5.008 -16.688  0.00  0.00    -0.042 C 
ATOM      2  H9  M3L d   1       1.842   3.946 -16.917  0.00  0.00     0.035 H 
ATOM      3  H10 M3L d   1       2.487   5.099 -15.700  0.00  0.00     0.035 H 
ENDROOT
BRANCH   1   4
ATOM      4  CG  M3L d   1       0.672   5.733 -16.664  0.00  0.00    -0.061 C 
ATOM      5  H7  M3L d   1       0.300   5.822 -17.695  0.00  0.00     0.033 H 
ATOM      6  H8  M3L d   1      -0.039   5.142 -16.067  0.00  0.00     0.033 H 
BRANCH   4   7
ATOM      7  CB  M3L d   1       0.779   7.128 -16.059  0.00  0.00    -0.029 C 
ATOM      8  H5  M3L d   1       1.687   7.187 -15.441  0.00  0.00     0.036 H 
ATOM      9  H6  M3L d   1       0.837   7.871 -16.868  0.00  0.00     0.036 H 
BRANCH   7  10
ATOM     10  CA  M3L d   1      -0.445   7.424 -15.187  0.00  0.00     0.182 C 
ATOM     11  H4  M3L d   1      -0.284   7.001 -14.184  0.00  0.00     0.101 H 
BRANCH  10  12
ATOM     12  N   M3L d   1      -1.614   6.802 -15.786  0.00  0.00    -0.065 N 
ATOM     13  H1  M3L d   1      -1.462   5.809 -15.866  0.00  0.00     0.275 HD
ATOM     14  H2  M3L d   1      -1.770   7.193 -16.702  0.00  0.00     0.275 HD
ATOM     15  H3  M3L d   1      -2.420   6.973 -15.206  0.00  0.00     0.275 HD
ENDBRANCH  10  12
BRANCH  10  16
ATOM     16  C   M3L d   1      -0.658   8.912 -15.061  0.00  0.00     0.204 C 
ATOM     17  O   M3L d   1      -1.452   9.359 -14.201  0.00  0.00    -0.646 OA
ATOM     18  OXT M3L d   1      -0.040   9.698 -15.817  0.00  0.00    -0.646 OA
ENDBRANCH  10  16
ENDBRANCH   7  10
ENDBRANCH   4   7
ENDBRANCH   1   4
BRANCH   1  19
ATOM     19  CE  M3L d   1       2.941   5.599 -17.740  0.00  0.00     0.084 C 
ATOM     20  H11 M3L d   1       2.958   6.694 -17.634  0.00  0.00     0.076 H 
ATOM     21  H12 M3L d   1       2.569   5.333 -18.741  0.00  0.00     0.076 H 
BRANCH  19  22
ATOM     22  NZ  M3L d   1       4.306   5.077 -17.578  0.00  0.00    -0.079 N 
BRANCH  22  23
ATOM     23  CM1 M3L d   1       4.333   3.623 -17.790  0.00  0.00     0.067 C 
ATOM     24  H13 M3L d   1       5.361   3.253 -17.665  0.00  0.00     0.068 H 
ATOM     25  H14 M3L d   1       3.983   3.394 -18.807  0.00  0.00     0.068 H 
ATOM     26  H15 M3L d   1       3.675   3.133 -17.057  0.00  0.00     0.068 H 
ENDBRANCH  22  23
BRANCH  22  27
ATOM     27  CM2 M3L d   1       4.799   5.362 -16.225  0.00  0.00     0.067 C 
ATOM     28  H16 M3L d   1       4.785   6.448 -16.051  0.00  0.00     0.068 H 
ATOM     29  H17 M3L d   1       5.828   4.988 -16.123  0.00  0.00     0.068 H 
ATOM     30  H18 M3L d   1       4.153   4.864 -15.487  0.00  0.00     0.068 H 
ENDBRANCH  22  27
BRANCH  22  31
ATOM     31  CM3 M3L d   1       5.175   5.739 -18.558  0.00  0.00     0.067 C 
ATOM     32  H19 M3L d   1       4.809   5.528 -19.574  0.00  0.00     0.068 H 
ATOM     33  H20 M3L d   1       6.202   5.360 -18.452  0.00  0.00     0.068 H 
ATOM     34  H21 M3L d   1       5.165   6.825 -18.383  0.00  0.00     0.068 H 
ENDBRANCH  22  31
ENDBRANCH  19  22
ENDBRANCH   1  19
TORSDOF 10
