REMARK  10 active torsions:
REMARK  status: ('A' for Active; 'I' for Inactive)
REMARK    1  A    between atoms: N_1  and  CA_2 
REMARK    2  A    between atoms: CA_2  and  CB_3 
REMARK    3  A    between atoms: CA_2  and  C_8 
REMARK    4  A    between atoms: CB_3  and  CG_4 
REMARK    5  A    between atoms: CG_4  and  CD_5 
REMARK    6  A    between atoms: CD_5  and  CE_6 
REMARK    7  A    between atoms: CE_6  and  NZ_7 
REMARK    8  A    between atoms: NZ_7  and  CM1_10 
REMARK    9  A    between atoms: NZ_7  and  CM2_11 
REMARK   10  A    between atoms: NZ_7  and  CM3_12 
ROOT
ATOM      1  CD  M3L d   1       2.066   5.016 -17.126  0.00  0.00    -0.042 C 
ATOM      2  H9  M3L d   1       2.049   3.981 -17.499  0.00  0.00     0.035 H 
ATOM      3  H10 M3L d   1       2.378   5.021 -16.071  0.00  0.00     0.035 H 
ENDROOT
BRANCH   1   4
ATOM      4  CG  M3L d   1       0.662   5.606 -17.232  0.00  0.00    -0.061 C 
ATOM      5  H7  M3L d   1       0.480   5.907 -18.274  0.00  0.00     0.033 H 
ATOM      6  H8  M3L d   1      -0.069   4.838 -16.939  0.00  0.00     0.033 H 
BRANCH   4   7
ATOM      7  CB  M3L d   1       0.487   6.823 -16.330  0.00  0.00    -0.029 C 
ATOM      8  H5  M3L d   1       1.113   6.702 -15.434  0.00  0.00     0.036 H 
ATOM      9  H6  M3L d   1       0.799   7.725 -16.876  0.00  0.00     0.036 H 
BRANCH   7  10
ATOM     10  CA  M3L d   1      -0.972   6.973 -15.906  0.00  0.00     0.182 C 
ATOM     11  H4  M3L d   1      -1.399   5.975 -15.731  0.00  0.00     0.101 H 
BRANCH  10  12
ATOM     12  N   M3L d   1      -1.730   7.635 -16.951  0.00  0.00    -0.065 N 
ATOM     13  H1  M3L d   1      -1.673   7.095 -17.800  0.00  0.00     0.275 HD
ATOM     14  H2  M3L d   1      -1.349   8.555 -17.111  0.00  0.00     0.275 HD
ATOM     15  H3  M3L d   1      -2.694   7.715 -16.668  0.00  0.00     0.275 HD
ENDBRANCH  10  12
BRANCH  10  16
ATOM     16  C   M3L d   1      -1.051   7.770 -14.638  0.00  0.00     0.204 C 
ATOM     17  O   M3L d   1      -1.379   7.176 -13.588  0.00  0.00    -0.646 OA
ATOM     18  OXT M3L d   1      -0.785   8.990 -14.691  0.00  0.00    -0.646 OA
ENDBRANCH  10  16
ENDBRANCH   7  10
ENDBRANCH   4   7
ENDBRANCH   1   4
BRANCH   1  19
ATOM     19  CE  M3L d   1       3.069   5.821 -17.943  0.00  0.00     0.084 C 
ATOM     20  H11 M3L d   1       3.273   6.773 -17.431  0.00  0.00     0.076 H 
ATOM     21  H12 M3L d   1       2.647   6.023 -18.939  0.00  0.00     0.076 H 
BRANCH  19  22
ATOM     22  NZ  M3L d   1       4.327   5.070 -18.092  0.00  0.00    -0.079 N 
BRANCH  22  23
ATOM     23  CM1 M3L d   1       4.102   3.835 -18.851  0.00  0.00     0.067 C 
ATOM     24  H13 M3L d   1       5.051   3.288 -18.952  0.00  0.00     0.068 H 
ATOM     25  H14 M3L d   1       3.714   4.084 -19.850  0.00  0.00     0.068 H 
ATOM     26  H15 M3L d   1       3.372   3.206 -18.320  0.00  0.00     0.068 H 
ENDBRANCH  22  23
BRANCH  22  27
ATOM     27  CM2 M3L d   1       4.875   4.748 -16.771  0.00  0.00     0.067 C 
ATOM     28  H16 M3L d   1       5.042   5.677 -16.207  0.00  0.00     0.068 H 
ATOM     29  H17 M3L d   1       5.830   4.215 -16.890  0.00  0.00     0.068 H 
ATOM     30  H18 M3L d   1       4.165   4.110 -16.225  0.00  0.00     0.068 H 
ENDBRANCH  22  27
BRANCH  22  31
ATOM     31  CM3 M3L d   1       5.294   5.878 -18.831  0.00  0.00     0.067 C 
ATOM     32  H19 M3L d   1       4.886   6.122 -19.823  0.00  0.00     0.068 H 
ATOM     33  H20 M3L d   1       6.231   5.313 -18.948  0.00  0.00     0.068 H 
ATOM     34  H21 M3L d   1       5.494   6.808 -18.278  0.00  0.00     0.068 H 
ENDBRANCH  22  31
ENDBRANCH  19  22
ENDBRANCH   1  19
TORSDOF 10
