REMARK  6 active torsions:
REMARK  status: ('A' for Active; 'I' for Inactive)
REMARK    1  A    between atoms: C2_2  and  N3_10 
REMARK    2  A    between atoms: N1_3  and  C9_14 
REMARK    3  A    between atoms: C4_6  and  O1_13 
REMARK    4  A    between atoms: C5_8  and  C7_11 
REMARK    5  A    between atoms: N3_10  and  C10_15 
REMARK    6  A    between atoms: C9_14  and  C13_18 
ROOT
ATOM      1  C7  32V d   1     -47.860  27.854   2.080  0.00  0.00    -0.075 C 
ATOM      2  C8  32V d   1     -48.955  27.832   2.695  0.00  0.00    -0.149 C 
ATOM      3  H   32V d   1     -49.876  27.814   3.212  0.00  0.00     0.166 H 
ENDROOT
BRANCH   1   4
ATOM      4  C5  32V d   1     -46.557  27.945   1.319  0.00  0.00     0.051 A 
ATOM      5  C3  32V d   1     -45.726  26.863   1.121  0.00  0.00     0.086 A 
ATOM      6  C1  32V d   1     -44.547  27.174   0.448  0.00  0.00     0.060 A 
ATOM      7  N2  32V d   1     -45.951  25.561   1.585  0.00  0.00    -0.189 N 
ATOM      8  C4  32V d   1     -43.559  26.187   0.172  0.00  0.00     0.153 A 
ATOM      9  S1  32V d   1     -44.555  28.864  -0.022  0.00  0.00    -0.098 SA
ATOM     10  N1  32V d   1     -43.786  24.899   0.562  0.00  0.00    -0.187 N 
ATOM     11  H   32V d   1     -43.055  26.417   1.122  0.00  0.00     0.127 H 
ATOM     12  C2  32V d   1     -44.970  24.602   1.297  0.00  0.00     0.679 A 
ATOM     13  C6  32V d   1     -46.046  29.117   0.752  0.00  0.00    -0.024 A 
ATOM     14  H   32V d   1     -46.547  30.083   0.801  0.00  0.00     0.097 H 
ATOM     15  H   32V d   1     -46.800  25.319   2.115  0.00  0.00     0.184 HD
BRANCH   8  16
ATOM     16  O1  32V d   1     -42.416  26.441  -0.512  0.00  0.00    -0.371 OA
ATOM     17  H   32V d   1     -42.374  27.366  -0.725  0.00  0.00     0.212 HD
ENDBRANCH   8  16
BRANCH  10  18
ATOM     18  C9  32V d   1     -42.806  23.830   0.310  0.00  0.00     0.011 C 
ATOM     19  H   32V d   1     -42.190  24.090  -0.564  0.00  0.00     0.064 H 
ATOM     20  H   32V d   1     -43.331  22.882   0.120  0.00  0.00     0.064 H 
BRANCH  18  21
ATOM     21  C13 32V d   1     -41.932  23.690   1.521  0.00  0.00    -0.060 C 
ATOM     22  H   32V d   1     -41.193  22.894   1.349  0.00  0.00     0.029 H 
ATOM     23  H   32V d   1     -42.552  23.433   2.393  0.00  0.00     0.029 H 
ATOM     24  H   32V d   1     -41.411  24.640   1.709  0.00  0.00     0.029 H 
ENDBRANCH  18  21
ENDBRANCH  10  18
BRANCH  12  25
ATOM     25  N3  32V d   1     -45.173  23.248   1.723  0.00  0.00    -0.221 N 
ATOM     26  H   32V d   1     -44.445  22.530   1.597  0.00  0.00     0.178 HD
BRANCH  25  27
ATOM     27  C10 32V d   1     -46.469  22.927   2.350  0.00  0.00     0.026 C 
ATOM     28  C11 32V d   1     -47.453  22.479   1.313  0.00  0.00    -0.046 C 
ATOM     29  C15 32V d   1     -48.479  21.781   2.180  0.00  0.00    -0.063 C 
ATOM     30  H   32V d   1     -46.994  21.787   0.592  0.00  0.00     0.036 H 
ATOM     31  H   32V d   1     -47.891  23.332   0.775  0.00  0.00     0.036 H 
ATOM     32  C14 32V d   1     -47.702  21.133   3.277  0.00  0.00    -0.063 C 
ATOM     33  H   32V d   1     -49.024  21.024   1.597  0.00  0.00     0.033 H 
ATOM     34  H   32V d   1     -49.192  22.509   2.593  0.00  0.00     0.033 H 
ATOM     35  C12 32V d   1     -46.340  21.780   3.309  0.00  0.00    -0.046 C 
ATOM     36  H   32V d   1     -48.213  21.284   4.239  0.00  0.00     0.033 H 
ATOM     37  H   32V d   1     -47.602  20.055   3.081  0.00  0.00     0.033 H 
ATOM     38  H   32V d   1     -46.100  22.139   4.321  0.00  0.00     0.036 H 
ATOM     39  H   32V d   1     -45.563  21.076   2.976  0.00  0.00     0.036 H 
ATOM     40  H   32V d   1     -46.847  23.817   2.874  0.00  0.00     0.073 H 
ENDBRANCH  25  27
ENDBRANCH  12  25
ENDBRANCH   1   4
TORSDOF 6
