REMARK  2 active torsions:
REMARK  status: ('A' for Active; 'I' for Inactive)
REMARK    1  A    between atoms: N3_1  and  C3_2 
REMARK    2  A    between atoms: C1_7  and  C1'_8 
REMARK       I    between atoms: C1'_8  and  N1'_10 
ROOT
ATOM      1  C3  3AB d   1      26.173  49.354   0.356  0.00  0.00     0.026 A 
ATOM      2  C2  3AB d   1      25.392  48.473  -0.410  0.00  0.00    -0.043 A 
ATOM      3  C4  3AB d   1      25.665  50.606   0.718  0.00  0.00    -0.058 A 
ATOM      4  C5  3AB d   1      24.387  50.994   0.304  0.00  0.00    -0.080 A 
ATOM      5  C6  3AB d   1      23.612  50.113  -0.460  0.00  0.00    -0.068 A 
ATOM      6  C1  3AB d   1      24.105  48.857  -0.833  0.00  0.00     0.034 A 
ATOM      7  H   3AB d   1      25.780  47.496  -0.676  0.00  0.00     0.088 H 
ATOM      8  H   3AB d   1      26.264  51.278   1.322  0.00  0.00     0.086 H 
ATOM      9  H   3AB d   1      23.999  51.970   0.573  0.00  0.00     0.083 H 
ATOM     10  H   3AB d   1      22.615  50.408  -0.767  0.00  0.00     0.085 H 
ENDROOT
BRANCH   6  11
ATOM     11  C1' 3AB d   1      23.219  47.929  -1.690  0.00  0.00     0.249 C 
ATOM     12  O1' 3AB d   1      22.352  48.393  -2.437  0.00  0.00    -0.268 OA
ATOM     13  N1' 3AB d   1      23.422  46.620  -1.544  0.00  0.00    -0.366 N 
ATOM     14  H   3AB d   1      22.878  45.968  -2.072  0.00  0.00     0.159 HD
ATOM     15  H   3AB d   1      24.118  46.290  -0.906  0.00  0.00     0.159 HD
ENDBRANCH   6  11
BRANCH   1  16
ATOM     16  N3  3AB d   1      27.397  49.001   0.763  0.00  0.00    -0.399 N 
ATOM     17  H   3AB d   1      27.781  48.081   0.502  0.00  0.00     0.156 HD
ATOM     18  H   3AB d   1      27.956  49.649   1.337  0.00  0.00     0.156 HD
ENDBRANCH   1  16
TORSDOF 2
