REMARK  7 active torsions:
REMARK  status: ('A' for Active; 'I' for Inactive)
REMARK    1  A    between atoms: C5_3  and  C4_26 
REMARK    2  A    between atoms: C8_28  and  C7_4 
REMARK    3  A    between atoms: O_19  and  C18_11 
REMARK       I    between atoms: C_14  and  N2_15 
REMARK       I    between atoms: N_24  and  C_14 
REMARK    4  A    between atoms: N2_15  and  C14_16 
REMARK    5  A    between atoms: C17_18  and  O_19 
REMARK    6  A    between atoms: N_24  and  C1_25 
REMARK    7  A    between atoms: C4_26  and  N_24 
ROOT
ATOM      1  O1  31W d   1      33.924 -31.513  -7.388  0.00  0.00    -0.247 OA
ATOM      2  C   31W d   1      33.869 -32.517  -8.085  0.00  0.00     0.323 C 
ATOM      3  N2  31W d   1      34.916 -32.931  -8.854  0.00  0.00    -0.309 N 
ATOM      4  N   31W d   1      32.710 -33.302  -8.119  0.00  0.00    -0.325 N 
ATOM      5  H   31W d   1      34.770 -33.736  -9.428  0.00  0.00     0.170 HD
ENDROOT
BRANCH   4   6
ATOM      6  C1  31W d   1      32.666 -34.429  -9.083  0.00  0.00     0.017 A 
ATOM      7  C2  31W d   1      31.422 -34.656  -9.874  0.00  0.00    -0.044 A 
ATOM      8  C3  31W d   1      31.812 -35.616  -8.792  0.00  0.00    -0.044 A 
ATOM      9  H   31W d   1      30.554 -33.995  -9.736  0.00  0.00     0.036 H 
ATOM     10  H   31W d   1      31.488 -34.959 -10.929  0.00  0.00     0.036 H 
ATOM     11  H   31W d   1      32.165 -36.625  -9.052  0.00  0.00     0.036 H 
ATOM     12  H   31W d   1      31.230 -35.660  -7.859  0.00  0.00     0.036 H 
ATOM     13  H   31W d   1      33.653 -34.560  -9.550  0.00  0.00     0.072 H 
ENDBRANCH   4   6
BRANCH   4  14
ATOM     14  C4  31W d   1      31.585 -32.956  -7.241  0.00  0.00     0.023 C 
ATOM     15  H   31W d   1      31.638 -31.878  -7.031  0.00  0.00     0.071 H 
ATOM     16  H   31W d   1      30.653 -33.179  -7.780  0.00  0.00     0.071 H 
BRANCH  14  17
ATOM     17  C5  31W d   1      31.545 -33.688  -5.917  0.00  0.00    -0.039 A 
ATOM     18  C13 31W d   1      32.681 -34.284  -5.379  0.00  0.00    -0.075 A 
ATOM     19  C12 31W d   1      32.663 -34.823  -4.101  0.00  0.00    -0.082 A 
ATOM     20  H   31W d   1      33.592 -34.328  -5.966  0.00  0.00     0.084 H 
ATOM     21  C11 31W d   1      31.503 -34.779  -3.345  0.00  0.00    -0.070 A 
ATOM     22  H   31W d   1      33.558 -35.279  -3.693  0.00  0.00     0.083 H 
ATOM     23  C7  31W d   1      30.342 -34.218  -3.878  0.00  0.00     0.000 A 
ATOM     24  H   31W d   1      31.497 -35.181  -2.338  0.00  0.00     0.084 H 
ATOM     25  C6  31W d   1      30.371 -33.684  -5.165  0.00  0.00    -0.063 A 
ATOM     26  H   31W d   1      29.468 -33.259  -5.588  0.00  0.00     0.085 H 
BRANCH  23  27
ATOM     27  C8  31W d   1      29.090 -34.185  -3.098  0.00  0.00     0.107 A 
ATOM     28  S   31W d   1      27.620 -33.572  -3.779  0.00  0.00    -0.080 SA
ATOM     29  C10 31W d   1      26.832 -33.882  -2.303  0.00  0.00    -0.026 A 
ATOM     30  C9  31W d   1      27.692 -34.409  -1.421  0.00  0.00     0.010 A 
ATOM     31  H   31W d   1      25.780 -33.681  -2.104  0.00  0.00     0.097 H 
ATOM     32  N1  31W d   1      28.984 -34.588  -1.863  0.00  0.00    -0.252 NA
ATOM     33  H   31W d   1      27.387 -34.681  -0.412  0.00  0.00     0.115 H 
ENDBRANCH  23  27
ENDBRANCH  14  17
ENDBRANCH   4  14
BRANCH   3  34
ATOM     34  C14 31W d   1      36.197 -32.318  -8.911  0.00  0.00     0.036 A 
ATOM     35  C15 31W d   1      36.915 -32.135  -7.733  0.00  0.00    -0.054 A 
ATOM     36  C16 31W d   1      38.130 -31.470  -7.744  0.00  0.00    -0.048 A 
ATOM     37  H   31W d   1      36.520 -32.516  -6.798  0.00  0.00     0.087 H 
ATOM     38  C17 31W d   1      38.639 -30.983  -8.938  0.00  0.00     0.078 A 
ATOM     39  H   31W d   1      38.681 -31.331  -6.821  0.00  0.00     0.087 H 
ATOM     40  C19 31W d   1      37.943 -31.184 -10.126  0.00  0.00    -0.048 A 
ATOM     41  C20 31W d   1      36.729 -31.853 -10.110  0.00  0.00    -0.054 A 
ATOM     42  H   31W d   1      38.349 -30.818 -11.062  0.00  0.00     0.087 H 
ATOM     43  H   31W d   1      36.191 -32.015 -11.037  0.00  0.00     0.087 H 
BRANCH  38  44
ATOM     44  O   31W d   1      39.863 -30.280  -8.880  0.00  0.00    -0.255 OA
BRANCH  44  45
ATOM     45  C18 31W d   1      39.826 -28.936  -8.845  0.00  0.00     0.530 C 
ATOM     46  F2  31W d   1      39.355 -28.412  -9.959  0.00  0.00    -0.144 F 
ATOM     47  F1  31W d   1      39.092 -28.478  -7.845  0.00  0.00    -0.144 F 
ATOM     48  F   31W d   1      41.026 -28.422  -8.686  0.00  0.00    -0.144 F 
ENDBRANCH  44  45
ENDBRANCH  38  44
ENDBRANCH   3  34
TORSDOF 7
