REMARK  5 active torsions:
REMARK  status: ('A' for Active; 'I' for Inactive)
REMARK    1  A    between atoms: C2_1  and  C3_2 
REMARK    2  A    between atoms: C9_5  and  C10_6 
REMARK    3  A    between atoms: C13_9  and  C14_30 
REMARK    4  A    between atoms: C_19  and  N_18 
REMARK    5  A    between atoms: C1_20  and  C_19 
ROOT
ATOM      1  C9  31X d   1      30.763 -34.468  -9.323  0.00  0.00     0.113 A 
ATOM      2  C11 31X d   1      29.936 -34.185  -8.281  0.00  0.00    -0.036 A 
ATOM      3  C12 31X d   1      30.624 -34.439  -7.039  0.00  0.00     0.023 A 
ATOM      4  C13 31X d   1      30.368 -34.344  -5.635  0.00  0.00     0.080 A 
ATOM      5  C26 31X d   1      31.901 -34.904  -7.422  0.00  0.00     0.049 A 
ATOM      6  N   31X d   1      31.967 -34.949  -8.817  0.00  0.00    -0.333 N 
ATOM      7  C25 31X d   1      32.863 -35.232  -6.474  0.00  0.00    -0.039 A 
ATOM      8  C24 31X d   1      32.503 -35.100  -5.142  0.00  0.00     0.005 A 
ATOM      9  N3  31X d   1      31.298 -34.673  -4.718  0.00  0.00    -0.259 NA
ATOM     10  H   31X d   1      28.913 -33.823  -8.370  0.00  0.00     0.088 H 
ATOM     11  H   31X d   1      33.850 -35.575  -6.763  0.00  0.00     0.089 H 
ATOM     12  H   31X d   1      33.241 -35.358  -4.391  0.00  0.00     0.114 H 
ENDROOT
BRANCH   6  13
ATOM     13  C   31X d   1      33.071 -35.523  -9.577  0.00  0.00     0.059 C 
ATOM     14  H   31X d   1      32.698 -35.834 -10.564  0.00  0.00     0.077 H 
ATOM     15  H   31X d   1      33.454 -36.401  -9.037  0.00  0.00     0.077 H 
BRANCH  13  16
ATOM     16  C1  31X d   1      34.196 -34.546  -9.771  0.00  0.00     0.174 A 
ATOM     17  N2  31X d   1      35.076 -34.229  -8.775  0.00  0.00    -0.203 NA
ATOM     18  C2  31X d   1      35.841 -33.344  -9.330  0.00  0.00     0.206 A 
ATOM     19  O   31X d   1      35.505 -33.081 -10.603  0.00  0.00    -0.191 OA
ATOM     20  N1  31X d   1      34.387 -33.914 -10.888  0.00  0.00    -0.109 NA
BRANCH  18  21
ATOM     21  C3  31X d   1      37.047 -32.714  -8.772  0.00  0.00     0.019 A 
ATOM     22  C8  31X d   1      37.713 -31.705  -9.472  0.00  0.00    -0.069 A 
ATOM     23  C7  31X d   1      38.877 -31.149  -8.965  0.00  0.00    -0.082 A 
ATOM     24  H   31X d   1      37.317 -31.355 -10.418  0.00  0.00     0.085 H 
ATOM     25  C6  31X d   1      39.389 -31.582  -7.752  0.00  0.00    -0.083 A 
ATOM     26  H   31X d   1      39.389 -30.372  -9.520  0.00  0.00     0.083 H 
ATOM     27  C5  31X d   1      38.727 -32.569  -7.041  0.00  0.00    -0.082 A 
ATOM     28  H   31X d   1      40.303 -31.150  -7.362  0.00  0.00     0.083 H 
ATOM     29  C4  31X d   1      37.562 -33.130  -7.541  0.00  0.00    -0.069 A 
ATOM     30  H   31X d   1      39.122 -32.905  -6.089  0.00  0.00     0.083 H 
ATOM     31  H   31X d   1      37.047 -33.897  -6.973  0.00  0.00     0.085 H 
ENDBRANCH  18  21
ENDBRANCH  13  16
ENDBRANCH   6  13
BRANCH   1  32
ATOM     32  C10 31X d   1      30.520 -34.206 -10.777  0.00  0.00     0.227 C 
ATOM     33  O2  31X d   1      29.333 -33.980 -11.121  0.00  0.00    -0.643 OA
ATOM     34  O1  31X d   1      31.511 -34.173 -11.542  0.00  0.00    -0.643 OA
ENDBRANCH   1  32
BRANCH   4  35
ATOM     35  C14 31X d   1      29.052 -33.950  -5.065  0.00  0.00     0.005 A 
ATOM     36  C15 31X d   1      28.348 -32.753  -5.465  0.00  0.00    -0.013 A 
ATOM     37  C20 31X d   1      28.881 -31.785  -6.368  0.00  0.00    -0.071 A 
ATOM     38  C16 31X d   1      27.047 -32.502  -4.918  0.00  0.00    -0.025 A 
ATOM     39  C19 31X d   1      28.172 -30.666  -6.714  0.00  0.00    -0.082 A 
ATOM     40  H   31X d   1      29.868 -31.939  -6.789  0.00  0.00     0.084 H 
ATOM     41  C18 31X d   1      26.912 -30.432  -6.180  0.00  0.00    -0.082 A 
ATOM     42  H   31X d   1      28.599 -29.955  -7.412  0.00  0.00     0.083 H 
ATOM     43  C17 31X d   1      26.354 -31.320  -5.300  0.00  0.00    -0.072 A 
ATOM     44  H   31X d   1      26.366 -29.539  -6.462  0.00  0.00     0.083 H 
ATOM     45  H   31X d   1      25.371 -31.120  -4.889  0.00  0.00     0.084 H 
ATOM     46  C21 31X d   1      26.501 -33.427  -3.989  0.00  0.00    -0.072 A 
ATOM     47  C22 31X d   1      27.203 -34.535  -3.619  0.00  0.00    -0.081 A 
ATOM     48  H   31X d   1      25.517 -33.250  -3.570  0.00  0.00     0.084 H 
ATOM     49  C23 31X d   1      28.458 -34.794  -4.150  0.00  0.00    -0.070 A 
ATOM     50  H   31X d   1      26.775 -35.224  -2.900  0.00  0.00     0.083 H 
ATOM     51  H   31X d   1      28.988 -35.686  -3.837  0.00  0.00     0.084 H 
ENDBRANCH   4  35
TORSDOF 5
