REMARK  6 active torsions:
REMARK  status: ('A' for Active; 'I' for Inactive)
REMARK    1  A    between atoms: C16_19  and  N6_5 
REMARK    2  A    between atoms: N3_30  and  C7_6 
REMARK    3  A    between atoms: C7_6  and  C8_31 
REMARK    4  A    between atoms: N5_22  and  C13_11 
REMARK    5  A    between atoms: C_23  and  N5_22 
REMARK    6  A    between atoms: C6_28  and  N3_30 
ROOT
ATOM      1  C2  31Y d   1      30.091 -34.975  -2.605  0.00  0.00     0.091 A 
ATOM      2  C3  31Y d   1      28.405 -34.933  -1.069  0.00  0.00     0.089 A 
ATOM      3  C5  31Y d   1      31.822 -35.036  -4.275  0.00  0.00    -0.037 A 
ATOM      4  C   31Y d   1      27.940 -33.963  -3.086  0.00  0.00     0.161 A 
ATOM      5  N1  31Y d   1      27.529 -34.287  -1.850  0.00  0.00    -0.222 NA
ATOM      6  N   31Y d   1      29.660 -35.292  -1.344  0.00  0.00    -0.240 NA
ATOM      7  C1  31Y d   1      29.260 -34.323  -3.533  0.00  0.00     0.133 A 
ATOM      8  N2  31Y d   1      29.690 -34.040  -4.794  0.00  0.00    -0.226 NA
ATOM      9  C6  31Y d   1      30.918 -34.381  -5.143  0.00  0.00     0.124 A 
ATOM     10  C4  31Y d   1      31.403 -35.319  -3.009  0.00  0.00    -0.049 A 
ATOM     11  H   31Y d   1      28.046 -35.200  -0.082  0.00  0.00     0.146 H 
ATOM     12  H   31Y d   1      32.818 -35.305  -4.606  0.00  0.00     0.089 H 
ATOM     13  H   31Y d   1      32.075 -35.807  -2.312  0.00  0.00     0.087 H 
ENDROOT
BRANCH   4  14
ATOM     14  N5  31Y d   1      27.170 -33.170  -3.878  0.00  0.00    -0.339 N 
ATOM     15  H   31Y d   1      27.684 -32.783  -4.682  0.00  0.00     0.167 HD
BRANCH  14  16
ATOM     16  C13 31Y d   1      25.827 -32.764  -3.839  0.00  0.00     0.033 A 
ATOM     17  C18 31Y d   1      25.493 -31.667  -4.624  0.00  0.00    -0.055 A 
ATOM     18  C17 31Y d   1      24.218 -31.133  -4.577  0.00  0.00    -0.055 A 
ATOM     19  H   31Y d   1      26.237 -31.227  -5.278  0.00  0.00     0.087 H 
ATOM     20  C16 31Y d   1      23.238 -31.701  -3.759  0.00  0.00     0.030 A 
ATOM     21  H   31Y d   1      23.977 -30.265  -5.181  0.00  0.00     0.087 H 
ATOM     22  C15 31Y d   1      23.586 -32.792  -2.959  0.00  0.00    -0.055 A 
ATOM     23  C14 31Y d   1      24.866 -33.315  -2.998  0.00  0.00    -0.055 A 
ATOM     24  H   31Y d   1      22.846 -33.233  -2.301  0.00  0.00     0.087 H 
ATOM     25  H   31Y d   1      25.122 -34.160  -2.369  0.00  0.00     0.087 H 
BRANCH  20  26
ATOM     26  N6  31Y d   1      21.924 -31.230  -3.796  0.00  0.00    -0.377 N 
ATOM     27  C22 31Y d   1      21.204 -31.058  -5.062  0.00  0.00     0.015 C 
ATOM     28  C21 31Y d   1      20.413 -29.773  -5.015  0.00  0.00     0.034 C 
ATOM     29  H   31Y d   1      20.519 -31.906  -5.214  0.00  0.00     0.067 H 
ATOM     30  H   31Y d   1      21.925 -31.016  -5.892  0.00  0.00     0.067 H 
ATOM     31  O   31Y d   1      19.542 -29.737  -3.882  0.00  0.00    -0.388 OA
ATOM     32  H   31Y d   1      19.811 -29.690  -5.932  0.00  0.00     0.076 H 
ATOM     33  H   31Y d   1      21.111 -28.925  -4.957  0.00  0.00     0.076 H 
ATOM     34  C20 31Y d   1      20.284 -29.846  -2.663  0.00  0.00     0.034 C 
ATOM     35  C19 31Y d   1      21.079 -31.129  -2.603  0.00  0.00     0.015 C 
ATOM     36  H   31Y d   1      19.583 -29.822  -1.816  0.00  0.00     0.076 H 
ATOM     37  H   31Y d   1      20.976 -28.994  -2.590  0.00  0.00     0.076 H 
ATOM     38  H   31Y d   1      21.712 -31.128  -1.703  0.00  0.00     0.067 H 
ATOM     39  H   31Y d   1      20.391 -31.986  -2.566  0.00  0.00     0.067 H 
ENDBRANCH  20  26
ENDBRANCH  14  16
ENDBRANCH   4  14
BRANCH   9  40
ATOM     40  N3  31Y d   1      31.291 -34.058  -6.414  0.00  0.00    -0.370 N 
ATOM     41  H   31Y d   1      32.236 -34.318  -6.732  0.00  0.00     0.161 HD
BRANCH  40  42
ATOM     42  C7  31Y d   1      30.410 -33.361  -7.341  0.00  0.00     0.019 C 
ATOM     43  H   31Y d   1      29.447 -33.892  -7.371  0.00  0.00     0.071 H 
ATOM     44  H   31Y d   1      30.871 -33.380  -8.340  0.00  0.00     0.071 H 
BRANCH  42  45
ATOM     45  C8  31Y d   1      30.149 -31.919  -6.963  0.00  0.00    -0.023 A 
ATOM     46  C9  31Y d   1      31.188 -31.018  -6.801  0.00  0.00     0.009 A 
ATOM     47  N4  31Y d   1      31.024 -29.735  -6.434  0.00  0.00    -0.273 NA
ATOM     48  H   31Y d   1      32.197 -31.369  -6.981  0.00  0.00     0.115 H 
ATOM     49  C10 31Y d   1      29.771 -29.311  -6.216  0.00  0.00     0.002 A 
ATOM     50  C11 31Y d   1      28.665 -30.128  -6.353  0.00  0.00    -0.065 A 
ATOM     51  H   31Y d   1      29.619 -28.280  -5.919  0.00  0.00     0.114 H 
ATOM     52  C12 31Y d   1      28.863 -31.447  -6.732  0.00  0.00    -0.072 A 
ATOM     53  H   31Y d   1      27.667 -29.747  -6.169  0.00  0.00     0.085 H 
ATOM     54  H   31Y d   1      28.014 -32.110  -6.848  0.00  0.00     0.084 H 
ENDBRANCH  42  45
ENDBRANCH  40  42
ENDBRANCH   9  40
TORSDOF 6
