REMARK  20 active torsions:
REMARK  status: ('A' for Active; 'I' for Inactive)
REMARK    1  A    between atoms: N_1  and  CA_2 
REMARK    2  A    between atoms: CA_2  and  C_3 
REMARK    3  A    between atoms: CA_2  and  CB_5 
REMARK       I    between atoms: C_3  and  N_6 
REMARK    4  A    between atoms: N_6  and  CA_7 
REMARK    5  A    between atoms: CA_7  and  C_8 
REMARK    6  A    between atoms: CA_7  and  CB_10 
REMARK       I    between atoms: C_8  and  N_13 
REMARK    7  A    between atoms: CB_10  and  OG1_11 
REMARK    8  A    between atoms: CB_10  and  CG2_12 
REMARK    9  A    between atoms: CA_14  and  C_15 
REMARK       I    between atoms: C_15  and  N_20 
REMARK   10  A    between atoms: N_20  and  CA_21 
REMARK   11  A    between atoms: CA_21  and  C_22 
REMARK   12  A    between atoms: CA_21  and  CB_24 
REMARK       I    between atoms: C_22  and  N_25 
REMARK   13  A    between atoms: N_25  and  CA_26 
REMARK   14  A    between atoms: CA_26  and  C_27 
REMARK   15  A    between atoms: CA_26  and  CB_29 
REMARK       I    between atoms: C_27  and  N_39 
REMARK   16  A    between atoms: CB_29  and  CG_30 
REMARK   17  A    between atoms: N_39  and  CA_40 
REMARK   18  A    between atoms: CA_40  and  C_41 
REMARK   19  A    between atoms: CA_40  and  CB_43 
REMARK   20  A    between atoms: CB_43  and  CG_44 
REMARK       I    between atoms: CG_44  and  ND2_46 
ROOT
ATOM      1  CA  ALA d   1     105.960  56.696 171.754  0.00  0.00     0.086 C 
ATOM      2  H   ALA d   1     105.013  57.052 172.187  0.00  0.00     0.086 H 
ENDROOT
BRANCH   1   3
ATOM      3  N   ALA d   1     107.046  57.395 172.433  0.00  0.00    -0.346 N 
ATOM      4  C   PRO d   1     107.174  57.367 173.756  0.00  0.00     0.241 C 
ATOM      5  O   PRO d   1     106.446  56.700 174.492  0.00  0.00    -0.271 OA
ATOM      6  H   ALA d   1     107.711  57.908 171.890  0.00  0.00     0.163 HD
BRANCH   4   7
ATOM      7  CA  PRO d   1     108.285  58.221 174.360  0.00  0.00     0.091 C 
ATOM      8  N   PRO d   1     108.048  58.458 175.788  0.00  0.00    -0.337 N 
ATOM      9  C   THR d   1     106.955  59.114 176.206  0.00  0.00     0.245 C 
ATOM     10  CD  PRO d   1     109.127  57.906 176.625  0.00  0.00    -0.001 C 
ATOM     11  O   THR d   1     106.145  59.617 175.428  0.00  0.00    -0.271 OA
ATOM     12  CG  PRO d   1     109.768  56.906 175.720  0.00  0.00    -0.048 C 
ATOM     13  H   PRO d   1     108.722  57.422 177.526  0.00  0.00     0.064 H 
ATOM     14  H   PRO d   1     109.841  58.690 176.919  0.00  0.00     0.064 H 
ATOM     15  CB  PRO d   1     109.620  57.466 174.343  0.00  0.00    -0.036 C 
ATOM     16  H   PRO d   1     110.831  56.783 175.974  0.00  0.00     0.035 H 
ATOM     17  H   PRO d   1     109.258  55.934 175.797  0.00  0.00     0.035 H 
ATOM     18  H   PRO d   1     110.449  58.152 174.114  0.00  0.00     0.036 H 
ATOM     19  H   PRO d   1     109.597  56.657 173.598  0.00  0.00     0.036 H 
ATOM     20  H   PRO d   1     108.361  59.170 173.810  0.00  0.00     0.087 H 
BRANCH   9  21
ATOM     21  CA  THR d   1     106.755  59.236 177.713  0.00  0.00     0.114 C 
ATOM     22  H   THR d   1     107.730  59.103 178.206  0.00  0.00     0.091 H 
BRANCH  21  23
ATOM     23  N   THR d   1     106.254  60.561 178.051  0.00  0.00    -0.344 N 
ATOM     24  C   ARG d   1     106.602  61.170 179.178  0.00  0.00     0.248 C 
ATOM     25  O   ARG d   1     107.329  60.648 180.023  0.00  0.00    -0.271 OA
ATOM     26  H   THR d   1     105.633  61.023 177.419  0.00  0.00     0.163 HD
BRANCH  24  27
ATOM     27  CA  ARG d   1     106.042  62.576 179.382  0.00  0.00     0.172 C 
ATOM     28  H   ARG d   1     105.011  62.590 178.999  0.00  0.00     0.098 H 
BRANCH  27  29
ATOM     29  N   ARG d   1     106.003  62.939 180.794  0.00  0.00    -0.067 N 
ATOM     30  H   ARG d   1     105.629  63.870 180.891  0.00  0.00     0.275 HD
ATOM     31  H   ARG d   1     106.936  62.910 181.174  0.00  0.00     0.275 HD
ATOM     32  H   ARG d   1     105.417  62.288 181.292  0.00  0.00     0.275 HD
ENDBRANCH  27  29
BRANCH  27  33
ATOM     33  CB  ARG d   1     106.857  63.596 178.594  0.00  0.00    -0.042 C 
ATOM     34  H   ARG d   1     106.877  63.308 177.532  0.00  0.00     0.030 H 
ATOM     35  H   ARG d   1     107.885  63.625 178.985  0.00  0.00     0.030 H 
ATOM     36  H   ARG d   1     106.397  64.590 178.696  0.00  0.00     0.030 H 
ENDBRANCH  27  33
ENDBRANCH  24  27
ENDBRANCH  21  23
BRANCH  21  37
ATOM     37  CB  THR d   1     105.805  58.122 178.213  0.00  0.00     0.060 C 
ATOM     38  H   THR d   1     105.809  58.119 179.313  0.00  0.00     0.086 H 
BRANCH  37  39
ATOM     39  OG1 THR d   1     106.259  56.849 177.737  0.00  0.00    -0.393 OA
ATOM     40  H   THR d   1     106.268  56.852 176.787  0.00  0.00     0.210 HD
ENDBRANCH  37  39
BRANCH  37  41
ATOM     41  CG2 THR d   1     104.382  58.363 177.725  0.00  0.00    -0.050 C 
ATOM     42  H   THR d   1     103.727  57.559 178.093  0.00  0.00     0.031 H 
ATOM     43  H   THR d   1     104.368  58.373 176.625  0.00  0.00     0.031 H 
ATOM     44  H   THR d   1     104.023  59.331 178.105  0.00  0.00     0.031 H 
ENDBRANCH  37  41
ENDBRANCH  21  37
ENDBRANCH   9  21
ENDBRANCH   4   7
ENDBRANCH   1   3
BRANCH   1  45
ATOM     45  C   ALA d   1     106.019  55.183 171.953  0.00  0.00     0.240 C 
ATOM     46  O   ALA d   1     104.989  54.530 172.122  0.00  0.00    -0.271 OA
ATOM     47  N   TRP d   1     107.228  54.633 171.947  0.00  0.00    -0.346 N 
ATOM     48  H   TRP d   1     108.033  55.225 171.916  0.00  0.00     0.163 HD
BRANCH  47  49
ATOM     49  CA  TRP d   1     107.411  53.185 171.984  0.00  0.00     0.093 C 
ATOM     50  H   TRP d   1     106.651  52.749 171.319  0.00  0.00     0.088 H 
BRANCH  49  51
ATOM     51  C   TRP d   1     107.212  52.556 173.363  0.00  0.00     0.241 C 
ATOM     52  O   TRP d   1     107.282  51.336 173.506  0.00  0.00    -0.271 OA
ATOM     53  N   ASN d   1     106.964  53.382 174.372  0.00  0.00    -0.344 N 
ATOM     54  H   ASN d   1     106.898  54.365 174.202  0.00  0.00     0.163 HD
BRANCH  53  55
ATOM     55  CA  ASN d   1     106.787  52.871 175.726  0.00  0.00     0.104 C 
ATOM     56  H   ASN d   1     106.839  51.773 175.675  0.00  0.00     0.090 H 
BRANCH  55  57
ATOM     57  C   ASN d   1     105.433  53.240 176.321  0.00  0.00     0.197 C 
ATOM     58  O   ASN d   1     104.825  52.447 177.042  0.00  0.00    -0.646 OA
ATOM     59  O1  ASN d   1     104.930  54.368 176.073  0.00  0.00    -0.646 OA
ENDBRANCH  55  57
BRANCH  55  60
ATOM     60  CB  ASN d   1     107.918  53.356 176.634  0.00  0.00     0.037 C 
ATOM     61  H   ASN d   1     107.797  54.437 176.801  0.00  0.00     0.051 H 
ATOM     62  H   ASN d   1     108.879  53.167 176.132  0.00  0.00     0.051 H 
BRANCH  60  63
ATOM     63  CG  ASN d   1     107.926  52.655 177.978  0.00  0.00     0.217 C 
ATOM     64  OD1 ASN d   1     108.291  51.483 178.075  0.00  0.00    -0.274 OA
ATOM     65  ND2 ASN d   1     107.531  53.371 179.024  0.00  0.00    -0.370 N 
ATOM     66  H   ASN d   1     107.516  52.959 179.935  0.00  0.00     0.159 HD
ATOM     67  H   ASN d   1     107.248  54.322 178.901  0.00  0.00     0.159 HD
ENDBRANCH  60  63
ENDBRANCH  55  60
ENDBRANCH  53  55
ENDBRANCH  49  51
BRANCH  49  68
ATOM     68  CB  TRP d   1     108.787  52.807 171.433  0.00  0.00    -0.012 C 
ATOM     69  H   TRP d   1     108.755  52.894 170.337  0.00  0.00     0.044 H 
ATOM     70  H   TRP d   1     108.996  51.764 171.713  0.00  0.00     0.044 H 
BRANCH  68  71
ATOM     71  CG  TRP d   1     109.909  53.662 171.939  0.00  0.00    -0.028 A 
ATOM     72  CD1 TRP d   1     110.470  54.734 171.308  0.00  0.00    -0.015 A 
ATOM     73  NE1 TRP d   1     111.477  55.265 172.077  0.00  0.00    -0.365 N 
ATOM     74  H   TRP d   1     110.163  55.114 170.335  0.00  0.00     0.112 H 
ATOM     75  CE2 TRP d   1     111.584  54.535 173.232  0.00  0.00     0.042 A 
ATOM     76  H   TRP d   1     112.057  56.079 171.827  0.00  0.00     0.165 HD
ATOM     77  CD2 TRP d   1     110.613  53.515 173.179  0.00  0.00    -0.002 A 
ATOM     78  CZ2 TRP d   1     112.451  54.687 174.312  0.00  0.00    -0.056 A 
ATOM     79  CE3 TRP d   1     110.515  52.621 174.250  0.00  0.00    -0.070 A 
ATOM     80  CZ3 TRP d   1     111.376  52.773 175.322  0.00  0.00    -0.082 A 
ATOM     81  H   TRP d   1     109.779  51.825 174.240  0.00  0.00     0.084 H 
ATOM     82  CH2 TRP d   1     112.332  53.798 175.344  0.00  0.00    -0.081 A 
ATOM     83  H   TRP d   1     111.310  52.088 176.159  0.00  0.00     0.083 H 
ATOM     84  H   TRP d   1     112.992  53.888 176.199  0.00  0.00     0.083 H 
ATOM     85  H   TRP d   1     113.191  55.479 174.333  0.00  0.00     0.086 H 
ENDBRANCH  68  71
ENDBRANCH  49  68
ENDBRANCH  47  49
ENDBRANCH   1  45
BRANCH   1  86
ATOM     86  CB  ALA d   1     105.958  57.036 170.269  0.00  0.00    -0.049 C 
ATOM     87  H   ALA d   1     105.135  56.502 169.772  0.00  0.00     0.030 H 
ATOM     88  H   ALA d   1     106.916  56.731 169.822  0.00  0.00     0.030 H 
ATOM     89  H   ALA d   1     105.822  58.120 170.141  0.00  0.00     0.030 H 
ENDBRANCH   1  86
TORSDOF 20
