REMARK  3 active torsions:
REMARK  status: ('A' for Active; 'I' for Inactive)
REMARK    1  A    between atoms: CAI_4  and  CAN_5 
REMARK    2  A    between atoms: CAF_11  and  OAK_13 
REMARK    3  A    between atoms: OAK_13  and  CAL_14 
ROOT
ATOM      1  OAM 7NP d   1      23.209  -0.830   7.933  0.00  0.00    -0.292 OA
ATOM      2  CAJ 7NP d   1      24.168  -0.307   8.467  0.00  0.00     0.164 C 
ATOM      3  CAB 7NP d   1      24.669   0.918   7.875  0.00  0.00     0.019 A 
ATOM      4  CAI 7NP d   1      24.711  -0.941   9.662  0.00  0.00     0.005 C 
ATOM      5  CAH 7NP d   1      26.123  -0.484   9.843  0.00  0.00    -0.052 C 
ATOM      6  CAG 7NP d   1      26.225   1.005   9.857  0.00  0.00    -0.039 C 
ATOM      7  CAC 7NP d   1      25.702   1.609   8.566  0.00  0.00    -0.044 A 
ATOM      8  CAD 7NP d   1      26.213   2.814   8.061  0.00  0.00    -0.073 A 
ATOM      9  CAE 7NP d   1      25.704   3.335   6.892  0.00  0.00    -0.050 A 
ATOM     10  CAF 7NP d   1      24.668   2.640   6.213  0.00  0.00     0.069 A 
ATOM     11  CAA 7NP d   1      24.126   1.434   6.697  0.00  0.00    -0.037 A 
ATOM     12  H1  7NP d   1      24.138  -0.654  10.556  0.00  0.00     0.051 H 
ATOM     13  H5  7NP d   1      26.733  -0.875   9.015  0.00  0.00     0.034 H 
ATOM     14  H6  7NP d   1      26.505  -0.876  10.797  0.00  0.00     0.034 H 
ATOM     15  H7  7NP d   1      27.280   1.290   9.984  0.00  0.00     0.040 H 
ATOM     16  H8  7NP d   1      25.636   1.396  10.699  0.00  0.00     0.040 H 
ATOM     17  H9  7NP d   1      27.005   3.333   8.589  0.00  0.00     0.084 H 
ATOM     18  H10 7NP d   1      26.090   4.266   6.494  0.00  0.00     0.087 H 
ATOM     19  H11 7NP d   1      23.321   0.927   6.177  0.00  0.00     0.089 H 
ENDROOT
BRANCH   4  20
ATOM     20  CAN 7NP d   1      24.507  -2.402   9.388  0.00  0.00    -0.066 C 
ATOM     21  H2  7NP d   1      24.886  -2.991  10.237  0.00  0.00     0.028 H 
ATOM     22  H3  7NP d   1      25.052  -2.683   8.475  0.00  0.00     0.028 H 
ATOM     23  H4  7NP d   1      23.434  -2.603   9.252  0.00  0.00     0.028 H 
ENDBRANCH   4  20
BRANCH  10  24
ATOM     24  OAK 7NP d   1      24.235   3.265   5.052  0.00  0.00    -0.356 OA
BRANCH  24  25
ATOM     25  CAL 7NP d   1      23.273   2.601   4.293  0.00  0.00     0.010 C 
ATOM     26  H12 7NP d   1      23.023   3.205   3.408  0.00  0.00     0.066 H 
ATOM     27  H13 7NP d   1      22.368   2.449   4.900  0.00  0.00     0.066 H 
ATOM     28  H14 7NP d   1      23.668   1.626   3.972  0.00  0.00     0.066 H 
ENDBRANCH  24  25
ENDBRANCH  10  24
TORSDOF 3
