REMARK  13 active torsions:
REMARK  status: ('A' for Active; 'I' for Inactive)
REMARK       I    between atoms: CAF_2  and  NAG_3 
REMARK    1  A    between atoms: CAF_2  and  CAD_4 
REMARK    2  A    between atoms: CAE_8  and  NAI_9 
REMARK    3  A    between atoms: NAI_9  and  C4_10 
REMARK    4  A    between atoms: C2_18  and  NAS_19 
REMARK    5  A    between atoms: NAS_19  and  CAT_20 
REMARK    6  A    between atoms: CAY_21  and  OAZ_22 
REMARK    7  A    between atoms: OAZ_22  and  CBA_23 
REMARK       I    between atoms: NBB_28  and  C_29 
REMARK    8  A    between atoms: C_29  and  CA_30 
REMARK    9  A    between atoms: CA_30  and  N_31 
REMARK   10  A    between atoms: N_31  and  CBL_32 
REMARK   11  A    between atoms: N_31  and  CBM_33 
REMARK   12  A    between atoms: CBE_37  and  CBG_38 
REMARK   13  A    between atoms: CBE_37  and  CBF_39 
ROOT
ATOM      1  CAT KQQ d   1     -18.439   1.582 -23.542  0.00  0.00     0.085 A 
ATOM      2  CAY KQQ d   1     -19.547   1.466 -22.688  0.00  0.00     0.096 A 
ATOM      3  CAU KQQ d   1     -18.301   0.651 -24.546  0.00  0.00    -0.027 A 
ATOM      4  CAV KQQ d   1     -19.194  -0.445 -24.675  0.00  0.00     0.046 A 
ATOM      5  CAW KQQ d   1     -20.248  -0.557 -23.783  0.00  0.00    -0.020 A 
ATOM      6  CAX KQQ d   1     -20.415   0.372 -22.807  0.00  0.00    -0.040 A 
ATOM      7  NBB KQQ d   1     -18.943  -1.395 -25.627  0.00  0.00    -0.316 N 
ATOM      8  C   KQQ d   1     -18.479  -1.137 -26.858  0.00  0.00     0.250 C 
ATOM      9  O   KQQ d   1     -18.362   0.040 -27.325  0.00  0.00    -0.271 OA
ATOM     10  CBC KQQ d   1     -19.219  -2.733 -25.114  0.00  0.00     0.004 C 
ATOM     11  CBD KQQ d   1     -20.709  -2.622 -25.002  0.00  0.00    -0.039 C 
ATOM     12  CBE KQQ d   1     -21.162  -1.755 -23.839  0.00  0.00    -0.017 C 
ATOM     13  H   KQQ d   1     -17.489   0.757 -25.257  0.00  0.00     0.090 H 
ATOM     14  H   KQQ d   1     -21.235   0.266 -22.106  0.00  0.00     0.088 H 
ATOM     15  H   KQQ d   1     -18.742  -2.910 -24.139  0.00  0.00     0.065 H 
ATOM     16  H   KQQ d   1     -18.913  -3.519 -25.820  0.00  0.00     0.065 H 
ATOM     17  H   KQQ d   1     -21.125  -3.631 -24.868  0.00  0.00     0.037 H 
ATOM     18  H   KQQ d   1     -21.098  -2.186 -25.934  0.00  0.00     0.037 H 
ENDROOT
BRANCH   1  19
ATOM     19  NAS KQQ d   1     -17.603   2.632 -23.256  0.00  0.00    -0.185 N 
ATOM     20  H   KQQ d   1     -18.027   3.438 -22.775  0.00  0.00     0.184 HD
BRANCH  19  21
ATOM     21  C2  KQQ d   1     -16.281   2.725 -23.537  0.00  0.00     0.731 A 
ATOM     22  N3  KQQ d   1     -15.555   1.712 -24.077  0.00  0.00    -0.044 NA
ATOM     23  C4  KQQ d   1     -14.244   1.752 -24.328  0.00  0.00     0.161 A 
ATOM     24  C5  KQQ d   1     -13.575   3.030 -24.131  0.00  0.00     0.058 A 
ATOM     25  CAP KQQ d   1     -12.212   3.494 -24.260  0.00  0.00    -0.051 A 
ATOM     26  C6  KQQ d   1     -14.371   4.070 -23.532  0.00  0.00     0.160 A 
ATOM     27  CAQ KQQ d   1     -12.249   4.780 -23.834  0.00  0.00    -0.020 A 
ATOM     28  H   KQQ d   1     -11.349   2.935 -24.619  0.00  0.00     0.087 H 
ATOM     29  NAR KQQ d   1     -13.515   5.080 -23.377  0.00  0.00    -0.349 N 
ATOM     30  H   KQQ d   1     -11.407   5.471 -23.850  0.00  0.00     0.111 H 
ATOM     31  H   KQQ d   1     -13.771   5.987 -22.961  0.00  0.00     0.166 HD
ATOM     32  N1  KQQ d   1     -15.708   3.928 -23.278  0.00  0.00    -0.044 NA
BRANCH  23  33
ATOM     33  NAI KQQ d   1     -13.627   0.713 -24.920  0.00  0.00    -0.338 N 
ATOM     34  H   KQQ d   1     -12.701   0.886 -25.336  0.00  0.00     0.167 HD
BRANCH  33  35
ATOM     35  CAE KQQ d   1     -14.148  -0.592 -25.015  0.00  0.00     0.057 A 
ATOM     36  CAD KQQ d   1     -13.339  -1.481 -25.720  0.00  0.00     0.099 A 
ATOM     37  SAC KQQ d   1     -14.117  -3.057 -25.867  0.00  0.00    -0.094 SA
ATOM     38  CAB KQQ d   1     -15.458  -2.542 -24.977  0.00  0.00    -0.042 A 
ATOM     39  CAA KQQ d   1     -15.324  -1.196 -24.562  0.00  0.00    -0.049 A 
ATOM     40  H   KQQ d   1     -16.319  -3.169 -24.751  0.00  0.00     0.095 H 
ATOM     41  H   KQQ d   1     -16.064  -0.682 -23.950  0.00  0.00     0.087 H 
BRANCH  36  42
ATOM     42  CAF KQQ d   1     -12.025  -1.287 -26.332  0.00  0.00     0.258 C 
ATOM     43  OAH KQQ d   1     -11.404  -0.252 -26.233  0.00  0.00    -0.267 OA
ATOM     44  NAG KQQ d   1     -11.524  -2.345 -26.951  0.00  0.00    -0.365 N 
ATOM     45  H   KQQ d   1     -12.061  -3.186 -27.017  0.00  0.00     0.159 HD
ATOM     46  H   KQQ d   1     -10.609  -2.303 -27.352  0.00  0.00     0.159 HD
ENDBRANCH  36  42
ENDBRANCH  33  35
ENDBRANCH  23  33
ENDBRANCH  19  21
ENDBRANCH   1  19
BRANCH   2  47
ATOM     47  OAZ KQQ d   1     -19.683   2.404 -21.708  0.00  0.00    -0.354 OA
BRANCH  47  48
ATOM     48  CBA KQQ d   1     -20.719   2.430 -20.723  0.00  0.00     0.010 C 
ATOM     49  H   KQQ d   1     -20.577   3.299 -20.064  0.00  0.00     0.066 H 
ATOM     50  H   KQQ d   1     -20.680   1.507 -20.126  0.00  0.00     0.066 H 
ATOM     51  H   KQQ d   1     -21.697   2.504 -21.221  0.00  0.00     0.066 H 
ENDBRANCH  47  48
ENDBRANCH   2  47
BRANCH  12  52
ATOM     52  CBG KQQ d   1     -22.627  -1.335 -23.918  0.00  0.00    -0.065 C 
ATOM     53  H   KQQ d   1     -22.878  -0.713 -23.046  0.00  0.00     0.028 H 
ATOM     54  H   KQQ d   1     -23.265  -2.231 -23.925  0.00  0.00     0.028 H 
ATOM     55  H   KQQ d   1     -22.794  -0.758 -24.840  0.00  0.00     0.028 H 
ENDBRANCH  12  52
BRANCH  12  56
ATOM     56  CBF KQQ d   1     -20.931  -2.480 -22.508  0.00  0.00    -0.065 C 
ATOM     57  H   KQQ d   1     -19.878  -2.789 -22.437  0.00  0.00     0.028 H 
ATOM     58  H   KQQ d   1     -21.578  -3.368 -22.457  0.00  0.00     0.028 H 
ATOM     59  H   KQQ d   1     -21.171  -1.803 -21.675  0.00  0.00     0.028 H 
ENDBRANCH  12  56
BRANCH   8  60
ATOM     60  CA  KQQ d   1     -18.134  -2.329 -27.734  0.00  0.00     0.155 C 
ATOM     61  H   KQQ d   1     -19.053  -2.840 -28.059  0.00  0.00     0.090 H 
ATOM     62  H   KQQ d   1     -17.498  -3.035 -27.180  0.00  0.00     0.090 H 
BRANCH  60  63
ATOM     63  N   KQQ d   1     -17.411  -1.801 -28.896  0.00  0.00    -0.070 N 
ATOM     64  H   KQQ d   1     -18.042  -1.156 -29.345  0.00  0.00     0.279 HD
BRANCH  63  65
ATOM     65  CBL KQQ d   1     -16.147  -1.050 -28.634  0.00  0.00     0.066 C 
ATOM     66  H   KQQ d   1     -15.715  -0.715 -29.588  0.00  0.00     0.068 H 
ATOM     67  H   KQQ d   1     -15.431  -1.706 -28.118  0.00  0.00     0.068 H 
ATOM     68  H   KQQ d   1     -16.364  -0.176 -28.003  0.00  0.00     0.068 H 
ENDBRANCH  63  65
BRANCH  63  69
ATOM     69  CBM KQQ d   1     -17.091  -2.891 -29.878  0.00  0.00     0.066 C 
ATOM     70  H   KQQ d   1     -18.002  -3.467 -30.096  0.00  0.00     0.068 H 
ATOM     71  H   KQQ d   1     -16.329  -3.558 -29.450  0.00  0.00     0.068 H 
ATOM     72  H   KQQ d   1     -16.708  -2.446 -30.808  0.00  0.00     0.068 H 
ENDBRANCH  63  69
ENDBRANCH  60  63
ENDBRANCH   8  60
TORSDOF 13
