REMARK  4 active torsions:
REMARK  status: ('A' for Active; 'I' for Inactive)
REMARK    1  A    between atoms: CAH_8  and  NAJ_10 
REMARK       I    between atoms: NAJ_10  and  CAK_11 
REMARK    2  A    between atoms: CAK_11  and  CAM_13 
REMARK    3  A    between atoms: CAN_14  and  CAS_19 
REMARK    4  A    between atoms: CAR_18  and  CAU_21 
ROOT
ATOM      1  CAM KZQ d   1     -18.508  29.377  18.415  0.00  0.00     0.059 A 
ATOM      2  CAN KZQ d   1     -18.186  30.107  19.549  0.00  0.00     0.024 A 
ATOM      3  NAO KZQ d   1     -17.342  31.149  19.473  0.00  0.00    -0.312 N 
ATOM      4  CAP KZQ d   1     -16.782  31.494  18.306  0.00  0.00     0.321 A 
ATOM      5  NAQ KZQ d   1     -17.024  30.833  17.165  0.00  0.00    -0.330 N 
ATOM      6  CAR KZQ d   1     -17.899  29.676  17.107  0.00  0.00     0.072 A 
ATOM      7  OAT KZQ d   1     -15.994  32.468  18.266  0.00  0.00    -0.247 OA
ATOM      8  H   KZQ d   1     -17.129  31.674  20.297  0.00  0.00     0.170 HD
ATOM      9  H   KZQ d   1     -16.586  31.148  16.323  0.00  0.00     0.165 HD
ATOM     10  H   KZQ d   1     -18.666  29.839  16.336  0.00  0.00     0.088 H 
ENDROOT
BRANCH   1  11
ATOM     11  CAK KZQ d   1     -19.466  28.241  18.538  0.00  0.00     0.256 C 
ATOM     12  NAJ KZQ d   1     -20.593  28.305  17.738  0.00  0.00    -0.323 N 
ATOM     13  H   KZQ d   1     -20.647  29.080  17.108  0.00  0.00     0.169 HD
ATOM     14  OAL KZQ d   1     -19.135  27.400  19.381  0.00  0.00    -0.267 OA
BRANCH  12  15
ATOM     15  CAH KZQ d   1     -21.646  27.424  17.711  0.00  0.00     0.035 A 
ATOM     16  CAG KZQ d   1     -21.617  26.320  18.551  0.00  0.00    -0.055 A 
ATOM     17  CAF KZQ d   1     -22.612  25.381  18.637  0.00  0.00    -0.051 A 
ATOM     18  H   KZQ d   1     -20.746  26.191  19.184  0.00  0.00     0.087 H 
ATOM     19  CAD KZQ d   1     -23.692  25.554  17.856  0.00  0.00     0.088 A 
ATOM     20  H   KZQ d   1     -22.531  24.533  19.308  0.00  0.00     0.087 H 
ATOM     21  NAC KZQ d   1     -24.808  24.838  17.732  0.00  0.00    -0.175 NA
ATOM     22  CAE KZQ d   1     -23.771  26.639  17.015  0.00  0.00     0.013 A 
ATOM     23  NAB KZQ d   1     -25.602  25.385  16.859  0.00  0.00    -0.288 N 
ATOM     24  CAA KZQ d   1     -25.030  26.513  16.353  0.00  0.00     0.008 A 
ATOM     25  H   KZQ d   1     -26.527  25.019  16.590  0.00  0.00     0.188 HD
ATOM     26  H   KZQ d   1     -25.447  27.180  15.600  0.00  0.00     0.115 H 
ATOM     27  CAI KZQ d   1     -22.774  27.610  16.922  0.00  0.00    -0.044 A 
ATOM     28  H   KZQ d   1     -22.875  28.467  16.266  0.00  0.00     0.088 H 
ENDBRANCH  12  15
ENDBRANCH   1  11
BRANCH   2  29
ATOM     29  CAS KZQ d   1     -18.790  29.742  20.884  0.00  0.00    -0.037 C 
ATOM     30  H   KZQ d   1     -19.451  28.872  20.762  0.00  0.00     0.035 H 
ATOM     31  H   KZQ d   1     -19.372  30.593  21.268  0.00  0.00     0.035 H 
ATOM     32  H   KZQ d   1     -17.987  29.496  21.595  0.00  0.00     0.035 H 
ENDBRANCH   2  29
BRANCH   6  33
ATOM     33  CAU KZQ d   1     -17.136  28.425  16.859  0.00  0.00    -0.030 A 
ATOM     34  CAV KZQ d   1     -17.250  27.796  15.615  0.00  0.00    -0.072 A 
ATOM     35  CAW KZQ d   1     -16.582  26.605  15.372  0.00  0.00    -0.045 A 
ATOM     36  H   KZQ d   1     -17.862  28.241  14.839  0.00  0.00     0.084 H 
ATOM     37  CAX KZQ d   1     -15.824  26.040  16.377  0.00  0.00     0.116 A 
ATOM     38  H   KZQ d   1     -16.655  26.123  14.403  0.00  0.00     0.088 H 
ATOM     39  CAY KZQ d   1     -15.704  26.632  17.625  0.00  0.00    -0.045 A 
ATOM     40  FBA KZQ d   1     -15.179  24.916  16.111  0.00  0.00    -0.206 F 
ATOM     41  CAZ KZQ d   1     -16.354  27.835  17.872  0.00  0.00    -0.072 A 
ATOM     42  H   KZQ d   1     -15.110  26.161  18.400  0.00  0.00     0.088 H 
ATOM     43  H   KZQ d   1     -16.260  28.317  18.838  0.00  0.00     0.084 H 
ENDBRANCH   6  33
TORSDOF 4
