REMARK  1 active torsions:
REMARK  status: ('A' for Active; 'I' for Inactive)
REMARK    1  A    between atoms: C1A_1  and  C1I_2 
ROOT
ATOM      1  C1I DRL d   1      24.346  46.030  -1.104  0.00  0.00     0.103 A 
ATOM      2  N1G DRL d   1      25.190  46.827  -0.419  0.00  0.00    -0.239 NA
ATOM      3  C1J DRL d   1      25.082  48.185  -0.430  0.00  0.00     0.049 A 
ATOM      4  C1D DRL d   1      26.166  48.899   0.408  0.00  0.00    -0.016 C 
ATOM      5  C1C DRL d   1      26.169  50.437   0.304  0.00  0.00    -0.018 C 
ATOM      6  S1H DRL d   1      24.500  51.178   0.295  0.00  0.00    -0.164 SA
ATOM      7  C1E DRL d   1      23.827  50.337  -1.188  0.00  0.00     0.008 C 
ATOM      8  C1K DRL d   1      24.027  48.807  -1.149  0.00  0.00     0.044 A 
ATOM      9  C1L DRL d   1      23.154  47.979  -1.875  0.00  0.00     0.255 A 
ATOM     10  O1B DRL d   1      22.238  48.444  -2.561  0.00  0.00    -0.268 OA
ATOM     11  N1F DRL d   1      23.312  46.595  -1.859  0.00  0.00    -0.311 N 
ATOM     12  H   DRL d   1      27.149  48.534   0.075  0.00  0.00     0.043 H 
ATOM     13  H   DRL d   1      26.012  48.630   1.463  0.00  0.00     0.043 H 
ATOM     14  H   DRL d   1      26.679  50.721  -0.628  0.00  0.00     0.049 H 
ATOM     15  H   DRL d   1      26.724  50.842   1.163  0.00  0.00     0.049 H 
ATOM     16  H   DRL d   1      24.335  50.735  -2.079  0.00  0.00     0.056 H 
ATOM     17  H   DRL d   1      22.750  50.549  -1.254  0.00  0.00     0.056 H 
ATOM     18  H   DRL d   1      22.692  46.010  -2.382  0.00  0.00     0.170 HD
ENDROOT
BRANCH   1  19
ATOM     19  C1A DRL d   1      24.507  44.514  -1.085  0.00  0.00    -0.021 C 
ATOM     20  H   DRL d   1      25.362  44.244  -0.447  0.00  0.00     0.037 H 
ATOM     21  H   DRL d   1      24.684  44.151  -2.108  0.00  0.00     0.037 H 
ATOM     22  H   DRL d   1      23.592  44.053  -0.686  0.00  0.00     0.037 H 
ENDBRANCH   1  19
TORSDOF 1
