REMARK  2 active torsions:
REMARK  status: ('A' for Active; 'I' for Inactive)
REMARK    1  A    between atoms: C5_1  and  O5_2 
REMARK    2  A    between atoms: C3_5  and  C9_6 
ROOT
ATOM      1  C5  NU1 d   1      26.225  48.612   0.886  0.00  0.00     0.095 A 
ATOM      2  C4A NU1 d   1      25.348  47.789   0.166  0.00  0.00     0.107 A 
ATOM      3  N4  NU1 d   1      25.561  46.451   0.119  0.00  0.00    -0.232 NA
ATOM      4  C3  NU1 d   1      24.733  45.632  -0.558  0.00  0.00     0.103 A 
ATOM      5  N2  NU1 d   1      23.637  46.165  -1.255  0.00  0.00    -0.311 N 
ATOM      6  C1  NU1 d   1      23.391  47.540  -1.229  0.00  0.00     0.259 A 
ATOM      7  O1  NU1 d   1      22.429  47.985  -1.855  0.00  0.00    -0.267 OA
ATOM      8  C8A NU1 d   1      24.252  48.366  -0.504  0.00  0.00     0.064 A 
ATOM      9  C8  NU1 d   1      24.038  49.746  -0.433  0.00  0.00    -0.065 A 
ATOM     10  C7  NU1 d   1      24.907  50.557   0.302  0.00  0.00    -0.079 A 
ATOM     11  C6  NU1 d   1      25.995  49.988   0.968  0.00  0.00    -0.049 A 
ATOM     12  H   NU1 d   1      23.031  45.559  -1.771  0.00  0.00     0.170 HD
ATOM     13  H   NU1 d   1      23.195  50.189  -0.950  0.00  0.00     0.085 H 
ATOM     14  H   NU1 d   1      24.737  51.626   0.355  0.00  0.00     0.083 H 
ATOM     15  H   NU1 d   1      26.662  50.615   1.549  0.00  0.00     0.087 H 
ENDROOT
BRANCH   4  16
ATOM     16  C9  NU1 d   1      24.978  44.123  -0.597  0.00  0.00    -0.021 C 
ATOM     17  H   NU1 d   1      25.871  43.881  -0.002  0.00  0.00     0.037 H 
ATOM     18  H   NU1 d   1      25.133  43.803  -1.638  0.00  0.00     0.037 H 
ATOM     19  H   NU1 d   1      24.106  43.599  -0.179  0.00  0.00     0.037 H 
ENDBRANCH   4  16
BRANCH   1  20
ATOM     20  O5  NU1 d   1      27.272  48.074   1.565  0.00  0.00    -0.358 OA
ATOM     21  H   NU1 d   1      27.760  48.767   1.994  0.00  0.00     0.217 HD
ENDBRANCH   1  20
TORSDOF 2
