REMARK  0 active torsions:
REMARK  status: ('A' for Active; 'I' for Inactive)
ROOT
ATOM      1  C9  JPZ d   1      24.455  51.210  -0.150  0.00  0.00    -0.082 A 
ATOM      2  C8  JPZ d   1      25.692  50.695   0.482  0.00  0.00    -0.081 A 
ATOM      3  C10 JPZ d   1      23.625  50.373  -0.916  0.00  0.00    -0.067 A 
ATOM      4  C7  JPZ d   1      26.005  49.337   0.402  0.00  0.00    -0.054 A 
ATOM      5  C4  JPZ d   1      24.476  46.261  -0.941  0.00  0.00     0.066 C 
ATOM      6  C11 JPZ d   1      23.923  48.976  -0.981  0.00  0.00     0.047 A 
ATOM      7  C6  JPZ d   1      25.082  48.443  -0.302  0.00  0.00     0.072 A 
ATOM      8  C2  JPZ d   1      23.084  47.959  -1.684  0.00  0.00     0.192 C 
ATOM      9  N5  JPZ d   1      25.367  47.065  -0.332  0.00  0.00    -0.243 NA
ATOM     10  N3  JPZ d   1      23.353  46.644  -1.705  0.00  0.00    -0.328 N 
ATOM     11  O1  JPZ d   1      22.040  48.393  -2.364  0.00  0.00    -0.171 OA
ATOM     12  H   JPZ d   1      24.185  52.252  -0.019  0.00  0.00     0.083 H 
ATOM     13  H   JPZ d   1      26.355  51.373   1.007  0.00  0.00     0.083 H 
ATOM     14  H   JPZ d   1      22.773  50.780  -1.449  0.00  0.00     0.085 H 
ATOM     15  H   JPZ d   1      26.913  48.952   0.852  0.00  0.00     0.087 H 
ATOM     16  H   JPZ d   1      24.641  45.190  -0.832  0.00  0.00     0.143 H 
ATOM     17  H   JPZ d   1      22.802  45.988  -2.221  0.00  0.00     0.168 HD
ENDROOT
TORSDOF 0
