REMARK  1 active torsions:
REMARK  status: ('A' for Active; 'I' for Inactive)
REMARK    1  A    between atoms: C02_5  and  N01_4 
ROOT
ATOM      1  C10 32X d   1      24.493  46.011  -1.079  0.00  0.00    -0.019 A 
ATOM      2  C11 32X d   1      25.384  46.800  -0.403  0.00  0.00    -0.055 A 
ATOM      3  C12 32X d   1      25.191  48.255  -0.316  0.00  0.00     0.007 A 
ATOM      4  C02 32X d   1      26.107  49.111   0.419  0.00  0.00     0.037 A 
ATOM      5  C03 32X d   1      25.801  50.502   0.566  0.00  0.00    -0.057 A 
ATOM      6  C04 32X d   1      24.543  51.041   0.004  0.00  0.00    -0.080 A 
ATOM      7  C05 32X d   1      23.696  50.215  -0.790  0.00  0.00    -0.067 A 
ATOM      8  C06 32X d   1      24.013  48.833  -0.909  0.00  0.00     0.044 A 
ATOM      9  C07 32X d   1      23.100  47.965  -1.704  0.00  0.00     0.256 A 
ATOM     10  O08 32X d   1      22.099  48.331  -2.309  0.00  0.00    -0.267 OA
ATOM     11  N09 32X d   1      23.385  46.592  -1.731  0.00  0.00    -0.333 N 
ATOM     12  H   32X d   1      24.640  44.932  -1.114  0.00  0.00     0.111 H 
ATOM     13  H   32X d   1      26.248  46.344   0.077  0.00  0.00     0.087 H 
ATOM     14  H   32X d   1      26.489  51.158   1.087  0.00  0.00     0.086 H 
ATOM     15  H   32X d   1      24.264  52.071   0.198  0.00  0.00     0.083 H 
ATOM     16  H   32X d   1      22.830  50.630  -1.292  0.00  0.00     0.085 H 
ATOM     17  H   32X d   1      22.769  45.992  -2.241  0.00  0.00     0.168 HD
ENDROOT
BRANCH   4  18
ATOM     18  N01 32X d   1      27.286  48.574   0.994  0.00  0.00    -0.398 N 
ATOM     19  H   32X d   1      27.931  49.187   1.514  0.00  0.00     0.156 HD
ATOM     20  H   32X d   1      27.498  47.571   0.892  0.00  0.00     0.156 HD
ENDBRANCH   4  18
TORSDOF 1
