REMARK  0 active torsions:
REMARK  status: ('A' for Active; 'I' for Inactive)
ROOT
ATOM      1  CAO G18 d   1      24.880  47.926  -0.376  0.00  0.00    -0.007 A 
ATOM      2  CAN G18 d   1      23.776  48.590  -1.039  0.00  0.00     0.043 A 
ATOM      3  CAH G18 d   1      23.592  49.994  -0.932  0.00  0.00    -0.067 A 
ATOM      4  CAD G18 d   1      24.461  50.795  -0.188  0.00  0.00    -0.082 A 
ATOM      5  CAF G18 d   1      25.663  50.167   0.424  0.00  0.00    -0.082 A 
ATOM      6  CAL G18 d   1      25.832  48.786   0.278  0.00  0.00    -0.071 A 
ATOM      7  CAC G18 d   1      25.701  44.257  -0.120  0.00  0.00    -0.042 A 
ATOM      8  CAG G18 d   1      25.847  45.543   0.160  0.00  0.00    -0.063 A 
ATOM      9  CAM G18 d   1      24.871  46.458  -0.382  0.00  0.00     0.009 A 
ATOM     10  CAJ G18 d   1      23.925  45.749  -1.120  0.00  0.00     0.087 A 
ATOM     11  NAC G18 d   1      22.961  46.417  -1.828  0.00  0.00    -0.316 N 
ATOM     12  SAK G18 d   1      24.275  44.005  -1.130  0.00  0.00    -0.083 SA
ATOM     13  CAK G18 d   1      22.748  47.769  -1.774  0.00  0.00     0.257 C 
ATOM     14  OAB G18 d   1      21.878  48.228  -2.457  0.00  0.00    -0.267 OA
ATOM     15  H   G18 d   1      22.754  50.456  -1.442  0.00  0.00     0.085 H 
ATOM     16  H   G18 d   1      24.264  51.853  -0.059  0.00  0.00     0.083 H 
ATOM     17  H   G18 d   1      26.387  50.763   0.968  0.00  0.00     0.083 H 
ATOM     18  H   G18 d   1      26.733  48.337   0.681  0.00  0.00     0.084 H 
ATOM     19  H   G18 d   1      26.366  43.467   0.224  0.00  0.00     0.095 H 
ATOM     20  H   G18 d   1      26.672  45.897   0.776  0.00  0.00     0.085 H 
ATOM     21  H   G18 d   1      22.370  45.878  -2.428  0.00  0.00     0.169 HD
ENDROOT
TORSDOF 0
