REMARK  1 active torsions:
REMARK  status: ('A' for Active; 'I' for Inactive)
REMARK    1  A    between atoms: C02_5  and  N01_4 
ROOT
ATOM      1  C10 32Y d   1      24.319  46.436  -0.754  0.00  0.00    -0.063 C 
ATOM      2  C11 32Y d   1      25.198  47.500  -0.225  0.00  0.00     0.017 A 
ATOM      3  C12 32Y d   1      26.341  47.282   0.591  0.00  0.00     0.045 A 
ATOM      4  C02 32Y d   1      27.139  48.334   1.097  0.00  0.00     0.043 A 
ATOM      5  C03 32Y d   1      26.740  49.705   0.786  0.00  0.00    -0.054 A 
ATOM      6  C04 32Y d   1      25.634  49.964  -0.002  0.00  0.00    -0.047 A 
ATOM      7  C05 32Y d   1      24.871  48.863  -0.534  0.00  0.00     0.091 A 
ATOM      8  O06 32Y d   1      23.740  49.218  -1.329  0.00  0.00    -0.275 OA
ATOM      9  C07 32Y d   1      22.898  48.155  -1.819  0.00  0.00     0.288 C 
ATOM     10  O08 32Y d   1      22.003  48.524  -2.531  0.00  0.00    -0.260 OA
ATOM     11  C09 32Y d   1      23.196  46.780  -1.433  0.00  0.00    -0.009 C 
ATOM     12  I13 32Y d   1      26.798  45.367   1.120  0.00  0.00    -0.041 I 
ATOM     13  H   32Y d   1      24.570  45.388  -0.600  0.00  0.00     0.085 H 
ATOM     14  H   32Y d   1      27.320  50.532   1.179  0.00  0.00     0.087 H 
ATOM     15  H   32Y d   1      25.343  50.986  -0.218  0.00  0.00     0.087 H 
ATOM     16  H   32Y d   1      22.488  45.997  -1.701  0.00  0.00     0.092 H 
ENDROOT
BRANCH   4  17
ATOM     17  N01 32Y d   1      28.241  48.133   1.920  0.00  0.00    -0.398 N 
ATOM     18  H   32Y d   1      28.785  48.940   2.258  0.00  0.00     0.156 HD
ATOM     19  H   32Y d   1      28.514  47.178   2.192  0.00  0.00     0.156 HD
ENDBRANCH   4  17
TORSDOF 1
