REMARK  1 active torsions:
REMARK  status: ('A' for Active; 'I' for Inactive)
REMARK    1  A    between atoms: O01_1  and  C02_2 
ROOT
ATOM      1  C02 IQD d   1      25.856  49.112   0.449  0.00  0.00     0.076 A 
ATOM      2  C03 IQD d   1      25.638  50.488   0.534  0.00  0.00    -0.050 A 
ATOM      3  C04 IQD d   1      24.417  51.044  -0.116  0.00  0.00    -0.079 A 
ATOM      4  C05 IQD d   1      23.552  50.241  -0.879  0.00  0.00    -0.068 A 
ATOM      5  C06 IQD d   1      23.789  48.823  -0.937  0.00  0.00     0.031 A 
ATOM      6  C07 IQD d   1      22.892  47.866  -1.624  0.00  0.00     0.190 A 
ATOM      7  O08 IQD d   1      21.914  48.394  -2.367  0.00  0.00    -0.171 OA
ATOM      8  N09 IQD d   1      23.084  46.545  -1.690  0.00  0.00    -0.344 N 
ATOM      9  C10 IQD d   1      24.158  46.008  -0.938  0.00  0.00    -0.020 A 
ATOM     10  C11 IQD d   1      25.090  46.785  -0.265  0.00  0.00    -0.054 A 
ATOM     11  C12 IQD d   1      24.928  48.227  -0.259  0.00  0.00     0.013 A 
ATOM     12  H2  IQD d   1      26.335  51.133   1.057  0.00  0.00     0.087 H 
ATOM     13  H3  IQD d   1      24.190  52.097   0.003  0.00  0.00     0.083 H 
ATOM     14  H4  IQD d   1      22.720  50.683  -1.415  0.00  0.00     0.085 H 
ATOM     15  H5  IQD d   1      22.494  45.960  -2.247  0.00  0.00     0.167 HD
ATOM     16  H6  IQD d   1      24.258  44.925  -0.885  0.00  0.00     0.111 H 
ATOM     17  H7  IQD d   1      25.929  46.320   0.250  0.00  0.00     0.087 H 
ENDROOT
BRANCH   1  18
ATOM     18  O01 IQD d   1      26.900  48.482   1.092  0.00  0.00    -0.360 OA
ATOM     19  H1  IQD d   1      27.724  48.841   0.783  0.00  0.00     0.217 HD
ENDBRANCH   1  18
TORSDOF 1
