REMARK  5 active torsions:
REMARK  status: ('A' for Active; 'I' for Inactive)
REMARK    1  A    between atoms: C1_1  and  O2_2 
REMARK    2  A    between atoms: O2_2  and  C12_14 
REMARK    3  A    between atoms: C8_10  and  C14_4 
REMARK    4  A    between atoms: C14_4  and  C10_11 
REMARK    5  A    between atoms: C14_4  and  C15_17 
ROOT
ATOM      1  C1  NPS d   1      61.628  26.652  51.044  0.00  0.00     0.069 A 
ATOM      2  C2  NPS d   1      60.869  25.921  50.092  0.00  0.00    -0.050 A 
ATOM      3  C3  NPS d   1      59.524  26.278  49.841  0.00  0.00    -0.070 A 
ATOM      4  C4  NPS d   1      58.952  27.384  50.538  0.00  0.00    -0.025 A 
ATOM      5  C5  NPS d   1      59.712  28.087  51.452  0.00  0.00    -0.023 A 
ATOM      6  C6  NPS d   1      61.056  27.717  51.716  0.00  0.00    -0.040 A 
ATOM      7  C7  NPS d   1      57.612  27.781  50.279  0.00  0.00    -0.065 A 
ATOM      8  C8  NPS d   1      57.080  28.857  50.953  0.00  0.00    -0.043 A 
ATOM      9  C13 NPS d   1      59.176  29.148  52.109  0.00  0.00    -0.072 A 
ATOM     10  C11 NPS d   1      57.848  29.529  51.876  0.00  0.00    -0.075 A 
ATOM     11  H   NPS d   1      61.320  25.091  49.559  0.00  0.00     0.087 H 
ATOM     12  H   NPS d   1      58.933  25.717  49.126  0.00  0.00     0.085 H 
ATOM     13  H   NPS d   1      61.636  28.270  52.446  0.00  0.00     0.089 H 
ATOM     14  H   NPS d   1      57.013  27.240  49.556  0.00  0.00     0.085 H 
ATOM     15  H   NPS d   1      59.779  29.703  52.818  0.00  0.00     0.084 H 
ATOM     16  H   NPS d   1      57.422  30.360  52.427  0.00  0.00     0.084 H 
ENDROOT
BRANCH   8  17
ATOM     17  C14 NPS d   1      55.645  29.233  50.772  0.00  0.00     0.052 C 
ATOM     18  H   NPS d   1      55.341  29.838  51.639  0.00  0.00     0.063 H 
BRANCH  17  19
ATOM     19  C10 NPS d   1      54.805  28.045  50.734  0.00  0.00    -0.060 C 
ATOM     20  H   NPS d   1      54.965  27.453  51.648  0.00  0.00     0.029 H 
ATOM     21  H   NPS d   1      55.067  27.439  49.854  0.00  0.00     0.029 H 
ATOM     22  H   NPS d   1      53.748  28.345  50.672  0.00  0.00     0.029 H 
ENDBRANCH  17  19
BRANCH  17  23
ATOM     23  C15 NPS d   1      55.448  30.069  49.528  0.00  0.00     0.181 C 
ATOM     24  O   NPS d   1      56.366  30.144  48.651  0.00  0.00    -0.647 OA
ATOM     25  OXT NPS d   1      54.359  30.735  49.390  0.00  0.00    -0.647 OA
ENDBRANCH  17  23
ENDBRANCH   8  17
BRANCH   1  26
ATOM     26  O2  NPS d   1      62.966  26.282  51.331  0.00  0.00    -0.356 OA
BRANCH  26  27
ATOM     27  C12 NPS d   1      63.360  24.932  51.166  0.00  0.00     0.010 C 
ATOM     28  H   NPS d   1      64.422  24.825  51.431  0.00  0.00     0.066 H 
ATOM     29  H   NPS d   1      63.212  24.632  50.118  0.00  0.00     0.066 H 
ATOM     30  H   NPS d   1      62.752  24.290  51.820  0.00  0.00     0.066 H 
ENDBRANCH  26  27
ENDBRANCH   1  26
TORSDOF 5
