REMARK WARNING: 32 MAX_TORS EXCEEDED!!!
REMARK  39 active torsions:
REMARK  status: ('A' for Active; 'I' for Inactive)
REMARK    1  A    between atoms: CA_2  and  C_7 
REMARK       I    between atoms: C_7  and  N_9 
REMARK    2  A    between atoms: N_9  and  CA_10 
REMARK    3  A    between atoms: CA_10  and  C_11 
REMARK    4  A    between atoms: CA_10  and  CB_13 
REMARK       I    between atoms: C_11  and  N_17 
REMARK    5  A    between atoms: CB_13  and  CG_14 
REMARK    6  A    between atoms: CG_14  and  CD1_15 
REMARK    7  A    between atoms: CG_14  and  CD2_16 
REMARK    8  A    between atoms: N_17  and  CA_18 
REMARK    9  A    between atoms: CA_18  and  C_19 
REMARK   10  A    between atoms: CA_18  and  CB_21 
REMARK       I    between atoms: C_19  and  N_29 
REMARK   11  A    between atoms: CB_21  and  CG_22 
REMARK   12  A    between atoms: CZ_27  and  OH_28 
REMARK   13  A    between atoms: N_29  and  CA_30 
REMARK   14  A    between atoms: CA_30  and  C_31 
REMARK   15  A    between atoms: CA_30  and  CB_33 
REMARK       I    between atoms: C_31  and  N_38 
REMARK   16  A    between atoms: CB_33  and  CG_34 
REMARK   17  A    between atoms: CG_34  and  CD_35 
REMARK   18  A    between atoms: N_38  and  CA_39 
REMARK   19  A    between atoms: CA_39  and  C_40 
REMARK   20  A    between atoms: CA_39  and  CB_42 
REMARK   21  A    between atoms: CB_42  and  CG_43 
REMARK       I    between atoms: CG_43  and  ND2_45 
REMARK   22  A    between atoms: CA_47  and  C_48 
REMARK       I    between atoms: C_48  and  N_53 
REMARK   23  A    between atoms: N_53  and  CA_54 
REMARK   24  A    between atoms: CA_54  and  C_55 
REMARK   25  A    between atoms: CA_54  and  CB_57 
REMARK       I    between atoms: C_55  and  N_65 
REMARK   26  A    between atoms: CB_57  and  CG_58 
REMARK   27  A    between atoms: CZ_63  and  OH_64 
REMARK   28  A    between atoms: N_65  and  CA_66 
REMARK   29  A    between atoms: CA_66  and  C_67 
REMARK   30  A    between atoms: CA_66  and  CB_69 
REMARK       I    between atoms: C_67  and  N_73 
REMARK   31  A    between atoms: CB_69  and  CG1_70 
REMARK   32  A    between atoms: CB_69  and  CG2_71 
REMARK   33  A    between atoms: CG1_70  and  CD1_72 
REMARK   34  A    between atoms: N_73  and  CA_74 
REMARK   35  A    between atoms: CA_74  and  C_75 
REMARK   36  A    between atoms: CA_74  and  CB_77 
REMARK   37  A    between atoms: CB_77  and  CG_78 
REMARK   38  A    between atoms: CG_78  and  CD1_79 
REMARK   39  A    between atoms: CG_78  and  CD2_80 
ROOT
ATOM      1  CA  TYR d   1     -24.528  -1.992  36.410  0.00  0.00     0.093 C 
ATOM      2  H   TYR d   1     -25.009  -2.525  35.576  0.00  0.00     0.088 H 
ENDROOT
BRANCH   1   3
ATOM      3  N   TYR d   1     -24.738  -2.764  37.629  0.00  0.00    -0.346 N 
ATOM      4  C   LEU d   1     -25.458  -3.880  37.642  0.00  0.00     0.241 C 
ATOM      5  O   LEU d   1     -26.032  -4.321  36.651  0.00  0.00    -0.271 OA
ATOM      6  H   TYR d   1     -24.327  -2.443  38.482  0.00  0.00     0.163 HD
BRANCH   4   7
ATOM      7  CA  LEU d   1     -25.540  -4.607  38.978  0.00  0.00     0.089 C 
ATOM      8  H   LEU d   1     -25.735  -3.859  39.761  0.00  0.00     0.087 H 
BRANCH   7   9
ATOM      9  N   LEU d   1     -26.633  -5.570  38.999  0.00  0.00    -0.346 N 
ATOM     10  C   PCA d   1     -27.523  -5.579  39.986  0.00  0.00     0.241 C 
ATOM     11  O   PCA d   1     -27.434  -4.849  40.974  0.00  0.00    -0.271 OA
ATOM     12  H   LEU d   1     -26.715  -6.236  38.258  0.00  0.00     0.163 HD
BRANCH  10  13
ATOM     13  CA  PCA d   1     -28.684  -6.554  39.850  0.00  0.00     0.089 C 
ATOM     14  N   PCA d   1     -28.834  -7.389  41.039  0.00  0.00    -0.348 N 
ATOM     15  CD  PCA d   1     -30.093  -6.933  41.634  0.00  0.00     0.218 C 
ATOM     16  H   PCA d   1     -28.220  -8.105  41.370  0.00  0.00     0.163 HD
ATOM     17  CG  PCA d   1     -30.783  -5.836  40.869  0.00  0.00     0.011 C 
ATOM     18  OE  PCA d   1     -30.574  -7.402  42.666  0.00  0.00    -0.274 OA
ATOM     19  CB  PCA d   1     -29.956  -5.749  39.599  0.00  0.00    -0.030 C 
ATOM     20  H   PCA d   1     -31.827  -6.103  40.646  0.00  0.00     0.047 H 
ATOM     21  H   PCA d   1     -30.758  -4.887  41.425  0.00  0.00     0.047 H 
ATOM     22  H   PCA d   1     -30.514  -6.176  38.753  0.00  0.00     0.037 H 
ATOM     23  H   PCA d   1     -29.705  -4.700  39.381  0.00  0.00     0.037 H 
ATOM     24  H   PCA d   1     -28.497  -7.210  38.987  0.00  0.00     0.087 H 
ENDBRANCH  10  13
ENDBRANCH   7   9
BRANCH   7  25
ATOM     25  CB  LEU d   1     -24.203  -5.286  39.289  0.00  0.00    -0.035 C 
ATOM     26  H   LEU d   1     -24.116  -5.303  40.385  0.00  0.00     0.037 H 
ATOM     27  H   LEU d   1     -23.424  -4.633  38.870  0.00  0.00     0.037 H 
BRANCH  25  28
ATOM     28  CG  LEU d   1     -23.871  -6.704  38.814  0.00  0.00    -0.059 C 
ATOM     29  H   LEU d   1     -24.504  -7.410  39.371  0.00  0.00     0.038 H 
BRANCH  28  30
ATOM     30  CD1 LEU d   1     -24.127  -6.919  37.329  0.00  0.00    -0.073 C 
ATOM     31  H   LEU d   1     -23.868  -7.953  37.058  0.00  0.00     0.028 H 
ATOM     32  H   LEU d   1     -23.508  -6.222  36.745  0.00  0.00     0.028 H 
ATOM     33  H   LEU d   1     -25.190  -6.737  37.110  0.00  0.00     0.028 H 
ENDBRANCH  28  30
BRANCH  28  34
ATOM     34  CD2 LEU d   1     -22.416  -6.988  39.138  0.00  0.00    -0.073 C 
ATOM     35  H   LEU d   1     -22.242  -6.830  40.213  0.00  0.00     0.028 H 
ATOM     36  H   LEU d   1     -21.772  -6.310  38.559  0.00  0.00     0.028 H 
ATOM     37  H   LEU d   1     -22.179  -8.030  38.878  0.00  0.00     0.028 H 
ENDBRANCH  28  34
ENDBRANCH  25  28
ENDBRANCH   7  25
ENDBRANCH   4   7
ENDBRANCH   1   3
BRANCH   1  38
ATOM     38  C   TYR d   1     -23.039  -1.850  36.104  0.00  0.00     0.241 C 
ATOM     39  O   TYR d   1     -22.389  -0.918  36.576  0.00  0.00    -0.271 OA
ATOM     40  N   GLU d   1     -22.494  -2.772  35.319  0.00  0.00    -0.346 N 
ATOM     41  H   GLU d   1     -23.044  -3.548  35.011  0.00  0.00     0.163 HD
BRANCH  40  42
ATOM     42  CA  GLU d   1     -21.101  -2.662  34.903  0.00  0.00     0.090 C 
ATOM     43  H   GLU d   1     -20.497  -2.367  35.773  0.00  0.00     0.087 H 
BRANCH  42  44
ATOM     44  C   GLU d   1     -20.972  -1.575  33.833  0.00  0.00     0.241 C 
ATOM     45  O   GLU d   1     -21.167  -1.834  32.643  0.00  0.00    -0.271 OA
ATOM     46  N   ASN d   1     -20.651  -0.360  34.281  0.00  0.00    -0.348 N 
ATOM     47  H   ASN d   1     -20.430  -0.256  35.251  0.00  0.00     0.163 HD
BRANCH  46  48
ATOM     48  CA  ASN d   1     -20.605   0.829  33.427  0.00  0.00     0.070 C 
ATOM     49  H   ASN d   1     -20.527   1.707  34.085  0.00  0.00     0.084 H 
BRANCH  48  50
ATOM     50  C   ASN d   1     -21.863   0.994  32.578  0.00  0.00     0.110 C 
ATOM     51  O   ASN d   1     -21.789   1.082  31.353  0.00  0.00    -0.305 OA
ATOM     52  H   ASN d   1     -22.837   1.034  33.062  0.00  0.00     0.146 H 
ENDBRANCH  48  50
BRANCH  48  53
ATOM     53  CB  ASN d   1     -19.370   0.801  32.522  0.00  0.00     0.034 C 
ATOM     54  H   ASN d   1     -19.498   1.552  31.729  0.00  0.00     0.050 H 
ATOM     55  H   ASN d   1     -19.287  -0.199  32.070  0.00  0.00     0.050 H 
BRANCH  53  56
ATOM     56  CG  ASN d   1     -18.085   1.102  33.274  0.00  0.00     0.217 C 
ATOM     57  OD1 ASN d   1     -17.352   0.191  33.663  0.00  0.00    -0.274 OA
ATOM     58  ND2 ASN d   1     -17.804   2.386  33.482  0.00  0.00    -0.370 N 
ATOM     59  H   ASN d   1     -16.971   2.643  33.972  0.00  0.00     0.159 HD
ATOM     60  H   ASN d   1     -18.426   3.094  33.148  0.00  0.00     0.159 HD
ENDBRANCH  53  56
ENDBRANCH  48  53
ENDBRANCH  46  48
ENDBRANCH  42  44
BRANCH  42  61
ATOM     61  CB  GLU d   1     -20.585  -4.010  34.397  0.00  0.00    -0.029 C 
ATOM     62  H   GLU d   1     -19.578  -3.865  33.980  0.00  0.00     0.037 H 
ATOM     63  H   GLU d   1     -21.261  -4.370  33.607  0.00  0.00     0.037 H 
BRANCH  61  64
ATOM     64  CG  GLU d   1     -20.510  -5.067  35.491  0.00  0.00     0.018 C 
ATOM     65  H   GLU d   1     -21.281  -4.846  36.244  0.00  0.00     0.049 H 
ATOM     66  H   GLU d   1     -19.516  -5.016  35.959  0.00  0.00     0.049 H 
BRANCH  64  67
ATOM     67  CD  GLU d   1     -20.729  -6.477  34.975  0.00  0.00     0.172 C 
ATOM     68  OE1 GLU d   1     -20.734  -6.669  33.741  0.00  0.00    -0.648 OA
ATOM     69  OE2 GLU d   1     -20.905  -7.393  35.809  0.00  0.00    -0.648 OA
ENDBRANCH  64  67
ENDBRANCH  61  64
ENDBRANCH  42  61
ENDBRANCH  40  42
ENDBRANCH   1  38
BRANCH   1  70
ATOM     70  CB  TYR d   1     -25.157  -0.600  36.529  0.00  0.00    -0.014 C 
ATOM     71  H   TYR d   1     -24.933  -0.045  35.606  0.00  0.00     0.043 H 
ATOM     72  H   TYR d   1     -24.693  -0.089  37.386  0.00  0.00     0.043 H 
BRANCH  70  73
ATOM     73  CG  TYR d   1     -26.656  -0.586  36.731  0.00  0.00    -0.056 A 
ATOM     74  CD1 TYR d   1     -27.474  -1.512  36.095  0.00  0.00    -0.074 A 
ATOM     75  CE1 TYR d   1     -28.848  -1.495  36.275  0.00  0.00    -0.051 A 
ATOM     76  H   TYR d   1     -27.030  -2.260  35.448  0.00  0.00     0.084 H 
ATOM     77  CZ  TYR d   1     -29.417  -0.547  37.102  0.00  0.00     0.065 A 
ATOM     78  H   TYR d   1     -29.473  -2.222  35.769  0.00  0.00     0.087 H 
ATOM     79  CE2 TYR d   1     -28.625   0.383  37.745  0.00  0.00    -0.051 A 
ATOM     80  CD2 TYR d   1     -27.254   0.360  37.556  0.00  0.00    -0.074 A 
ATOM     81  H   TYR d   1     -29.074   1.127  38.394  0.00  0.00     0.087 H 
ATOM     82  H   TYR d   1     -26.635   1.093  38.060  0.00  0.00     0.084 H 
BRANCH  77  83
ATOM     83  OH  TYR d   1     -30.781  -0.527  37.288  0.00  0.00    -0.361 OA
ATOM     84  H   TYR d   1     -31.179  -1.225  36.781  0.00  0.00     0.217 HD
ENDBRANCH  77  83
ENDBRANCH  70  73
ENDBRANCH   1  70
TORSDOF 39
