REMARK  7 active torsions:
REMARK  status: ('A' for Active; 'I' for Inactive)
REMARK    1  A    between atoms: C2A_14  and  CM2_1 
REMARK    2  A    between atoms: C4A_12  and  N4A_2 
REMARK    3  A    between atoms: C4_9  and  CM4_3 
REMARK    4  A    between atoms: C6_5  and  O1_4 
REMARK    5  A    between atoms: C5_8  and  C6_5 
REMARK    6  A    between atoms: C7A_11  and  C3_10 
REMARK    7  A    between atoms: C5A_17  and  C7A_11 
ROOT
ATOM      1  C7A 2VY d   1      16.017  11.749  46.354  0.00  0.00    -0.011 C 
ATOM      2  H13 2VY d   1      16.409  12.494  47.062  0.00  0.00     0.047 H 
ATOM      3  H14 2VY d   1      15.230  11.156  46.843  0.00  0.00     0.047 H 
ENDROOT
BRANCH   1   4
ATOM      4  C3  2VY d   1      17.141  10.833  45.900  0.00  0.00    -0.040 A 
ATOM      5  C2  2VY d   1      17.596  10.700  44.549  0.00  0.00    -0.038 A 
ATOM      6  S1  2VY d   1      18.855   9.550  44.560  0.00  0.00    -0.103 SA
ATOM      7  H12 2VY d   1      17.211  11.232  43.680  0.00  0.00     0.095 H 
ATOM      8  C5  2VY d   1      18.841   9.140  46.165  0.00  0.00     0.012 A 
ATOM      9  C4  2VY d   1      17.829   9.935  46.800  0.00  0.00    -0.040 A 
BRANCH   8  10
ATOM     10  C6  2VY d   1      19.803   8.105  46.722  0.00  0.00     0.047 C 
ATOM     11  H10 2VY d   1      19.607   7.123  46.267  0.00  0.00     0.082 H 
ATOM     12  H11 2VY d   1      20.841   8.404  46.516  0.00  0.00     0.082 H 
BRANCH  10  13
ATOM     13  O1  2VY d   1      19.586   8.048  48.088  0.00  0.00    -0.396 OA
ATOM     14  H9  2VY d   1      19.752   8.902  48.470  0.00  0.00     0.209 HD
ENDBRANCH  10  13
ENDBRANCH   8  10
BRANCH   9  15
ATOM     15  CM4 2VY d   1      17.462   9.895  48.260  0.00  0.00    -0.050 C 
ATOM     16  H6  2VY d   1      18.092   9.155  48.776  0.00  0.00     0.033 H 
ATOM     17  H7  2VY d   1      16.404   9.613  48.365  0.00  0.00     0.033 H 
ATOM     18  H8  2VY d   1      17.622  10.888  48.706  0.00  0.00     0.033 H 
ENDBRANCH   9  15
ENDBRANCH   1   4
BRANCH   1  19
ATOM     19  C5A 2VY d   1      15.444  12.453  45.137  0.00  0.00     0.009 A 
ATOM     20  C4A 2VY d   1      14.633  11.779  44.182  0.00  0.00     0.131 A 
ATOM     21  N3A 2VY d   1      14.179  12.476  43.119  0.00  0.00    -0.216 NA
ATOM     22  C2A 2VY d   1      14.479  13.774  42.978  0.00  0.00     0.124 A 
ATOM     23  N1A 2VY d   1      15.229  14.432  43.865  0.00  0.00    -0.245 NA
ATOM     24  C6A 2VY d   1      15.742  13.830  44.944  0.00  0.00     0.014 A 
ATOM     25  H15 2VY d   1      16.363  14.373  45.647  0.00  0.00     0.115 H 
BRANCH  20  26
ATOM     26  N4A 2VY d   1      14.300  10.416  44.305  0.00  0.00    -0.383 N 
ATOM     27  H4  2VY d   1      14.640   9.873  45.112  0.00  0.00     0.157 HD
ATOM     28  H5  2VY d   1      13.716   9.962  43.588  0.00  0.00     0.157 HD
ENDBRANCH  20  26
BRANCH  22  29
ATOM     29  CM2 2VY d   1      13.945  14.523  41.764  0.00  0.00    -0.019 C 
ATOM     30  H1  2VY d   1      13.352  13.837  41.142  0.00  0.00     0.037 H 
ATOM     31  H2  2VY d   1      14.787  14.916  41.176  0.00  0.00     0.037 H 
ATOM     32  H3  2VY d   1      13.310  15.357  42.098  0.00  0.00     0.037 H 
ENDBRANCH  22  29
ENDBRANCH   1  19
TORSDOF 7
