REMARK  9 active torsions:
REMARK  status: ('A' for Active; 'I' for Inactive)
REMARK    1  A    between atoms: N1_1  and  C2_2 
REMARK    2  A    between atoms: N1_1  and  C15_15 
REMARK    3  A    between atoms: N1_1  and  C29_29 
REMARK    4  A    between atoms: C4_4  and  N10_10 
REMARK    5  A    between atoms: N10_10  and  S11_11 
REMARK    6  A    between atoms: S11_11  and  C12_12 
REMARK    7  A    between atoms: C12_12  and  C14_14 
REMARK    8  A    between atoms: C14_14  and  C13_13 
REMARK    9  A    between atoms: N23_23  and  C25_25 
ROOT
ATOM      1  C2  2VX d   1      13.019 -27.317  -2.623  0.00  0.00     0.115 A 
ATOM      2  C3  2VX d   1      12.666 -27.797  -3.904  0.00  0.00     0.173 A 
ATOM      3  C4  2VX d   1      12.141 -29.097  -4.066  0.00  0.00     0.083 A 
ATOM      4  C5  2VX d   1      11.958 -29.947  -2.955  0.00  0.00    -0.051 A 
ATOM      5  C6  2VX d   1      12.308 -29.479  -1.670  0.00  0.00    -0.041 A 
ATOM      6  C7  2VX d   1      12.829 -28.172  -1.508  0.00  0.00     0.146 A 
ATOM      7  F8  2VX d   1      13.155 -27.742  -0.268  0.00  0.00    -0.204 F 
ATOM      8  F9  2VX d   1      12.832 -27.008  -4.992  0.00  0.00    -0.201 F 
ATOM      9  H   2VX d   1      11.555 -30.945  -3.086  0.00  0.00     0.087 H 
ATOM     10  H   2VX d   1      12.178 -30.121  -0.806  0.00  0.00     0.088 H 
ENDROOT
BRANCH   1  11
ATOM     11  N1  2VX d   1      13.518 -26.054  -2.487  0.00  0.00    -0.346 N 
BRANCH  11  12
ATOM     12  C15 2VX d   1      14.731 -25.725  -1.956  0.00  0.00     0.035 A 
ATOM     13  C16 2VX d   1      15.738 -26.711  -1.807  0.00  0.00    -0.055 A 
ATOM     14  C17 2VX d   1      16.998 -26.382  -1.255  0.00  0.00    -0.052 A 
ATOM     15  H   2VX d   1      15.540 -27.730  -2.120  0.00  0.00     0.087 H 
ATOM     16  C18 2VX d   1      17.267 -25.056  -0.844  0.00  0.00     0.074 A 
ATOM     17  H   2VX d   1      17.758 -27.147  -1.147  0.00  0.00     0.087 H 
ATOM     18  C19 2VX d   1      16.270 -24.062  -0.989  0.00  0.00     0.063 A 
ATOM     19  N21 2VX d   1      18.522 -24.725  -0.293  0.00  0.00    -0.243 NA
ATOM     20  C20 2VX d   1      15.011 -24.398  -1.542  0.00  0.00    -0.040 A 
ATOM     21  C24 2VX d   1      16.579 -22.652  -0.545  0.00  0.00     0.260 A 
ATOM     22  H   2VX d   1      14.252 -23.632  -1.650  0.00  0.00     0.088 H 
ATOM     23  N23 2VX d   1      17.851 -22.457  -0.018  0.00  0.00    -0.312 N 
ATOM     24  O26 2VX d   1      15.739 -21.759  -0.657  0.00  0.00    -0.267 OA
ATOM     25  C22 2VX d   1      18.760 -23.499   0.081  0.00  0.00     0.069 A 
ATOM     26  H   2VX d   1      19.741 -23.278   0.500  0.00  0.00     0.143 H 
BRANCH  23  27
ATOM     27  C25 2VX d   1      18.259 -21.124   0.446  0.00  0.00    -0.010 C 
ATOM     28  H   2VX d   1      19.290 -21.168   0.826  0.00  0.00     0.057 H 
ATOM     29  H   2VX d   1      17.585 -20.794   1.250  0.00  0.00     0.057 H 
ATOM     30  H   2VX d   1      18.207 -20.413  -0.391  0.00  0.00     0.057 H 
ENDBRANCH  23  27
ENDBRANCH  11  12
BRANCH  11  31
ATOM     31  C29 2VX d   1      12.543 -24.972  -2.666  0.00  0.00    -0.013 C 
ATOM     32  H   2VX d   1      11.618 -25.380  -3.100  0.00  0.00     0.057 H 
ATOM     33  H   2VX d   1      12.960 -24.211  -3.341  0.00  0.00     0.057 H 
ATOM     34  H   2VX d   1      12.320 -24.514  -1.691  0.00  0.00     0.057 H 
ENDBRANCH  11  31
ENDBRANCH   1  11
BRANCH   3  35
ATOM     35  N10 2VX d   1      11.833 -29.486  -5.306  0.00  0.00    -0.281 N 
ATOM     36  H   2VX d   1      12.057 -28.816  -6.014  0.00  0.00     0.178 HD
BRANCH  35  37
ATOM     37  S11 2VX d   1      11.120 -30.933  -5.905  0.00  0.00     0.231 S 
ATOM     38  O27 2VX d   1      10.791 -31.794  -4.760  0.00  0.00    -0.206 OA
ATOM     39  O28 2VX d   1      10.063 -30.454  -6.801  0.00  0.00    -0.206 OA
BRANCH  37  40
ATOM     40  C12 2VX d   1      12.467 -31.673  -6.926  0.00  0.00     0.046 C 
ATOM     41  H   2VX d   1      13.218 -30.895  -7.129  0.00  0.00     0.058 H 
ATOM     42  H   2VX d   1      12.034 -32.022  -7.875  0.00  0.00     0.058 H 
BRANCH  40  43
ATOM     43  C14 2VX d   1      13.166 -32.858  -6.246  0.00  0.00    -0.055 C 
ATOM     44  H   2VX d   1      13.082 -33.739  -6.900  0.00  0.00     0.033 H 
ATOM     45  H   2VX d   1      12.663 -33.062  -5.289  0.00  0.00     0.033 H 
BRANCH  43  46
ATOM     46  C13 2VX d   1      14.647 -32.591  -5.973  0.00  0.00    -0.076 C 
ATOM     47  H   2VX d   1      15.095 -33.470  -5.487  0.00  0.00     0.027 H 
ATOM     48  H   2VX d   1      14.746 -31.717  -5.313  0.00  0.00     0.027 H 
ATOM     49  H   2VX d   1      15.165 -32.394  -6.923  0.00  0.00     0.027 H 
ENDBRANCH  43  46
ENDBRANCH  40  43
ENDBRANCH  37  40
ENDBRANCH  35  37
ENDBRANCH   3  35
TORSDOF 9
