REMARK  4 active torsions:
REMARK  status: ('A' for Active; 'I' for Inactive)
REMARK    1  A    between atoms: C7_7  and  C11_10 
REMARK       I    between atoms: C11_10  and  N13_12 
REMARK    2  A    between atoms: N13_12  and  C14_13 
REMARK    3  A    between atoms: N17_16  and  C19_18 
REMARK    4  A    between atoms: C19_18  and  C20_19 
ROOT
ATOM      1  C20 2VT d   1     -12.819   4.252 -31.564  0.00  0.00    -0.037 A 
ATOM      2  C21 2VT d   1     -13.967   3.474 -31.680  0.00  0.00    -0.075 A 
ATOM      3  C22 2VT d   1     -15.156   4.045 -32.128  0.00  0.00    -0.081 A 
ATOM      4  C23 2VT d   1     -15.199   5.396 -32.453  0.00  0.00    -0.063 A 
ATOM      5  C24 2VT d   1     -14.043   6.185 -32.336  0.00  0.00     0.045 A 
ATOM      6  C25 2VT d   1     -12.846   5.605 -31.883  0.00  0.00    -0.055 A 
ATOM      7  C26 2VT d   1     -14.076   7.575 -32.677  0.00  0.00     0.099 C 
ATOM      8  N27 2VT d   1     -14.096   8.679 -32.946  0.00  0.00    -0.191 NA
ATOM      9  H   2VT d   1     -13.936   2.422 -31.421  0.00  0.00     0.084 H 
ATOM     10  H   2VT d   1     -16.048   3.436 -32.223  0.00  0.00     0.083 H 
ATOM     11  H   2VT d   1     -16.126   5.841 -32.797  0.00  0.00     0.085 H 
ATOM     12  H   2VT d   1     -11.951   6.208 -31.783  0.00  0.00     0.086 H 
ENDROOT
BRANCH   1  13
ATOM     13  C19 2VT d   1     -11.550   3.640 -31.056  0.00  0.00     0.040 C 
ATOM     14  H   2VT d   1     -11.490   2.590 -31.378  0.00  0.00     0.074 H 
ATOM     15  H   2VT d   1     -10.687   4.195 -31.452  0.00  0.00     0.074 H 
BRANCH  13  16
ATOM     16  N17 2VT d   1     -11.552   3.708 -29.595  0.00  0.00    -0.275 N 
ATOM     17  N16 2VT d   1     -11.873   2.649 -28.748  0.00  0.00    -0.183 NA
ATOM     18  C15 2VT d   1     -11.756   3.059 -27.515  0.00  0.00     0.049 A 
ATOM     19  C14 2VT d   1     -11.366   4.410 -27.510  0.00  0.00     0.071 A 
ATOM     20  H   2VT d   1     -11.933   2.451 -26.629  0.00  0.00     0.121 H 
ATOM     21  C18 2VT d   1     -11.245   4.784 -28.815  0.00  0.00     0.026 A 
ATOM     22  H   2VT d   1     -10.954   5.771 -29.173  0.00  0.00     0.117 H 
BRANCH  19  23
ATOM     23  N13 2VT d   1     -11.119   5.233 -26.376  0.00  0.00    -0.319 N 
ATOM     24  C11 2VT d   1     -11.307   4.863 -25.076  0.00  0.00     0.277 C 
ATOM     25  O12 2VT d   1     -11.725   3.752 -24.787  0.00  0.00    -0.266 OA
ATOM     26  H   2VT d   1     -10.780   6.158 -26.546  0.00  0.00     0.169 HD
BRANCH  24  27
ATOM     27  C7  2VT d   1     -11.008   5.814 -23.980  0.00  0.00     0.157 A 
ATOM     28  C5  2VT d   1     -10.955   5.533 -22.533  0.00  0.00     0.028 A 
ATOM     29  C4  2VT d   1     -10.612   6.786 -21.941  0.00  0.00     0.062 A 
ATOM     30  C6  2VT d   1     -11.147   4.405 -21.715  0.00  0.00    -0.068 A 
ATOM     31  C3  2VT d   1     -10.478   6.883 -20.547  0.00  0.00    -0.055 A 
ATOM     32  N9  2VT d   1     -10.489   7.672 -22.980  0.00  0.00    -0.277 N 
ATOM     33  C2  2VT d   1     -10.672   5.761 -19.769  0.00  0.00    -0.081 A 
ATOM     34  H   2VT d   1     -10.224   7.831 -20.086  0.00  0.00     0.087 H 
ATOM     35  C1  2VT d   1     -10.995   4.526 -20.351  0.00  0.00    -0.082 A 
ATOM     36  H   2VT d   1     -10.573   5.834 -18.692  0.00  0.00     0.083 H 
ATOM     37  H   2VT d   1     -11.127   3.655 -19.719  0.00  0.00     0.083 H 
ATOM     38  N8  2VT d   1     -10.729   7.097 -24.106  0.00  0.00    -0.168 NA
ATOM     39  H   2VT d   1     -10.238   8.665 -22.874  0.00  0.00     0.189 HD
ATOM     40  H   2VT d   1     -11.412   3.450 -22.154  0.00  0.00     0.085 H 
ENDBRANCH  24  27
ENDBRANCH  19  23
ENDBRANCH  13  16
ENDBRANCH   1  13
TORSDOF 4
