REMARK  5 active torsions:
REMARK  status: ('A' for Active; 'I' for Inactive)
REMARK    1  A    between atoms: C3_3  and  C9_9 
REMARK    2  A    between atoms: C9_9  and  N10_10 
REMARK    3  A    between atoms: C12_12  and  N15_15 
REMARK       I    between atoms: N15_15  and  C16_16 
REMARK    4  A    between atoms: C16_16  and  C18_18 
REMARK    5  A    between atoms: C22_22  and  C28_27 
ROOT
ATOM      1  C1  2VU d   1     -10.963 -28.841  56.433  0.00  0.00    -0.081 A 
ATOM      2  C2  2VU d   1     -11.006 -27.501  56.815  0.00  0.00    -0.075 A 
ATOM      3  C3  2VU d   1     -10.920 -26.492  55.858  0.00  0.00    -0.037 A 
ATOM      4  C4  2VU d   1     -10.802 -26.817  54.512  0.00  0.00    -0.055 A 
ATOM      5  C5  2VU d   1     -10.759 -28.165  54.119  0.00  0.00     0.045 A 
ATOM      6  C6  2VU d   1     -10.839 -29.181  55.093  0.00  0.00    -0.063 A 
ATOM      7  C7  2VU d   1     -10.627 -28.499  52.731  0.00  0.00     0.099 C 
ATOM      8  N8  2VU d   1     -10.524 -28.762  51.631  0.00  0.00    -0.191 NA
ATOM      9  H   2VU d   1     -11.027 -29.620  57.184  0.00  0.00     0.083 H 
ATOM     10  H   2VU d   1     -11.107 -27.242  57.863  0.00  0.00     0.084 H 
ATOM     11  H   2VU d   1     -10.743 -26.032  53.767  0.00  0.00     0.086 H 
ATOM     12  H   2VU d   1     -10.804 -30.223  54.797  0.00  0.00     0.085 H 
ENDROOT
BRANCH   3  13
ATOM     13  C9  2VU d   1     -10.970 -25.038  56.270  0.00  0.00     0.040 C 
ATOM     14  H   2VU d   1     -10.541 -24.407  55.477  0.00  0.00     0.074 H 
ATOM     15  H   2VU d   1     -10.404 -24.891  57.202  0.00  0.00     0.074 H 
BRANCH  13  16
ATOM     16  N10 2VU d   1     -12.374 -24.693  56.478  0.00  0.00    -0.275 N 
ATOM     17  C11 2VU d   1     -13.242 -24.276  55.524  0.00  0.00     0.026 A 
ATOM     18  C12 2VU d   1     -14.452 -24.097  56.110  0.00  0.00     0.071 A 
ATOM     19  H   2VU d   1     -13.009 -24.113  54.473  0.00  0.00     0.117 H 
ATOM     20  C13 2VU d   1     -14.312 -24.466  57.462  0.00  0.00     0.049 A 
ATOM     21  N14 2VU d   1     -13.074 -24.817  57.685  0.00  0.00    -0.183 NA
ATOM     22  H   2VU d   1     -15.109 -24.460  58.204  0.00  0.00     0.121 H 
BRANCH  18  23
ATOM     23  N15 2VU d   1     -15.629 -23.678  55.437  0.00  0.00    -0.319 N 
ATOM     24  C16 2VU d   1     -16.857 -23.598  56.009  0.00  0.00     0.277 C 
ATOM     25  O17 2VU d   1     -17.024 -23.850  57.192  0.00  0.00    -0.266 OA
ATOM     26  H   2VU d   1     -15.548 -23.424  54.473  0.00  0.00     0.169 HD
BRANCH  24  27
ATOM     27  C18 2VU d   1     -18.026 -23.189  55.209  0.00  0.00     0.157 A 
ATOM     28  C19 2VU d   1     -19.371 -22.922  55.736  0.00  0.00     0.028 A 
ATOM     29  C20 2VU d   1     -19.952 -22.959  57.011  0.00  0.00    -0.067 A 
ATOM     30  C24 2VU d   1     -20.134 -22.541  54.602  0.00  0.00     0.063 A 
ATOM     31  C21 2VU d   1     -21.271 -22.636  57.167  0.00  0.00    -0.071 A 
ATOM     32  H   2VU d   1     -19.357 -23.243  57.871  0.00  0.00     0.085 H 
ATOM     33  C22 2VU d   1     -22.060 -22.272  56.053  0.00  0.00    -0.021 A 
ATOM     34  H   2VU d   1     -21.716 -22.659  58.155  0.00  0.00     0.084 H 
ATOM     35  C23 2VU d   1     -21.486 -22.208  54.771  0.00  0.00    -0.044 A 
ATOM     36  H   2VU d   1     -22.084 -21.904  53.920  0.00  0.00     0.088 H 
ATOM     37  N25 2VU d   1     -19.263 -22.600  53.538  0.00  0.00    -0.277 N 
ATOM     38  N27 2VU d   1     -18.085 -22.971  53.910  0.00  0.00    -0.168 NA
ATOM     39  H   2VU d   1     -19.520 -22.376  52.566  0.00  0.00     0.189 HD
BRANCH  33  40
ATOM     40  C28 2VU d   1     -23.477 -21.861  56.300  0.00  0.00     0.010 A 
ATOM     41  C29 2VU d   1     -24.280 -21.128  55.468  0.00  0.00     0.034 A 
ATOM     42  N30 2VU d   1     -25.456 -20.923  56.098  0.00  0.00    -0.187 NA
ATOM     43  H   2VU d   1     -24.016 -20.773  54.473  0.00  0.00     0.118 H 
ATOM     44  N32 2VU d   1     -25.386 -21.515  57.363  0.00  0.00    -0.289 N 
ATOM     45  C33 2VU d   1     -24.208 -22.063  57.493  0.00  0.00     0.008 A 
ATOM     46  H   2VU d   1     -26.135 -21.518  58.070  0.00  0.00     0.188 HD
ATOM     47  H   2VU d   1     -23.848 -22.589  58.376  0.00  0.00     0.115 H 
ENDBRANCH  33  40
ENDBRANCH  24  27
ENDBRANCH  18  23
ENDBRANCH  13  16
ENDBRANCH   3  13
TORSDOF 5
