REMARK  10 active torsions:
REMARK  status: ('A' for Active; 'I' for Inactive)
REMARK    1  A    between atoms: C1_1  and  N2_2 
REMARK    2  A    between atoms: N2_2  and  C3_3 
REMARK    3  A    between atoms: N2_2  and  C4_4 
REMARK    4  A    between atoms: C4_4  and  C5_5 
REMARK    5  A    between atoms: C5_5  and  C6_6 
REMARK    6  A    between atoms: C6_6  and  C8_7 
REMARK    7  A    between atoms: C6_6  and  N14_13 
REMARK    8  A    between atoms: C16_15  and  N19_18 
REMARK       I    between atoms: N19_18  and  C20_19 
REMARK    9  A    between atoms: C20_19  and  C22_21 
REMARK   10  A    between atoms: C26_25  and  C32_30 
ROOT
ATOM      1  N14 2VV d   1     -11.758 -24.892  56.220  0.00  0.00    -0.270 N 
ATOM      2  C15 2VV d   1     -12.587 -24.480  55.228  0.00  0.00     0.026 A 
ATOM      3  C16 2VV d   1     -13.828 -24.347  55.766  0.00  0.00     0.071 A 
ATOM      4  C17 2VV d   1     -13.757 -24.768  57.101  0.00  0.00     0.049 A 
ATOM      5  N18 2VV d   1     -12.534 -25.099  57.368  0.00  0.00    -0.182 NA
ATOM      6  H   2VV d   1     -12.309 -24.291  54.192  0.00  0.00     0.117 H 
ATOM      7  H   2VV d   1     -14.592 -24.810  57.798  0.00  0.00     0.121 H 
ENDROOT
BRANCH   1   8
ATOM      8  C6  2VV d   1     -10.332 -25.224  56.106  0.00  0.00     0.061 C 
ATOM      9  H   2VV d   1      -9.798 -24.491  55.483  0.00  0.00     0.083 H 
BRANCH   8  10
ATOM     10  C5  2VV d   1      -9.744 -25.239  57.529  0.00  0.00    -0.018 C 
ATOM     11  H   2VV d   1     -10.431 -24.696  58.195  0.00  0.00     0.039 H 
ATOM     12  H   2VV d   1      -9.662 -26.285  57.861  0.00  0.00     0.039 H 
BRANCH  10  13
ATOM     13  C4  2VV d   1      -8.361 -24.591  57.627  0.00  0.00     0.085 C 
ATOM     14  H   2VV d   1      -7.610 -25.358  57.867  0.00  0.00     0.076 H 
ATOM     15  H   2VV d   1      -8.107 -24.117  56.667  0.00  0.00     0.076 H 
BRANCH  13  16
ATOM     16  N2  2VV d   1      -8.384 -23.574  58.688  0.00  0.00    -0.079 N 
ATOM     17  H   2VV d   1      -9.350 -23.336  58.850  0.00  0.00     0.278 HD
BRANCH  16  18
ATOM     18  C1  2VV d   1      -7.843 -24.064  59.967  0.00  0.00     0.066 C 
ATOM     19  H   2VV d   1      -7.888 -23.260  60.716  0.00  0.00     0.068 H 
ATOM     20  H   2VV d   1      -6.798 -24.377  59.827  0.00  0.00     0.068 H 
ATOM     21  H   2VV d   1      -8.439 -24.921  60.313  0.00  0.00     0.068 H 
ENDBRANCH  16  18
BRANCH  16  22
ATOM     22  C3  2VV d   1      -7.697 -22.351  58.245  0.00  0.00     0.066 C 
ATOM     23  H   2VV d   1      -8.126 -22.015  57.289  0.00  0.00     0.068 H 
ATOM     24  H   2VV d   1      -6.625 -22.560  58.112  0.00  0.00     0.068 H 
ATOM     25  H   2VV d   1      -7.826 -21.563  59.002  0.00  0.00     0.068 H 
ENDBRANCH  16  22
ENDBRANCH  13  16
ENDBRANCH  10  13
ENDBRANCH   8  10
BRANCH   8  26
ATOM     26  C8  2VV d   1     -10.286 -26.604  55.465  0.00  0.00    -0.033 A 
ATOM     27  C9  2VV d   1      -9.830 -26.731  54.154  0.00  0.00    -0.075 A 
ATOM     28  C10 2VV d   1      -9.834 -27.977  53.522  0.00  0.00    -0.082 A 
ATOM     29  H   2VV d   1      -9.470 -25.858  53.622  0.00  0.00     0.084 H 
ATOM     30  C11 2VV d   1     -10.302 -29.103  54.193  0.00  0.00    -0.083 A 
ATOM     31  H   2VV d   1      -9.471 -28.067  52.505  0.00  0.00     0.083 H 
ATOM     32  C12 2VV d   1     -10.779 -28.984  55.497  0.00  0.00    -0.082 A 
ATOM     33  H   2VV d   1     -10.296 -30.070  53.703  0.00  0.00     0.083 H 
ATOM     34  C13 2VV d   1     -10.786 -27.740  56.120  0.00  0.00    -0.075 A 
ATOM     35  H   2VV d   1     -11.143 -29.858  56.024  0.00  0.00     0.083 H 
ATOM     36  H   2VV d   1     -11.183 -27.647  57.124  0.00  0.00     0.084 H 
ENDBRANCH   8  26
ENDBRANCH   1   8
BRANCH   3  37
ATOM     37  N19 2VV d   1     -14.997 -23.905  55.096  0.00  0.00    -0.319 N 
ATOM     38  C20 2VV d   1     -16.205 -23.799  55.711  0.00  0.00     0.277 C 
ATOM     39  O21 2VV d   1     -16.344 -24.107  56.891  0.00  0.00    -0.266 OA
ATOM     40  H   2VV d   1     -14.930 -23.660  54.129  0.00  0.00     0.169 HD
BRANCH  38  41
ATOM     41  C22 2VV d   1     -17.396 -23.382  54.944  0.00  0.00     0.157 A 
ATOM     42  C23 2VV d   1     -18.746 -23.174  55.495  0.00  0.00     0.028 A 
ATOM     43  C24 2VV d   1     -19.309 -23.216  56.776  0.00  0.00    -0.067 A 
ATOM     44  C28 2VV d   1     -19.537 -22.842  54.370  0.00  0.00     0.063 A 
ATOM     45  C25 2VV d   1     -20.639 -22.968  56.950  0.00  0.00    -0.071 A 
ATOM     46  H   2VV d   1     -18.686 -23.446  57.633  0.00  0.00     0.085 H 
ATOM     47  C26 2VV d   1     -21.455 -22.666  55.844  0.00  0.00    -0.021 A 
ATOM     48  H   2VV d   1     -21.069 -23.004  57.944  0.00  0.00     0.084 H 
ATOM     49  C27 2VV d   1     -20.898 -22.571  54.557  0.00  0.00    -0.044 A 
ATOM     50  H   2VV d   1     -21.519 -22.290  53.714  0.00  0.00     0.088 H 
ATOM     51  N29 2VV d   1     -18.686 -22.870  53.290  0.00  0.00    -0.277 N 
ATOM     52  N31 2VV d   1     -17.486 -23.184  53.643  0.00  0.00    -0.168 NA
ATOM     53  H   2VV d   1     -18.971 -22.666  52.322  0.00  0.00     0.189 HD
BRANCH  47  54
ATOM     54  C32 2VV d   1     -22.887 -22.321  56.077  0.00  0.00     0.010 A 
ATOM     55  C33 2VV d   1     -23.665 -22.718  57.124  0.00  0.00     0.034 A 
ATOM     56  N34 2VV d   1     -24.870 -22.136  56.979  0.00  0.00    -0.187 NA
ATOM     57  H   2VV d   1     -23.366 -23.385  57.931  0.00  0.00     0.118 H 
ATOM     58  N36 2VV d   1     -24.858 -21.357  55.822  0.00  0.00    -0.289 N 
ATOM     59  C37 2VV d   1     -23.674 -21.457  55.283  0.00  0.00     0.008 A 
ATOM     60  H   2VV d   1     -25.645 -20.801  55.458  0.00  0.00     0.188 HD
ATOM     61  H   2VV d   1     -23.347 -20.957  54.372  0.00  0.00     0.115 H 
ENDBRANCH  47  54
ENDBRANCH  38  41
ENDBRANCH   3  37
TORSDOF 10
