REMARK  10 active torsions:
REMARK  status: ('A' for Active; 'I' for Inactive)
REMARK    1  A    between atoms: C1_1  and  N2_2 
REMARK    2  A    between atoms: N2_2  and  C3_3 
REMARK    3  A    between atoms: N2_2  and  C4_4 
REMARK    4  A    between atoms: C4_4  and  C5_5 
REMARK    5  A    between atoms: C5_5  and  C6_6 
REMARK    6  A    between atoms: C6_6  and  C8_7 
REMARK    7  A    between atoms: C6_6  and  N14_13 
REMARK    8  A    between atoms: C16_15  and  N19_18 
REMARK       I    between atoms: N19_18  and  C20_19 
REMARK    9  A    between atoms: C20_19  and  C22_21 
REMARK   10  A    between atoms: C26_25  and  C32_30 
ROOT
ATOM      1  N14 2VW d   1      13.212 -28.014 -45.772  0.00  0.00    -0.270 N 
ATOM      2  C15 2VW d   1      14.567 -27.906 -45.771  0.00  0.00     0.026 A 
ATOM      3  C16 2VW d   1      14.947 -27.497 -44.530  0.00  0.00     0.071 A 
ATOM      4  C17 2VW d   1      13.779 -27.371 -43.763  0.00  0.00     0.049 A 
ATOM      5  N18 2VW d   1      12.749 -27.683 -44.492  0.00  0.00    -0.182 NA
ATOM      6  H   2VW d   1      15.229 -28.110 -46.611  0.00  0.00     0.117 H 
ATOM      7  H   2VW d   1      13.741 -27.060 -42.720  0.00  0.00     0.121 H 
ENDROOT
BRANCH   1   8
ATOM      8  C6  2VW d   1      12.385 -28.454 -46.900  0.00  0.00     0.061 C 
ATOM      9  H   2VW d   1      12.723 -27.938 -47.811  0.00  0.00     0.083 H 
BRANCH   8  10
ATOM     10  C5  2VW d   1      10.907 -28.123 -46.653  0.00  0.00    -0.018 C 
ATOM     11  H   2VW d   1      10.339 -29.062 -46.576  0.00  0.00     0.039 H 
ATOM     12  H   2VW d   1      10.820 -27.563 -45.710  0.00  0.00     0.039 H 
BRANCH  10  13
ATOM     13  C4  2VW d   1      10.317 -27.277 -47.790  0.00  0.00     0.085 C 
ATOM     14  H   2VW d   1      11.102 -27.116 -48.544  0.00  0.00     0.076 H 
ATOM     15  H   2VW d   1       9.485 -27.837 -48.241  0.00  0.00     0.076 H 
BRANCH  13  16
ATOM     16  N2  2VW d   1       9.809 -25.957 -47.359  0.00  0.00    -0.079 N 
ATOM     17  H   2VW d   1       9.022 -25.786 -47.965  0.00  0.00     0.278 HD
BRANCH  16  18
ATOM     18  C1  2VW d   1       9.241 -25.862 -45.998  0.00  0.00     0.066 C 
ATOM     19  H   2VW d   1       8.905 -24.831 -45.812  0.00  0.00     0.068 H 
ATOM     20  H   2VW d   1      10.009 -26.136 -45.260  0.00  0.00     0.068 H 
ATOM     21  H   2VW d   1       8.386 -26.548 -45.909  0.00  0.00     0.068 H 
ENDBRANCH  16  18
BRANCH  16  22
ATOM     22  C3  2VW d   1      10.760 -24.875 -47.652  0.00  0.00     0.066 C 
ATOM     23  H   2VW d   1      11.149 -24.996 -48.674  0.00  0.00     0.068 H 
ATOM     24  H   2VW d   1      11.593 -24.915 -46.935  0.00  0.00     0.068 H 
ATOM     25  H   2VW d   1      10.249 -23.905 -47.567  0.00  0.00     0.068 H 
ENDBRANCH  16  22
ENDBRANCH  13  16
ENDBRANCH  10  13
ENDBRANCH   8  10
BRANCH   8  26
ATOM     26  C8  2VW d   1      12.519 -29.947 -47.093  0.00  0.00    -0.033 A 
ATOM     27  C9  2VW d   1      12.680 -30.439 -48.386  0.00  0.00    -0.075 A 
ATOM     28  C10 2VW d   1      12.774 -31.810 -48.601  0.00  0.00    -0.082 A 
ATOM     29  H   2VW d   1      12.732 -29.754 -49.224  0.00  0.00     0.084 H 
ATOM     30  C11 2VW d   1      12.699 -32.682 -47.518  0.00  0.00    -0.083 A 
ATOM     31  H   2VW d   1      12.905 -32.197 -49.605  0.00  0.00     0.083 H 
ATOM     32  C12 2VW d   1      12.536 -32.203 -46.222  0.00  0.00    -0.082 A 
ATOM     33  H   2VW d   1      12.769 -33.750 -47.687  0.00  0.00     0.083 H 
ATOM     34  C13 2VW d   1      12.440 -30.833 -46.010  0.00  0.00    -0.075 A 
ATOM     35  H   2VW d   1      12.484 -32.891 -45.386  0.00  0.00     0.083 H 
ATOM     36  H   2VW d   1      12.304 -30.449 -45.005  0.00  0.00     0.084 H 
ENDBRANCH   8  26
ENDBRANCH   1   8
BRANCH   3  37
ATOM     37  N19 2VW d   1      16.245 -27.222 -44.039  0.00  0.00    -0.319 N 
ATOM     38  C20 2VW d   1      17.340 -26.893 -44.772  0.00  0.00     0.277 C 
ATOM     39  O21 2VW d   1      17.319 -26.822 -45.988  0.00  0.00    -0.266 OA
ATOM     40  H   2VW d   1      16.369 -27.276 -43.048  0.00  0.00     0.169 HD
BRANCH  38  41
ATOM     41  C22 2VW d   1      18.600 -26.614 -44.057  0.00  0.00     0.157 A 
ATOM     42  C23 2VW d   1      19.929 -26.375 -44.643  0.00  0.00     0.028 A 
ATOM     43  C24 2VW d   1      20.464 -26.337 -45.942  0.00  0.00    -0.067 A 
ATOM     44  C28 2VW d   1      20.764 -26.138 -43.518  0.00  0.00     0.063 A 
ATOM     45  C25 2VW d   1      21.799 -26.060 -46.120  0.00  0.00    -0.071 A 
ATOM     46  H   2VW d   1      19.828 -26.525 -46.799  0.00  0.00     0.085 H 
ATOM     47  C26 2VW d   1      22.647 -25.829 -45.011  0.00  0.00    -0.021 A 
ATOM     48  H   2VW d   1      22.207 -26.018 -47.123  0.00  0.00     0.084 H 
ATOM     49  C27 2VW d   1      22.125 -25.876 -43.712  0.00  0.00    -0.044 A 
ATOM     50  H   2VW d   1      22.773 -25.710 -42.859  0.00  0.00     0.088 H 
ATOM     51  N29 2VW d   1      19.956 -26.241 -42.418  0.00  0.00    -0.277 N 
ATOM     52  N31 2VW d   1      18.745 -26.497 -42.752  0.00  0.00    -0.168 NA
ATOM     53  H   2VW d   1      20.279 -26.127 -41.447  0.00  0.00     0.189 HD
BRANCH  47  54
ATOM     54  C32 2VW d   1      24.096 -25.541 -45.218  0.00  0.00     0.010 A 
ATOM     55  C33 2VW d   1      24.772 -25.550 -46.407  0.00  0.00     0.008 A 
ATOM     56  N34 2VW d   1      26.058 -25.231 -46.160  0.00  0.00    -0.289 N 
ATOM     57  H   2VW d   1      24.345 -25.776 -47.383  0.00  0.00     0.115 H 
ATOM     58  N36 2VW d   1      26.197 -25.015 -44.786  0.00  0.00    -0.187 NA
ATOM     59  H   2VW d   1      26.808 -25.159 -46.862  0.00  0.00     0.188 HD
ATOM     60  C37 2VW d   1      25.031 -25.192 -44.221  0.00  0.00     0.034 A 
ATOM     61  H   2VW d   1      24.817 -25.087 -43.158  0.00  0.00     0.118 H 
ENDBRANCH  47  54
ENDBRANCH  38  41
ENDBRANCH   3  37
TORSDOF 10
