REMARK  11 active torsions:
REMARK  status: ('A' for Active; 'I' for Inactive)
REMARK    1  A    between atoms: C3_3  and  C7_7 
REMARK    2  A    between atoms: C7_7  and  C8_8 
REMARK    3  A    between atoms: C7_7  and  N13_13 
REMARK    4  A    between atoms: C8_8  and  C9_9 
REMARK    5  A    between atoms: C9_9  and  N10_10 
REMARK    6  A    between atoms: N10_10  and  C11_11 
REMARK    7  A    between atoms: N10_10  and  C12_12 
REMARK    8  A    between atoms: C16_16  and  N18_18 
REMARK       I    between atoms: N18_18  and  C19_19 
REMARK    9  A    between atoms: C19_19  and  C21_21 
REMARK   10  A    between atoms: C27_27  and  C30_30 
REMARK   11  A    between atoms: C27_27  and  C31_31 
ROOT
ATOM      1  N13 2W6 d   1     -15.214  21.005  29.176  0.00  0.00    -0.270 N 
ATOM      2  N14 2W6 d   1     -16.498  20.574  29.287  0.00  0.00    -0.182 NA
ATOM      3  C15 2W6 d   1     -16.482  19.240  29.086  0.00  0.00     0.049 A 
ATOM      4  C16 2W6 d   1     -15.163  18.819  28.882  0.00  0.00     0.071 A 
ATOM      5  C17 2W6 d   1     -14.410  19.964  28.940  0.00  0.00     0.026 A 
ATOM      6  H   2W6 d   1     -17.358  18.593  29.083  0.00  0.00     0.121 H 
ATOM      7  H   2W6 d   1     -13.330  20.016  28.814  0.00  0.00     0.117 H 
ENDROOT
BRANCH   1   8
ATOM      8  C7  2W6 d   1     -14.836  22.438  29.384  0.00  0.00     0.061 C 
ATOM      9  H   2W6 d   1     -13.960  22.624  28.745  0.00  0.00     0.083 H 
BRANCH   8  10
ATOM     10  C3  2W6 d   1     -14.385  22.594  30.804  0.00  0.00    -0.033 A 
ATOM     11  C2  2W6 d   1     -15.053  21.985  31.842  0.00  0.00    -0.075 A 
ATOM     12  C1  2W6 d   1     -14.612  22.141  33.169  0.00  0.00    -0.082 A 
ATOM     13  H   2W6 d   1     -15.928  21.379  31.635  0.00  0.00     0.084 H 
ATOM     14  C6  2W6 d   1     -13.464  22.859  33.432  0.00  0.00    -0.083 A 
ATOM     15  H   2W6 d   1     -15.174  21.698  33.983  0.00  0.00     0.083 H 
ATOM     16  C5  2W6 d   1     -12.743  23.428  32.377  0.00  0.00    -0.082 A 
ATOM     17  H   2W6 d   1     -13.122  22.982  34.453  0.00  0.00     0.083 H 
ATOM     18  C4  2W6 d   1     -13.203  23.280  31.065  0.00  0.00    -0.075 A 
ATOM     19  H   2W6 d   1     -11.832  23.981  32.576  0.00  0.00     0.083 H 
ATOM     20  H   2W6 d   1     -12.634  23.703  30.245  0.00  0.00     0.084 H 
ENDBRANCH   8  10
BRANCH   8  21
ATOM     21  C8  2W6 d   1     -15.875  23.484  28.966  0.00  0.00    -0.018 C 
ATOM     22  H   2W6 d   1     -15.530  24.484  29.267  0.00  0.00     0.039 H 
ATOM     23  H   2W6 d   1     -16.834  23.264  29.457  0.00  0.00     0.039 H 
BRANCH  21  24
ATOM     24  C9  2W6 d   1     -16.061  23.444  27.426  0.00  0.00     0.085 C 
ATOM     25  H   2W6 d   1     -16.326  22.420  27.125  0.00  0.00     0.076 H 
ATOM     26  H   2W6 d   1     -15.116  23.735  26.945  0.00  0.00     0.076 H 
BRANCH  24  27
ATOM     27  N10 2W6 d   1     -17.126  24.363  26.983  0.00  0.00    -0.079 N 
ATOM     28  H   2W6 d   1     -17.955  24.183  27.527  0.00  0.00     0.278 HD
BRANCH  27  29
ATOM     29  C11 2W6 d   1     -17.449  24.167  25.546  0.00  0.00     0.066 C 
ATOM     30  H   2W6 d   1     -18.245  24.867  25.250  0.00  0.00     0.068 H 
ATOM     31  H   2W6 d   1     -17.790  23.134  25.384  0.00  0.00     0.068 H 
ATOM     32  H   2W6 d   1     -16.551  24.355  24.939  0.00  0.00     0.068 H 
ENDBRANCH  27  29
BRANCH  27  33
ATOM     33  C12 2W6 d   1     -16.696  25.759  27.208  0.00  0.00     0.066 C 
ATOM     34  H   2W6 d   1     -16.457  25.902  28.272  0.00  0.00     0.068 H 
ATOM     35  H   2W6 d   1     -17.507  26.444  26.919  0.00  0.00     0.068 H 
ATOM     36  H   2W6 d   1     -15.804  25.970  26.601  0.00  0.00     0.068 H 
ENDBRANCH  27  33
ENDBRANCH  24  27
ENDBRANCH  21  24
ENDBRANCH   8  21
ENDBRANCH   1   8
BRANCH   4  37
ATOM     37  N18 2W6 d   1     -14.646  17.558  28.634  0.00  0.00    -0.319 N 
ATOM     38  C19 2W6 d   1     -15.298  16.411  28.655  0.00  0.00     0.274 C 
ATOM     39  O20 2W6 d   1     -16.507  16.314  28.832  0.00  0.00    -0.266 OA
ATOM     40  H   2W6 d   1     -13.671  17.512  28.415  0.00  0.00     0.169 HD
BRANCH  38  41
ATOM     41  C21 2W6 d   1     -14.489  15.167  28.537  0.00  0.00     0.126 A 
ATOM     42  C22 2W6 d   1     -15.058  13.840  28.395  0.00  0.00     0.002 A 
ATOM     43  C23 2W6 d   1     -13.930  12.945  28.329  0.00  0.00     0.064 A 
ATOM     44  C29 2W6 d   1     -16.482  13.372  28.245  0.00  0.00    -0.036 C 
ATOM     45  N24 2W6 d   1     -12.843  13.712  28.478  0.00  0.00    -0.178 NA
ATOM     46  C26 2W6 d   1     -14.050  11.470  28.163  0.00  0.00    -0.016 C 
ATOM     47  N25 2W6 d   1     -13.155  15.053  28.606  0.00  0.00    -0.272 N 
ATOM     48  H   2W6 d   1     -12.484  15.824  28.732  0.00  0.00     0.189 HD
ATOM     49  C27 2W6 d   1     -15.473  11.007  28.432  0.00  0.00    -0.042 C 
ATOM     50  H   2W6 d   1     -13.370  10.972  28.869  0.00  0.00     0.043 H 
ATOM     51  H   2W6 d   1     -13.772  11.200  27.134  0.00  0.00     0.043 H 
ATOM     52  C28 2W6 d   1     -16.515  11.929  27.781  0.00  0.00    -0.055 C 
ATOM     53  H   2W6 d   1     -17.513  11.524  28.002  0.00  0.00     0.034 H 
ATOM     54  H   2W6 d   1     -16.347  11.918  26.694  0.00  0.00     0.034 H 
ATOM     55  H   2W6 d   1     -16.995  14.003  27.505  0.00  0.00     0.040 H 
ATOM     56  H   2W6 d   1     -16.995  13.453  29.215  0.00  0.00     0.040 H 
BRANCH  49  57
ATOM     57  C30 2W6 d   1     -15.620   9.600  27.890  0.00  0.00    -0.069 C 
ATOM     58  H   2W6 d   1     -14.871   8.946  28.360  0.00  0.00     0.028 H 
ATOM     59  H   2W6 d   1     -15.467   9.609  26.801  0.00  0.00     0.028 H 
ATOM     60  H   2W6 d   1     -16.629   9.224  28.115  0.00  0.00     0.028 H 
ENDBRANCH  49  57
BRANCH  49  61
ATOM     61  C31 2W6 d   1     -15.760  10.977  29.942  0.00  0.00    -0.069 C 
ATOM     62  H   2W6 d   1     -15.658  11.992  30.355  0.00  0.00     0.028 H 
ATOM     63  H   2W6 d   1     -15.044  10.306  30.438  0.00  0.00     0.028 H 
ATOM     64  H   2W6 d   1     -16.784  10.613  30.113  0.00  0.00     0.028 H 
ENDBRANCH  49  61
ENDBRANCH  38  41
ENDBRANCH   4  37
TORSDOF 11
