REMARK WARNING: 32 MAX_TORS EXCEEDED!!!
REMARK  42 active torsions:
REMARK  status: ('A' for Active; 'I' for Inactive)
REMARK    1  A    between atoms: N_1  and  CA_2 
REMARK    2  A    between atoms: CA_2  and  C_3 
REMARK    3  A    between atoms: CA_2  and  CB_5 
REMARK       I    between atoms: C_3  and  N_11 
REMARK    4  A    between atoms: CB_5  and  CG_6 
REMARK    5  A    between atoms: CA_12  and  C_13 
REMARK       I    between atoms: C_13  and  N_18 
REMARK    6  A    between atoms: N_18  and  CA_19 
REMARK    7  A    between atoms: CA_19  and  C_20 
REMARK    8  A    between atoms: CA_19  and  CB_22 
REMARK       I    between atoms: C_20  and  N_25 
REMARK    9  A    between atoms: CB_22  and  CG1_23 
REMARK   10  A    between atoms: CB_22  and  CG2_24 
REMARK   11  A    between atoms: N_25  and  CA_26 
REMARK   12  A    between atoms: CA_26  and  C_27 
REMARK       I    between atoms: C_27  and  N_29 
REMARK   13  A    between atoms: N_29  and  CA_30 
REMARK   14  A    between atoms: CA_30  and  C_31 
REMARK   15  A    between atoms: CA_30  and  CB_33 
REMARK       I    between atoms: C_31  and  N_37 
REMARK   16  A    between atoms: CB_33  and  CG_34 
REMARK   17  A    between atoms: N_37  and  CA_38 
REMARK   18  A    between atoms: CA_38  and  C_39 
REMARK   19  A    between atoms: CA_38  and  CB_41 
REMARK       I    between atoms: C_39  and  N_42 
REMARK   20  A    between atoms: N_42  and  CA_43 
REMARK   21  A    between atoms: CA_43  and  C_44 
REMARK   22  A    between atoms: CA_43  and  CB_46 
REMARK       I    between atoms: C_44  and  N_50 
REMARK   23  A    between atoms: CB_46  and  CG_47 
REMARK   24  A    between atoms: N_50  and  CA_51 
REMARK   25  A    between atoms: CA_51  and  C_52 
REMARK   26  A    between atoms: CA_51  and  CB_54 
REMARK       I    between atoms: C_52  and  N_62 
REMARK   27  A    between atoms: CB_54  and  CG_55 
REMARK   28  A    between atoms: CZ_60  and  OH_61 
REMARK   29  A    between atoms: N_62  and  CA_63 
REMARK   30  A    between atoms: CA_63  and  C_64 
REMARK   31  A    between atoms: CA_63  and  CB_66 
REMARK       I    between atoms: C_64  and  N_73 
REMARK   32  A    between atoms: CB_66  and  CG_67 
REMARK   33  A    between atoms: N_73  and  CA_74 
REMARK   34  A    between atoms: CA_74  and  C_75 
REMARK   35  A    between atoms: CA_74  and  CB_77 
REMARK       I    between atoms: C_75  and  N_82 
REMARK   36  A    between atoms: CB_77  and  CG_78 
REMARK   37  A    between atoms: CG_78  and  CD_79 
REMARK   38  A    between atoms: N_82  and  CA_83 
REMARK   39  A    between atoms: CA_83  and  C_84 
REMARK   40  A    between atoms: CA_83  and  CB_86 
REMARK   41  A    between atoms: CB_86  and  CG_87 
REMARK   42  A    between atoms: CZ_92  and  OH_93 
ROOT
ATOM      1  CA  ASP d   1      -3.923 -11.852 -41.067  0.00  0.00     0.098 C 
ATOM      2  H   ASP d   1      -4.445 -10.889 -40.966  0.00  0.00     0.088 H 
ENDROOT
BRANCH   1   3
ATOM      3  N   ASP d   1      -2.674 -11.730 -40.313  0.00  0.00    -0.346 N 
ATOM      4  C   ALA d   1      -2.590 -10.938 -39.247  0.00  0.00     0.240 C 
ATOM      5  O   ALA d   1      -3.568 -10.343 -38.784  0.00  0.00    -0.271 OA
ATOM      6  H   ASP d   1      -1.871 -12.250 -40.604  0.00  0.00     0.163 HD
BRANCH   4   7
ATOM      7  CA  ALA d   1      -1.216 -10.817 -38.576  0.00  0.00     0.086 C 
ATOM      8  H   ALA d   1      -1.385 -10.679 -37.498  0.00  0.00     0.086 H 
BRANCH   7   9
ATOM      9  N   ALA d   1      -0.406 -12.008 -38.748  0.00  0.00    -0.346 N 
ATOM     10  C   ASP d   1      -0.858 -13.187 -38.347  0.00  0.00     0.241 C 
ATOM     11  O   ASP d   1      -2.007 -13.366 -37.928  0.00  0.00    -0.271 OA
ATOM     12  H   ALA d   1       0.497 -11.939 -39.171  0.00  0.00     0.163 HD
BRANCH  10  13
ATOM     13  CA  ASP d   1       0.128 -14.337 -38.424  0.00  0.00     0.098 C 
ATOM     14  H   ASP d   1      -0.193 -15.006 -39.236  0.00  0.00     0.088 H 
BRANCH  13  15
ATOM     15  N   ASP d   1       1.489 -13.882 -38.738  0.00  0.00    -0.346 N 
ATOM     16  C   GLY d   1       2.049 -14.047 -39.941  0.00  0.00     0.236 C 
ATOM     17  O   GLY d   1       1.447 -14.494 -40.917  0.00  0.00    -0.272 OA
ATOM     18  H   ASP d   1       2.019 -13.429 -38.021  0.00  0.00     0.163 HD
BRANCH  16  19
ATOM     19  CA  GLY d   1       3.509 -13.653 -40.065  0.00  0.00     0.069 C 
ATOM     20  H   GLY d   1       3.810 -13.714 -41.121  0.00  0.00     0.078 H 
ATOM     21  H   GLY d   1       3.635 -12.621 -39.706  0.00  0.00     0.078 H 
BRANCH  19  22
ATOM     22  N   GLY d   1       4.350 -14.536 -39.279  0.00  0.00    -0.351 N 
ATOM     23  C   VAL d   1       4.723 -14.206 -38.046  0.00  0.00     0.241 C 
ATOM     24  O   VAL d   1       4.428 -13.125 -37.535  0.00  0.00    -0.271 OA
ATOM     25  H   GLY d   1       4.653 -15.405 -39.670  0.00  0.00     0.163 HD
BRANCH  23  26
ATOM     26  CA  VAL d   1       5.596 -15.218 -37.293  0.00  0.00     0.092 C 
ATOM     27  H   VAL d   1       6.169 -15.796 -38.033  0.00  0.00     0.088 H 
BRANCH  26  28
ATOM     28  N   VAL d   1       6.535 -14.487 -36.459  0.00  0.00    -0.346 N 
ATOM     29  C   PRO d   1       7.605 -13.926 -37.000  0.00  0.00     0.241 C 
ATOM     30  O   PRO d   1       7.865 -14.001 -38.206  0.00  0.00    -0.271 OA
ATOM     31  H   VAL d   1       6.373 -14.408 -35.475  0.00  0.00     0.163 HD
BRANCH  29  32
ATOM     32  CA  PRO d   1       8.501 -13.144 -36.052  0.00  0.00     0.091 C 
ATOM     33  N   PRO d   1       9.809 -12.856 -36.649  0.00  0.00    -0.337 N 
ATOM     34  C   HIS d   1      10.730 -13.836 -36.674  0.00  0.00     0.251 C 
ATOM     35  CD  PRO d   1       9.941 -11.431 -37.005  0.00  0.00    -0.001 C 
ATOM     36  O   HIS d   1      10.485 -14.981 -36.282  0.00  0.00    -0.271 OA
ATOM     37  CG  PRO d   1       8.509 -10.929 -36.930  0.00  0.00    -0.048 C 
ATOM     38  H   PRO d   1      10.349 -11.313 -38.020  0.00  0.00     0.064 H 
ATOM     39  H   PRO d   1      10.584 -10.902 -36.287  0.00  0.00     0.064 H 
ATOM     40  CB  PRO d   1       7.905 -11.743 -35.839  0.00  0.00    -0.036 C 
ATOM     41  H   PRO d   1       8.482  -9.858 -36.681  0.00  0.00     0.035 H 
ATOM     42  H   PRO d   1       7.984 -11.098 -37.882  0.00  0.00     0.035 H 
ATOM     43  H   PRO d   1       8.184 -11.344 -34.852  0.00  0.00     0.036 H 
ATOM     44  H   PRO d   1       6.809 -11.766 -35.928  0.00  0.00     0.036 H 
ATOM     45  H   PRO d   1       8.609 -13.689 -35.103  0.00  0.00     0.087 H 
BRANCH  34  46
ATOM     46  CA  HIS d   1      12.114 -13.494 -37.217  0.00  0.00     0.181 C 
ATOM     47  H   HIS d   1      12.247 -12.402 -37.234  0.00  0.00     0.099 H 
BRANCH  46  48
ATOM     48  N   HIS d   1      13.126 -14.107 -36.350  0.00  0.00    -0.066 N 
ATOM     49  H   HIS d   1      14.046 -13.887 -36.700  0.00  0.00     0.275 HD
ATOM     50  H   HIS d   1      13.000 -15.107 -36.341  0.00  0.00     0.275 HD
ATOM     51  H   HIS d   1      13.028 -13.748 -35.413  0.00  0.00     0.275 HD
ENDBRANCH  46  48
BRANCH  46  52
ATOM     52  CB  HIS d   1      12.268 -14.056 -38.637  0.00  0.00     0.011 C 
ATOM     53  H   HIS d   1      11.894 -15.090 -38.640  0.00  0.00     0.046 H 
ATOM     54  H   HIS d   1      13.338 -14.052 -38.894  0.00  0.00     0.046 H 
BRANCH  52  55
ATOM     55  CG  HIS d   1      11.530 -13.288 -39.693  0.00  0.00     0.053 A 
ATOM     56  ND1 HIS d   1      10.154 -13.229 -39.750  0.00  0.00    -0.247 NA
ATOM     57  CE1 HIS d   1       9.788 -12.517 -40.802  0.00  0.00     0.064 A 
ATOM     58  NE2 HIS d   1      10.878 -12.119 -41.435  0.00  0.00    -0.359 N 
ATOM     59  H   HIS d   1       8.763 -12.296 -41.097  0.00  0.00     0.143 H 
ATOM     60  CD2 HIS d   1      11.981 -12.594 -40.767  0.00  0.00     0.002 A 
ATOM     61  H   HIS d   1      10.898 -11.546 -42.291  0.00  0.00     0.166 HD
ATOM     62  H   HIS d   1      13.022 -12.442 -41.048  0.00  0.00     0.114 H 
ENDBRANCH  52  55
ENDBRANCH  46  52
ENDBRANCH  34  46
ENDBRANCH  29  32
ENDBRANCH  26  28
BRANCH  26  63
ATOM     63  CB  VAL d   1       4.752 -16.220 -36.469  0.00  0.00    -0.033 C 
ATOM     64  H   VAL d   1       5.441 -16.846 -35.883  0.00  0.00     0.042 H 
BRANCH  63  65
ATOM     65  CG1 VAL d   1       3.826 -15.486 -35.488  0.00  0.00    -0.071 C 
ATOM     66  H   VAL d   1       3.240 -16.221 -34.917  0.00  0.00     0.028 H 
ATOM     67  H   VAL d   1       3.144 -14.829 -36.049  0.00  0.00     0.028 H 
ATOM     68  H   VAL d   1       4.430 -14.882 -34.795  0.00  0.00     0.028 H 
ENDBRANCH  63  65
BRANCH  63  69
ATOM     69  CG2 VAL d   1       3.949 -17.136 -37.397  0.00  0.00    -0.071 C 
ATOM     70  H   VAL d   1       4.634 -17.649 -38.088  0.00  0.00     0.028 H 
ATOM     71  H   VAL d   1       3.229 -16.535 -37.972  0.00  0.00     0.028 H 
ATOM     72  H   VAL d   1       3.407 -17.882 -36.797  0.00  0.00     0.028 H 
ENDBRANCH  63  69
ENDBRANCH  26  63
ENDBRANCH  23  26
ENDBRANCH  19  22
ENDBRANCH  16  19
ENDBRANCH  13  15
BRANCH  13  73
ATOM     73  CB  ASP d   1       0.082 -15.132 -37.100  0.00  0.00     0.043 C 
ATOM     74  H   ASP d   1       0.759 -15.995 -37.187  0.00  0.00     0.052 H 
ATOM     75  H   ASP d   1      -0.947 -15.487 -36.941  0.00  0.00     0.052 H 
BRANCH  73  76
ATOM     76  CG  ASP d   1       0.503 -14.304 -35.886  0.00  0.00     0.175 C 
ATOM     77  OD1 ASP d   1       0.535 -14.880 -34.770  0.00  0.00    -0.648 OA
ATOM     78  OD2 ASP d   1       0.809 -13.093 -36.037  0.00  0.00    -0.648 OA
ENDBRANCH  73  76
ENDBRANCH  13  73
ENDBRANCH  10  13
ENDBRANCH   7   9
BRANCH   7  79
ATOM     79  CB  ALA d   1      -0.464  -9.603 -39.094  0.00  0.00    -0.049 C 
ATOM     80  H   ALA d   1      -1.083  -8.704 -38.961  0.00  0.00     0.030 H 
ATOM     81  H   ALA d   1      -0.240  -9.739 -40.162  0.00  0.00     0.030 H 
ATOM     82  H   ALA d   1       0.476  -9.487 -38.534  0.00  0.00     0.030 H 
ENDBRANCH   7  79
ENDBRANCH   4   7
ENDBRANCH   1   3
BRANCH   1  83
ATOM     83  C   ASP d   1      -4.884 -12.930 -40.545  0.00  0.00     0.241 C 
ATOM     84  O   ASP d   1      -5.960 -13.123 -41.115  0.00  0.00    -0.271 OA
ATOM     85  N   TYR d   1      -4.517 -13.622 -39.467  0.00  0.00    -0.346 N 
ATOM     86  H   TYR d   1      -3.637 -13.431 -39.031  0.00  0.00     0.163 HD
BRANCH  85  87
ATOM     87  CA  TYR d   1      -5.395 -14.664 -38.913  0.00  0.00     0.093 C 
ATOM     88  H   TYR d   1      -6.415 -14.390 -39.221  0.00  0.00     0.088 H 
BRANCH  87  89
ATOM     89  C   TYR d   1      -5.429 -14.769 -37.380  0.00  0.00     0.241 C 
ATOM     90  O   TYR d   1      -6.196 -15.562 -36.829  0.00  0.00    -0.271 OA
ATOM     91  N   PHE d   1      -4.615 -13.969 -36.696  0.00  0.00    -0.346 N 
ATOM     92  H   PHE d   1      -4.089 -13.267 -37.176  0.00  0.00     0.163 HD
BRANCH  91  93
ATOM     93  CA  PHE d   1      -4.484 -14.110 -35.246  0.00  0.00     0.093 C 
ATOM     94  H   PHE d   1      -4.824 -15.122 -34.982  0.00  0.00     0.088 H 
BRANCH  93  95
ATOM     95  C   PHE d   1      -5.358 -13.118 -34.475  0.00  0.00     0.241 C 
ATOM     96  O   PHE d   1      -4.958 -12.647 -33.409  0.00  0.00    -0.271 OA
ATOM     97  N   GLU d   1      -6.538 -12.798 -35.002  0.00  0.00    -0.346 N 
ATOM     98  H   GLU d   1      -6.802 -13.173 -35.891  0.00  0.00     0.163 HD
BRANCH  97  99
ATOM     99  CA  GLU d   1      -7.453 -11.901 -34.290  0.00  0.00     0.090 C 
ATOM    100  H   GLU d   1      -6.868 -11.081 -33.847  0.00  0.00     0.087 H 
BRANCH  99 101
ATOM    101  C   GLU d   1      -8.145 -12.670 -33.175  0.00  0.00     0.241 C 
ATOM    102  O   GLU d   1      -8.710 -13.736 -33.418  0.00  0.00    -0.271 OA
ATOM    103  N   TYR d   1      -8.080 -12.154 -31.949  0.00  0.00    -0.344 N 
ATOM    104  H   TYR d   1      -7.620 -11.277 -31.807  0.00  0.00     0.163 HD
BRANCH 103 105
ATOM    105  CA  TYR d   1      -8.672 -12.851 -30.805  0.00  0.00     0.100 C 
ATOM    106  H   TYR d   1      -8.355 -13.903 -30.846  0.00  0.00     0.090 H 
BRANCH 105 107
ATOM    107  C   TYR d   1     -10.192 -12.801 -30.849  0.00  0.00     0.197 C 
ATOM    108  O   TYR d   1     -10.856 -13.501 -30.095  0.00  0.00    -0.646 OA
ATOM    109  OXT TYR d   1     -10.781 -12.063 -31.639  0.00  0.00    -0.646 OA
ENDBRANCH 105 107
BRANCH 105 110
ATOM    110  CB  TYR d   1      -8.201 -12.252 -29.478  0.00  0.00    -0.013 C 
ATOM    111  H   TYR d   1      -8.773 -12.730 -28.669  0.00  0.00     0.043 H 
ATOM    112  H   TYR d   1      -8.421 -11.174 -29.495  0.00  0.00     0.043 H 
BRANCH 110 113
ATOM    113  CG  TYR d   1      -6.725 -12.423 -29.172  0.00  0.00    -0.056 A 
ATOM    114  CD1 TYR d   1      -5.752 -11.910 -30.022  0.00  0.00    -0.074 A 
ATOM    115  CE1 TYR d   1      -4.408 -12.045 -29.739  0.00  0.00    -0.051 A 
ATOM    116  H   TYR d   1      -6.055 -11.393 -30.925  0.00  0.00     0.084 H 
ATOM    117  CZ  TYR d   1      -4.013 -12.691 -28.587  0.00  0.00     0.065 A 
ATOM    118  H   TYR d   1      -3.666 -11.645 -30.420  0.00  0.00     0.087 H 
ATOM    119  CE2 TYR d   1      -4.949 -13.210 -27.717  0.00  0.00    -0.051 A 
ATOM    120  CD2 TYR d   1      -6.309 -13.069 -28.014  0.00  0.00    -0.074 A 
ATOM    121  H   TYR d   1      -4.635 -13.721 -26.814  0.00  0.00     0.087 H 
ATOM    122  H   TYR d   1      -7.049 -13.470 -27.331  0.00  0.00     0.084 H 
BRANCH 117 123
ATOM    123  OH  TYR d   1      -2.675 -12.828 -28.306  0.00  0.00    -0.361 OA
ATOM    124  H   TYR d   1      -2.457 -13.751 -28.252  0.00  0.00     0.217 HD
ENDBRANCH 117 123
ENDBRANCH 110 113
ENDBRANCH 105 110
ENDBRANCH 103 105
ENDBRANCH  99 101
BRANCH  99 125
ATOM    125  CB  GLU d   1      -8.491 -11.299 -35.236  0.00  0.00    -0.029 C 
ATOM    126  H   GLU d   1      -9.079 -12.117 -35.678  0.00  0.00     0.037 H 
ATOM    127  H   GLU d   1      -7.964 -10.754 -36.033  0.00  0.00     0.037 H 
BRANCH 125 128
ATOM    128  CG  GLU d   1      -9.445 -10.338 -34.542  0.00  0.00     0.018 C 
ATOM    129  H   GLU d   1      -8.849  -9.612 -33.969  0.00  0.00     0.049 H 
ATOM    130  H   GLU d   1     -10.079 -10.916 -33.854  0.00  0.00     0.049 H 
BRANCH 128 131
ATOM    131  CD  GLU d   1     -10.355  -9.565 -35.502  0.00  0.00     0.172 C 
ATOM    132  OE1 GLU d   1     -11.537  -9.361 -35.155  0.00  0.00    -0.648 OA
ATOM    133  OE2 GLU d   1      -9.891  -9.140 -36.582  0.00  0.00    -0.648 OA
ENDBRANCH 128 131
ENDBRANCH 125 128
ENDBRANCH  99 125
ENDBRANCH  97  99
ENDBRANCH  93  95
BRANCH  93 134
ATOM    134  CB  PHE d   1      -3.012 -13.982 -34.816  0.00  0.00    -0.014 C 
ATOM    135  H   PHE d   1      -2.789 -12.915 -34.664  0.00  0.00     0.043 H 
ATOM    136  H   PHE d   1      -2.381 -14.377 -35.626  0.00  0.00     0.043 H 
BRANCH 134 137
ATOM    137  CG  PHE d   1      -2.665 -14.726 -33.538  0.00  0.00    -0.056 A 
ATOM    138  CD1 PHE d   1      -2.338 -14.032 -32.374  0.00  0.00    -0.077 A 
ATOM    139  CE1 PHE d   1      -2.007 -14.700 -31.206  0.00  0.00    -0.082 A 
ATOM    140  H   PHE d   1      -2.343 -12.948 -32.383  0.00  0.00     0.084 H 
ATOM    141  CZ  PHE d   1      -1.979 -16.097 -31.186  0.00  0.00    -0.083 A 
ATOM    142  H   PHE d   1      -1.770 -14.140 -30.309  0.00  0.00     0.083 H 
ATOM    143  CE2 PHE d   1      -2.301 -16.800 -32.334  0.00  0.00    -0.082 A 
ATOM    144  H   PHE d   1      -1.708 -16.625 -30.279  0.00  0.00     0.083 H 
ATOM    145  CD2 PHE d   1      -2.637 -16.113 -33.508  0.00  0.00    -0.077 A 
ATOM    146  H   PHE d   1      -2.293 -17.884 -32.325  0.00  0.00     0.083 H 
ATOM    147  H   PHE d   1      -2.878 -16.672 -34.405  0.00  0.00     0.084 H 
ENDBRANCH 134 137
ENDBRANCH  93 134
ENDBRANCH  91  93
ENDBRANCH  87  89
BRANCH  87 148
ATOM    148  CB  TYR d   1      -5.097 -16.044 -39.529  0.00  0.00    -0.014 C 
ATOM    149  H   TYR d   1      -5.283 -15.977 -40.611  0.00  0.00     0.043 H 
ATOM    150  H   TYR d   1      -5.792 -16.770 -39.081  0.00  0.00     0.043 H 
BRANCH 148 151
ATOM    151  CG  TYR d   1      -3.688 -16.566 -39.331  0.00  0.00    -0.056 A 
ATOM    152  CD1 TYR d   1      -2.783 -16.595 -40.393  0.00  0.00    -0.074 A 
ATOM    153  CE1 TYR d   1      -1.494 -17.080 -40.222  0.00  0.00    -0.051 A 
ATOM    154  H   TYR d   1      -3.092 -16.233 -41.367  0.00  0.00     0.084 H 
ATOM    155  CZ  TYR d   1      -1.093 -17.546 -38.982  0.00  0.00     0.065 A 
ATOM    156  H   TYR d   1      -0.803 -17.094 -41.057  0.00  0.00     0.087 H 
ATOM    157  CE2 TYR d   1      -1.972 -17.535 -37.913  0.00  0.00    -0.051 A 
ATOM    158  CD2 TYR d   1      -3.263 -17.048 -38.090  0.00  0.00    -0.074 A 
ATOM    159  H   TYR d   1      -1.656 -17.904 -36.944  0.00  0.00     0.087 H 
ATOM    160  H   TYR d   1      -3.950 -17.042 -37.252  0.00  0.00     0.084 H 
BRANCH 155 161
ATOM    161  OH  TYR d   1       0.190 -18.025 -38.822  0.00  0.00    -0.361 OA
ATOM    162  H   TYR d   1       0.656 -17.961 -39.648  0.00  0.00     0.217 HD
ENDBRANCH 155 161
ENDBRANCH 148 151
ENDBRANCH  87 148
ENDBRANCH  85  87
ENDBRANCH   1  83
BRANCH   1 163
ATOM    163  CB  ASP d   1      -3.643 -12.067 -42.560  0.00  0.00     0.043 C 
ATOM    164  H   ASP d   1      -4.571 -12.401 -43.047  0.00  0.00     0.052 H 
ATOM    165  H   ASP d   1      -2.873 -12.845 -42.665  0.00  0.00     0.052 H 
BRANCH 163 166
ATOM    166  CG  ASP d   1      -3.155 -10.802 -43.257  0.00  0.00     0.175 C 
ATOM    167  OD1 ASP d   1      -3.445  -9.687 -42.764  0.00  0.00    -0.648 OA
ATOM    168  OD2 ASP d   1      -2.486 -10.923 -44.305  0.00  0.00    -0.648 OA
ENDBRANCH 163 166
ENDBRANCH   1 163
TORSDOF 42
