REMARK WARNING: 32 MAX_TORS EXCEEDED!!!
REMARK  43 active torsions:
REMARK  status: ('A' for Active; 'I' for Inactive)
REMARK    1  A    between atoms: N_1  and  CA_2 
REMARK    2  A    between atoms: CA_2  and  C_3 
REMARK    3  A    between atoms: CA_2  and  CB_5 
REMARK       I    between atoms: C_3  and  N_11 
REMARK    4  A    between atoms: CB_5  and  CG_6 
REMARK    5  A    between atoms: CA_12  and  C_13 
REMARK       I    between atoms: C_13  and  N_18 
REMARK    6  A    between atoms: N_18  and  CA_19 
REMARK    7  A    between atoms: CA_19  and  C_20 
REMARK    8  A    between atoms: CA_19  and  CB_22 
REMARK       I    between atoms: C_20  and  N_25 
REMARK    9  A    between atoms: CB_22  and  CG1_23 
REMARK   10  A    between atoms: CB_22  and  CG2_24 
REMARK   11  A    between atoms: N_25  and  CA_26 
REMARK   12  A    between atoms: CA_26  and  C_27 
REMARK       I    between atoms: C_27  and  N_29 
REMARK   13  A    between atoms: N_29  and  CA_30 
REMARK   14  A    between atoms: CA_30  and  C_31 
REMARK   15  A    between atoms: CA_30  and  CB_33 
REMARK       I    between atoms: C_31  and  N_38 
REMARK   16  A    between atoms: CB_33  and  CG_34 
REMARK   17  A    between atoms: CG_34  and  CD_35 
REMARK       I    between atoms: CD_35  and  NE2_37 
REMARK   18  A    between atoms: N_38  and  CA_39 
REMARK   19  A    between atoms: CA_39  and  C_40 
REMARK   20  A    between atoms: CA_39  and  CB_42 
REMARK       I    between atoms: C_40  and  N_43 
REMARK   21  A    between atoms: N_43  and  CA_44 
REMARK   22  A    between atoms: CA_44  and  C_45 
REMARK   23  A    between atoms: CA_44  and  CB_47 
REMARK       I    between atoms: C_45  and  N_51 
REMARK   24  A    between atoms: CB_47  and  CG_48 
REMARK   25  A    between atoms: N_51  and  CA_52 
REMARK   26  A    between atoms: CA_52  and  C_53 
REMARK   27  A    between atoms: CA_52  and  CB_55 
REMARK       I    between atoms: C_53  and  N_63 
REMARK   28  A    between atoms: CB_55  and  CG_56 
REMARK   29  A    between atoms: CZ_61  and  OH_62 
REMARK   30  A    between atoms: N_63  and  CA_64 
REMARK   31  A    between atoms: CA_64  and  C_65 
REMARK   32  A    between atoms: CA_64  and  CB_67 
REMARK       I    between atoms: C_65  and  N_74 
REMARK   33  A    between atoms: CB_67  and  CG_68 
REMARK   34  A    between atoms: N_74  and  CA_75 
REMARK   35  A    between atoms: CA_75  and  C_76 
REMARK   36  A    between atoms: CA_75  and  CB_78 
REMARK       I    between atoms: C_76  and  N_83 
REMARK   37  A    between atoms: CB_78  and  CG_79 
REMARK   38  A    between atoms: CG_79  and  CD_80 
REMARK   39  A    between atoms: N_83  and  CA_84 
REMARK   40  A    between atoms: CA_84  and  C_85 
REMARK   41  A    between atoms: CA_84  and  CB_87 
REMARK   42  A    between atoms: CB_87  and  CG_88 
REMARK   43  A    between atoms: CZ_93  and  OH_94 
ROOT
ATOM      1  CA  ASP d   1      -0.975 -13.977 -35.859  0.00  0.00     0.098 C 
ATOM      2  H   ASP d   1      -1.410 -14.436 -34.959  0.00  0.00     0.088 H 
ENDROOT
BRANCH   1   3
ATOM      3  N   ASP d   1      -0.673 -15.053 -36.800  0.00  0.00    -0.346 N 
ATOM      4  C   ALA d   1      -1.479 -16.092 -37.000  0.00  0.00     0.240 C 
ATOM      5  O   ALA d   1      -2.561 -16.232 -36.425  0.00  0.00    -0.271 OA
ATOM      6  H   ASP d   1       0.181 -15.006 -37.319  0.00  0.00     0.163 HD
BRANCH   4   7
ATOM      7  CA  ALA d   1      -0.992 -17.121 -38.020  0.00  0.00     0.086 C 
ATOM      8  H   ALA d   1      -1.875 -17.659 -38.397  0.00  0.00     0.086 H 
BRANCH   7   9
ATOM      9  N   ALA d   1      -0.328 -16.495 -39.175  0.00  0.00    -0.346 N 
ATOM     10  C   GLN d   1      -0.914 -15.520 -39.877  0.00  0.00     0.241 C 
ATOM     11  O   GLN d   1      -2.020 -15.064 -39.586  0.00  0.00    -0.271 OA
ATOM     12  H   ALA d   1       0.584 -16.807 -39.441  0.00  0.00     0.163 HD
BRANCH  10  13
ATOM     13  CA  GLN d   1      -0.166 -14.984 -41.104  0.00  0.00     0.090 C 
ATOM     14  H   GLN d   1      -0.619 -14.012 -41.348  0.00  0.00     0.087 H 
BRANCH  13  15
ATOM     15  N   GLN d   1       1.269 -14.739 -40.922  0.00  0.00    -0.346 N 
ATOM     16  C   GLY d   1       1.785 -14.189 -39.828  0.00  0.00     0.236 C 
ATOM     17  O   GLY d   1       1.134 -13.967 -38.811  0.00  0.00    -0.272 OA
ATOM     18  H   GLN d   1       1.891 -15.000 -41.660  0.00  0.00     0.163 HD
BRANCH  16  19
ATOM     19  CA  GLY d   1       3.262 -13.850 -39.901  0.00  0.00     0.069 C 
ATOM     20  H   GLY d   1       3.566 -13.841 -40.958  0.00  0.00     0.078 H 
ATOM     21  H   GLY d   1       3.413 -12.850 -39.467  0.00  0.00     0.078 H 
BRANCH  19  22
ATOM     22  N   GLY d   1       4.103 -14.793 -39.188  0.00  0.00    -0.351 N 
ATOM     23  C   VAL d   1       4.693 -14.450 -38.046  0.00  0.00     0.241 C 
ATOM     24  O   VAL d   1       4.581 -13.328 -37.550  0.00  0.00    -0.271 OA
ATOM     25  H   GLY d   1       4.241 -15.711 -39.559  0.00  0.00     0.163 HD
BRANCH  23  26
ATOM     26  CA  VAL d   1       5.557 -15.510 -37.368  0.00  0.00     0.092 C 
ATOM     27  H   VAL d   1       6.093 -16.085 -38.138  0.00  0.00     0.088 H 
BRANCH  26  28
ATOM     28  N   VAL d   1       6.533 -14.812 -36.538  0.00  0.00    -0.346 N 
ATOM     29  C   PRO d   1       7.588 -14.216 -37.089  0.00  0.00     0.241 C 
ATOM     30  O   PRO d   1       7.879 -14.319 -38.283  0.00  0.00    -0.271 OA
ATOM     31  H   VAL d   1       6.408 -14.781 -35.546  0.00  0.00     0.163 HD
BRANCH  29  32
ATOM     32  CA  PRO d   1       8.460 -13.365 -36.176  0.00  0.00     0.091 C 
ATOM     33  N   PRO d   1       9.786 -13.125 -36.756  0.00  0.00    -0.337 N 
ATOM     34  C   HIS d   1      10.686 -14.124 -36.809  0.00  0.00     0.251 C 
ATOM     35  CD  PRO d   1       9.957 -11.726 -37.183  0.00  0.00    -0.001 C 
ATOM     36  O   HIS d   1      10.414 -15.271 -36.464  0.00  0.00    -0.271 OA
ATOM     37  CG  PRO d   1       8.548 -11.188 -37.153  0.00  0.00    -0.048 C 
ATOM     38  H   PRO d   1      10.380 -11.671 -38.197  0.00  0.00     0.064 H 
ATOM     39  H   PRO d   1      10.605 -11.176 -36.485  0.00  0.00     0.064 H 
ATOM     40  CB  PRO d   1       7.863 -11.950 -36.072  0.00  0.00    -0.036 C 
ATOM     41  H   PRO d   1       8.551 -10.112 -36.925  0.00  0.00     0.035 H 
ATOM     42  H   PRO d   1       8.050 -11.357 -38.119  0.00  0.00     0.035 H 
ATOM     43  H   PRO d   1       8.075 -11.508 -35.087  0.00  0.00     0.036 H 
ATOM     44  H   PRO d   1       6.776 -11.971 -36.238  0.00  0.00     0.036 H 
ATOM     45  H   PRO d   1       8.542 -13.842 -35.188  0.00  0.00     0.087 H 
BRANCH  34  46
ATOM     46  CA  HIS d   1      12.079 -13.795 -37.351  0.00  0.00     0.181 C 
ATOM     47  H   HIS d   1      12.207 -12.703 -37.395  0.00  0.00     0.099 H 
BRANCH  46  48
ATOM     48  N   HIS d   1      13.105 -14.376 -36.466  0.00  0.00    -0.066 N 
ATOM     49  H   HIS d   1      14.021 -14.158 -36.825  0.00  0.00     0.275 HD
ATOM     50  H   HIS d   1      12.989 -15.377 -36.428  0.00  0.00     0.275 HD
ATOM     51  H   HIS d   1      13.007 -13.991 -35.540  0.00  0.00     0.275 HD
ENDBRANCH  46  48
BRANCH  46  52
ATOM     52  CB  HIS d   1      12.234 -14.388 -38.757  0.00  0.00     0.011 C 
ATOM     53  H   HIS d   1      11.853 -15.420 -38.738  0.00  0.00     0.046 H 
ATOM     54  H   HIS d   1      13.305 -14.397 -39.010  0.00  0.00     0.046 H 
BRANCH  52  55
ATOM     55  CG  HIS d   1      11.505 -13.639 -39.835  0.00  0.00     0.053 A 
ATOM     56  ND1 HIS d   1      10.129 -13.626 -39.940  0.00  0.00    -0.247 NA
ATOM     57  CE1 HIS d   1       9.780 -12.913 -40.998  0.00  0.00     0.064 A 
ATOM     58  NE2 HIS d   1      10.879 -12.477 -41.589  0.00  0.00    -0.359 N 
ATOM     59  H   HIS d   1       8.760 -12.718 -41.327  0.00  0.00     0.143 H 
ATOM     60  CD2 HIS d   1      11.972 -12.925 -40.888  0.00  0.00     0.002 A 
ATOM     61  H   HIS d   1      10.911 -11.895 -42.438  0.00  0.00     0.166 HD
ATOM     62  H   HIS d   1      13.017 -12.741 -41.132  0.00  0.00     0.114 H 
ENDBRANCH  52  55
ENDBRANCH  46  52
ENDBRANCH  34  46
ENDBRANCH  29  32
ENDBRANCH  26  28
BRANCH  26  63
ATOM     63  CB  VAL d   1       4.680 -16.499 -36.548  0.00  0.00    -0.033 C 
ATOM     64  H   VAL d   1       5.350 -17.117 -35.933  0.00  0.00     0.042 H 
BRANCH  63  65
ATOM     65  CG1 VAL d   1       3.727 -15.753 -35.613  0.00  0.00    -0.071 C 
ATOM     66  H   VAL d   1       3.123 -16.479 -35.049  0.00  0.00     0.028 H 
ATOM     67  H   VAL d   1       3.064 -15.106 -36.206  0.00  0.00     0.028 H 
ATOM     68  H   VAL d   1       4.309 -15.137 -34.911  0.00  0.00     0.028 H 
ENDBRANCH  63  65
BRANCH  63  69
ATOM     69  CG2 VAL d   1       3.885 -17.429 -37.476  0.00  0.00    -0.071 C 
ATOM     70  H   VAL d   1       4.579 -17.961 -38.144  0.00  0.00     0.028 H 
ATOM     71  H   VAL d   1       3.181 -16.834 -38.077  0.00  0.00     0.028 H 
ATOM     72  H   VAL d   1       3.326 -18.159 -36.872  0.00  0.00     0.028 H 
ENDBRANCH  63  69
ENDBRANCH  26  63
ENDBRANCH  23  26
ENDBRANCH  19  22
ENDBRANCH  16  19
ENDBRANCH  13  15
BRANCH  13  73
ATOM     73  CB  GLN d   1      -0.399 -15.921 -42.301  0.00  0.00    -0.030 C 
ATOM     74  H   GLN d   1      -1.483 -16.067 -42.420  0.00  0.00     0.037 H 
ATOM     75  H   GLN d   1       0.079 -16.887 -42.081  0.00  0.00     0.037 H 
BRANCH  73  76
ATOM     76  CG  GLN d   1       0.159 -15.401 -43.615  0.00  0.00     0.011 C 
ATOM     77  H   GLN d   1       1.258 -15.440 -43.572  0.00  0.00     0.047 H 
ATOM     78  H   GLN d   1      -0.166 -14.359 -43.749  0.00  0.00     0.047 H 
BRANCH  76  79
ATOM     79  CD  GLN d   1      -0.310 -16.214 -44.806  0.00  0.00     0.215 C 
ATOM     80  OE1 GLN d   1      -1.390 -16.804 -44.780  0.00  0.00    -0.274 OA
ATOM     81  NE2 GLN d   1       0.503 -16.251 -45.857  0.00  0.00    -0.370 N 
ATOM     82  H   GLN d   1       0.245 -16.772 -46.671  0.00  0.00     0.159 HD
ATOM     83  H   GLN d   1       1.373 -15.758 -45.834  0.00  0.00     0.159 HD
ENDBRANCH  76  79
ENDBRANCH  73  76
ENDBRANCH  13  73
ENDBRANCH  10  13
ENDBRANCH   7   9
BRANCH   7  84
ATOM     84  CB  ALA d   1      -0.073 -18.138 -37.353  0.00  0.00    -0.049 C 
ATOM     85  H   ALA d   1      -0.590 -18.592 -36.495  0.00  0.00     0.030 H 
ATOM     86  H   ALA d   1       0.841 -17.634 -37.006  0.00  0.00     0.030 H 
ATOM     87  H   ALA d   1       0.193 -18.922 -38.077  0.00  0.00     0.030 H 
ENDBRANCH   7  84
ENDBRANCH   4   7
ENDBRANCH   1   3
BRANCH   1  88
ATOM     88  C   ASP d   1      -1.981 -12.951 -36.387  0.00  0.00     0.241 C 
ATOM     89  O   ASP d   1      -2.491 -12.124 -35.623  0.00  0.00    -0.271 OA
ATOM     90  N   TYR d   1      -2.257 -13.006 -37.688  0.00  0.00    -0.346 N 
ATOM     91  H   TYR d   1      -1.818 -13.711 -38.245  0.00  0.00     0.163 HD
BRANCH  90  92
ATOM     92  CA  TYR d   1      -3.179 -12.072 -38.329  0.00  0.00     0.093 C 
ATOM     93  H   TYR d   1      -2.987 -11.065 -37.930  0.00  0.00     0.088 H 
BRANCH  92  94
ATOM     94  C   TYR d   1      -4.622 -12.441 -38.041  0.00  0.00     0.241 C 
ATOM     95  O   TYR d   1      -5.555 -11.827 -38.573  0.00  0.00    -0.271 OA
ATOM     96  N   PHE d   1      -4.809 -13.454 -37.205  0.00  0.00    -0.346 N 
ATOM     97  H   PHE d   1      -4.022 -13.941 -36.826  0.00  0.00     0.163 HD
BRANCH  96  98
ATOM     98  CA  PHE d   1      -6.154 -13.856 -36.840  0.00  0.00     0.093 C 
ATOM     99  H   PHE d   1      -6.832 -13.444 -37.602  0.00  0.00     0.088 H 
BRANCH  98 100
ATOM    100  C   PHE d   1      -6.581 -13.251 -35.510  0.00  0.00     0.241 C 
ATOM    101  O   PHE d   1      -6.011 -13.541 -34.456  0.00  0.00    -0.271 OA
ATOM    102  N   GLU d   1      -7.577 -12.376 -35.590  0.00  0.00    -0.346 N 
ATOM    103  H   GLU d   1      -7.968 -12.169 -36.487  0.00  0.00     0.163 HD
BRANCH 102 104
ATOM    104  CA  GLU d   1      -8.116 -11.712 -34.421  0.00  0.00     0.090 C 
ATOM    105  H   GLU d   1      -7.356 -11.024 -34.021  0.00  0.00     0.087 H 
BRANCH 104 106
ATOM    106  C   GLU d   1      -8.483 -12.717 -33.352  0.00  0.00     0.241 C 
ATOM    107  O   GLU d   1      -8.878 -13.845 -33.646  0.00  0.00    -0.271 OA
ATOM    108  N   TYR d   1      -8.337 -12.299 -32.105  0.00  0.00    -0.344 N 
ATOM    109  H   TYR d   1      -7.872 -11.429 -31.940  0.00  0.00     0.163 HD
BRANCH 108 110
ATOM    110  CA  TYR d   1      -8.825 -13.054 -30.973  0.00  0.00     0.100 C 
ATOM    111  H   TYR d   1      -8.447 -14.086 -31.029  0.00  0.00     0.090 H 
BRANCH 110 112
ATOM    112  C   TYR d   1     -10.354 -13.064 -30.998  0.00  0.00     0.197 C 
ATOM    113  O   TYR d   1     -10.999 -13.825 -30.277  0.00  0.00    -0.646 OA
ATOM    114  OXT TYR d   1     -10.969 -12.302 -31.741  0.00  0.00    -0.646 OA
ENDBRANCH 110 112
BRANCH 110 115
ATOM    115  CB  TYR d   1      -8.350 -12.407 -29.677  0.00  0.00    -0.013 C 
ATOM    116  H   TYR d   1      -8.916 -12.852 -28.845  0.00  0.00     0.043 H 
ATOM    117  H   TYR d   1      -8.566 -11.330 -29.733  0.00  0.00     0.043 H 
BRANCH 115 118
ATOM    118  CG  TYR d   1      -6.866 -12.577 -29.383  0.00  0.00    -0.056 A 
ATOM    119  CD1 TYR d   1      -5.901 -12.111 -30.262  0.00  0.00    -0.074 A 
ATOM    120  CE1 TYR d   1      -4.545 -12.256 -29.979  0.00  0.00    -0.051 A 
ATOM    121  H   TYR d   1      -6.206 -11.627 -31.183  0.00  0.00     0.084 H 
ATOM    122  CZ  TYR d   1      -4.146 -12.879 -28.809  0.00  0.00     0.065 A 
ATOM    123  H   TYR d   1      -3.803 -11.881 -30.674  0.00  0.00     0.087 H 
ATOM    124  CE2 TYR d   1      -5.078 -13.344 -27.917  0.00  0.00    -0.051 A 
ATOM    125  CD2 TYR d   1      -6.438 -13.188 -28.204  0.00  0.00    -0.074 A 
ATOM    126  H   TYR d   1      -4.764 -13.828 -26.999  0.00  0.00     0.087 H 
ATOM    127  H   TYR d   1      -7.175 -13.549 -27.496  0.00  0.00     0.084 H 
BRANCH 122 128
ATOM    128  OH  TYR d   1      -2.804 -13.025 -28.524  0.00  0.00    -0.361 OA
ATOM    129  H   TYR d   1      -2.600 -13.948 -28.430  0.00  0.00     0.217 HD
ENDBRANCH 122 128
ENDBRANCH 115 118
ENDBRANCH 110 115
ENDBRANCH 108 110
ENDBRANCH 104 106
BRANCH 104 130
ATOM    130  CB  GLU d   1      -9.362 -10.916 -34.806  0.00  0.00    -0.029 C 
ATOM    131  H   GLU d   1      -9.690 -10.338 -33.929  0.00  0.00     0.037 H 
ATOM    132  H   GLU d   1     -10.152 -11.625 -35.094  0.00  0.00     0.037 H 
BRANCH 130 133
ATOM    133  CG  GLU d   1      -9.140  -9.956 -35.955  0.00  0.00     0.018 C 
ATOM    134  H   GLU d   1      -8.851 -10.532 -36.846  0.00  0.00     0.049 H 
ATOM    135  H   GLU d   1      -8.328  -9.264 -35.686  0.00  0.00     0.049 H 
BRANCH 133 136
ATOM    136  CD  GLU d   1     -10.379  -9.150 -36.278  0.00  0.00     0.172 C 
ATOM    137  OE1 GLU d   1     -11.414  -9.349 -35.599  0.00  0.00    -0.648 OA
ATOM    138  OE2 GLU d   1     -10.311  -8.318 -37.206  0.00  0.00    -0.648 OA
ENDBRANCH 133 136
ENDBRANCH 130 133
ENDBRANCH 104 130
ENDBRANCH 102 104
ENDBRANCH  98 100
BRANCH  98 139
ATOM    139  CB  PHE d   1      -6.303 -15.380 -36.899  0.00  0.00    -0.014 C 
ATOM    140  H   PHE d   1      -7.289 -15.653 -36.496  0.00  0.00     0.043 H 
ATOM    141  H   PHE d   1      -5.515 -15.835 -36.281  0.00  0.00     0.043 H 
BRANCH 139 142
ATOM    142  CG  PHE d   1      -6.189 -15.920 -38.296  0.00  0.00    -0.056 A 
ATOM    143  CD1 PHE d   1      -7.275 -15.861 -39.162  0.00  0.00    -0.077 A 
ATOM    144  CE1 PHE d   1      -7.179 -16.334 -40.460  0.00  0.00    -0.082 A 
ATOM    145  H   PHE d   1      -8.211 -15.438 -38.816  0.00  0.00     0.084 H 
ATOM    146  CZ  PHE d   1      -5.980 -16.863 -40.916  0.00  0.00    -0.083 A 
ATOM    147  H   PHE d   1      -8.039 -16.291 -41.119  0.00  0.00     0.083 H 
ATOM    148  CE2 PHE d   1      -4.882 -16.914 -40.066  0.00  0.00    -0.082 A 
ATOM    149  H   PHE d   1      -5.900 -17.235 -41.931  0.00  0.00     0.083 H 
ATOM    150  CD2 PHE d   1      -4.990 -16.435 -38.764  0.00  0.00    -0.077 A 
ATOM    151  H   PHE d   1      -3.943 -17.326 -40.417  0.00  0.00     0.083 H 
ATOM    152  H   PHE d   1      -4.127 -16.465 -38.108  0.00  0.00     0.084 H 
ENDBRANCH 139 142
ENDBRANCH  98 139
ENDBRANCH  96  98
ENDBRANCH  92  94
BRANCH  92 153
ATOM    153  CB  TYR d   1      -2.955 -12.053 -39.839  0.00  0.00    -0.014 C 
ATOM    154  H   TYR d   1      -3.704 -11.387 -40.293  0.00  0.00     0.043 H 
ATOM    155  H   TYR d   1      -3.091 -13.075 -40.224  0.00  0.00     0.043 H 
BRANCH 153 156
ATOM    156  CG  TYR d   1      -1.584 -11.572 -40.239  0.00  0.00    -0.056 A 
ATOM    157  CD1 TYR d   1      -0.680 -11.107 -39.281  0.00  0.00    -0.074 A 
ATOM    158  CE1 TYR d   1       0.579 -10.659 -39.647  0.00  0.00    -0.051 A 
ATOM    159  H   TYR d   1      -0.968 -11.097 -38.236  0.00  0.00     0.084 H 
ATOM    160  CZ  TYR d   1       0.942 -10.670 -40.987  0.00  0.00     0.065 A 
ATOM    161  H   TYR d   1       1.274 -10.303 -38.895  0.00  0.00     0.087 H 
ATOM    162  CE2 TYR d   1       0.061 -11.125 -41.951  0.00  0.00    -0.051 A 
ATOM    163  CD2 TYR d   1      -1.192 -11.572 -41.574  0.00  0.00    -0.074 A 
ATOM    164  H   TYR d   1       0.351 -11.131 -42.995  0.00  0.00     0.087 H 
ATOM    165  H   TYR d   1      -1.881 -11.928 -42.331  0.00  0.00     0.084 H 
BRANCH 160 166
ATOM    166  OH  TYR d   1       2.186 -10.226 -41.371  0.00  0.00    -0.361 OA
ATOM    167  H   TYR d   1       2.672  -9.948 -40.604  0.00  0.00     0.217 HD
ENDBRANCH 160 166
ENDBRANCH 153 156
ENDBRANCH  92 153
ENDBRANCH  90  92
ENDBRANCH   1  88
BRANCH   1 168
ATOM    168  CB  ASP d   1       0.320 -13.265 -35.463  0.00  0.00     0.043 C 
ATOM    169  H   ASP d   1       0.067 -12.284 -35.035  0.00  0.00     0.052 H 
ATOM    170  H   ASP d   1       0.935 -13.124 -36.364  0.00  0.00     0.052 H 
BRANCH 168 171
ATOM    171  CG  ASP d   1       1.122 -14.046 -34.446  0.00  0.00     0.175 C 
ATOM    172  OD1 ASP d   1       0.724 -15.191 -34.121  0.00  0.00    -0.648 OA
ATOM    173  OD2 ASP d   1       2.158 -13.522 -33.981  0.00  0.00    -0.648 OA
ENDBRANCH 168 171
ENDBRANCH   1 168
TORSDOF 43
