REMARK WARNING: 32 MAX_TORS EXCEEDED!!!
REMARK  44 active torsions:
REMARK  status: ('A' for Active; 'I' for Inactive)
REMARK    1  A    between atoms: N_1  and  CA_2 
REMARK    2  A    between atoms: CA_2  and  C_3 
REMARK    3  A    between atoms: CA_2  and  CB_5 
REMARK       I    between atoms: C_3  and  N_11 
REMARK    4  A    between atoms: CB_5  and  CG_6 
REMARK    5  A    between atoms: CA_12  and  C_13 
REMARK       I    between atoms: C_13  and  N_18 
REMARK    6  A    between atoms: N_18  and  CA_19 
REMARK    7  A    between atoms: CA_19  and  C_20 
REMARK    8  A    between atoms: CA_19  and  CB_22 
REMARK       I    between atoms: C_20  and  N_25 
REMARK    9  A    between atoms: CB_22  and  CG1_23 
REMARK   10  A    between atoms: CB_22  and  CG2_24 
REMARK   11  A    between atoms: N_25  and  CA_26 
REMARK   12  A    between atoms: CA_26  and  C_27 
REMARK   13  A    between atoms: CA_26  and  CB_29 
REMARK       I    between atoms: C_27  and  N_30 
REMARK   14  A    between atoms: N_30  and  CA_31 
REMARK   15  A    between atoms: CA_31  and  C_32 
REMARK   16  A    between atoms: CA_31  and  CB_34 
REMARK       I    between atoms: C_32  and  N_39 
REMARK   17  A    between atoms: CB_34  and  CG_35 
REMARK   18  A    between atoms: CG_35  and  CD_36 
REMARK   19  A    between atoms: N_39  and  CA_40 
REMARK   20  A    between atoms: CA_40  and  C_41 
REMARK   21  A    between atoms: CA_40  and  CB_43 
REMARK       I    between atoms: C_41  and  N_44 
REMARK   22  A    between atoms: N_44  and  CA_45 
REMARK   23  A    between atoms: CA_45  and  C_46 
REMARK   24  A    between atoms: CA_45  and  CB_48 
REMARK       I    between atoms: C_46  and  N_52 
REMARK   25  A    between atoms: CB_48  and  CG_49 
REMARK   26  A    between atoms: N_52  and  CA_53 
REMARK   27  A    between atoms: CA_53  and  C_54 
REMARK   28  A    between atoms: CA_53  and  CB_56 
REMARK       I    between atoms: C_54  and  N_64 
REMARK   29  A    between atoms: CB_56  and  CG_57 
REMARK   30  A    between atoms: CZ_62  and  OH_63 
REMARK   31  A    between atoms: N_64  and  CA_65 
REMARK   32  A    between atoms: CA_65  and  C_66 
REMARK   33  A    between atoms: CA_65  and  CB_68 
REMARK       I    between atoms: C_66  and  N_75 
REMARK   34  A    between atoms: CB_68  and  CG_69 
REMARK   35  A    between atoms: N_75  and  CA_76 
REMARK   36  A    between atoms: CA_76  and  C_77 
REMARK   37  A    between atoms: CA_76  and  CB_79 
REMARK       I    between atoms: C_77  and  N_84 
REMARK   38  A    between atoms: CB_79  and  CG_80 
REMARK   39  A    between atoms: CG_80  and  CD_81 
REMARK   40  A    between atoms: N_84  and  CA_85 
REMARK   41  A    between atoms: CA_85  and  C_86 
REMARK   42  A    between atoms: CA_85  and  CB_88 
REMARK   43  A    between atoms: CB_88  and  CG_89 
REMARK   44  A    between atoms: CZ_94  and  OH_95 
ROOT
ATOM      1  CA  ASP d   1       5.177 -12.516  43.367  0.00  0.00     0.098 C 
ATOM      2  H   ASP d   1       4.598 -11.625  43.083  0.00  0.00     0.088 H 
ENDROOT
BRANCH   1   3
ATOM      3  N   ASP d   1       4.310 -13.681  43.235  0.00  0.00    -0.346 N 
ATOM      4  C   ALA d   1       3.814 -14.015  42.051  0.00  0.00     0.240 C 
ATOM      5  O   ALA d   1       4.010 -13.345  41.042  0.00  0.00    -0.271 OA
ATOM      6  H   ASP d   1       4.088 -14.230  44.041  0.00  0.00     0.163 HD
BRANCH   4   7
ATOM      7  CA  ALA d   1       2.968 -15.277  41.987  0.00  0.00     0.086 C 
ATOM      8  H   ALA d   1       2.356 -15.352  42.898  0.00  0.00     0.086 H 
BRANCH   7   9
ATOM      9  N   ALA d   1       2.093 -15.187  40.824  0.00  0.00    -0.346 N 
ATOM     10  C   GLU d   1       1.057 -14.357  40.775  0.00  0.00     0.241 C 
ATOM     11  O   GLU d   1       0.663 -13.698  41.738  0.00  0.00    -0.271 OA
ATOM     12  H   ALA d   1       2.280 -15.771  40.034  0.00  0.00     0.163 HD
BRANCH  10  13
ATOM     13  CA  GLU d   1       0.345 -14.258  39.427  0.00  0.00     0.090 C 
ATOM     14  H   GLU d   1       0.396 -15.234  38.922  0.00  0.00     0.087 H 
BRANCH  13  15
ATOM     15  N   GLU d   1      -1.044 -13.915  39.636  0.00  0.00    -0.346 N 
ATOM     16  C   ALA d   1      -1.919 -14.853  39.960  0.00  0.00     0.240 C 
ATOM     17  O   ALA d   1      -1.611 -16.042  40.029  0.00  0.00    -0.271 OA
ATOM     18  H   GLU d   1      -1.344 -12.966  39.535  0.00  0.00     0.163 HD
BRANCH  16  19
ATOM     19  CA  ALA d   1      -3.344 -14.393  40.214  0.00  0.00     0.086 C 
ATOM     20  H   ALA d   1      -3.449 -13.351  39.876  0.00  0.00     0.086 H 
BRANCH  19  21
ATOM     21  N   ALA d   1      -4.254 -15.233  39.446  0.00  0.00    -0.346 N 
ATOM     22  C   VAL d   1      -4.644 -14.895  38.223  0.00  0.00     0.241 C 
ATOM     23  O   VAL d   1      -4.361 -13.814  37.707  0.00  0.00    -0.271 OA
ATOM     24  H   ALA d   1      -4.592 -16.083  39.849  0.00  0.00     0.163 HD
BRANCH  22  25
ATOM     25  CA  VAL d   1      -5.525 -15.900  37.492  0.00  0.00     0.092 C 
ATOM     26  H   VAL d   1      -6.060 -16.502  38.241  0.00  0.00     0.088 H 
BRANCH  25  27
ATOM     27  N   VAL d   1      -6.505 -15.174  36.698  0.00  0.00    -0.346 N 
ATOM     28  C   PRO d   1      -7.567 -14.595  37.246  0.00  0.00     0.241 C 
ATOM     29  O   PRO d   1      -7.862 -14.699  38.436  0.00  0.00    -0.271 OA
ATOM     30  H   VAL d   1      -6.375 -15.109  35.709  0.00  0.00     0.163 HD
BRANCH  28  31
ATOM     31  CA  PRO d   1      -8.444 -13.772  36.318  0.00  0.00     0.091 C 
ATOM     32  N   PRO d   1      -9.762 -13.510  36.904  0.00  0.00    -0.337 N 
ATOM     33  C   HIS d   1     -10.649 -14.508  36.970  0.00  0.00     0.251 C 
ATOM     34  CD  PRO d   1      -9.920 -12.099  37.301  0.00  0.00    -0.001 C 
ATOM     35  O   HIS d   1     -10.387 -15.639  36.587  0.00  0.00    -0.271 OA
ATOM     36  CG  PRO d   1      -8.503 -11.585  37.259  0.00  0.00    -0.048 C 
ATOM     37  H   PRO d   1     -10.343 -12.016  38.313  0.00  0.00     0.064 H 
ATOM     38  H   PRO d   1     -10.561 -11.556  36.591  0.00  0.00     0.064 H 
ATOM     39  CB  PRO d   1      -7.848 -12.363  36.174  0.00  0.00    -0.036 C 
ATOM     40  H   PRO d   1      -8.488 -10.510  37.028  0.00  0.00     0.035 H 
ATOM     41  H   PRO d   1      -7.998 -11.761  38.221  0.00  0.00     0.035 H 
ATOM     42  H   PRO d   1      -8.086 -11.936  35.188  0.00  0.00     0.036 H 
ATOM     43  H   PRO d   1      -6.757 -12.384  36.311  0.00  0.00     0.036 H 
ATOM     44  H   PRO d   1      -8.535 -14.276  35.345  0.00  0.00     0.087 H 
BRANCH  33  45
ATOM     45  CA  HIS d   1     -12.030 -14.183  37.532  0.00  0.00     0.181 C 
ATOM     46  H   HIS d   1     -12.142 -13.093  37.634  0.00  0.00     0.099 H 
BRANCH  45  47
ATOM     47  N   HIS d   1     -13.050 -14.693  36.615  0.00  0.00    -0.066 N 
ATOM     48  H   HIS d   1     -13.966 -14.482  36.980  0.00  0.00     0.275 HD
ATOM     49  H   HIS d   1     -12.948 -15.691  36.520  0.00  0.00     0.275 HD
ATOM     50  H   HIS d   1     -12.939 -14.257  35.713  0.00  0.00     0.275 HD
ENDBRANCH  45  47
BRANCH  45  51
ATOM     51  CB  HIS d   1     -12.176 -14.841  38.908  0.00  0.00     0.011 C 
ATOM     52  H   HIS d   1     -11.807 -15.875  38.837  0.00  0.00     0.046 H 
ATOM     53  H   HIS d   1     -13.243 -14.849  39.176  0.00  0.00     0.046 H 
BRANCH  51  54
ATOM     54  CG  HIS d   1     -11.421 -14.145  40.002  0.00  0.00     0.053 A 
ATOM     55  ND1 HIS d   1     -10.044 -14.131  40.068  0.00  0.00    -0.247 NA
ATOM     56  CE1 HIS d   1      -9.662 -13.454  41.137  0.00  0.00     0.064 A 
ATOM     57  NE2 HIS d   1     -10.742 -13.034  41.772  0.00  0.00    -0.359 N 
ATOM     58  H   HIS d   1      -8.633 -13.273  41.442  0.00  0.00     0.143 H 
ATOM     59  CD2 HIS d   1     -11.856 -13.451  41.082  0.00  0.00     0.002 A 
ATOM     60  H   HIS d   1     -10.748 -12.484  42.643  0.00  0.00     0.166 HD
ATOM     61  H   HIS d   1     -12.893 -13.259  41.353  0.00  0.00     0.114 H 
ENDBRANCH  51  54
ENDBRANCH  45  51
ENDBRANCH  33  45
ENDBRANCH  28  31
ENDBRANCH  25  27
BRANCH  25  62
ATOM     62  CB  VAL d   1      -4.689 -16.864  36.617  0.00  0.00    -0.033 C 
ATOM     63  H   VAL d   1      -5.393 -17.454  36.012  0.00  0.00     0.042 H 
BRANCH  62  64
ATOM     64  CG1 VAL d   1      -3.771 -16.095  35.633  0.00  0.00    -0.071 C 
ATOM     65  H   VAL d   1      -3.195 -16.814  35.031  0.00  0.00     0.028 H 
ATOM     66  H   VAL d   1      -3.079 -15.455  36.201  0.00  0.00     0.028 H 
ATOM     67  H   VAL d   1      -4.387 -15.471  34.969  0.00  0.00     0.028 H 
ENDBRANCH  62  64
BRANCH  62  68
ATOM     68  CG2 VAL d   1      -3.887 -17.860  37.497  0.00  0.00    -0.071 C 
ATOM     69  H   VAL d   1      -4.574 -18.383  38.178  0.00  0.00     0.028 H 
ATOM     70  H   VAL d   1      -3.137 -17.309  38.084  0.00  0.00     0.028 H 
ATOM     71  H   VAL d   1      -3.381 -18.594  36.852  0.00  0.00     0.028 H 
ENDBRANCH  62  68
ENDBRANCH  25  62
ENDBRANCH  22  25
ENDBRANCH  19  21
BRANCH  19  72
ATOM     72  CB  ALA d   1      -3.672 -14.456  41.699  0.00  0.00    -0.049 C 
ATOM     73  H   ALA d   1      -2.973 -13.815  42.256  0.00  0.00     0.030 H 
ATOM     74  H   ALA d   1      -3.579 -15.494  42.051  0.00  0.00     0.030 H 
ATOM     75  H   ALA d   1      -4.701 -14.104  41.862  0.00  0.00     0.030 H 
ENDBRANCH  19  72
ENDBRANCH  16  19
ENDBRANCH  13  15
BRANCH  13  76
ATOM     76  CB  GLU d   1       1.045 -13.211  38.550  0.00  0.00    -0.029 C 
ATOM     77  H   GLU d   1       2.074 -13.553  38.364  0.00  0.00     0.037 H 
ATOM     78  H   GLU d   1       1.069 -12.261  39.104  0.00  0.00     0.037 H 
BRANCH  76  79
ATOM     79  CG  GLU d   1       0.379 -12.957  37.202  0.00  0.00     0.018 C 
ATOM     80  H   GLU d   1       0.965 -12.198  36.663  0.00  0.00     0.049 H 
ATOM     81  H   GLU d   1      -0.637 -12.575  37.384  0.00  0.00     0.049 H 
BRANCH  79  82
ATOM     82  CD  GLU d   1       0.276 -14.194  36.324  0.00  0.00     0.172 C 
ATOM     83  OE1 GLU d   1       1.077 -15.141  36.484  0.00  0.00    -0.648 OA
ATOM     84  OE2 GLU d   1      -0.613 -14.210  35.448  0.00  0.00    -0.648 OA
ENDBRANCH  79  82
ENDBRANCH  76  79
ENDBRANCH  13  76
ENDBRANCH  10  13
ENDBRANCH   7   9
BRANCH   7  85
ATOM     85  CB  ALA d   1       3.855 -16.501  41.888  0.00  0.00    -0.049 C 
ATOM     86  H   ALA d   1       4.508 -16.553  42.772  0.00  0.00     0.030 H 
ATOM     87  H   ALA d   1       4.472 -16.434  40.980  0.00  0.00     0.030 H 
ATOM     88  H   ALA d   1       3.229 -17.404  41.840  0.00  0.00     0.030 H 
ENDBRANCH   7  85
ENDBRANCH   4   7
ENDBRANCH   1   3
BRANCH   1  89
ATOM     89  C   ASP d   1       6.376 -12.626  42.425  0.00  0.00     0.241 C 
ATOM     90  O   ASP d   1       6.910 -13.716  42.206  0.00  0.00    -0.271 OA
ATOM     91  N   TYR d   1       6.767 -11.495  41.846  0.00  0.00    -0.346 N 
ATOM     92  H   TYR d   1       6.218 -10.669  41.977  0.00  0.00     0.163 HD
BRANCH  91  93
ATOM     93  CA  TYR d   1       7.971 -11.419  41.025  0.00  0.00     0.093 C 
ATOM     94  H   TYR d   1       8.132 -10.362  40.765  0.00  0.00     0.088 H 
BRANCH  93  95
ATOM     95  C   TYR d   1       7.852 -12.204  39.715  0.00  0.00     0.241 C 
ATOM     96  O   TYR d   1       8.862 -12.574  39.116  0.00  0.00    -0.271 OA
ATOM     97  N   PHE d   1       6.618 -12.456  39.279  0.00  0.00    -0.346 N 
ATOM     98  H   PHE d   1       5.839 -12.198  39.850  0.00  0.00     0.163 HD
BRANCH  97  99
ATOM     99  CA  PHE d   1       6.371 -13.099  37.988  0.00  0.00     0.093 C 
ATOM    100  H   PHE d   1       6.892 -14.068  37.970  0.00  0.00     0.088 H 
BRANCH  99 101
ATOM    101  C   PHE d   1       6.939 -12.221  36.873  0.00  0.00     0.241 C 
ATOM    102  O   PHE d   1       6.726 -11.011  36.860  0.00  0.00    -0.271 OA
ATOM    103  N   GLU d   1       7.683 -12.836  35.963  0.00  0.00    -0.346 N 
ATOM    104  H   GLU d   1       7.852 -13.817  36.057  0.00  0.00     0.163 HD
BRANCH 103 105
ATOM    105  CA  GLU d   1       8.259 -12.126  34.834  0.00  0.00     0.090 C 
ATOM    106  H   GLU d   1       7.528 -11.383  34.481  0.00  0.00     0.087 H 
BRANCH 105 107
ATOM    107  C   GLU d   1       8.563 -13.083  33.696  0.00  0.00     0.241 C 
ATOM    108  O   GLU d   1       8.755 -14.287  33.906  0.00  0.00    -0.271 OA
ATOM    109  N   TYR d   1       8.536 -12.562  32.490  0.00  0.00    -0.344 N 
ATOM    110  H   TYR d   1       8.163 -11.641  32.377  0.00  0.00     0.163 HD
BRANCH 109 111
ATOM    111  CA  TYR d   1       9.011 -13.244  31.342  0.00  0.00     0.100 C 
ATOM    112  H   TYR d   1       8.675 -14.289  31.410  0.00  0.00     0.090 H 
BRANCH 111 113
ATOM    113  C   TYR d   1      10.560 -13.242  31.337  0.00  0.00     0.197 C 
ATOM    114  O   TYR d   1      11.097 -13.950  30.558  0.00  0.00    -0.646 OA
ATOM    115  OXT TYR d   1      11.189 -12.523  32.119  0.00  0.00    -0.646 OA
ENDBRANCH 111 113
BRANCH 111 116
ATOM    116  CB  TYR d   1       8.436 -12.658  30.024  0.00  0.00    -0.013 C 
ATOM    117  H   TYR d   1       8.959 -13.142  29.186  0.00  0.00     0.043 H 
ATOM    118  H   TYR d   1       8.650 -11.579  30.016  0.00  0.00     0.043 H 
BRANCH 116 119
ATOM    119  CG  TYR d   1       6.927 -12.836  29.798  0.00  0.00    -0.056 A 
ATOM    120  CD1 TYR d   1       6.423 -13.391  28.641  0.00  0.00    -0.074 A 
ATOM    121  CE1 TYR d   1       5.079 -13.546  28.431  0.00  0.00    -0.051 A 
ATOM    122  H   TYR d   1       7.114 -13.716  27.872  0.00  0.00     0.084 H 
ATOM    123  CZ  TYR d   1       4.210 -13.113  29.381  0.00  0.00     0.065 A 
ATOM    124  H   TYR d   1       4.714 -14.007  27.520  0.00  0.00     0.087 H 
ATOM    125  CE2 TYR d   1       4.700 -12.546  30.507  0.00  0.00    -0.051 A 
ATOM    126  CD2 TYR d   1       6.034 -12.408  30.708  0.00  0.00    -0.074 A 
ATOM    127  H   TYR d   1       4.011 -12.194  31.266  0.00  0.00     0.087 H 
ATOM    128  H   TYR d   1       6.388 -11.943  31.621  0.00  0.00     0.084 H 
BRANCH 123 129
ATOM    129  OH  TYR d   1       2.886 -13.219  29.230  0.00  0.00    -0.361 OA
ATOM    130  H   TYR d   1       2.696 -13.634  28.397  0.00  0.00     0.217 HD
ENDBRANCH 123 129
ENDBRANCH 116 119
ENDBRANCH 111 116
ENDBRANCH 109 111
ENDBRANCH 105 107
BRANCH 105 131
ATOM    131  CB  GLU d   1       9.541 -11.390  35.253  0.00  0.00    -0.029 C 
ATOM    132  H   GLU d   1       9.344 -10.865  36.199  0.00  0.00     0.037 H 
ATOM    133  H   GLU d   1       9.789 -10.656  34.472  0.00  0.00     0.037 H 
BRANCH 131 134
ATOM    134  CG  GLU d   1      10.755 -12.305  35.455  0.00  0.00     0.018 C 
ATOM    135  H   GLU d   1      10.891 -12.918  34.552  0.00  0.00     0.049 H 
ATOM    136  H   GLU d   1      10.565 -12.960  36.318  0.00  0.00     0.049 H 
BRANCH 134 137
ATOM    137  CD  GLU d   1      12.039 -11.515  35.711  0.00  0.00     0.172 C 
ATOM    138  OE1 GLU d   1      11.943 -10.292  35.971  0.00  0.00    -0.648 OA
ATOM    139  OE2 GLU d   1      13.139 -12.111  35.633  0.00  0.00    -0.648 OA
ENDBRANCH 134 137
ENDBRANCH 131 134
ENDBRANCH 105 131
ENDBRANCH 103 105
ENDBRANCH  99 101
BRANCH  99 140
ATOM    140  CB  PHE d   1       4.859 -13.358  37.794  0.00  0.00    -0.014 C 
ATOM    141  H   PHE d   1       4.315 -12.440  38.063  0.00  0.00     0.043 H 
ATOM    142  H   PHE d   1       4.560 -14.173  38.470  0.00  0.00     0.043 H 
BRANCH 140 143
ATOM    143  CG  PHE d   1       4.467 -13.744  36.385  0.00  0.00    -0.056 A 
ATOM    144  CD1 PHE d   1       3.766 -12.852  35.577  0.00  0.00    -0.077 A 
ATOM    145  CE1 PHE d   1       3.394 -13.201  34.284  0.00  0.00    -0.082 A 
ATOM    146  H   PHE d   1       3.507 -11.872  35.962  0.00  0.00     0.084 H 
ATOM    147  CZ  PHE d   1       3.716 -14.447  33.784  0.00  0.00    -0.083 A 
ATOM    148  H   PHE d   1       2.850 -12.494  33.667  0.00  0.00     0.083 H 
ATOM    149  CE2 PHE d   1       4.409 -15.357  34.582  0.00  0.00    -0.082 A 
ATOM    150  H   PHE d   1       3.431 -14.717  32.774  0.00  0.00     0.083 H 
ATOM    151  CD2 PHE d   1       4.773 -15.001  35.880  0.00  0.00    -0.077 A 
ATOM    152  H   PHE d   1       4.664 -16.337  34.195  0.00  0.00     0.083 H 
ATOM    153  H   PHE d   1       5.301 -15.714  36.502  0.00  0.00     0.084 H 
ENDBRANCH 140 143
ENDBRANCH  99 140
ENDBRANCH  97  99
ENDBRANCH  93  95
BRANCH  93 154
ATOM    154  CB  TYR d   1       9.180 -11.901  41.832  0.00  0.00    -0.014 C 
ATOM    155  H   TYR d   1      10.091 -11.479  41.381  0.00  0.00     0.043 H 
ATOM    156  H   TYR d   1       9.219 -12.999  41.779  0.00  0.00     0.043 H 
BRANCH 154 157
ATOM    157  CG  TYR d   1       9.132 -11.492  43.290  0.00  0.00    -0.056 A 
ATOM    158  CD1 TYR d   1       8.738 -10.213  43.661  0.00  0.00    -0.074 A 
ATOM    159  CE1 TYR d   1       8.685  -9.840  44.990  0.00  0.00    -0.051 A 
ATOM    160  H   TYR d   1       8.467  -9.495  42.895  0.00  0.00     0.084 H 
ATOM    161  CZ  TYR d   1       9.023 -10.753  45.966  0.00  0.00     0.065 A 
ATOM    162  H   TYR d   1       8.380  -8.836  45.264  0.00  0.00     0.087 H 
ATOM    163  CE2 TYR d   1       9.409 -12.031  45.623  0.00  0.00    -0.051 A 
ATOM    164  CD2 TYR d   1       9.459 -12.394  44.294  0.00  0.00    -0.074 A 
ATOM    165  H   TYR d   1       9.672 -12.746  46.394  0.00  0.00     0.087 H 
ATOM    166  H   TYR d   1       9.759 -13.401  44.028  0.00  0.00     0.084 H 
BRANCH 161 167
ATOM    167  OH  TYR d   1       8.972 -10.389  47.292  0.00  0.00    -0.361 OA
ATOM    168  H   TYR d   1       8.690  -9.484  47.360  0.00  0.00     0.217 HD
ENDBRANCH 161 167
ENDBRANCH 154 157
ENDBRANCH  93 154
ENDBRANCH  91  93
ENDBRANCH   1  89
BRANCH   1 169
ATOM    169  CB  ASP d   1       5.642 -12.340  44.816  0.00  0.00     0.043 C 
ATOM    170  H   ASP d   1       6.354 -11.503  44.859  0.00  0.00     0.052 H 
ATOM    171  H   ASP d   1       6.142 -13.264  45.141  0.00  0.00     0.052 H 
BRANCH 169 172
ATOM    172  CG  ASP d   1       4.493 -12.050  45.763  0.00  0.00     0.175 C 
ATOM    173  OD1 ASP d   1       3.438 -11.572  45.292  0.00  0.00    -0.648 OA
ATOM    174  OD2 ASP d   1       4.642 -12.298  46.980  0.00  0.00    -0.648 OA
ENDBRANCH 169 172
ENDBRANCH   1 169
TORSDOF 44
