REMARK WARNING: 32 MAX_TORS EXCEEDED!!!
REMARK  42 active torsions:
REMARK  status: ('A' for Active; 'I' for Inactive)
REMARK    1  A    between atoms: N_1  and  CA_2 
REMARK    2  A    between atoms: CA_2  and  C_3 
REMARK    3  A    between atoms: CA_2  and  CB_5 
REMARK       I    between atoms: C_3  and  N_11 
REMARK    4  A    between atoms: CB_5  and  CG_6 
REMARK    5  A    between atoms: CA_12  and  C_13 
REMARK       I    between atoms: C_13  and  N_18 
REMARK    6  A    between atoms: N_18  and  CA_19 
REMARK    7  A    between atoms: CA_19  and  C_20 
REMARK    8  A    between atoms: CA_19  and  CB_22 
REMARK       I    between atoms: C_20  and  N_25 
REMARK    9  A    between atoms: CB_22  and  CG1_23 
REMARK   10  A    between atoms: CB_22  and  CG2_24 
REMARK   11  A    between atoms: N_25  and  CA_26 
REMARK   12  A    between atoms: CA_26  and  C_27 
REMARK       I    between atoms: C_27  and  N_29 
REMARK   13  A    between atoms: N_29  and  CA_30 
REMARK   14  A    between atoms: CA_30  and  C_31 
REMARK   15  A    between atoms: CA_30  and  CB_33 
REMARK       I    between atoms: C_31  and  N_37 
REMARK   16  A    between atoms: CB_33  and  CG_34 
REMARK   17  A    between atoms: N_37  and  CA_38 
REMARK   18  A    between atoms: CA_38  and  C_39 
REMARK   19  A    between atoms: CA_38  and  CB_41 
REMARK       I    between atoms: C_39  and  N_42 
REMARK   20  A    between atoms: N_42  and  CA_43 
REMARK   21  A    between atoms: CA_43  and  C_44 
REMARK   22  A    between atoms: CA_43  and  CB_46 
REMARK       I    between atoms: C_44  and  N_50 
REMARK   23  A    between atoms: CB_46  and  CG_47 
REMARK   24  A    between atoms: N_50  and  CA_51 
REMARK   25  A    between atoms: CA_51  and  C_52 
REMARK   26  A    between atoms: CA_51  and  CB_54 
REMARK       I    between atoms: C_52  and  N_62 
REMARK   27  A    between atoms: CB_54  and  CG_55 
REMARK   28  A    between atoms: CZ_60  and  OH_61 
REMARK   29  A    between atoms: N_62  and  CA_63 
REMARK   30  A    between atoms: CA_63  and  C_64 
REMARK   31  A    between atoms: CA_63  and  CB_66 
REMARK       I    between atoms: C_64  and  N_73 
REMARK   32  A    between atoms: CB_66  and  CG_67 
REMARK   33  A    between atoms: N_73  and  CA_74 
REMARK   34  A    between atoms: CA_74  and  C_75 
REMARK   35  A    between atoms: CA_74  and  CB_77 
REMARK       I    between atoms: C_75  and  N_82 
REMARK   36  A    between atoms: CB_77  and  CG_78 
REMARK   37  A    between atoms: CG_78  and  CD_79 
REMARK   38  A    between atoms: N_82  and  CA_83 
REMARK   39  A    between atoms: CA_83  and  C_84 
REMARK   40  A    between atoms: CA_83  and  CB_86 
REMARK   41  A    between atoms: CB_86  and  CG_87 
REMARK   42  A    between atoms: CZ_92  and  OH_93 
ROOT
ATOM      1  CA  ASP d   1       5.468 -12.482  43.637  0.00  0.00     0.098 C 
ATOM      2  H   ASP d   1       4.729 -11.722  43.343  0.00  0.00     0.088 H 
ENDROOT
BRANCH   1   3
ATOM      3  N   ASP d   1       4.819 -13.789  43.586  0.00  0.00    -0.346 N 
ATOM      4  C   ALA d   1       4.260 -14.225  42.462  0.00  0.00     0.240 C 
ATOM      5  O   ALA d   1       4.233 -13.551  41.430  0.00  0.00    -0.271 OA
ATOM      6  H   ASP d   1       4.795 -14.362  44.405  0.00  0.00     0.163 HD
BRANCH   4   7
ATOM      7  CA  ALA d   1       3.635 -15.617  42.492  0.00  0.00     0.086 C 
ATOM      8  H   ALA d   1       3.087 -15.755  43.436  0.00  0.00     0.086 H 
BRANCH   7   9
ATOM      9  N   ALA d   1       2.710 -15.708  41.373  0.00  0.00    -0.346 N 
ATOM     10  C   ASP d   1       1.598 -14.980  41.355  0.00  0.00     0.241 C 
ATOM     11  O   ASP d   1       1.174 -14.377  42.343  0.00  0.00    -0.271 OA
ATOM     12  H   ALA d   1       2.912 -16.323  40.611  0.00  0.00     0.163 HD
BRANCH  10  13
ATOM     13  CA  ASP d   1       0.850 -14.923  40.029  0.00  0.00     0.098 C 
ATOM     14  H   ASP d   1       0.858 -15.923  39.570  0.00  0.00     0.088 H 
BRANCH  13  15
ATOM     15  N   ASP d   1      -0.536 -14.519  40.237  0.00  0.00    -0.346 N 
ATOM     16  C   GLY d   1      -1.544 -15.127  39.621  0.00  0.00     0.236 C 
ATOM     17  O   GLY d   1      -1.380 -16.015  38.783  0.00  0.00    -0.272 OA
ATOM     18  H   ASP d   1      -0.733 -13.763  40.861  0.00  0.00     0.163 HD
BRANCH  16  19
ATOM     19  CA  GLY d   1      -2.939 -14.663  39.997  0.00  0.00     0.069 C 
ATOM     20  H   GLY d   1      -3.094 -14.827  41.074  0.00  0.00     0.078 H 
ATOM     21  H   GLY d   1      -3.034 -13.591  39.772  0.00  0.00     0.078 H 
BRANCH  19  22
ATOM     22  N   GLY d   1      -3.951 -15.394  39.256  0.00  0.00    -0.351 N 
ATOM     23  C   VAL d   1      -4.458 -14.920  38.124  0.00  0.00     0.241 C 
ATOM     24  O   VAL d   1      -4.182 -13.812  37.680  0.00  0.00    -0.271 OA
ATOM     25  H   GLY d   1      -4.273 -16.274  39.606  0.00  0.00     0.163 HD
BRANCH  23  26
ATOM     26  CA  VAL d   1      -5.449 -15.818  37.401  0.00  0.00     0.092 C 
ATOM     27  H   VAL d   1      -6.000 -16.409  38.147  0.00  0.00     0.088 H 
BRANCH  26  28
ATOM     28  N   VAL d   1      -6.406 -15.014  36.654  0.00  0.00    -0.346 N 
ATOM     29  C   PRO d   1      -7.504 -14.530  37.219  0.00  0.00     0.241 C 
ATOM     30  O   PRO d   1      -7.801 -14.722  38.397  0.00  0.00    -0.271 OA
ATOM     31  H   VAL d   1      -6.231 -14.822  35.688  0.00  0.00     0.163 HD
BRANCH  29  32
ATOM     32  CA  PRO d   1      -8.408 -13.695  36.322  0.00  0.00     0.091 C 
ATOM     33  N   PRO d   1      -9.729 -13.460  36.915  0.00  0.00    -0.337 N 
ATOM     34  C   HIS d   1     -10.622 -14.455  36.932  0.00  0.00     0.251 C 
ATOM     35  CD  PRO d   1      -9.897 -12.068  37.363  0.00  0.00    -0.001 C 
ATOM     36  O   HIS d   1     -10.349 -15.581  36.539  0.00  0.00    -0.271 OA
ATOM     37  CG  PRO d   1      -8.493 -11.519  37.287  0.00  0.00    -0.048 C 
ATOM     38  H   PRO d   1     -10.283 -12.027  38.392  0.00  0.00     0.064 H 
ATOM     39  H   PRO d   1     -10.575 -11.516  36.695  0.00  0.00     0.064 H 
ATOM     40  CB  PRO d   1      -7.835 -12.279  36.187  0.00  0.00    -0.036 C 
ATOM     41  H   PRO d   1      -8.511 -10.444  37.056  0.00  0.00     0.035 H 
ATOM     42  H   PRO d   1      -7.964 -11.681  38.238  0.00  0.00     0.035 H 
ATOM     43  H   PRO d   1      -8.087 -11.847  35.208  0.00  0.00     0.036 H 
ATOM     44  H   PRO d   1      -6.742 -12.285  36.315  0.00  0.00     0.036 H 
ATOM     45  H   PRO d   1      -8.503 -14.184  35.341  0.00  0.00     0.087 H 
BRANCH  34  46
ATOM     46  CA  HIS d   1     -12.013 -14.146  37.481  0.00  0.00     0.181 C 
ATOM     47  H   HIS d   1     -12.134 -13.057  37.584  0.00  0.00     0.099 H 
BRANCH  46  48
ATOM     48  N   HIS d   1     -13.039 -14.666  36.568  0.00  0.00    -0.066 N 
ATOM     49  H   HIS d   1     -13.954 -14.458  36.937  0.00  0.00     0.275 HD
ATOM     50  H   HIS d   1     -12.932 -15.664  36.476  0.00  0.00     0.275 HD
ATOM     51  H   HIS d   1     -12.935 -14.232  35.664  0.00  0.00     0.275 HD
ENDBRANCH  46  48
BRANCH  46  52
ATOM     52  CB  HIS d   1     -12.164 -14.810  38.850  0.00  0.00     0.011 C 
ATOM     53  H   HIS d   1     -11.775 -15.837  38.780  0.00  0.00     0.046 H 
ATOM     54  H   HIS d   1     -13.234 -14.840  39.103  0.00  0.00     0.046 H 
BRANCH  52  55
ATOM     55  CG  HIS d   1     -11.439 -14.107  39.956  0.00  0.00     0.053 A 
ATOM     56  ND1 HIS d   1     -10.066 -14.114  40.070  0.00  0.00    -0.247 NA
ATOM     57  CE1 HIS d   1      -9.711 -13.430  41.143  0.00  0.00     0.064 A 
ATOM     58  NE2 HIS d   1     -10.806 -12.987  41.735  0.00  0.00    -0.359 N 
ATOM     59  H   HIS d   1      -8.690 -13.260  41.482  0.00  0.00     0.143 H 
ATOM     60  CD2 HIS d   1     -11.901 -13.395  41.012  0.00  0.00     0.002 A 
ATOM     61  H   HIS d   1     -10.834 -12.427  42.599  0.00  0.00     0.166 HD
ATOM     62  H   HIS d   1     -12.944 -13.185  41.244  0.00  0.00     0.114 H 
ENDBRANCH  52  55
ENDBRANCH  46  52
ENDBRANCH  34  46
ENDBRANCH  29  32
ENDBRANCH  26  28
BRANCH  26  63
ATOM     63  CB  VAL d   1      -4.685 -16.785  36.478  0.00  0.00    -0.033 C 
ATOM     64  H   VAL d   1      -5.427 -17.324  35.871  0.00  0.00     0.042 H 
BRANCH  63  65
ATOM     65  CG1 VAL d   1      -3.764 -16.023  35.511  0.00  0.00    -0.071 C 
ATOM     66  H   VAL d   1      -3.234 -16.741  34.867  0.00  0.00     0.028 H 
ATOM     67  H   VAL d   1      -3.032 -15.437  36.087  0.00  0.00     0.028 H 
ATOM     68  H   VAL d   1      -4.367 -15.346  34.887  0.00  0.00     0.028 H 
ENDBRANCH  63  65
BRANCH  63  69
ATOM     69  CG2 VAL d   1      -3.912 -17.832  37.305  0.00  0.00    -0.071 C 
ATOM     70  H   VAL d   1      -4.607 -18.352  37.981  0.00  0.00     0.028 H 
ATOM     71  H   VAL d   1      -3.133 -17.329  37.897  0.00  0.00     0.028 H 
ATOM     72  H   VAL d   1      -3.445 -18.562  36.628  0.00  0.00     0.028 H 
ENDBRANCH  63  69
ENDBRANCH  26  63
ENDBRANCH  23  26
ENDBRANCH  19  22
ENDBRANCH  16  19
ENDBRANCH  13  15
BRANCH  13  73
ATOM     73  CB  ASP d   1       1.573 -13.943  39.098  0.00  0.00     0.043 C 
ATOM     74  H   ASP d   1       2.657 -14.099  39.197  0.00  0.00     0.052 H 
ATOM     75  H   ASP d   1       1.320 -12.917  39.403  0.00  0.00     0.052 H 
BRANCH  73  76
ATOM     76  CG  ASP d   1       1.189 -14.124  37.642  0.00  0.00     0.175 C 
ATOM     77  OD1 ASP d   1       1.539 -15.178  37.067  0.00  0.00    -0.648 OA
ATOM     78  OD2 ASP d   1       0.561 -13.204  37.069  0.00  0.00    -0.648 OA
ENDBRANCH  73  76
ENDBRANCH  13  73
ENDBRANCH  10  13
ENDBRANCH   7   9
BRANCH   7  79
ATOM     79  CB  ALA d   1       4.705 -16.681  42.384  0.00  0.00    -0.049 C 
ATOM     80  H   ALA d   1       5.394 -16.596  43.237  0.00  0.00     0.030 H 
ATOM     81  H   ALA d   1       5.264 -16.545  41.447  0.00  0.00     0.030 H 
ATOM     82  H   ALA d   1       4.235 -17.675  42.389  0.00  0.00     0.030 H 
ENDBRANCH   7  79
ENDBRANCH   4   7
ENDBRANCH   1   3
BRANCH   1  83
ATOM     83  C   ASP d   1       6.634 -12.417  42.650  0.00  0.00     0.241 C 
ATOM     84  O   ASP d   1       7.374 -13.389  42.485  0.00  0.00    -0.271 OA
ATOM     85  N   TYR d   1       6.769 -11.277  41.977  0.00  0.00    -0.346 N 
ATOM     86  H   TYR d   1       6.081 -10.561  42.096  0.00  0.00     0.163 HD
BRANCH  85  87
ATOM     87  CA  TYR d   1       7.890 -11.036  41.069  0.00  0.00     0.093 C 
ATOM     88  H   TYR d   1       7.812  -9.995  40.721  0.00  0.00     0.088 H 
BRANCH  87  89
ATOM     89  C   TYR d   1       7.877 -11.935  39.830  0.00  0.00     0.241 C 
ATOM     90  O   TYR d   1       8.934 -12.275  39.294  0.00  0.00    -0.271 OA
ATOM     91  N   PHE d   1       6.682 -12.321  39.386  0.00  0.00    -0.346 N 
ATOM     92  H   PHE d   1       5.871 -12.100  39.928  0.00  0.00     0.163 HD
BRANCH  91  93
ATOM     93  CA  PHE d   1       6.516 -13.057  38.133  0.00  0.00     0.093 C 
ATOM     94  H   PHE d   1       7.096 -13.990  38.185  0.00  0.00     0.088 H 
BRANCH  93  95
ATOM     95  C   PHE d   1       7.045 -12.209  36.973  0.00  0.00     0.241 C 
ATOM     96  O   PHE d   1       6.857 -10.988  36.961  0.00  0.00    -0.271 OA
ATOM     97  N   GLU d   1       7.707 -12.853  36.015  0.00  0.00    -0.346 N 
ATOM     98  H   GLU d   1       7.840 -13.841  36.094  0.00  0.00     0.163 HD
BRANCH  97  99
ATOM     99  CA  GLU d   1       8.244 -12.154  34.851  0.00  0.00     0.090 C 
ATOM    100  H   GLU d   1       7.482 -11.438  34.508  0.00  0.00     0.087 H 
BRANCH  99 101
ATOM    101  C   GLU d   1       8.559 -13.098  33.695  0.00  0.00     0.241 C 
ATOM    102  O   GLU d   1       8.831 -14.285  33.898  0.00  0.00    -0.271 OA
ATOM    103  N   TYR d   1       8.491 -12.562  32.499  0.00  0.00    -0.344 N 
ATOM    104  H   TYR d   1       8.080 -11.656  32.394  0.00  0.00     0.163 HD
BRANCH 103 105
ATOM    105  CA  TYR d   1       8.989 -13.240  31.343  0.00  0.00     0.100 C 
ATOM    106  H   TYR d   1       8.624 -14.275  31.411  0.00  0.00     0.090 H 
BRANCH 105 107
ATOM    107  C   TYR d   1      10.552 -13.317  31.309  0.00  0.00     0.197 C 
ATOM    108  O   TYR d   1      11.043 -14.055  30.522  0.00  0.00    -0.646 OA
ATOM    109  OXT TYR d   1      11.230 -12.638  32.069  0.00  0.00    -0.646 OA
ENDBRANCH 105 107
BRANCH 105 110
ATOM    110  CB  TYR d   1       8.431 -12.659  30.020  0.00  0.00    -0.013 C 
ATOM    111  H   TYR d   1       8.998 -13.115  29.195  0.00  0.00     0.043 H 
ATOM    112  H   TYR d   1       8.613 -11.574  30.034  0.00  0.00     0.043 H 
BRANCH 110 113
ATOM    113  CG  TYR d   1       6.932 -12.872  29.724  0.00  0.00    -0.056 A 
ATOM    114  CD1 TYR d   1       5.970 -12.395  30.561  0.00  0.00    -0.074 A 
ATOM    115  CE1 TYR d   1       4.636 -12.547  30.294  0.00  0.00    -0.051 A 
ATOM    116  H   TYR d   1       6.269 -11.879  31.466  0.00  0.00     0.084 H 
ATOM    117  CZ  TYR d   1       4.228 -13.181  29.172  0.00  0.00     0.065 A 
ATOM    118  H   TYR d   1       3.901 -12.156  30.988  0.00  0.00     0.087 H 
ATOM    119  CE2 TYR d   1       5.175 -13.665  28.318  0.00  0.00    -0.051 A 
ATOM    120  CD2 TYR d   1       6.503 -13.497  28.596  0.00  0.00    -0.074 A 
ATOM    121  H   TYR d   1       4.874 -14.185  27.416  0.00  0.00     0.087 H 
ATOM    122  H   TYR d   1       7.238 -13.874  27.894  0.00  0.00     0.084 H 
BRANCH 117 123
ATOM    123  OH  TYR d   1       2.915 -13.346  28.898  0.00  0.00    -0.361 OA
ATOM    124  H   TYR d   1       2.396 -12.952  29.590  0.00  0.00     0.217 HD
ENDBRANCH 117 123
ENDBRANCH 110 113
ENDBRANCH 105 110
ENDBRANCH 103 105
ENDBRANCH  99 101
BRANCH  99 125
ATOM    125  CB  GLU d   1       9.509 -11.373  35.227  0.00  0.00    -0.029 C 
ATOM    126  H   GLU d   1       9.286 -10.756  36.110  0.00  0.00     0.037 H 
ATOM    127  H   GLU d   1       9.778 -10.722  34.382  0.00  0.00     0.037 H 
BRANCH 125 128
ATOM    128  CG  GLU d   1      10.704 -12.255  35.550  0.00  0.00     0.018 C 
ATOM    129  H   GLU d   1      10.838 -12.979  34.733  0.00  0.00     0.049 H 
ATOM    130  H   GLU d   1      10.501 -12.793  36.488  0.00  0.00     0.049 H 
BRANCH 128 131
ATOM    131  CD  GLU d   1      11.987 -11.464  35.712  0.00  0.00     0.172 C 
ATOM    132  OE1 GLU d   1      13.070 -12.085  35.730  0.00  0.00    -0.648 OA
ATOM    133  OE2 GLU d   1      11.912 -10.222  35.821  0.00  0.00    -0.648 OA
ENDBRANCH 128 131
ENDBRANCH 125 128
ENDBRANCH  99 125
ENDBRANCH  97  99
ENDBRANCH  93  95
BRANCH  93 134
ATOM    134  CB  PHE d   1       5.034 -13.408  37.925  0.00  0.00    -0.014 C 
ATOM    135  H   PHE d   1       4.428 -12.542  38.230  0.00  0.00     0.043 H 
ATOM    136  H   PHE d   1       4.790 -14.269  38.565  0.00  0.00     0.043 H 
BRANCH 134 137
ATOM    137  CG  PHE d   1       4.676 -13.759  36.503  0.00  0.00    -0.056 A 
ATOM    138  CD1 PHE d   1       4.112 -12.807  35.660  0.00  0.00    -0.077 A 
ATOM    139  CE1 PHE d   1       3.778 -13.118  34.346  0.00  0.00    -0.082 A 
ATOM    140  H   PHE d   1       3.930 -11.806  36.033  0.00  0.00     0.084 H 
ATOM    141  CZ  PHE d   1       3.997 -14.401  33.865  0.00  0.00    -0.083 A 
ATOM    142  H   PHE d   1       3.348 -12.361  33.700  0.00  0.00     0.083 H 
ATOM    143  CE2 PHE d   1       4.560 -15.364  34.700  0.00  0.00    -0.082 A 
ATOM    144  H   PHE d   1       3.731 -14.653  32.845  0.00  0.00     0.083 H 
ATOM    145  CD2 PHE d   1       4.894 -15.037  36.014  0.00  0.00    -0.077 A 
ATOM    146  H   PHE d   1       4.738 -16.367  34.328  0.00  0.00     0.083 H 
ATOM    147  H   PHE d   1       5.329 -15.791  36.660  0.00  0.00     0.084 H 
ENDBRANCH 134 137
ENDBRANCH  93 134
ENDBRANCH  91  93
ENDBRANCH  87  89
BRANCH  87 148
ATOM    148  CB  TYR d   1       9.220 -11.188  41.814  0.00  0.00    -0.014 C 
ATOM    149  H   TYR d   1      10.035 -10.912  41.129  0.00  0.00     0.043 H 
ATOM    150  H   TYR d   1       9.332 -12.241  42.112  0.00  0.00     0.043 H 
BRANCH 148 151
ATOM    151  CG  TYR d   1       9.327 -10.328  43.053  0.00  0.00    -0.056 A 
ATOM    152  CD1 TYR d   1       8.768  -9.058  43.092  0.00  0.00    -0.074 A 
ATOM    153  CE1 TYR d   1       8.862  -8.271  44.223  0.00  0.00    -0.051 A 
ATOM    154  H   TYR d   1       8.249  -8.678  42.220  0.00  0.00     0.084 H 
ATOM    155  CZ  TYR d   1       9.520  -8.754  45.336  0.00  0.00     0.065 A 
ATOM    156  H   TYR d   1       8.422  -7.280  44.236  0.00  0.00     0.087 H 
ATOM    157  CE2 TYR d   1      10.081 -10.013  45.322  0.00  0.00    -0.051 A 
ATOM    158  CD2 TYR d   1       9.981 -10.791  44.186  0.00  0.00    -0.074 A 
ATOM    159  H   TYR d   1      10.597 -10.390  46.197  0.00  0.00     0.087 H 
ATOM    160  H   TYR d   1      10.421 -11.781  44.179  0.00  0.00     0.084 H 
BRANCH 155 161
ATOM    161  OH  TYR d   1       9.619  -7.978  46.467  0.00  0.00    -0.361 OA
ATOM    162  H   TYR d   1       9.185  -7.146  46.318  0.00  0.00     0.217 HD
ENDBRANCH 155 161
ENDBRANCH 148 151
ENDBRANCH  87 148
ENDBRANCH  85  87
ENDBRANCH   1  83
BRANCH   1 163
ATOM    163  CB  ASP d   1       5.940 -12.161  45.058  0.00  0.00     0.043 C 
ATOM    164  H   ASP d   1       6.539 -11.239  45.031  0.00  0.00     0.052 H 
ATOM    165  H   ASP d   1       6.563 -12.992  45.419  0.00  0.00     0.052 H 
BRANCH 163 166
ATOM    166  CG  ASP d   1       4.783 -11.963  46.026  0.00  0.00     0.175 C 
ATOM    167  OD1 ASP d   1       3.737 -11.424  45.605  0.00  0.00    -0.648 OA
ATOM    168  OD2 ASP d   1       4.919 -12.351  47.207  0.00  0.00    -0.648 OA
ENDBRANCH 163 166
ENDBRANCH   1 163
TORSDOF 42
