REMARK WARNING: 32 MAX_TORS EXCEEDED!!!
REMARK  43 active torsions:
REMARK  status: ('A' for Active; 'I' for Inactive)
REMARK    1  A    between atoms: N_1  and  CA_2 
REMARK    2  A    between atoms: CA_2  and  C_3 
REMARK    3  A    between atoms: CA_2  and  CB_5 
REMARK       I    between atoms: C_3  and  N_11 
REMARK    4  A    between atoms: CB_5  and  CG_6 
REMARK    5  A    between atoms: CA_12  and  C_13 
REMARK       I    between atoms: C_13  and  N_18 
REMARK    6  A    between atoms: N_18  and  CA_19 
REMARK    7  A    between atoms: CA_19  and  C_20 
REMARK    8  A    between atoms: CA_19  and  CB_22 
REMARK       I    between atoms: C_20  and  N_25 
REMARK    9  A    between atoms: CB_22  and  CG1_23 
REMARK   10  A    between atoms: CB_22  and  CG2_24 
REMARK   11  A    between atoms: N_25  and  CA_26 
REMARK   12  A    between atoms: CA_26  and  C_27 
REMARK       I    between atoms: C_27  and  N_29 
REMARK   13  A    between atoms: N_29  and  CA_30 
REMARK   14  A    between atoms: CA_30  and  C_31 
REMARK   15  A    between atoms: CA_30  and  CB_33 
REMARK       I    between atoms: C_31  and  N_38 
REMARK   16  A    between atoms: CB_33  and  CG_34 
REMARK   17  A    between atoms: CG_34  and  CD_35 
REMARK       I    between atoms: CD_35  and  NE2_37 
REMARK   18  A    between atoms: N_38  and  CA_39 
REMARK   19  A    between atoms: CA_39  and  C_40 
REMARK   20  A    between atoms: CA_39  and  CB_42 
REMARK       I    between atoms: C_40  and  N_43 
REMARK   21  A    between atoms: N_43  and  CA_44 
REMARK   22  A    between atoms: CA_44  and  C_45 
REMARK   23  A    between atoms: CA_44  and  CB_47 
REMARK       I    between atoms: C_45  and  N_51 
REMARK   24  A    between atoms: CB_47  and  CG_48 
REMARK   25  A    between atoms: N_51  and  CA_52 
REMARK   26  A    between atoms: CA_52  and  C_53 
REMARK   27  A    between atoms: CA_52  and  CB_55 
REMARK       I    between atoms: C_53  and  N_63 
REMARK   28  A    between atoms: CB_55  and  CG_56 
REMARK   29  A    between atoms: CZ_61  and  OH_62 
REMARK   30  A    between atoms: N_63  and  CA_64 
REMARK   31  A    between atoms: CA_64  and  C_65 
REMARK   32  A    between atoms: CA_64  and  CB_67 
REMARK       I    between atoms: C_65  and  N_74 
REMARK   33  A    between atoms: CB_67  and  CG_68 
REMARK   34  A    between atoms: N_74  and  CA_75 
REMARK   35  A    between atoms: CA_75  and  C_76 
REMARK   36  A    between atoms: CA_75  and  CB_78 
REMARK       I    between atoms: C_76  and  N_83 
REMARK   37  A    between atoms: CB_78  and  CG_79 
REMARK   38  A    between atoms: CG_79  and  CD_80 
REMARK   39  A    between atoms: N_83  and  CA_84 
REMARK   40  A    between atoms: CA_84  and  C_85 
REMARK   41  A    between atoms: CA_84  and  CB_87 
REMARK   42  A    between atoms: CB_87  and  CG_88 
REMARK   43  A    between atoms: CZ_93  and  OH_94 
ROOT
ATOM      1  CA  ASP d   1      -1.163 -14.646 -36.929  0.00  0.00     0.098 C 
ATOM      2  H   ASP d   1      -1.570 -15.171 -36.053  0.00  0.00     0.088 H 
ENDROOT
BRANCH   1   3
ATOM      3  N   ASP d   1      -0.628 -15.648 -37.843  0.00  0.00    -0.346 N 
ATOM      4  C   ALA d   1      -0.979 -16.930 -37.773  0.00  0.00     0.240 C 
ATOM      5  O   ALA d   1      -1.756 -17.372 -36.921  0.00  0.00    -0.271 OA
ATOM      6  H   ASP d   1       0.024 -15.363 -38.545  0.00  0.00     0.163 HD
BRANCH   4   7
ATOM      7  CA  ALA d   1      -0.376 -17.844 -38.837  0.00  0.00     0.086 C 
ATOM      8  H   ALA d   1      -1.199 -18.408 -39.299  0.00  0.00     0.086 H 
BRANCH   7   9
ATOM      9  N   ALA d   1       0.281 -17.069 -39.894  0.00  0.00    -0.346 N 
ATOM     10  C   GLN d   1      -0.428 -16.288 -40.713  0.00  0.00     0.241 C 
ATOM     11  O   GLN d   1      -1.650 -16.145 -40.598  0.00  0.00    -0.271 OA
ATOM     12  H   ALA d   1       1.273 -17.126 -40.003  0.00  0.00     0.163 HD
BRANCH  10  13
ATOM     13  CA  GLN d   1       0.335 -15.545 -41.822  0.00  0.00     0.090 C 
ATOM     14  H   GLN d   1      -0.174 -14.580 -41.962  0.00  0.00     0.087 H 
BRANCH  13  15
ATOM     15  N   GLN d   1       1.732 -15.248 -41.516  0.00  0.00    -0.346 N 
ATOM     16  C   GLY d   1       2.099 -14.543 -40.451  0.00  0.00     0.236 C 
ATOM     17  O   GLY d   1       1.321 -14.220 -39.553  0.00  0.00    -0.272 OA
ATOM     18  H   GLN d   1       2.441 -15.589 -42.133  0.00  0.00     0.163 HD
BRANCH  16  19
ATOM     19  CA  GLY d   1       3.565 -14.185 -40.384  0.00  0.00     0.069 C 
ATOM     20  H   GLY d   1       3.993 -14.248 -41.395  0.00  0.00     0.078 H 
ATOM     21  H   GLY d   1       3.663 -13.156 -40.007  0.00  0.00     0.078 H 
BRANCH  19  22
ATOM     22  N   GLY d   1       4.299 -15.077 -39.508  0.00  0.00    -0.351 N 
ATOM     23  C   VAL d   1       4.751 -14.664 -38.330  0.00  0.00     0.241 C 
ATOM     24  O   VAL d   1       4.558 -13.524 -37.905  0.00  0.00    -0.271 OA
ATOM     25  H   GLY d   1       4.468 -16.020 -39.796  0.00  0.00     0.163 HD
BRANCH  23  26
ATOM     26  CA  VAL d   1       5.577 -15.672 -37.527  0.00  0.00     0.092 C 
ATOM     27  H   VAL d   1       6.130 -16.302 -38.239  0.00  0.00     0.088 H 
BRANCH  26  28
ATOM     28  N   VAL d   1       6.546 -14.965 -36.701  0.00  0.00    -0.346 N 
ATOM     29  C   PRO d   1       7.616 -14.393 -37.244  0.00  0.00     0.241 C 
ATOM     30  O   PRO d   1       7.920 -14.521 -38.428  0.00  0.00    -0.271 OA
ATOM     31  H   VAL d   1       6.405 -14.909 -35.713  0.00  0.00     0.163 HD
BRANCH  29  32
ATOM     32  CA  PRO d   1       8.483 -13.546 -36.324  0.00  0.00     0.091 C 
ATOM     33  N   PRO d   1       9.815 -13.309 -36.889  0.00  0.00    -0.337 N 
ATOM     34  C   HIS d   1      10.706 -14.306 -36.928  0.00  0.00     0.251 C 
ATOM     35  CD  PRO d   1       9.994 -11.914 -37.336  0.00  0.00    -0.001 C 
ATOM     36  O   HIS d   1      10.445 -15.435 -36.526  0.00  0.00    -0.271 OA
ATOM     37  CG  PRO d   1       8.581 -11.372 -37.319  0.00  0.00    -0.048 C 
ATOM     38  H   PRO d   1      10.421 -11.874 -38.349  0.00  0.00     0.064 H 
ATOM     39  H   PRO d   1      10.641 -11.356 -36.643  0.00  0.00     0.064 H 
ATOM     40  CB  PRO d   1       7.898 -12.132 -36.222  0.00  0.00    -0.036 C 
ATOM     41  H   PRO d   1       8.581 -10.293 -37.102  0.00  0.00     0.035 H 
ATOM     42  H   PRO d   1       8.084 -11.552 -38.284  0.00  0.00     0.035 H 
ATOM     43  H   PRO d   1       8.122 -11.687 -35.241  0.00  0.00     0.036 H 
ATOM     44  H   PRO d   1       6.809 -12.148 -36.378  0.00  0.00     0.036 H 
ATOM     45  H   PRO d   1       8.553 -14.025 -35.336  0.00  0.00     0.087 H 
BRANCH  34  46
ATOM     46  CA  HIS d   1      12.087 -13.995 -37.506  0.00  0.00     0.181 C 
ATOM     47  H   HIS d   1      12.222 -12.907 -37.595  0.00  0.00     0.099 H 
BRANCH  46  48
ATOM     48  N   HIS d   1      13.098 -14.554 -36.601  0.00  0.00    -0.066 N 
ATOM     49  H   HIS d   1      14.018 -14.360 -36.964  0.00  0.00     0.275 HD
ATOM     50  H   HIS d   1      12.969 -15.551 -36.528  0.00  0.00     0.275 HD
ATOM     51  H   HIS d   1      13.001 -14.135 -35.689  0.00  0.00     0.275 HD
ENDBRANCH  46  48
BRANCH  46  52
ATOM     52  CB  HIS d   1      12.219 -14.650 -38.889  0.00  0.00     0.011 C 
ATOM     53  H   HIS d   1      11.815 -15.671 -38.825  0.00  0.00     0.046 H 
ATOM     54  H   HIS d   1      13.287 -14.694 -39.148  0.00  0.00     0.046 H 
BRANCH  52  55
ATOM     55  CG  HIS d   1      11.499 -13.929 -39.990  0.00  0.00     0.053 A 
ATOM     56  ND1 HIS d   1      10.123 -13.857 -40.065  0.00  0.00    -0.247 NA
ATOM     57  CE1 HIS d   1       9.779 -13.175 -41.144  0.00  0.00     0.064 A 
ATOM     58  NE2 HIS d   1      10.881 -12.813 -41.779  0.00  0.00    -0.359 N 
ATOM     59  H   HIS d   1       8.761 -12.950 -41.457  0.00  0.00     0.143 H 
ATOM     60  CD2 HIS d   1      11.970 -13.275 -41.079  0.00  0.00     0.002 A 
ATOM     61  H   HIS d   1      10.917 -12.273 -42.655  0.00  0.00     0.166 HD
ATOM     62  H   HIS d   1      13.016 -13.140 -41.349  0.00  0.00     0.114 H 
ENDBRANCH  52  55
ENDBRANCH  46  52
ENDBRANCH  34  46
ENDBRANCH  29  32
ENDBRANCH  26  28
BRANCH  26  63
ATOM     63  CB  VAL d   1       4.685 -16.599 -36.678  0.00  0.00    -0.033 C 
ATOM     64  H   VAL d   1       5.347 -17.251 -36.089  0.00  0.00     0.042 H 
BRANCH  63  65
ATOM     65  CG1 VAL d   1       3.819 -15.811 -35.695  0.00  0.00    -0.071 C 
ATOM     66  H   VAL d   1       3.200 -16.508 -35.111  0.00  0.00     0.028 H 
ATOM     67  H   VAL d   1       3.168 -15.121 -36.252  0.00  0.00     0.028 H 
ATOM     68  H   VAL d   1       4.466 -15.237 -35.015  0.00  0.00     0.028 H 
ENDBRANCH  63  65
BRANCH  63  69
ATOM     69  CG2 VAL d   1       3.825 -17.494 -37.575  0.00  0.00    -0.071 C 
ATOM     70  H   VAL d   1       4.473 -18.047 -38.270  0.00  0.00     0.028 H 
ATOM     71  H   VAL d   1       3.121 -16.872 -38.147  0.00  0.00     0.028 H 
ATOM     72  H   VAL d   1       3.263 -18.206 -36.952  0.00  0.00     0.028 H 
ENDBRANCH  63  69
ENDBRANCH  26  63
ENDBRANCH  23  26
ENDBRANCH  19  22
ENDBRANCH  16  19
ENDBRANCH  13  15
BRANCH  13  73
ATOM     73  CB  GLN d   1       0.254 -16.310 -43.146  0.00  0.00    -0.030 C 
ATOM     74  H   GLN d   1      -0.755 -16.182 -43.565  0.00  0.00     0.037 H 
ATOM     75  H   GLN d   1       0.437 -17.377 -42.948  0.00  0.00     0.037 H 
BRANCH  73  76
ATOM     76  CG  GLN d   1       1.274 -15.822 -44.171  0.00  0.00     0.011 C 
ATOM     77  H   GLN d   1       2.282 -15.959 -43.753  0.00  0.00     0.047 H 
ATOM     78  H   GLN d   1       1.097 -14.753 -44.358  0.00  0.00     0.047 H 
BRANCH  76  79
ATOM     79  CD  GLN d   1       1.196 -16.561 -45.492  0.00  0.00     0.215 C 
ATOM     80  OE1 GLN d   1       2.134 -17.255 -45.885  0.00  0.00    -0.274 OA
ATOM     81  NE2 GLN d   1       0.079 -16.406 -46.192  0.00  0.00    -0.370 N 
ATOM     82  H   GLN d   1      -0.028 -16.870 -47.071  0.00  0.00     0.159 HD
ATOM     83  H   GLN d   1      -0.655 -15.825 -45.840  0.00  0.00     0.159 HD
ENDBRANCH  76  79
ENDBRANCH  73  76
ENDBRANCH  13  73
ENDBRANCH  10  13
ENDBRANCH   7   9
BRANCH   7  84
ATOM     84  CB  ALA d   1       0.593 -18.861 -38.207  0.00  0.00    -0.049 C 
ATOM     85  H   ALA d   1       0.071 -19.425 -37.420  0.00  0.00     0.030 H 
ATOM     86  H   ALA d   1       1.450 -18.328 -37.770  0.00  0.00     0.030 H 
ATOM     87  H   ALA d   1       0.949 -19.556 -38.981  0.00  0.00     0.030 H 
ENDBRANCH   7  84
ENDBRANCH   4   7
ENDBRANCH   1   3
BRANCH   1  88
ATOM     88  C   ASP d   1      -2.288 -13.809 -37.548  0.00  0.00     0.241 C 
ATOM     89  O   ASP d   1      -2.690 -12.794 -36.980  0.00  0.00    -0.271 OA
ATOM     90  N   TYR d   1      -2.791 -14.231 -38.705  0.00  0.00    -0.346 N 
ATOM     91  H   TYR d   1      -2.458 -15.086 -39.102  0.00  0.00     0.163 HD
BRANCH  90  92
ATOM     92  CA  TYR d   1      -3.822 -13.467 -39.407  0.00  0.00     0.093 C 
ATOM     93  H   TYR d   1      -3.465 -12.429 -39.486  0.00  0.00     0.088 H 
BRANCH  92  94
ATOM     94  C   TYR d   1      -5.162 -13.435 -38.659  0.00  0.00     0.241 C 
ATOM     95  O   TYR d   1      -5.855 -12.415 -38.636  0.00  0.00    -0.271 OA
ATOM     96  N   PHE d   1      -5.542 -14.548 -38.049  0.00  0.00    -0.346 N 
ATOM     97  H   PHE d   1      -4.935 -15.342 -38.018  0.00  0.00     0.163 HD
BRANCH  96  98
ATOM     98  CA  PHE d   1      -6.859 -14.597 -37.423  0.00  0.00     0.093 C 
ATOM     99  H   PHE d   1      -7.542 -14.066 -38.102  0.00  0.00     0.088 H 
BRANCH  98 100
ATOM    100  C   PHE d   1      -6.934 -13.855 -36.086  0.00  0.00     0.241 C 
ATOM    101  O   PHE d   1      -6.091 -14.024 -35.197  0.00  0.00    -0.271 OA
ATOM    102  N   GLU d   1      -7.945 -13.015 -35.933  0.00  0.00    -0.346 N 
ATOM    103  H   GLU d   1      -8.560 -12.873 -36.709  0.00  0.00     0.163 HD
BRANCH 102 104
ATOM    104  CA  GLU d   1      -8.213 -12.292 -34.715  0.00  0.00     0.090 C 
ATOM    105  H   GLU d   1      -7.321 -11.713 -34.436  0.00  0.00     0.087 H 
BRANCH 104 106
ATOM    106  C   GLU d   1      -8.583 -13.228 -33.590  0.00  0.00     0.241 C 
ATOM    107  O   GLU d   1      -8.971 -14.307 -33.830  0.00  0.00    -0.271 OA
ATOM    108  N   TYR d   1      -8.466 -12.744 -32.367  0.00  0.00    -0.344 N 
ATOM    109  H   TYR d   1      -7.999 -11.869 -32.240  0.00  0.00     0.163 HD
BRANCH 108 110
ATOM    110  CA  TYR d   1      -8.989 -13.433 -31.195  0.00  0.00     0.100 C 
ATOM    111  H   TYR d   1      -8.661 -14.481 -31.252  0.00  0.00     0.090 H 
BRANCH 110 112
ATOM    112  C   TYR d   1     -10.538 -13.419 -31.172  0.00  0.00     0.197 C 
ATOM    113  O   TYR d   1     -11.102 -14.173 -30.414  0.00  0.00    -0.646 OA
ATOM    114  OXT TYR d   1     -11.173 -12.662 -31.905  0.00  0.00    -0.646 OA
ENDBRANCH 110 112
BRANCH 110 115
ATOM    115  CB  TYR d   1      -8.432 -12.831 -29.879  0.00  0.00    -0.013 C 
ATOM    116  H   TYR d   1      -8.985 -13.294 -29.049  0.00  0.00     0.043 H 
ATOM    117  H   TYR d   1      -8.639 -11.751 -29.901  0.00  0.00     0.043 H 
BRANCH 115 118
ATOM    118  CG  TYR d   1      -6.940 -13.001 -29.582  0.00  0.00    -0.056 A 
ATOM    119  CD1 TYR d   1      -6.516 -13.417 -28.377  0.00  0.00    -0.074 A 
ATOM    120  CE1 TYR d   1      -5.178 -13.559 -28.104  0.00  0.00    -0.051 A 
ATOM    121  H   TYR d   1      -7.244 -13.645 -27.606  0.00  0.00     0.084 H 
ATOM    122  CZ  TYR d   1      -4.237 -13.220 -29.020  0.00  0.00     0.065 A 
ATOM    123  H   TYR d   1      -4.869 -13.948 -27.141  0.00  0.00     0.087 H 
ATOM    124  CE2 TYR d   1      -4.664 -12.754 -30.214  0.00  0.00    -0.051 A 
ATOM    125  CD2 TYR d   1      -5.983 -12.663 -30.488  0.00  0.00    -0.074 A 
ATOM    126  H   TYR d   1      -3.939 -12.450 -30.961  0.00  0.00     0.087 H 
ATOM    127  H   TYR d   1      -6.290 -12.308 -31.465  0.00  0.00     0.084 H 
BRANCH 122 128
ATOM    128  OH  TYR d   1      -2.914 -13.349 -28.708  0.00  0.00    -0.361 OA
ATOM    129  H   TYR d   1      -2.830 -13.692 -27.826  0.00  0.00     0.217 HD
ENDBRANCH 122 128
ENDBRANCH 115 118
ENDBRANCH 110 115
ENDBRANCH 108 110
ENDBRANCH 104 106
BRANCH 104 130
ATOM    130  CB  GLU d   1      -9.400 -11.354 -34.925  0.00  0.00    -0.029 C 
ATOM    131  H   GLU d   1      -9.604 -10.846 -33.971  0.00  0.00     0.037 H 
ATOM    132  H   GLU d   1     -10.270 -11.965 -35.209  0.00  0.00     0.037 H 
BRANCH 130 133
ATOM    133  CG  GLU d   1      -9.214 -10.329 -35.952  0.00  0.00     0.018 C 
ATOM    134  H   GLU d   1      -8.869 -10.819 -36.875  0.00  0.00     0.049 H 
ATOM    135  H   GLU d   1      -8.447  -9.622 -35.603  0.00  0.00     0.049 H 
BRANCH 133 136
ATOM    136  CD  GLU d   1     -10.510  -9.531 -36.273  0.00  0.00     0.172 C 
ATOM    137  OE1 GLU d   1     -11.554  -9.736 -35.658  0.00  0.00    -0.648 OA
ATOM    138  OE2 GLU d   1     -10.409  -8.701 -37.147  0.00  0.00    -0.648 OA
ENDBRANCH 133 136
ENDBRANCH 130 133
ENDBRANCH 104 130
ENDBRANCH 102 104
ENDBRANCH  98 100
BRANCH  98 139
ATOM    139  CB  PHE d   1      -7.375 -16.035 -37.326  0.00  0.00    -0.014 C 
ATOM    140  H   PHE d   1      -8.197 -16.061 -36.596  0.00  0.00     0.043 H 
ATOM    141  H   PHE d   1      -6.553 -16.677 -36.976  0.00  0.00     0.043 H 
BRANCH 139 142
ATOM    142  CG  PHE d   1      -7.884 -16.582 -38.640  0.00  0.00    -0.056 A 
ATOM    143  CD1 PHE d   1      -9.156 -16.255 -39.095  0.00  0.00    -0.077 A 
ATOM    144  CE1 PHE d   1      -9.630 -16.750 -40.304  0.00  0.00    -0.082 A 
ATOM    145  H   PHE d   1      -9.787 -15.605 -38.499  0.00  0.00     0.084 H 
ATOM    146  CZ  PHE d   1      -8.830 -17.579 -41.072  0.00  0.00    -0.083 A 
ATOM    147  H   PHE d   1     -10.625 -16.487 -40.645  0.00  0.00     0.083 H 
ATOM    148  CE2 PHE d   1      -7.557 -17.910 -40.633  0.00  0.00    -0.082 A 
ATOM    149  H   PHE d   1      -9.198 -17.968 -42.014  0.00  0.00     0.083 H 
ATOM    150  CD2 PHE d   1      -7.090 -17.411 -39.423  0.00  0.00    -0.077 A 
ATOM    151  H   PHE d   1      -6.927 -18.557 -41.233  0.00  0.00     0.083 H 
ATOM    152  H   PHE d   1      -6.093 -17.672 -39.086  0.00  0.00     0.084 H 
ENDBRANCH 139 142
ENDBRANCH  98 139
ENDBRANCH  96  98
ENDBRANCH  92  94
BRANCH  92 153
ATOM    153  CB  TYR d   1      -4.015 -14.009 -40.833  0.00  0.00    -0.014 C 
ATOM    154  H   TYR d   1      -4.089 -15.105 -40.778  0.00  0.00     0.043 H 
ATOM    155  H   TYR d   1      -3.134 -13.730 -41.430  0.00  0.00     0.043 H 
BRANCH 153 156
ATOM    156  CG  TYR d   1      -5.253 -13.483 -41.536  0.00  0.00    -0.056 A 
ATOM    157  CD1 TYR d   1      -6.442 -14.212 -41.537  0.00  0.00    -0.074 A 
ATOM    158  CE1 TYR d   1      -7.575 -13.731 -42.174  0.00  0.00    -0.051 A 
ATOM    159  H   TYR d   1      -6.481 -15.170 -41.032  0.00  0.00     0.084 H 
ATOM    160  CZ  TYR d   1      -7.529 -12.507 -42.820  0.00  0.00     0.065 A 
ATOM    161  H   TYR d   1      -8.492 -14.309 -42.167  0.00  0.00     0.087 H 
ATOM    162  CE2 TYR d   1      -6.362 -11.768 -42.833  0.00  0.00    -0.051 A 
ATOM    163  CD2 TYR d   1      -5.235 -12.257 -42.191  0.00  0.00    -0.074 A 
ATOM    164  H   TYR d   1      -6.328 -10.812 -43.342  0.00  0.00     0.087 H 
ATOM    165  H   TYR d   1      -4.322 -11.672 -42.200  0.00  0.00     0.084 H 
BRANCH 160 166
ATOM    166  OH  TYR d   1      -8.651 -12.021 -43.458  0.00  0.00    -0.361 OA
ATOM    167  H   TYR d   1      -9.364 -12.641 -43.358  0.00  0.00     0.217 HD
ENDBRANCH 160 166
ENDBRANCH 153 156
ENDBRANCH  92 153
ENDBRANCH  90  92
ENDBRANCH   1  88
BRANCH   1 168
ATOM    168  CB  ASP d   1      -0.050 -13.712 -36.466  0.00  0.00     0.043 C 
ATOM    169  H   ASP d   1      -0.464 -12.700 -36.346  0.00  0.00     0.052 H 
ATOM    170  H   ASP d   1       0.740 -13.696 -37.231  0.00  0.00     0.052 H 
BRANCH 168 171
ATOM    171  CG  ASP d   1       0.551 -14.145 -35.161  0.00  0.00     0.175 C 
ATOM    172  OD1 ASP d   1       0.050 -15.141 -34.582  0.00  0.00    -0.648 OA
ATOM    173  OD2 ASP d   1       1.499 -13.476 -34.695  0.00  0.00    -0.648 OA
ENDBRANCH 168 171
ENDBRANCH   1 168
TORSDOF 43
