REMARK  19 active torsions:
REMARK  status: ('A' for Active; 'I' for Inactive)
REMARK    1  A    between atoms: C1B_3  and  C1C_5 
REMARK    2  A    between atoms: C1C_5  and  C1D_6 
REMARK       I    between atoms: C1D_6  and  N4A_30 
REMARK    3  A    between atoms: C2A_8  and  C2B_9 
REMARK    4  A    between atoms: C2B_9  and  C2C_10 
REMARK    5  A    between atoms: C2C_10  and  C2D_11 
REMARK    6  A    between atoms: C2D_11  and  C2E_12 
REMARK    7  A    between atoms: C2E_12  and  C2F_13 
REMARK    8  A    between atoms: C2F_13  and  C2G_14 
REMARK    9  A    between atoms: C2G_14  and  C2H_15 
REMARK   10  A    between atoms: N3A_16  and  C3B_17 
REMARK   11  A    between atoms: C3B_17  and  C3C_18 
REMARK   12  A    between atoms: C3C_18  and  C3D_19 
REMARK   13  A    between atoms: C3D_19  and  C3E_20 
REMARK   14  A    between atoms: C3E_20  and  C3F_21 
REMARK   15  A    between atoms: C3K_26  and  C3L_27 
REMARK   16  A    between atoms: N4A_30  and  C4B_31 
REMARK   17  A    between atoms: N4A_30  and  C5B_38 
REMARK   18  A    between atoms: C4B_31  and  C4C_32 
REMARK   19  A    between atoms: C5B_38  and  C5C_39 
ROOT
ATOM      1  S1B 072 d   1      17.045  61.372   9.536  0.00  0.00    -0.129 SA
ATOM      2  C1A 072 d   1      15.705  63.534   9.097  0.00  0.00     0.235 C 
ATOM      3  C1B 072 d   1      15.447  62.029   9.386  0.00  0.00     0.078 C 
ATOM      4  O1A 072 d   1      14.738  64.219   8.653  0.00  0.00    -0.272 OA
ATOM      5  C2A 072 d   1      18.020  62.837   9.568  0.00  0.00     0.060 C 
ATOM      6  N3A 072 d   1      17.027  63.980   9.272  0.00  0.00    -0.338 N 
ATOM      7  H1  072 d   1      14.953  61.630   8.488  0.00  0.00     0.072 H 
ATOM      8  H4  072 d   1      18.403  63.012  10.584  0.00  0.00     0.090 H 
ENDROOT
BRANCH   3   9
ATOM      9  C1C 072 d   1      14.645  61.441  10.607  0.00  0.00     0.029 C 
ATOM     10  H2  072 d   1      14.439  60.393  10.344  0.00  0.00     0.049 H 
ATOM     11  H3  072 d   1      13.700  62.004  10.635  0.00  0.00     0.049 H 
BRANCH   9  12
ATOM     12  C1D 072 d   1      15.176  61.405  12.156  0.00  0.00     0.221 C 
ATOM     13  O1D 072 d   1      15.924  62.396  12.402  0.00  0.00    -0.273 OA
ATOM     14  N4A 072 d   1      14.919  60.408  13.201  0.00  0.00    -0.344 N 
BRANCH  14  15
ATOM     15  C4B 072 d   1      15.956  60.259  14.426  0.00  0.00     0.022 C 
ATOM     16  H32 072 d   1      15.721  59.270  14.846  0.00  0.00     0.071 H 
ATOM     17  H33 072 d   1      15.639  61.042  15.131  0.00  0.00     0.071 H 
BRANCH  15  18
ATOM     18  C4C 072 d   1      17.571  60.324  14.484  0.00  0.00    -0.040 C 
ATOM     19  C4E 072 d   1      18.301  60.386  15.775  0.00  0.00    -0.075 C 
ATOM     20  C4G 072 d   1      19.728  60.148  15.829  0.00  0.00    -0.082 C 
ATOM     21  H34 072 d   1      17.760  60.612  16.687  0.00  0.00     0.084 H 
ATOM     22  C4H 072 d   1      20.460  59.952  14.606  0.00  0.00    -0.083 C 
ATOM     23  H36 072 d   1      20.241  60.118  16.784  0.00  0.00     0.083 H 
ATOM     24  C4F 072 d   1      19.797  60.044  13.344  0.00  0.00    -0.082 C 
ATOM     25  H38 072 d   1      21.521  59.733  14.642  0.00  0.00     0.083 H 
ATOM     26  C4D 072 d   1      18.372  60.150  13.269  0.00  0.00    -0.075 C 
ATOM     27  H37 072 d   1      20.381  60.033  12.431  0.00  0.00     0.083 H 
ATOM     28  H35 072 d   1      17.880  60.101  12.304  0.00  0.00     0.084 H 
ENDBRANCH  15  18
ENDBRANCH  14  15
BRANCH  14  29
ATOM     29  C5B 072 d   1      13.740  59.353  13.191  0.00  0.00     0.022 C 
ATOM     30  H39 072 d   1      13.929  58.697  14.054  0.00  0.00     0.071 H 
ATOM     31  H40 072 d   1      13.870  58.781  12.260  0.00  0.00     0.071 H 
BRANCH  29  32
ATOM     32  C5C 072 d   1      12.182  59.702  13.259  0.00  0.00    -0.040 C 
ATOM     33  C5D 072 d   1      11.409  59.817  11.976  0.00  0.00    -0.075 C 
ATOM     34  C5F 072 d   1      10.002  59.453  11.889  0.00  0.00    -0.082 C 
ATOM     35  H41 072 d   1      11.914  60.182  11.089  0.00  0.00     0.084 H 
ATOM     36  C5H 072 d   1       9.316  59.048  13.084  0.00  0.00    -0.083 C 
ATOM     37  H43 072 d   1       9.481  59.487  10.939  0.00  0.00     0.083 H 
ATOM     38  C5G 072 d   1      10.021  59.037  14.380  0.00  0.00    -0.082 C 
ATOM     39  H45 072 d   1       8.275  58.749  13.034  0.00  0.00     0.083 H 
ATOM     40  C5E 072 d   1      11.428  59.381  14.474  0.00  0.00    -0.075 C 
ATOM     41  H44 072 d   1       9.478  58.767  15.279  0.00  0.00     0.083 H 
ATOM     42  H42 072 d   1      11.920  59.400  15.440  0.00  0.00     0.084 H 
ENDBRANCH  29  32
ENDBRANCH  14  29
ENDBRANCH   9  12
ENDBRANCH   3   9
BRANCH   5  43
ATOM     43  C2B 072 d   1      19.314  62.528   8.642  0.00  0.00    -0.037 C 
ATOM     44  H5  072 d   1      19.038  62.815   7.617  0.00  0.00     0.037 H 
ATOM     45  H6  072 d   1      19.477  61.441   8.687  0.00  0.00     0.037 H 
BRANCH  43  46
ATOM     46  C2C 072 d   1      20.721  63.205   8.935  0.00  0.00    -0.062 C 
ATOM     47  H7  072 d   1      20.504  64.193   9.368  0.00  0.00     0.033 H 
ATOM     48  H8  072 d   1      21.211  63.332   7.958  0.00  0.00     0.033 H 
BRANCH  46  49
ATOM     49  C2D 072 d   1      21.815  62.517   9.904  0.00  0.00    -0.065 C 
ATOM     50  H9  072 d   1      22.292  61.753   9.273  0.00  0.00     0.033 H 
ATOM     51  H10 072 d   1      21.214  62.026  10.684  0.00  0.00     0.033 H 
BRANCH  49  52
ATOM     52  C2E 072 d   1      23.033  63.180  10.706  0.00  0.00    -0.065 C 
ATOM     53  H11 072 d   1      23.774  62.379  10.846  0.00  0.00     0.033 H 
ATOM     54  H12 072 d   1      22.625  63.477  11.683  0.00  0.00     0.033 H 
BRANCH  52  55
ATOM     55  C2F 072 d   1      23.843  64.434  10.173  0.00  0.00    -0.065 C 
ATOM     56  H13 072 d   1      23.183  65.297  10.348  0.00  0.00     0.033 H 
ATOM     57  H14 072 d   1      23.950  64.267   9.091  0.00  0.00     0.033 H 
BRANCH  55  58
ATOM     58  C2G 072 d   1      25.285  64.906  10.666  0.00  0.00    -0.069 C 
ATOM     59  H15 072 d   1      26.017  64.209  10.233  0.00  0.00     0.032 H 
ATOM     60  H16 072 d   1      25.296  64.815  11.762  0.00  0.00     0.032 H 
BRANCH  58  61
ATOM     61  C2H 072 d   1      25.772  66.358  10.320  0.00  0.00    -0.077 C 
ATOM     62  H17 072 d   1      26.779  66.515  10.733  0.00  0.00     0.027 H 
ATOM     63  H18 072 d   1      25.078  67.091  10.757  0.00  0.00     0.027 H 
ATOM     64  H19 072 d   1      25.800  66.485   9.228  0.00  0.00     0.027 H 
ENDBRANCH  58  61
ENDBRANCH  55  58
ENDBRANCH  52  55
ENDBRANCH  49  52
ENDBRANCH  46  49
ENDBRANCH  43  46
ENDBRANCH   5  43
BRANCH   6  65
ATOM     65  C3B 072 d   1      17.374  65.528   9.406  0.00  0.00    -0.001 C 
ATOM     66  H20 072 d   1      18.109  65.607  10.220  0.00  0.00     0.064 H 
ATOM     67  H21 072 d   1      16.440  66.026   9.706  0.00  0.00     0.064 H 
BRANCH  65  68
ATOM     68  C3C 072 d   1      17.966  66.389   8.185  0.00  0.00    -0.050 C 
ATOM     69  H22 072 d   1      18.392  65.674   7.465  0.00  0.00     0.035 H 
ATOM     70  H23 072 d   1      18.769  67.018   8.596  0.00  0.00     0.035 H 
BRANCH  68  71
ATOM     71  C3D 072 d   1      16.998  67.349   7.367  0.00  0.00    -0.060 C 
ATOM     72  H24 072 d   1      16.604  68.058   8.110  0.00  0.00     0.033 H 
ATOM     73  H25 072 d   1      16.184  66.699   7.013  0.00  0.00     0.033 H 
BRANCH  71  74
ATOM     74  C3E 072 d   1      17.393  68.254   6.095  0.00  0.00    -0.041 C 
ATOM     75  H26 072 d   1      16.438  68.538   5.629  0.00  0.00     0.040 H 
ATOM     76  H27 072 d   1      17.947  67.585   5.419  0.00  0.00     0.040 H 
BRANCH  74  77
ATOM     77  C3F 072 d   1      18.261  69.614   6.162  0.00  0.00    -0.058 A 
ATOM     78  C3G 072 d   1      17.735  70.890   6.701  0.00  0.00    -0.076 A 
ATOM     79  C3I 072 d   1      18.436  72.149   6.509  0.00  0.00    -0.066 A 
ATOM     80  H28 072 d   1      16.802  70.885   7.253  0.00  0.00     0.084 H 
ATOM     81  C3K 072 d   1      19.684  72.179   5.757  0.00  0.00     0.040 A 
ATOM     82  H30 072 d   1      18.031  73.064   6.925  0.00  0.00     0.085 H 
ATOM     83  C3J 072 d   1      20.235  70.910   5.281  0.00  0.00    -0.066 A 
ATOM     84  C3H 072 d   1      19.548  69.676   5.474  0.00  0.00    -0.076 A 
ATOM     85  H31 072 d   1      21.190  70.908   4.768  0.00  0.00     0.085 H 
ATOM     86  H29 072 d   1      19.992  68.760   5.101  0.00  0.00     0.084 H 
BRANCH  81  87
ATOM     87  C3L 072 d   1      20.376  73.442   5.451  0.00  0.00     0.209 C 
ATOM     88  O3M 072 d   1      21.054  73.576   4.374  0.00  0.00    -0.644 OA
ATOM     89  O3N 072 d   1      20.342  74.369   6.294  0.00  0.00    -0.644 OA
ENDBRANCH  81  87
ENDBRANCH  74  77
ENDBRANCH  71  74
ENDBRANCH  68  71
ENDBRANCH  65  68
ENDBRANCH   6  65
TORSDOF 19
