REMARK WARNING: 32 MAX_TORS EXCEEDED!!!
REMARK  42 active torsions:
REMARK  status: ('A' for Active; 'I' for Inactive)
REMARK    1  A    between atoms: N_1  and  CA_2 
REMARK    2  A    between atoms: CA_2  and  C_3 
REMARK    3  A    between atoms: CA_2  and  CB_5 
REMARK       I    between atoms: C_3  and  N_11 
REMARK    4  A    between atoms: CB_5  and  CG_6 
REMARK    5  A    between atoms: CA_12  and  C_13 
REMARK       I    between atoms: C_13  and  N_18 
REMARK    6  A    between atoms: N_18  and  CA_19 
REMARK    7  A    between atoms: CA_19  and  C_20 
REMARK    8  A    between atoms: CA_19  and  CB_22 
REMARK       I    between atoms: C_20  and  N_25 
REMARK    9  A    between atoms: CB_22  and  CG1_23 
REMARK   10  A    between atoms: CB_22  and  CG2_24 
REMARK   11  A    between atoms: N_25  and  CA_26 
REMARK   12  A    between atoms: CA_26  and  C_27 
REMARK       I    between atoms: C_27  and  N_29 
REMARK   13  A    between atoms: N_29  and  CA_30 
REMARK   14  A    between atoms: CA_30  and  C_31 
REMARK   15  A    between atoms: CA_30  and  CB_33 
REMARK       I    between atoms: C_31  and  N_37 
REMARK   16  A    between atoms: CB_33  and  CG_34 
REMARK   17  A    between atoms: N_37  and  CA_38 
REMARK   18  A    between atoms: CA_38  and  C_39 
REMARK   19  A    between atoms: CA_38  and  CB_41 
REMARK       I    between atoms: C_39  and  N_42 
REMARK   20  A    between atoms: N_42  and  CA_43 
REMARK   21  A    between atoms: CA_43  and  C_44 
REMARK   22  A    between atoms: CA_43  and  CB_46 
REMARK       I    between atoms: C_44  and  N_50 
REMARK   23  A    between atoms: CB_46  and  CG_47 
REMARK   24  A    between atoms: N_50  and  CA_51 
REMARK   25  A    between atoms: CA_51  and  C_52 
REMARK   26  A    between atoms: CA_51  and  CB_54 
REMARK       I    between atoms: C_52  and  N_62 
REMARK   27  A    between atoms: CB_54  and  CG_55 
REMARK   28  A    between atoms: CZ_60  and  OH_61 
REMARK   29  A    between atoms: N_62  and  CA_63 
REMARK   30  A    between atoms: CA_63  and  C_64 
REMARK   31  A    between atoms: CA_63  and  CB_66 
REMARK       I    between atoms: C_64  and  N_73 
REMARK   32  A    between atoms: CB_66  and  CG_67 
REMARK   33  A    between atoms: N_73  and  CA_74 
REMARK   34  A    between atoms: CA_74  and  C_75 
REMARK   35  A    between atoms: CA_74  and  CB_77 
REMARK       I    between atoms: C_75  and  N_82 
REMARK   36  A    between atoms: CB_77  and  CG_78 
REMARK   37  A    between atoms: CG_78  and  CD_79 
REMARK   38  A    between atoms: N_82  and  CA_83 
REMARK   39  A    between atoms: CA_83  and  C_84 
REMARK   40  A    between atoms: CA_83  and  CB_86 
REMARK   41  A    between atoms: CB_86  and  CG_87 
REMARK   42  A    between atoms: CZ_92  and  OH_93 
ROOT
ATOM      1  CA  ASP d   1     -17.922  17.615 -17.179  0.00  0.00     0.098 C 
ATOM      2  H   ASP d   1     -17.219  18.442 -17.360  0.00  0.00     0.088 H 
ENDROOT
BRANCH   1   3
ATOM      3  N   ASP d   1     -17.694  17.025 -15.874  0.00  0.00    -0.346 N 
ATOM      4  C   ALA d   1     -17.468  17.693 -14.750  0.00  0.00     0.240 C 
ATOM      5  O   ALA d   1     -17.373  18.916 -14.722  0.00  0.00    -0.271 OA
ATOM      6  H   ASP d   1     -17.708  16.027 -15.816  0.00  0.00     0.163 HD
BRANCH   4   7
ATOM      7  CA  ALA d   1     -17.300  16.862 -13.460  0.00  0.00     0.086 C 
ATOM      8  H   ALA d   1     -16.364  16.287 -13.509  0.00  0.00     0.086 H 
BRANCH   7   9
ATOM      9  N   ALA d   1     -17.248  17.800 -12.340  0.00  0.00    -0.346 N 
ATOM     10  C   ASP d   1     -16.186  18.584 -12.080  0.00  0.00     0.241 C 
ATOM     11  O   ASP d   1     -15.112  18.525 -12.697  0.00  0.00    -0.271 OA
ATOM     12  H   ALA d   1     -18.043  17.862 -11.736  0.00  0.00     0.163 HD
BRANCH  10  13
ATOM     13  CA  ASP d   1     -16.347  19.557 -10.958  0.00  0.00     0.098 C 
ATOM     14  H   ASP d   1     -17.326  19.421 -10.474  0.00  0.00     0.088 H 
BRANCH  13  15
ATOM     15  N   ASP d   1     -15.292  19.234 -10.021  0.00  0.00    -0.346 N 
ATOM     16  C   GLY d   1     -15.545  18.509  -8.939  0.00  0.00     0.236 C 
ATOM     17  O   GLY d   1     -16.696  18.186  -8.593  0.00  0.00    -0.272 OA
ATOM     18  H   ASP d   1     -14.362  19.561 -10.191  0.00  0.00     0.163 HD
BRANCH  16  19
ATOM     19  CA  GLY d   1     -14.340  18.120  -8.108  0.00  0.00     0.069 C 
ATOM     20  H   GLY d   1     -13.922  17.177  -8.489  0.00  0.00     0.078 H 
ATOM     21  H   GLY d   1     -13.579  18.911  -8.174  0.00  0.00     0.078 H 
BRANCH  19  22
ATOM     22  N   GLY d   1     -14.737  17.948  -6.726  0.00  0.00    -0.351 N 
ATOM     23  C   VAL d   1     -14.960  18.994  -5.941  0.00  0.00     0.241 C 
ATOM     24  O   VAL d   1     -14.790  20.168  -6.289  0.00  0.00    -0.271 OA
ATOM     25  H   GLY d   1     -14.845  17.025  -6.357  0.00  0.00     0.163 HD
BRANCH  23  26
ATOM     26  CA  VAL d   1     -15.409  18.673  -4.546  0.00  0.00     0.092 C 
ATOM     27  H   VAL d   1     -15.124  17.630  -4.342  0.00  0.00     0.088 H 
BRANCH  26  28
ATOM     28  N   VAL d   1     -14.662  19.507  -3.598  0.00  0.00    -0.346 N 
ATOM     29  C   PRO d   1     -13.566  19.098  -2.898  0.00  0.00     0.241 C 
ATOM     30  O   PRO d   1     -13.134  17.938  -2.917  0.00  0.00    -0.271 OA
ATOM     31  H   VAL d   1     -14.980  20.444  -3.455  0.00  0.00     0.163 HD
BRANCH  29  32
ATOM     32  CA  PRO d   1     -12.906  20.148  -1.992  0.00  0.00     0.091 C 
ATOM     33  N   PRO d   1     -11.914  19.611  -1.039  0.00  0.00    -0.337 N 
ATOM     34  C   HIS d   1     -12.325  18.899   0.027  0.00  0.00     0.251 C 
ATOM     35  CD  PRO d   1     -10.540  20.010  -1.402  0.00  0.00    -0.001 C 
ATOM     36  O   HIS d   1     -13.521  18.645   0.224  0.00  0.00    -0.271 OA
ATOM     37  CG  PRO d   1     -10.716  20.809  -2.651  0.00  0.00    -0.048 C 
ATOM     38  H   PRO d   1      -9.912  19.126  -1.588  0.00  0.00     0.064 H 
ATOM     39  H   PRO d   1     -10.087  20.621  -0.607  0.00  0.00     0.064 H 
ATOM     40  CB  PRO d   1     -12.110  21.185  -2.794  0.00  0.00    -0.036 C 
ATOM     41  H   PRO d   1     -10.096  21.716  -2.596  0.00  0.00     0.035 H 
ATOM     42  H   PRO d   1     -10.408  20.206  -3.518  0.00  0.00     0.035 H 
ATOM     43  H   PRO d   1     -12.278  22.194  -2.389  0.00  0.00     0.036 H 
ATOM     44  H   PRO d   1     -12.407  21.161  -3.853  0.00  0.00     0.036 H 
ATOM     45  H   PRO d   1     -13.708  20.650  -1.431  0.00  0.00     0.087 H 
BRANCH  34  46
ATOM     46  CA  HIS d   1     -11.248  18.360   0.995  0.00  0.00     0.181 C 
ATOM     47  H   HIS d   1     -10.282  18.791   0.694  0.00  0.00     0.099 H 
BRANCH  46  48
ATOM     48  N   HIS d   1     -11.519  18.802   2.371  0.00  0.00    -0.066 N 
ATOM     49  H   HIS d   1     -10.807  18.441   2.986  0.00  0.00     0.275 HD
ATOM     50  H   HIS d   1     -12.421  18.459   2.663  0.00  0.00     0.275 HD
ATOM     51  H   HIS d   1     -11.515  19.809   2.407  0.00  0.00     0.275 HD
ENDBRANCH  46  48
BRANCH  46  52
ATOM     52  CB  HIS d   1     -11.120  16.812   0.888  0.00  0.00     0.009 C 
ATOM     53  H   HIS d   1     -12.130  16.378   0.918  0.00  0.00     0.046 H 
ATOM     54  H   HIS d   1     -10.541  16.452   1.751  0.00  0.00     0.046 H 
BRANCH  52  55
ATOM     55  CG  HIS d   1     -10.438  16.339  -0.370  0.00  0.00     0.030 A 
ATOM     56  ND1 HIS d   1     -11.125  16.228  -1.573  0.00  0.00    -0.353 N 
ATOM     57  CE1 HIS d   1     -10.238  15.802  -2.459  0.00  0.00     0.063 A 
ATOM     58  H   HIS d   1     -12.120  16.435  -1.741  0.00  0.00     0.166 HD
ATOM     59  NE2 HIS d   1      -9.040  15.610  -1.903  0.00  0.00    -0.254 NA
ATOM     60  H   HIS d   1     -10.459  15.630  -3.511  0.00  0.00     0.143 H 
ATOM     61  CD2 HIS d   1      -9.152  15.957  -0.571  0.00  0.00     0.025 A 
ATOM     62  H   HIS d   1      -8.359  15.929   0.175  0.00  0.00     0.117 H 
ENDBRANCH  52  55
ENDBRANCH  46  52
ENDBRANCH  34  46
ENDBRANCH  29  32
ENDBRANCH  26  28
BRANCH  26  63
ATOM     63  CB  VAL d   1     -16.954  18.733  -4.406  0.00  0.00    -0.033 C 
ATOM     64  H   VAL d   1     -17.185  18.552  -3.346  0.00  0.00     0.042 H 
BRANCH  63  65
ATOM     65  CG1 VAL d   1     -17.525  20.106  -4.760  0.00  0.00    -0.071 C 
ATOM     66  H   VAL d   1     -18.619  20.090  -4.643  0.00  0.00     0.028 H 
ATOM     67  H   VAL d   1     -17.271  20.351  -5.802  0.00  0.00     0.028 H 
ATOM     68  H   VAL d   1     -17.096  20.865  -4.090  0.00  0.00     0.028 H 
ENDBRANCH  63  65
BRANCH  63  69
ATOM     69  CG2 VAL d   1     -17.641  17.627  -5.214  0.00  0.00    -0.071 C 
ATOM     70  H   VAL d   1     -17.212  16.652  -4.940  0.00  0.00     0.028 H 
ATOM     71  H   VAL d   1     -17.486  17.807  -6.288  0.00  0.00     0.028 H 
ATOM     72  H   VAL d   1     -18.719  17.628  -4.994  0.00  0.00     0.028 H 
ENDBRANCH  63  69
ENDBRANCH  26  63
ENDBRANCH  23  26
ENDBRANCH  19  22
ENDBRANCH  16  19
ENDBRANCH  13  15
BRANCH  13  73
ATOM     73  CB  ASP d   1     -16.256  21.004 -11.492  0.00  0.00     0.043 C 
ATOM     74  H   ASP d   1     -16.572  21.004 -12.546  0.00  0.00     0.052 H 
ATOM     75  H   ASP d   1     -15.208  21.332 -11.424  0.00  0.00     0.052 H 
BRANCH  73  76
ATOM     76  CG  ASP d   1     -17.114  21.995 -10.739  0.00  0.00     0.175 C 
ATOM     77  OD1 ASP d   1     -16.543  22.915 -10.103  0.00  0.00    -0.648 OA
ATOM     78  OD2 ASP d   1     -18.349  21.845 -10.766  0.00  0.00    -0.648 OA
ENDBRANCH  73  76
ENDBRANCH  13  73
ENDBRANCH  10  13
ENDBRANCH   7   9
BRANCH   7  79
ATOM     79  CB  ALA d   1     -18.479  15.892 -13.277  0.00  0.00    -0.049 C 
ATOM     80  H   ALA d   1     -18.511  15.190 -14.123  0.00  0.00     0.030 H 
ATOM     81  H   ALA d   1     -19.419  16.461 -13.237  0.00  0.00     0.030 H 
ATOM     82  H   ALA d   1     -18.350  15.331 -12.340  0.00  0.00     0.030 H 
ENDBRANCH   7  79
ENDBRANCH   4   7
ENDBRANCH   1   3
BRANCH   1  83
ATOM     83  C   ASP d   1     -19.377  18.129 -17.216  0.00  0.00     0.241 C 
ATOM     84  O   ASP d   1     -20.250  17.522 -16.591  0.00  0.00    -0.271 OA
ATOM     85  N   TYR d   1     -19.629  19.235 -17.968  0.00  0.00    -0.346 N 
ATOM     86  H   TYR d   1     -18.853  19.657 -18.436  0.00  0.00     0.163 HD
BRANCH  85  87
ATOM     87  CA  TYR d   1     -20.954  19.866 -18.151  0.00  0.00     0.093 C 
ATOM     88  H   TYR d   1     -20.797  20.708 -18.841  0.00  0.00     0.088 H 
BRANCH  87  89
ATOM     89  C   TYR d   1     -21.551  20.481 -16.858  0.00  0.00     0.241 C 
ATOM     90  O   TYR d   1     -22.766  20.674 -16.761  0.00  0.00    -0.271 OA
ATOM     91  N   PHE d   1     -20.685  20.808 -15.885  0.00  0.00    -0.346 N 
ATOM     92  H   PHE d   1     -19.712  20.675 -16.072  0.00  0.00     0.163 HD
BRANCH  91  93
ATOM     93  CA  PHE d   1     -21.053  21.346 -14.568  0.00  0.00     0.093 C 
ATOM     94  H   PHE d   1     -22.074  21.005 -14.343  0.00  0.00     0.088 H 
BRANCH  93  95
ATOM     95  C   PHE d   1     -21.080  22.911 -14.532  0.00  0.00     0.241 C 
ATOM     96  O   PHE d   1     -21.431  23.496 -13.509  0.00  0.00    -0.271 OA
ATOM     97  N   GLU d   1     -20.755  23.564 -15.678  0.00  0.00    -0.346 N 
ATOM     98  H   GLU d   1     -20.510  22.997 -16.465  0.00  0.00     0.163 HD
BRANCH  97  99
ATOM     99  CA  GLU d   1     -20.727  25.024 -15.879  0.00  0.00     0.090 C 
ATOM    100  H   GLU d   1     -20.023  25.420 -15.132  0.00  0.00     0.087 H 
BRANCH  99 101
ATOM    101  C   GLU d   1     -22.058  25.740 -15.637  0.00  0.00     0.241 C 
ATOM    102  O   GLU d   1     -23.121  25.115 -15.527  0.00  0.00    -0.271 OA
ATOM    103  N   TYR d   1     -21.973  27.067 -15.500  0.00  0.00    -0.344 N 
ATOM    104  H   TYR d   1     -21.069  27.491 -15.556  0.00  0.00     0.163 HD
BRANCH 103 105
ATOM    105  CA  TYR d   1     -23.127  27.932 -15.273  0.00  0.00     0.100 C 
ATOM    106  H   TYR d   1     -23.834  27.409 -14.612  0.00  0.00     0.090 H 
BRANCH 105 107
ATOM    107  C   TYR d   1     -23.823  28.191 -16.608  0.00  0.00     0.197 C 
ATOM    108  O   TYR d   1     -23.113  28.505 -17.585  0.00  0.00    -0.646 OA
ATOM    109  OXT TYR d   1     -25.050  27.954 -16.701  0.00  0.00    -0.646 OA
ENDBRANCH 105 107
BRANCH 105 110
ATOM    110  CB  TYR d   1     -22.696  29.240 -14.568  0.00  0.00    -0.013 C 
ATOM    111  H   TYR d   1     -23.495  29.986 -14.691  0.00  0.00     0.043 H 
ATOM    112  H   TYR d   1     -21.774  29.608 -15.042  0.00  0.00     0.043 H 
BRANCH 110 113
ATOM    113  CG  TYR d   1     -22.437  29.046 -13.088  0.00  0.00    -0.056 A 
ATOM    114  CD1 TYR d   1     -21.179  28.676 -12.622  0.00  0.00    -0.074 A 
ATOM    115  CE1 TYR d   1     -20.952  28.426 -11.267  0.00  0.00    -0.051 A 
ATOM    116  H   TYR d   1     -20.359  28.580 -13.325  0.00  0.00     0.084 H 
ATOM    117  CZ  TYR d   1     -21.992  28.550 -10.361  0.00  0.00     0.065 A 
ATOM    118  H   TYR d   1     -19.965  28.136 -10.925  0.00  0.00     0.087 H 
ATOM    119  CE2 TYR d   1     -23.256  28.897 -10.806  0.00  0.00    -0.051 A 
ATOM    120  CD2 TYR d   1     -23.472  29.135 -12.162  0.00  0.00    -0.074 A 
ATOM    121  H   TYR d   1     -24.076  28.983 -10.102  0.00  0.00     0.087 H 
ATOM    122  H   TYR d   1     -24.468  29.395 -12.503  0.00  0.00     0.084 H 
BRANCH 117 123
ATOM    123  OH  TYR d   1     -21.776  28.325  -9.021  0.00  0.00    -0.361 OA
ATOM    124  H   TYR d   1     -21.986  29.111  -8.531  0.00  0.00     0.217 HD
ENDBRANCH 117 123
ENDBRANCH 110 113
ENDBRANCH 105 110
ENDBRANCH 103 105
ENDBRANCH  99 101
BRANCH  99 125
ATOM    125  CB  GLU d   1     -20.169  25.396 -17.267  0.00  0.00    -0.029 C 
ATOM    126  H   GLU d   1     -20.331  26.473 -17.424  0.00  0.00     0.037 H 
ATOM    127  H   GLU d   1     -20.728  24.827 -18.024  0.00  0.00     0.037 H 
BRANCH 125 128
ATOM    128  CG  GLU d   1     -18.687  25.107 -17.456  0.00  0.00     0.018 C 
ATOM    129  H   GLU d   1     -18.194  25.235 -16.481  0.00  0.00     0.049 H 
ATOM    130  H   GLU d   1     -18.290  25.846 -18.167  0.00  0.00     0.049 H 
BRANCH 128 131
ATOM    131  CD  GLU d   1     -18.327  23.724 -17.978  0.00  0.00     0.172 C 
ATOM    132  OE1 GLU d   1     -19.146  22.782 -17.838  0.00  0.00    -0.648 OA
ATOM    133  OE2 GLU d   1     -17.203  23.581 -18.515  0.00  0.00    -0.648 OA
ENDBRANCH 128 131
ENDBRANCH 125 128
ENDBRANCH  99 125
ENDBRANCH  97  99
ENDBRANCH  93  95
BRANCH  93 134
ATOM    134  CB  PHE d   1     -20.104  20.736 -13.492  0.00  0.00    -0.014 C 
ATOM    135  H   PHE d   1     -19.910  21.513 -12.738  0.00  0.00     0.043 H 
ATOM    136  H   PHE d   1     -19.162  20.466 -13.991  0.00  0.00     0.043 H 
BRANCH 134 137
ATOM    137  CG  PHE d   1     -20.611  19.506 -12.767  0.00  0.00    -0.056 A 
ATOM    138  CD1 PHE d   1     -20.469  19.384 -11.390  0.00  0.00    -0.077 A 
ATOM    139  CE1 PHE d   1     -20.983  18.278 -10.710  0.00  0.00    -0.082 A 
ATOM    140  H   PHE d   1     -19.952  20.159 -10.836  0.00  0.00     0.084 H 
ATOM    141  CZ  PHE d   1     -21.623  17.275 -11.412  0.00  0.00    -0.083 A 
ATOM    142  H   PHE d   1     -20.880  18.207  -9.633  0.00  0.00     0.083 H 
ATOM    143  CE2 PHE d   1     -21.763  17.372 -12.790  0.00  0.00    -0.082 A 
ATOM    144  H   PHE d   1     -22.016  16.412 -10.887  0.00  0.00     0.083 H 
ATOM    145  CD2 PHE d   1     -21.225  18.466 -13.465  0.00  0.00    -0.077 A 
ATOM    146  H   PHE d   1     -22.289  16.599 -13.339  0.00  0.00     0.083 H 
ATOM    147  H   PHE d   1     -21.284  18.509 -14.546  0.00  0.00     0.084 H 
ENDBRANCH 134 137
ENDBRANCH  93 134
ENDBRANCH  91  93
ENDBRANCH  87  89
BRANCH  87 148
ATOM    148  CB  TYR d   1     -21.959  18.895 -18.857  0.00  0.00    -0.014 C 
ATOM    149  H   TYR d   1     -22.837  19.477 -19.174  0.00  0.00     0.043 H 
ATOM    150  H   TYR d   1     -22.269  18.130 -18.130  0.00  0.00     0.043 H 
BRANCH 148 151
ATOM    151  CG  TYR d   1     -21.385  18.190 -20.078  0.00  0.00    -0.056 A 
ATOM    152  CD1 TYR d   1     -21.142  18.887 -21.265  0.00  0.00    -0.074 A 
ATOM    153  CE1 TYR d   1     -20.610  18.245 -22.385  0.00  0.00    -0.051 A 
ATOM    154  H   TYR d   1     -21.371  19.945 -21.317  0.00  0.00     0.084 H 
ATOM    155  CZ  TYR d   1     -20.293  16.894 -22.319  0.00  0.00     0.065 A 
ATOM    156  H   TYR d   1     -20.445  18.799 -23.302  0.00  0.00     0.087 H 
ATOM    157  CE2 TYR d   1     -20.510  16.187 -21.146  0.00  0.00    -0.051 A 
ATOM    158  CD2 TYR d   1     -21.053  16.835 -20.036  0.00  0.00    -0.074 A 
ATOM    159  H   TYR d   1     -20.259  15.134 -21.091  0.00  0.00     0.087 H 
ATOM    160  H   TYR d   1     -21.220  16.275 -19.123  0.00  0.00     0.084 H 
BRANCH 155 161
ATOM    161  OH  TYR d   1     -19.748  16.256 -23.405  0.00  0.00    -0.361 OA
ATOM    162  H   TYR d   1     -20.313  15.539 -23.666  0.00  0.00     0.217 HD
ENDBRANCH 155 161
ENDBRANCH 148 151
ENDBRANCH  87 148
ENDBRANCH  85  87
ENDBRANCH   1  83
BRANCH   1 163
ATOM    163  CB  ASP d   1     -17.735  16.513 -18.240  0.00  0.00     0.043 C 
ATOM    164  H   ASP d   1     -18.289  16.819 -19.140  0.00  0.00     0.052 H 
ATOM    165  H   ASP d   1     -18.170  15.586 -17.839  0.00  0.00     0.052 H 
BRANCH 163 166
ATOM    166  CG  ASP d   1     -16.310  16.209 -18.658  0.00  0.00     0.175 C 
ATOM    167  OD1 ASP d   1     -15.373  16.807 -18.080  0.00  0.00    -0.648 OA
ATOM    168  OD2 ASP d   1     -16.132  15.435 -19.622  0.00  0.00    -0.648 OA
ENDBRANCH 163 166
ENDBRANCH   1 163
TORSDOF 42
