REMARK WARNING: 32 MAX_TORS EXCEEDED!!!
REMARK  43 active torsions:
REMARK  status: ('A' for Active; 'I' for Inactive)
REMARK    1  A    between atoms: N_1  and  CA_2 
REMARK    2  A    between atoms: CA_2  and  C_3 
REMARK    3  A    between atoms: CA_2  and  CB_5 
REMARK       I    between atoms: C_3  and  N_11 
REMARK    4  A    between atoms: CB_5  and  CG_6 
REMARK    5  A    between atoms: CA_12  and  C_13 
REMARK       I    between atoms: C_13  and  N_18 
REMARK    6  A    between atoms: N_18  and  CA_19 
REMARK    7  A    between atoms: CA_19  and  C_20 
REMARK    8  A    between atoms: CA_19  and  CB_22 
REMARK       I    between atoms: C_20  and  N_25 
REMARK    9  A    between atoms: CB_22  and  CG1_23 
REMARK   10  A    between atoms: CB_22  and  CG2_24 
REMARK   11  A    between atoms: N_25  and  CA_26 
REMARK   12  A    between atoms: CA_26  and  C_27 
REMARK       I    between atoms: C_27  and  N_29 
REMARK   13  A    between atoms: N_29  and  CA_30 
REMARK   14  A    between atoms: CA_30  and  C_31 
REMARK   15  A    between atoms: CA_30  and  CB_33 
REMARK       I    between atoms: C_31  and  N_38 
REMARK   16  A    between atoms: CB_33  and  CG_34 
REMARK   17  A    between atoms: CG_34  and  CD_35 
REMARK   18  A    between atoms: N_38  and  CA_39 
REMARK   19  A    between atoms: CA_39  and  C_40 
REMARK   20  A    between atoms: CA_39  and  CB_42 
REMARK       I    between atoms: C_40  and  N_43 
REMARK   21  A    between atoms: N_43  and  CA_44 
REMARK   22  A    between atoms: CA_44  and  C_45 
REMARK   23  A    between atoms: CA_44  and  CB_47 
REMARK       I    between atoms: C_45  and  N_51 
REMARK   24  A    between atoms: CB_47  and  CG_48 
REMARK   25  A    between atoms: N_51  and  CA_52 
REMARK   26  A    between atoms: CA_52  and  C_53 
REMARK   27  A    between atoms: CA_52  and  CB_55 
REMARK       I    between atoms: C_53  and  N_63 
REMARK   28  A    between atoms: CB_55  and  CG_56 
REMARK   29  A    between atoms: CZ_61  and  OH_62 
REMARK   30  A    between atoms: N_63  and  CA_64 
REMARK   31  A    between atoms: CA_64  and  C_65 
REMARK   32  A    between atoms: CA_64  and  CB_67 
REMARK       I    between atoms: C_65  and  N_74 
REMARK   33  A    between atoms: CB_67  and  CG_68 
REMARK   34  A    between atoms: N_74  and  CA_75 
REMARK   35  A    between atoms: CA_75  and  C_76 
REMARK   36  A    between atoms: CA_75  and  CB_78 
REMARK       I    between atoms: C_76  and  N_83 
REMARK   37  A    between atoms: CB_78  and  CG_79 
REMARK   38  A    between atoms: CG_79  and  CD_80 
REMARK   39  A    between atoms: N_83  and  CA_84 
REMARK   40  A    between atoms: CA_84  and  C_85 
REMARK   41  A    between atoms: CA_84  and  CB_87 
REMARK   42  A    between atoms: CB_87  and  CG_88 
REMARK   43  A    between atoms: CZ_93  and  OH_94 
ROOT
ATOM      1  CA  ASP d   1      -1.765  41.459 -16.721  0.00  0.00     0.098 C 
ATOM      2  H   ASP d   1      -2.538  40.678 -16.785  0.00  0.00     0.088 H 
ENDROOT
BRANCH   1   3
ATOM      3  N   ASP d   1      -1.908  42.139 -15.441  0.00  0.00    -0.346 N 
ATOM      4  C   ALA d   1      -1.948  41.439 -14.309  0.00  0.00     0.240 C 
ATOM      5  O   ALA d   1      -1.921  40.221 -14.312  0.00  0.00    -0.271 OA
ATOM      6  H   ASP d   1      -1.976  43.136 -15.412  0.00  0.00     0.163 HD
BRANCH   4   7
ATOM      7  CA  ALA d   1      -2.079  42.187 -12.958  0.00  0.00     0.086 C 
ATOM      8  H   ALA d   1      -3.025  42.748 -12.962  0.00  0.00     0.086 H 
BRANCH   7   9
ATOM      9  N   ALA d   1      -2.111  41.230 -11.866  0.00  0.00    -0.346 N 
ATOM     10  C   GLU d   1      -3.200  40.513 -11.590  0.00  0.00     0.241 C 
ATOM     11  O   GLU d   1      -4.276  40.657 -12.190  0.00  0.00    -0.271 OA
ATOM     12  H   ALA d   1      -1.292  41.105 -11.305  0.00  0.00     0.163 HD
BRANCH  10  13
ATOM     13  CA  GLU d   1      -3.085  39.527 -10.430  0.00  0.00     0.090 C 
ATOM     14  H   GLU d   1      -2.123  39.697  -9.924  0.00  0.00     0.087 H 
BRANCH  13  15
ATOM     15  N   GLU d   1      -4.158  39.816  -9.481  0.00  0.00    -0.346 N 
ATOM     16  C   GLY d   1      -3.995  40.689  -8.491  0.00  0.00     0.236 C 
ATOM     17  O   GLY d   1      -2.909  41.261  -8.259  0.00  0.00    -0.272 OA
ATOM     18  H   GLU d   1      -5.035  39.346  -9.578  0.00  0.00     0.163 HD
BRANCH  16  19
ATOM     19  CA  GLY d   1      -5.224  40.944  -7.636  0.00  0.00     0.069 C 
ATOM     20  H   GLY d   1      -5.728  41.861  -7.976  0.00  0.00     0.078 H 
ATOM     21  H   GLY d   1      -5.916  40.093  -7.718  0.00  0.00     0.078 H 
BRANCH  19  22
ATOM     22  N   GLY d   1      -4.806  41.100  -6.263  0.00  0.00    -0.351 N 
ATOM     23  C   VAL d   1      -4.597  40.074  -5.457  0.00  0.00     0.241 C 
ATOM     24  O   VAL d   1      -4.856  38.906  -5.743  0.00  0.00    -0.271 OA
ATOM     25  H   GLY d   1      -4.669  42.024  -5.907  0.00  0.00     0.163 HD
BRANCH  23  26
ATOM     26  CA  VAL d   1      -4.003  40.412  -4.111  0.00  0.00     0.092 C 
ATOM     27  H   VAL d   1      -4.260  41.455  -3.875  0.00  0.00     0.088 H 
BRANCH  26  28
ATOM     28  N   VAL d   1      -4.658  39.564  -3.120  0.00  0.00    -0.346 N 
ATOM     29  C   PRO d   1      -5.845  39.870  -2.561  0.00  0.00     0.241 C 
ATOM     30  O   PRO d   1      -6.448  40.937  -2.775  0.00  0.00    -0.271 OA
ATOM     31  H   VAL d   1      -4.205  38.717  -2.843  0.00  0.00     0.163 HD
BRANCH  29  32
ATOM     32  CA  PRO d   1      -6.449  38.797  -1.641  0.00  0.00     0.091 C 
ATOM     33  N   PRO d   1      -7.473  39.339  -0.747  0.00  0.00    -0.337 N 
ATOM     34  C   HIS d   1      -7.087  39.993   0.369  0.00  0.00     0.251 C 
ATOM     35  CD  PRO d   1      -8.828  39.055  -1.261  0.00  0.00    -0.001 C 
ATOM     36  O   HIS d   1      -5.885  40.149   0.640  0.00  0.00    -0.271 OA
ATOM     37  CG  PRO d   1      -8.573  38.316  -2.549  0.00  0.00    -0.048 C 
ATOM     38  H   PRO d   1      -9.381  39.988  -1.447  0.00  0.00     0.064 H 
ATOM     39  H   PRO d   1      -9.392  38.429  -0.554  0.00  0.00     0.064 H 
ATOM     40  CB  PRO d   1      -7.231  37.749  -2.443  0.00  0.00    -0.036 C 
ATOM     41  H   PRO d   1      -9.315  37.515  -2.681  0.00  0.00     0.035 H 
ATOM     42  H   PRO d   1      -8.627  39.009  -3.402  0.00  0.00     0.035 H 
ATOM     43  H   PRO d   1      -7.254  36.786  -1.911  0.00  0.00     0.036 H 
ATOM     44  H   PRO d   1      -6.787  37.607  -3.439  0.00  0.00     0.036 H 
ATOM     45  H   PRO d   1      -5.640  38.326  -1.064  0.00  0.00     0.087 H 
BRANCH  34  46
ATOM     46  CA  HIS d   1      -8.156  40.569   1.306  0.00  0.00     0.181 C 
ATOM     47  H   HIS d   1      -9.132  40.131   1.049  0.00  0.00     0.099 H 
BRANCH  46  48
ATOM     48  N   HIS d   1      -7.829  40.221   2.690  0.00  0.00    -0.066 N 
ATOM     49  H   HIS d   1      -8.531  40.599   3.306  0.00  0.00     0.275 HD
ATOM     50  H   HIS d   1      -6.929  40.606   2.930  0.00  0.00     0.275 HD
ATOM     51  H   HIS d   1      -7.802  39.218   2.787  0.00  0.00     0.275 HD
ENDBRANCH  46  48
BRANCH  46  52
ATOM     52  CB  HIS d   1      -8.239  42.095   1.139  0.00  0.00     0.009 C 
ATOM     53  H   HIS d   1      -7.213  42.481   1.048  0.00  0.00     0.046 H 
ATOM     54  H   HIS d   1      -8.708  42.509   2.044  0.00  0.00     0.046 H 
BRANCH  52  55
ATOM     55  CG  HIS d   1      -9.019  42.576  -0.045  0.00  0.00     0.030 A 
ATOM     56  ND1 HIS d   1      -8.444  42.670  -1.305  0.00  0.00    -0.353 N 
ATOM     57  CE1 HIS d   1      -9.383  43.159  -2.094  0.00  0.00     0.063 A 
ATOM     58  H   HIS d   1      -7.483  42.411  -1.570  0.00  0.00     0.166 HD
ATOM     59  NE2 HIS d   1     -10.501  43.412  -1.417  0.00  0.00    -0.254 NA
ATOM     60  H   HIS d   1      -9.259  43.333  -3.162  0.00  0.00     0.143 H 
ATOM     61  CD2 HIS d   1     -10.282  43.045  -0.108  0.00  0.00     0.025 A 
ATOM     62  H   HIS d   1     -10.990  43.119   0.716  0.00  0.00     0.117 H 
ENDBRANCH  52  55
ENDBRANCH  46  52
ENDBRANCH  34  46
ENDBRANCH  29  32
ENDBRANCH  26  28
BRANCH  26  63
ATOM     63  CB  VAL d   1      -2.432  40.329  -4.130  0.00  0.00    -0.033 C 
ATOM     64  H   VAL d   1      -2.095  40.433  -3.088  0.00  0.00     0.042 H 
BRANCH  63  65
ATOM     65  CG1 VAL d   1      -1.908  38.986  -4.633  0.00  0.00    -0.071 C 
ATOM     66  H   VAL d   1      -0.808  38.994  -4.621  0.00  0.00     0.028 H 
ATOM     67  H   VAL d   1      -2.263  38.816  -5.660  0.00  0.00     0.028 H 
ATOM     68  H   VAL d   1      -2.276  38.181  -3.980  0.00  0.00     0.028 H 
ENDBRANCH  63  65
BRANCH  63  69
ATOM     69  CG2 VAL d   1      -1.823  41.485  -4.920  0.00  0.00    -0.071 C 
ATOM     70  H   VAL d   1      -2.217  42.438  -4.537  0.00  0.00     0.028 H 
ATOM     71  H   VAL d   1      -2.084  41.380  -5.983  0.00  0.00     0.028 H 
ATOM     72  H   VAL d   1      -0.729  41.469  -4.808  0.00  0.00     0.028 H 
ENDBRANCH  63  69
ENDBRANCH  26  63
ENDBRANCH  23  26
ENDBRANCH  19  22
ENDBRANCH  16  19
ENDBRANCH  13  15
BRANCH  13  73
ATOM     73  CB  GLU d   1      -3.101  38.056 -10.920  0.00  0.00    -0.029 C 
ATOM     74  H   GLU d   1      -2.248  37.924 -11.602  0.00  0.00     0.037 H 
ATOM     75  H   GLU d   1      -4.040  37.900 -11.472  0.00  0.00     0.037 H 
BRANCH  73  76
ATOM     76  CG  GLU d   1      -3.008  36.963  -9.847  0.00  0.00     0.018 C 
ATOM     77  H   GLU d   1      -2.738  36.033 -10.370  0.00  0.00     0.049 H 
ATOM     78  H   GLU d   1      -4.015  36.862  -9.415  0.00  0.00     0.049 H 
BRANCH  76  79
ATOM     79  CD  GLU d   1      -2.045  37.097  -8.675  0.00  0.00     0.172 C 
ATOM     80  OE1 GLU d   1      -0.912  37.595  -8.876  0.00  0.00    -0.648 OA
ATOM     81  OE2 GLU d   1      -2.422  36.678  -7.554  0.00  0.00    -0.648 OA
ENDBRANCH  76  79
ENDBRANCH  73  76
ENDBRANCH  13  73
ENDBRANCH  10  13
ENDBRANCH   7   9
BRANCH   7  82
ATOM     82  CB  ALA d   1      -0.933  43.178 -12.753  0.00  0.00    -0.049 C 
ATOM     83  H   ALA d   1      -0.917  43.898 -13.585  0.00  0.00     0.030 H 
ATOM     84  H   ALA d   1       0.022  42.633 -12.722  0.00  0.00     0.030 H 
ATOM     85  H   ALA d   1      -1.079  43.716 -11.805  0.00  0.00     0.030 H 
ENDBRANCH   7  82
ENDBRANCH   4   7
ENDBRANCH   1   3
BRANCH   1  86
ATOM     86  C   ASP d   1      -0.375  40.787 -16.829  0.00  0.00     0.241 C 
ATOM     87  O   ASP d   1       0.609  41.258 -16.221  0.00  0.00    -0.271 OA
ATOM     88  N   TYR d   1      -0.304  39.688 -17.630  0.00  0.00    -0.346 N 
ATOM     89  H   TYR d   1      -1.152  39.370 -18.054  0.00  0.00     0.163 HD
BRANCH  88  90
ATOM     90  CA  TYR d   1       0.923  38.934 -17.919  0.00  0.00     0.093 C 
ATOM     91  H   TYR d   1       0.664  38.146 -18.641  0.00  0.00     0.088 H 
BRANCH  90  92
ATOM     92  C   TYR d   1       1.500  38.243 -16.657  0.00  0.00     0.241 C 
ATOM     93  O   TYR d   1       2.700  37.913 -16.614  0.00  0.00    -0.271 OA
ATOM     94  N   PHE d   1       0.646  38.062 -15.630  0.00  0.00    -0.346 N 
ATOM     95  H   PHE d   1      -0.269  38.455 -15.717  0.00  0.00     0.163 HD
BRANCH  94  96
ATOM     96  CA  PHE d   1       0.953  37.337 -14.402  0.00  0.00     0.093 C 
ATOM     97  H   PHE d   1       2.037  37.364 -14.216  0.00  0.00     0.088 H 
BRANCH  96  98
ATOM     98  C   PHE d   1       0.522  35.908 -14.698  0.00  0.00     0.241 C 
ATOM     99  O   PHE d   1      -0.673  35.591 -14.631  0.00  0.00    -0.271 OA
ATOM    100  N   GLU d   1       1.456  35.115 -15.207  0.00  0.00    -0.346 N 
ATOM    101  H   GLU d   1       2.360  35.519 -15.349  0.00  0.00     0.163 HD
BRANCH 100 102
ATOM    102  CA  GLU d   1       1.298  33.713 -15.581  0.00  0.00     0.090 C 
ATOM    103  H   GLU d   1       0.530  33.258 -14.939  0.00  0.00     0.087 H 
BRANCH 102 104
ATOM    104  C   GLU d   1       2.605  33.041 -15.345  0.00  0.00     0.241 C 
ATOM    105  O   GLU d   1       3.649  33.694 -15.360  0.00  0.00    -0.271 OA
ATOM    106  N   TYR d   1       2.571  31.740 -15.148  0.00  0.00    -0.344 N 
ATOM    107  H   TYR d   1       1.683  31.281 -15.127  0.00  0.00     0.163 HD
BRANCH 106 108
ATOM    108  CA  TYR d   1       3.771  30.946 -14.960  0.00  0.00     0.100 C 
ATOM    109  H   TYR d   1       4.508  31.529 -14.388  0.00  0.00     0.090 H 
BRANCH 108 110
ATOM    110  C   TYR d   1       4.366  30.611 -16.328  0.00  0.00     0.197 C 
ATOM    111  O   TYR d   1       3.607  30.599 -17.323  0.00  0.00    -0.646 OA
ATOM    112  OXT TYR d   1       5.598  30.430 -16.420  0.00  0.00    -0.646 OA
ENDBRANCH 108 110
BRANCH 108 113
ATOM    113  CB  TYR d   1       3.415  29.690 -14.166  0.00  0.00    -0.013 C 
ATOM    114  H   TYR d   1       4.292  29.026 -14.156  0.00  0.00     0.043 H 
ATOM    115  H   TYR d   1       2.579  29.186 -14.672  0.00  0.00     0.043 H 
BRANCH 113 116
ATOM    116  CG  TYR d   1       3.009  29.965 -12.733  0.00  0.00    -0.056 A 
ATOM    117  CD1 TYR d   1       1.843  30.664 -12.438  0.00  0.00    -0.074 A 
ATOM    118  CE1 TYR d   1       1.455  30.908 -11.125  0.00  0.00    -0.051 A 
ATOM    119  H   TYR d   1       1.223  31.027 -13.250  0.00  0.00     0.084 H 
ATOM    120  CZ  TYR d   1       2.232  30.447 -10.081  0.00  0.00     0.065 A 
ATOM    121  H   TYR d   1       0.544  31.459 -10.922  0.00  0.00     0.087 H 
ATOM    122  CE2 TYR d   1       3.410  29.767 -10.349  0.00  0.00    -0.051 A 
ATOM    123  CD2 TYR d   1       3.776  29.503 -11.672  0.00  0.00    -0.074 A 
ATOM    124  H   TYR d   1       4.046  29.441  -9.534  0.00  0.00     0.087 H 
ATOM    125  H   TYR d   1       4.673  28.928 -11.873  0.00  0.00     0.084 H 
BRANCH 120 126
ATOM    126  OH  TYR d   1       1.835  30.695  -8.789  0.00  0.00    -0.361 OA
ATOM    127  H   TYR d   1       2.496  31.217  -8.350  0.00  0.00     0.217 HD
ENDBRANCH 120 126
ENDBRANCH 113 116
ENDBRANCH 108 113
ENDBRANCH 106 108
ENDBRANCH 102 104
BRANCH 102 128
ATOM    128  CB  GLU d   1       0.872  33.529 -17.060  0.00  0.00    -0.029 C 
ATOM    129  H   GLU d   1       1.066  32.482 -17.336  0.00  0.00     0.037 H 
ATOM    130  H   GLU d   1       1.499  34.192 -17.674  0.00  0.00     0.037 H 
BRANCH 128 131
ATOM    131  CG  GLU d   1      -0.586  33.833 -17.391  0.00  0.00     0.018 C 
ATOM    132  H   GLU d   1      -1.181  33.672 -16.480  0.00  0.00     0.049 H 
ATOM    133  H   GLU d   1      -0.910  33.127 -18.170  0.00  0.00     0.049 H 
BRANCH 131 134
ATOM    134  CD  GLU d   1      -0.866  35.243 -17.890  0.00  0.00     0.172 C 
ATOM    135  OE1 GLU d   1      -0.062  35.765 -18.701  0.00  0.00    -0.648 OA
ATOM    136  OE2 GLU d   1      -1.915  35.811 -17.501  0.00  0.00    -0.648 OA
ENDBRANCH 131 134
ENDBRANCH 128 131
ENDBRANCH 102 128
ENDBRANCH 100 102
ENDBRANCH  96  98
BRANCH  96 137
ATOM    137  CB  PHE d   1       0.238  37.944 -13.160  0.00  0.00    -0.014 C 
ATOM    138  H   PHE d   1       0.194  37.157 -12.393  0.00  0.00     0.043 H 
ATOM    139  H   PHE d   1      -0.783  38.211 -13.470  0.00  0.00     0.043 H 
BRANCH 137 140
ATOM    140  CG  PHE d   1       0.847  39.179 -12.505  0.00  0.00    -0.056 A 
ATOM    141  CD1 PHE d   1       1.427  40.189 -13.276  0.00  0.00    -0.077 A 
ATOM    142  CE1 PHE d   1       1.985  41.320 -12.673  0.00  0.00    -0.082 A 
ATOM    143  H   PHE d   1       1.445  40.095 -14.356  0.00  0.00     0.084 H 
ATOM    144  CZ  PHE d   1       1.902  41.481 -11.299  0.00  0.00    -0.083 A 
ATOM    145  H   PHE d   1       2.482  42.069 -13.279  0.00  0.00     0.083 H 
ATOM    146  CE2 PHE d   1       1.272  40.522 -10.524  0.00  0.00    -0.082 A 
ATOM    147  H   PHE d   1       2.331  42.359 -10.830  0.00  0.00     0.083 H 
ATOM    148  CD2 PHE d   1       0.741  39.380 -11.127  0.00  0.00    -0.077 A 
ATOM    149  H   PHE d   1       1.191  40.657  -9.451  0.00  0.00     0.083 H 
ATOM    150  H   PHE d   1       0.239  38.638 -10.516  0.00  0.00     0.084 H 
ENDBRANCH 137 140
ENDBRANCH  96 137
ENDBRANCH  94  96
ENDBRANCH  90  92
BRANCH  90 151
ATOM    151  CB  TYR d   1       1.995  39.841 -18.570  0.00  0.00    -0.014 C 
ATOM    152  H   TYR d   1       2.815  39.197 -18.919  0.00  0.00     0.043 H 
ATOM    153  H   TYR d   1       2.371  40.527 -17.797  0.00  0.00     0.043 H 
BRANCH 151 154
ATOM    154  CG  TYR d   1       1.527  40.676 -19.745  0.00  0.00    -0.056 A 
ATOM    155  CD1 TYR d   1       1.056  41.972 -19.561  0.00  0.00    -0.074 A 
ATOM    156  CE1 TYR d   1       0.646  42.756 -20.640  0.00  0.00    -0.051 A 
ATOM    157  H   TYR d   1       1.006  42.381 -18.558  0.00  0.00     0.084 H 
ATOM    158  CZ  TYR d   1       0.815  42.291 -21.933  0.00  0.00     0.065 A 
ATOM    159  H   TYR d   1       0.196  43.727 -20.466  0.00  0.00     0.087 H 
ATOM    160  CE2 TYR d   1       1.325  41.023 -22.143  0.00  0.00    -0.051 A 
ATOM    161  CD2 TYR d   1       1.681  40.223 -21.049  0.00  0.00    -0.074 A 
ATOM    162  H   TYR d   1       1.449  40.648 -23.153  0.00  0.00     0.087 H 
ATOM    163  H   TYR d   1       2.084  39.232 -21.224  0.00  0.00     0.084 H 
BRANCH 158 164
ATOM    164  OH  TYR d   1       0.464  43.065 -23.007  0.00  0.00    -0.361 OA
ATOM    165  H   TYR d   1       0.134  43.901 -22.699  0.00  0.00     0.217 HD
ENDBRANCH 158 164
ENDBRANCH 151 154
ENDBRANCH  90 151
ENDBRANCH  88  90
ENDBRANCH   1  86
BRANCH   1 166
ATOM    166  CB  ASP d   1      -1.961  42.439 -17.901  0.00  0.00     0.043 C 
ATOM    167  H   ASP d   1      -1.739  41.887 -18.826  0.00  0.00     0.052 H 
ATOM    168  H   ASP d   1      -1.232  43.254 -17.776  0.00  0.00     0.052 H 
BRANCH 166 169
ATOM    169  CG  ASP d   1      -3.316  43.071 -18.070  0.00  0.00     0.175 C 
ATOM    170  OD1 ASP d   1      -4.273  42.585 -17.462  0.00  0.00    -0.648 OA
ATOM    171  OD2 ASP d   1      -3.424  44.031 -18.855  0.00  0.00    -0.648 OA
ENDBRANCH 166 169
ENDBRANCH   1 166
TORSDOF 43
