REMARK  5 active torsions:
REMARK  status: ('A' for Active; 'I' for Inactive)
REMARK    1  A    between atoms: C3_3  and  C9_9 
REMARK    2  A    between atoms: C9_9  and  N10_10 
REMARK    3  A    between atoms: C12_12  and  N15_15 
REMARK       I    between atoms: N15_15  and  C16_16 
REMARK    4  A    between atoms: C16_16  and  C18_18 
REMARK    5  A    between atoms: C22_22  and  C28_27 
ROOT
ATOM      1  C1  2VU d   1      48.355  19.211  25.974  0.00  0.00    -0.081 A 
ATOM      2  C2  2VU d   1      48.667  19.055  24.623  0.00  0.00    -0.075 A 
ATOM      3  C3  2VU d   1      49.997  18.881  24.238  0.00  0.00    -0.037 A 
ATOM      4  C4  2VU d   1      51.013  18.870  25.186  0.00  0.00    -0.055 A 
ATOM      5  C5  2VU d   1      50.714  19.009  26.549  0.00  0.00     0.045 A 
ATOM      6  C6  2VU d   1      49.368  19.197  26.935  0.00  0.00    -0.063 A 
ATOM      7  C7  2VU d   1      51.796  18.971  27.498  0.00  0.00     0.099 C 
ATOM      8  N8  2VU d   1      52.678  18.937  28.222  0.00  0.00    -0.191 NA
ATOM      9  H   2VU d   1      47.323  19.343  26.279  0.00  0.00     0.083 H 
ATOM     10  H   2VU d   1      47.881  19.069  23.877  0.00  0.00     0.084 H 
ATOM     11  H   2VU d   1      52.043  18.753  24.870  0.00  0.00     0.086 H 
ATOM     12  H   2VU d   1      49.120  19.331  27.982  0.00  0.00     0.085 H 
ENDROOT
BRANCH   3  13
ATOM     13  C9  2VU d   1      50.360  18.687  22.788  0.00  0.00     0.040 C 
ATOM     14  H   2VU d   1      51.183  19.371  22.533  0.00  0.00     0.074 H 
ATOM     15  H   2VU d   1      49.483  18.921  22.167  0.00  0.00     0.074 H 
BRANCH  13  16
ATOM     16  N10 2VU d   1      50.784  17.310  22.510  0.00  0.00    -0.275 N 
ATOM     17  C11 2VU d   1      51.022  16.825  21.274  0.00  0.00     0.026 A 
ATOM     18  C12 2VU d   1      51.392  15.529  21.395  0.00  0.00     0.071 A 
ATOM     19  H   2VU d   1      50.932  17.380  20.341  0.00  0.00     0.117 H 
ATOM     20  C13 2VU d   1      51.371  15.206  22.763  0.00  0.00     0.049 A 
ATOM     21  N14 2VU d   1      51.005  16.262  23.426  0.00  0.00    -0.183 NA
ATOM     22  H   2VU d   1      51.619  14.237  23.193  0.00  0.00     0.121 H 
BRANCH  18  23
ATOM     23  N15 2VU d   1      51.718  14.699  20.305  0.00  0.00    -0.319 N 
ATOM     24  C16 2VU d   1      52.274  13.471  20.399  0.00  0.00     0.277 C 
ATOM     25  O17 2VU d   1      52.518  12.950  21.475  0.00  0.00    -0.266 OA
ATOM     26  H   2VU d   1      51.522  15.046  19.388  0.00  0.00     0.169 HD
BRANCH  24  27
ATOM     27  C18 2VU d   1      52.562  12.731  19.159  0.00  0.00     0.157 A 
ATOM     28  C19 2VU d   1      52.943  11.317  19.071  0.00  0.00     0.028 A 
ATOM     29  C20 2VU d   1      53.174  10.287  19.996  0.00  0.00    -0.067 A 
ATOM     30  C24 2VU d   1      53.066  11.081  17.679  0.00  0.00     0.063 A 
ATOM     31  C21 2VU d   1      53.497   9.035  19.549  0.00  0.00    -0.071 A 
ATOM     32  H   2VU d   1      53.097  10.483  21.059  0.00  0.00     0.085 H 
ATOM     33  C22 2VU d   1      53.643   8.782  18.170  0.00  0.00    -0.021 A 
ATOM     34  H   2VU d   1      53.642   8.231  20.261  0.00  0.00     0.084 H 
ATOM     35  C23 2VU d   1      53.424   9.802  17.242  0.00  0.00    -0.044 A 
ATOM     36  H   2VU d   1      53.532   9.602  16.182  0.00  0.00     0.088 H 
ATOM     37  N25 2VU d   1      52.768  12.271  17.063  0.00  0.00    -0.277 N 
ATOM     38  N27 2VU d   1      52.473  13.174  17.924  0.00  0.00    -0.168 NA
ATOM     39  H   2VU d   1      52.780  12.419  16.044  0.00  0.00     0.189 HD
BRANCH  33  40
ATOM     40  C28 2VU d   1      53.968   7.406  17.706  0.00  0.00     0.010 A 
ATOM     41  C29 2VU d   1      53.486   6.806  16.574  0.00  0.00     0.008 A 
ATOM     42  N30 2VU d   1      53.976   5.555  16.525  0.00  0.00    -0.289 N 
ATOM     43  H   2VU d   1      52.822   7.262  15.841  0.00  0.00     0.115 H 
ATOM     44  N32 2VU d   1      54.767   5.365  17.663  0.00  0.00    -0.187 NA
ATOM     45  H   2VU d   1      53.801   4.862  15.784  0.00  0.00     0.188 HD
ATOM     46  C33 2VU d   1      54.763   6.456  18.377  0.00  0.00     0.034 A 
ATOM     47  H   2VU d   1      55.282   6.606  19.323  0.00  0.00     0.118 H 
ENDBRANCH  33  40
ENDBRANCH  24  27
ENDBRANCH  18  23
ENDBRANCH  13  16
ENDBRANCH   3  13
TORSDOF 5
