REMARK WARNING: 32 MAX_TORS EXCEEDED!!!
REMARK  44 active torsions:
REMARK  status: ('A' for Active; 'I' for Inactive)
REMARK    1  A    between atoms: N_1  and  CA_2 
REMARK    2  A    between atoms: CA_2  and  C_3 
REMARK    3  A    between atoms: CA_2  and  CB_5 
REMARK       I    between atoms: C_3  and  N_11 
REMARK    4  A    between atoms: CB_5  and  CG_6 
REMARK    5  A    between atoms: CA_12  and  C_13 
REMARK       I    between atoms: C_13  and  N_18 
REMARK    6  A    between atoms: N_18  and  CA_19 
REMARK    7  A    between atoms: CA_19  and  C_20 
REMARK    8  A    between atoms: CA_19  and  CB_22 
REMARK       I    between atoms: C_20  and  N_25 
REMARK    9  A    between atoms: CB_22  and  CG1_23 
REMARK   10  A    between atoms: CB_22  and  CG2_24 
REMARK   11  A    between atoms: N_25  and  CA_26 
REMARK   12  A    between atoms: CA_26  and  C_27 
REMARK   13  A    between atoms: CA_26  and  CB_29 
REMARK       I    between atoms: C_27  and  N_30 
REMARK   14  A    between atoms: N_30  and  CA_31 
REMARK   15  A    between atoms: CA_31  and  C_32 
REMARK   16  A    between atoms: CA_31  and  CB_34 
REMARK       I    between atoms: C_32  and  N_39 
REMARK   17  A    between atoms: CB_34  and  CG_35 
REMARK   18  A    between atoms: CG_35  and  CD_36 
REMARK   19  A    between atoms: N_39  and  CA_40 
REMARK   20  A    between atoms: CA_40  and  C_41 
REMARK   21  A    between atoms: CA_40  and  CB_43 
REMARK       I    between atoms: C_41  and  N_44 
REMARK   22  A    between atoms: N_44  and  CA_45 
REMARK   23  A    between atoms: CA_45  and  C_46 
REMARK   24  A    between atoms: CA_45  and  CB_48 
REMARK       I    between atoms: C_46  and  N_52 
REMARK   25  A    between atoms: CB_48  and  CG_49 
REMARK   26  A    between atoms: N_52  and  CA_53 
REMARK   27  A    between atoms: CA_53  and  C_54 
REMARK   28  A    between atoms: CA_53  and  CB_56 
REMARK       I    between atoms: C_54  and  N_64 
REMARK   29  A    between atoms: CB_56  and  CG_57 
REMARK   30  A    between atoms: CZ_62  and  OH_63 
REMARK   31  A    between atoms: N_64  and  CA_65 
REMARK   32  A    between atoms: CA_65  and  C_66 
REMARK   33  A    between atoms: CA_65  and  CB_68 
REMARK       I    between atoms: C_66  and  N_75 
REMARK   34  A    between atoms: CB_68  and  CG_69 
REMARK   35  A    between atoms: N_75  and  CA_76 
REMARK   36  A    between atoms: CA_76  and  C_77 
REMARK   37  A    between atoms: CA_76  and  CB_79 
REMARK       I    between atoms: C_77  and  N_84 
REMARK   38  A    between atoms: CB_79  and  CG_80 
REMARK   39  A    between atoms: CG_80  and  CD_81 
REMARK   40  A    between atoms: N_84  and  CA_85 
REMARK   41  A    between atoms: CA_85  and  C_86 
REMARK   42  A    between atoms: CA_85  and  CB_88 
REMARK   43  A    between atoms: CB_88  and  CG_89 
REMARK   44  A    between atoms: CZ_94  and  OH_95 
ROOT
ATOM      1  CA  ASP d   1       6.958 -11.621  39.703  0.00  0.00     0.098 C 
ATOM      2  H   ASP d   1       6.534 -10.849  39.044  0.00  0.00     0.088 H 
ENDROOT
BRANCH   1   3
ATOM      3  N   ASP d   1       5.863 -12.313  40.369  0.00  0.00    -0.346 N 
ATOM      4  C   ALA d   1       4.742 -12.589  39.713  0.00  0.00     0.240 C 
ATOM      5  O   ALA d   1       4.544 -12.220  38.553  0.00  0.00    -0.271 OA
ATOM      6  H   ASP d   1       5.956 -12.582  41.328  0.00  0.00     0.163 HD
BRANCH   4   7
ATOM      7  CA  ALA d   1       3.686 -13.390  40.470  0.00  0.00     0.086 C 
ATOM      8  H   ALA d   1       3.209 -12.730  41.209  0.00  0.00     0.086 H 
BRANCH   7   9
ATOM      9  N   ALA d   1       2.663 -13.865  39.542  0.00  0.00    -0.346 N 
ATOM     10  C   GLU d   1       1.386 -13.520  39.669  0.00  0.00     0.241 C 
ATOM     11  O   GLU d   1       0.956 -12.895  40.632  0.00  0.00    -0.271 OA
ATOM     12  H   ALA d   1       2.931 -14.467  38.790  0.00  0.00     0.163 HD
BRANCH  10  13
ATOM     13  CA  GLU d   1       0.460 -13.932  38.530  0.00  0.00     0.090 C 
ATOM     14  H   GLU d   1       0.555 -15.014  38.359  0.00  0.00     0.087 H 
BRANCH  13  15
ATOM     15  N   GLU d   1      -0.923 -13.627  38.852  0.00  0.00    -0.346 N 
ATOM     16  C   ALA d   1      -1.762 -14.558  39.289  0.00  0.00     0.240 C 
ATOM     17  O   ALA d   1      -1.444 -15.745  39.408  0.00  0.00    -0.271 OA
ATOM     18  H   GLU d   1      -1.252 -12.689  38.741  0.00  0.00     0.163 HD
BRANCH  16  19
ATOM     19  CA  ALA d   1      -3.168 -14.087  39.636  0.00  0.00     0.086 C 
ATOM     20  H   ALA d   1      -3.275 -13.029  39.353  0.00  0.00     0.086 H 
BRANCH  19  21
ATOM     21  N   ALA d   1      -4.133 -14.882  38.889  0.00  0.00    -0.346 N 
ATOM     22  C   VAL d   1      -4.438 -14.593  37.631  0.00  0.00     0.241 C 
ATOM     23  O   VAL d   1      -4.019 -13.591  37.055  0.00  0.00    -0.271 OA
ATOM     24  H   ALA d   1      -4.574 -15.661  39.334  0.00  0.00     0.163 HD
BRANCH  22  25
ATOM     25  CA  VAL d   1      -5.369 -15.574  36.933  0.00  0.00     0.092 C 
ATOM     26  H   VAL d   1      -5.916 -16.136  37.704  0.00  0.00     0.088 H 
BRANCH  25  27
ATOM     27  N   VAL d   1      -6.347 -14.860  36.122  0.00  0.00    -0.346 N 
ATOM     28  C   PRO d   1      -7.446 -14.342  36.657  0.00  0.00     0.241 C 
ATOM     29  O   PRO d   1      -7.765 -14.492  37.835  0.00  0.00    -0.271 OA
ATOM     30  H   VAL d   1      -6.187 -14.758  35.140  0.00  0.00     0.163 HD
BRANCH  28  31
ATOM     31  CA  PRO d   1      -8.341 -13.536  35.733  0.00  0.00     0.091 C 
ATOM     32  N   PRO d   1      -9.672 -13.305  36.309  0.00  0.00    -0.337 N 
ATOM     33  C   HIS d   1     -10.600 -14.274  36.331  0.00  0.00     0.251 C 
ATOM     34  CD  PRO d   1      -9.842 -11.913  36.770  0.00  0.00    -0.001 C 
ATOM     35  O   HIS d   1     -10.371 -15.407  35.935  0.00  0.00    -0.271 OA
ATOM     36  CG  PRO d   1      -8.430 -11.345  36.669  0.00  0.00    -0.048 C 
ATOM     37  H   PRO d   1     -10.208 -11.882  37.807  0.00  0.00     0.064 H 
ATOM     38  H   PRO d   1     -10.537 -11.363  36.119  0.00  0.00     0.064 H 
ATOM     39  CB  PRO d   1      -7.780 -12.116  35.576  0.00  0.00    -0.036 C 
ATOM     40  H   PRO d   1      -8.461 -10.274  36.420  0.00  0.00     0.035 H 
ATOM     41  H   PRO d   1      -7.888 -11.486  37.616  0.00  0.00     0.035 H 
ATOM     42  H   PRO d   1      -8.044 -11.698  34.593  0.00  0.00     0.036 H 
ATOM     43  H   PRO d   1      -6.686 -12.113  35.694  0.00  0.00     0.036 H 
ATOM     44  H   PRO d   1      -8.419 -14.045  34.761  0.00  0.00     0.087 H 
BRANCH  33  45
ATOM     45  CA  HIS d   1     -11.986 -13.922  36.881  0.00  0.00     0.181 C 
ATOM     46  H   HIS d   1     -12.079 -12.829  36.962  0.00  0.00     0.099 H 
BRANCH  45  47
ATOM     47  N   HIS d   1     -13.017 -14.433  35.971  0.00  0.00    -0.066 N 
ATOM     48  H   HIS d   1     -13.929 -14.201  36.333  0.00  0.00     0.275 HD
ATOM     49  H   HIS d   1     -12.931 -15.434  35.894  0.00  0.00     0.275 HD
ATOM     50  H   HIS d   1     -12.900 -14.014  35.062  0.00  0.00     0.275 HD
ENDBRANCH  45  47
BRANCH  45  51
ATOM     51  CB  HIS d   1     -12.167 -14.552  38.266  0.00  0.00     0.011 C 
ATOM     52  H   HIS d   1     -11.831 -15.598  38.215  0.00  0.00     0.046 H 
ATOM     53  H   HIS d   1     -13.237 -14.522  38.520  0.00  0.00     0.046 H 
BRANCH  51  54
ATOM     54  CG  HIS d   1     -11.406 -13.869  39.362  0.00  0.00     0.053 A 
ATOM     55  ND1 HIS d   1     -10.028 -13.898  39.453  0.00  0.00    -0.247 NA
ATOM     56  CE1 HIS d   1      -9.646 -13.230  40.527  0.00  0.00     0.064 A 
ATOM     57  NE2 HIS d   1     -10.724 -12.774  41.140  0.00  0.00    -0.359 N 
ATOM     58  H   HIS d   1      -8.617 -13.081  40.852  0.00  0.00     0.143 H 
ATOM     59  CD2 HIS d   1     -11.838 -13.163  40.435  0.00  0.00     0.002 A 
ATOM     60  H   HIS d   1     -10.729 -12.217  42.006  0.00  0.00     0.166 HD
ATOM     61  H   HIS d   1     -12.874 -12.945  40.691  0.00  0.00     0.114 H 
ENDBRANCH  51  54
ENDBRANCH  45  51
ENDBRANCH  33  45
ENDBRANCH  28  31
ENDBRANCH  25  27
BRANCH  25  62
ATOM     62  CB  VAL d   1      -4.555 -16.584  36.097  0.00  0.00    -0.033 C 
ATOM     63  H   VAL d   1      -5.271 -17.242  35.583  0.00  0.00     0.042 H 
BRANCH  62  64
ATOM     64  CG1 VAL d   1      -3.720 -15.887  35.020  0.00  0.00    -0.071 C 
ATOM     65  H   VAL d   1      -3.157 -16.640  34.449  0.00  0.00     0.028 H 
ATOM     66  H   VAL d   1      -3.018 -15.187  35.496  0.00  0.00     0.028 H 
ATOM     67  H   VAL d   1      -4.385 -15.334  34.341  0.00  0.00     0.028 H 
ENDBRANCH  62  64
BRANCH  62  68
ATOM     68  CG2 VAL d   1      -3.677 -17.471  37.012  0.00  0.00    -0.071 C 
ATOM     69  H   VAL d   1      -4.310 -17.954  37.771  0.00  0.00     0.028 H 
ATOM     70  H   VAL d   1      -2.919 -16.848  37.509  0.00  0.00     0.028 H 
ATOM     71  H   VAL d   1      -3.178 -18.242  36.406  0.00  0.00     0.028 H 
ENDBRANCH  62  68
ENDBRANCH  25  62
ENDBRANCH  22  25
ENDBRANCH  19  21
BRANCH  19  72
ATOM     72  CB  ALA d   1      -3.419 -14.226  41.130  0.00  0.00    -0.049 C 
ATOM     73  H   ALA d   1      -2.685 -13.622  41.683  0.00  0.00     0.030 H 
ATOM     74  H   ALA d   1      -3.319 -15.282  41.422  0.00  0.00     0.030 H 
ATOM     75  H   ALA d   1      -4.434 -13.875  41.365  0.00  0.00     0.030 H 
ENDBRANCH  19  72
ENDBRANCH  16  19
ENDBRANCH  13  15
BRANCH  13  76
ATOM     76  CB  GLU d   1       0.889 -13.180  37.268  0.00  0.00    -0.029 C 
ATOM     77  H   GLU d   1       1.899 -13.518  36.993  0.00  0.00     0.037 H 
ATOM     78  H   GLU d   1       0.912 -12.105  37.499  0.00  0.00     0.037 H 
BRANCH  76  79
ATOM     79  CG  GLU d   1      -0.020 -13.388  36.077  0.00  0.00     0.018 C 
ATOM     80  H   GLU d   1      -1.001 -12.942  36.300  0.00  0.00     0.049 H 
ATOM     81  H   GLU d   1      -0.138 -14.469  35.908  0.00  0.00     0.049 H 
BRANCH  79  82
ATOM     82  CD  GLU d   1       0.525 -12.756  34.814  0.00  0.00     0.172 C 
ATOM     83  OE1 GLU d   1       1.723 -12.382  34.799  0.00  0.00    -0.648 OA
ATOM     84  OE2 GLU d   1      -0.247 -12.630  33.840  0.00  0.00    -0.648 OA
ENDBRANCH  79  82
ENDBRANCH  76  79
ENDBRANCH  13  76
ENDBRANCH  10  13
ENDBRANCH   7   9
BRANCH   7  85
ATOM     85  CB  ALA d   1       4.323 -14.553  41.206  0.00  0.00    -0.049 C 
ATOM     86  H   ALA d   1       5.089 -14.174  41.898  0.00  0.00     0.030 H 
ATOM     87  H   ALA d   1       4.790 -15.235  40.480  0.00  0.00     0.030 H 
ATOM     88  H   ALA d   1       3.552 -15.094  41.774  0.00  0.00     0.030 H 
ENDBRANCH   7  85
ENDBRANCH   4   7
ENDBRANCH   1   3
BRANCH   1  89
ATOM     89  C   ASP d   1       7.756 -12.601  38.852  0.00  0.00     0.241 C 
ATOM     90  O   ASP d   1       8.388 -12.208  37.868  0.00  0.00    -0.271 OA
ATOM     91  N   TYR d   1       7.723 -13.877  39.230  0.00  0.00    -0.346 N 
ATOM     92  H   TYR d   1       7.216 -14.135  40.053  0.00  0.00     0.163 HD
BRANCH  91  93
ATOM     93  CA  TYR d   1       8.417 -14.904  38.459  0.00  0.00     0.093 C 
ATOM     94  H   TYR d   1       9.342 -14.449  38.075  0.00  0.00     0.088 H 
BRANCH  93  95
ATOM     95  C   TYR d   1       7.606 -15.362  37.248  0.00  0.00     0.241 C 
ATOM     96  O   TYR d   1       7.999 -16.289  36.534  0.00  0.00    -0.271 OA
ATOM     97  N   PHE d   1       6.477 -14.698  37.020  0.00  0.00    -0.346 N 
ATOM     98  H   PHE d   1       6.146 -14.048  37.705  0.00  0.00     0.163 HD
BRANCH  97  99
ATOM     99  CA  PHE d   1       5.713 -14.893  35.802  0.00  0.00     0.093 C 
ATOM    100  H   PHE d   1       5.809 -15.946  35.499  0.00  0.00     0.088 H 
BRANCH  99 101
ATOM    101  C   PHE d   1       6.255 -14.013  34.677  0.00  0.00     0.241 C 
ATOM    102  O   PHE d   1       5.847 -14.166  33.528  0.00  0.00    -0.271 OA
ATOM    103  N   GLU d   1       7.175 -13.105  35.007  0.00  0.00    -0.346 N 
ATOM    104  H   GLU d   1       7.420 -12.981  35.969  0.00  0.00     0.163 HD
BRANCH 103 105
ATOM    105  CA  GLU d   1       7.832 -12.287  33.987  0.00  0.00     0.090 C 
ATOM    106  H   GLU d   1       7.065 -11.639  33.538  0.00  0.00     0.087 H 
BRANCH 105 107
ATOM    107  C   GLU d   1       8.421 -13.148  32.874  0.00  0.00     0.241 C 
ATOM    108  O   GLU d   1       8.873 -14.268  33.103  0.00  0.00    -0.271 OA
ATOM    109  N   TYR d   1       8.381 -12.622  31.691  0.00  0.00    -0.344 N 
ATOM    110  H   TYR d   1       7.955 -11.725  31.573  0.00  0.00     0.163 HD
BRANCH 109 111
ATOM    111  CA  TYR d   1       8.927 -13.284  30.549  0.00  0.00     0.100 C 
ATOM    112  H   TYR d   1       8.602 -14.335  30.566  0.00  0.00     0.090 H 
BRANCH 111 113
ATOM    113  C   TYR d   1      10.462 -13.259  30.562  0.00  0.00     0.197 C 
ATOM    114  O   TYR d   1      11.058 -13.976  29.833  0.00  0.00    -0.646 OA
ATOM    115  OXT TYR d   1      11.074 -12.505  31.319  0.00  0.00    -0.646 OA
ENDBRANCH 111 113
BRANCH 111 116
ATOM    116  CB  TYR d   1       8.385 -12.628  29.289  0.00  0.00    -0.013 C 
ATOM    117  H   TYR d   1       8.929 -13.053  28.433  0.00  0.00     0.043 H 
ATOM    118  H   TYR d   1       8.596 -11.551  29.359  0.00  0.00     0.043 H 
BRANCH 116 119
ATOM    119  CG  TYR d   1       6.877 -12.790  29.009  0.00  0.00    -0.056 A 
ATOM    120  CD1 TYR d   1       5.929 -12.312  29.851  0.00  0.00    -0.074 A 
ATOM    121  CE1 TYR d   1       4.588 -12.445  29.587  0.00  0.00    -0.051 A 
ATOM    122  H   TYR d   1       6.239 -11.809  30.760  0.00  0.00     0.084 H 
ATOM    123  CZ  TYR d   1       4.174 -13.055  28.444  0.00  0.00     0.065 A 
ATOM    124  H   TYR d   1       3.858 -12.063  30.291  0.00  0.00     0.087 H 
ATOM    125  CE2 TYR d   1       5.112 -13.542  27.606  0.00  0.00    -0.051 A 
ATOM    126  CD2 TYR d   1       6.444 -13.378  27.871  0.00  0.00    -0.074 A 
ATOM    127  H   TYR d   1       4.806 -14.070  26.710  0.00  0.00     0.087 H 
ATOM    128  H   TYR d   1       7.172 -13.729  27.149  0.00  0.00     0.084 H 
BRANCH 123 129
ATOM    129  OH  TYR d   1       2.870 -13.191  28.185  0.00  0.00    -0.361 OA
ATOM    130  H   TYR d   1       2.654 -14.114  28.129  0.00  0.00     0.217 HD
ENDBRANCH 123 129
ENDBRANCH 116 119
ENDBRANCH 111 116
ENDBRANCH 109 111
ENDBRANCH 105 107
BRANCH 105 131
ATOM    131  CB  GLU d   1       8.912 -11.379  34.597  0.00  0.00    -0.029 C 
ATOM    132  H   GLU d   1       9.512 -10.951  33.780  0.00  0.00     0.037 H 
ATOM    133  H   GLU d   1       9.557 -11.989  35.246  0.00  0.00     0.037 H 
BRANCH 131 134
ATOM    134  CG  GLU d   1       8.337 -10.242  35.420  0.00  0.00     0.018 C 
ATOM    135  H   GLU d   1       7.465 -10.619  35.975  0.00  0.00     0.049 H 
ATOM    136  H   GLU d   1       8.018  -9.442  34.736  0.00  0.00     0.049 H 
BRANCH 134 137
ATOM    137  CD  GLU d   1       9.325  -9.660  36.413  0.00  0.00     0.172 C 
ATOM    138  OE1 GLU d   1      10.544  -9.666  36.127  0.00  0.00    -0.648 OA
ATOM    139  OE2 GLU d   1       8.874  -9.198  37.483  0.00  0.00    -0.648 OA
ENDBRANCH 134 137
ENDBRANCH 131 134
ENDBRANCH 105 131
ENDBRANCH 103 105
ENDBRANCH  99 101
BRANCH  99 140
ATOM    140  CB  PHE d   1       4.234 -14.588  36.031  0.00  0.00    -0.014 C 
ATOM    141  H   PHE d   1       3.797 -14.257  35.077  0.00  0.00     0.043 H 
ATOM    142  H   PHE d   1       4.158 -13.777  36.770  0.00  0.00     0.043 H 
BRANCH 140 143
ATOM    143  CG  PHE d   1       3.441 -15.762  36.533  0.00  0.00    -0.056 A 
ATOM    144  CD1 PHE d   1       3.865 -16.480  37.638  0.00  0.00    -0.077 A 
ATOM    145  CE1 PHE d   1       3.131 -17.560  38.106  0.00  0.00    -0.082 A 
ATOM    146  H   PHE d   1       4.781 -16.195  38.143  0.00  0.00     0.084 H 
ATOM    147  CZ  PHE d   1       1.956 -17.920  37.477  0.00  0.00    -0.083 A 
ATOM    148  H   PHE d   1       3.480 -18.121  38.965  0.00  0.00     0.083 H 
ATOM    149  CE2 PHE d   1       1.517 -17.208  36.376  0.00  0.00    -0.082 A 
ATOM    150  H   PHE d   1       1.378 -18.760  37.846  0.00  0.00     0.083 H 
ATOM    151  CD2 PHE d   1       2.259 -16.134  35.909  0.00  0.00    -0.077 A 
ATOM    152  H   PHE d   1       0.595 -17.489  35.879  0.00  0.00     0.083 H 
ATOM    153  H   PHE d   1       1.911 -15.578  35.046  0.00  0.00     0.084 H 
ENDBRANCH 140 143
ENDBRANCH  99 140
ENDBRANCH  97  99
ENDBRANCH  93  95
BRANCH  93 154
ATOM    154  CB  TYR d   1       8.826 -16.089  39.340  0.00  0.00    -0.014 C 
ATOM    155  H   TYR d   1       9.543 -15.725  40.090  0.00  0.00     0.043 H 
ATOM    156  H   TYR d   1       9.315 -16.838  38.699  0.00  0.00     0.043 H 
BRANCH 154 157
ATOM    157  CG  TYR d   1       7.690 -16.766  40.068  0.00  0.00    -0.056 A 
ATOM    158  CD1 TYR d   1       6.863 -17.672  39.416  0.00  0.00    -0.074 A 
ATOM    159  CE1 TYR d   1       5.831 -18.301  40.080  0.00  0.00    -0.051 A 
ATOM    160  H   TYR d   1       7.032 -17.888  38.367  0.00  0.00     0.084 H 
ATOM    161  CZ  TYR d   1       5.624 -18.038  41.418  0.00  0.00     0.065 A 
ATOM    162  H   TYR d   1       5.187 -18.997  39.554  0.00  0.00     0.087 H 
ATOM    163  CE2 TYR d   1       6.438 -17.150  42.092  0.00  0.00    -0.051 A 
ATOM    164  CD2 TYR d   1       7.464 -16.524  41.418  0.00  0.00    -0.074 A 
ATOM    165  H   TYR d   1       6.271 -16.947  43.144  0.00  0.00     0.087 H 
ATOM    166  H   TYR d   1       8.106 -15.831  41.950  0.00  0.00     0.084 H 
BRANCH 161 167
ATOM    167  OH  TYR d   1       4.596 -18.665  42.083  0.00  0.00    -0.361 OA
ATOM    168  H   TYR d   1       4.135 -19.239  41.482  0.00  0.00     0.217 HD
ENDBRANCH 161 167
ENDBRANCH 154 157
ENDBRANCH  93 154
ENDBRANCH  91  93
ENDBRANCH   1  89
BRANCH   1 169
ATOM    169  CB  ASP d   1       7.868 -10.937  40.725  0.00  0.00     0.043 C 
ATOM    170  H   ASP d   1       8.784 -10.605  40.214  0.00  0.00     0.052 H 
ATOM    171  H   ASP d   1       8.128 -11.665  41.508  0.00  0.00     0.052 H 
BRANCH 169 172
ATOM    172  CG  ASP d   1       7.213  -9.736  41.377  0.00  0.00     0.175 C 
ATOM    173  OD1 ASP d   1       6.185  -9.259  40.851  0.00  0.00    -0.648 OA
ATOM    174  OD2 ASP d   1       7.654  -9.200  42.416  0.00  0.00    -0.648 OA
ENDBRANCH 169 172
ENDBRANCH   1 169
TORSDOF 44
