REMARK WARNING: 32 MAX_TORS EXCEEDED!!!
REMARK  43 active torsions:
REMARK  status: ('A' for Active; 'I' for Inactive)
REMARK    1  A    between atoms: N_1  and  CA_2 
REMARK    2  A    between atoms: CA_2  and  C_3 
REMARK    3  A    between atoms: CA_2  and  CB_5 
REMARK       I    between atoms: C_3  and  N_11 
REMARK    4  A    between atoms: CB_5  and  CG_6 
REMARK    5  A    between atoms: CA_12  and  C_13 
REMARK       I    between atoms: C_13  and  N_18 
REMARK    6  A    between atoms: N_18  and  CA_19 
REMARK    7  A    between atoms: CA_19  and  C_20 
REMARK    8  A    between atoms: CA_19  and  CB_22 
REMARK       I    between atoms: C_20  and  N_25 
REMARK    9  A    between atoms: CB_22  and  CG1_23 
REMARK   10  A    between atoms: CB_22  and  CG2_24 
REMARK   11  A    between atoms: N_25  and  CA_26 
REMARK   12  A    between atoms: CA_26  and  C_27 
REMARK       I    between atoms: C_27  and  N_29 
REMARK   13  A    between atoms: N_29  and  CA_30 
REMARK   14  A    between atoms: CA_30  and  C_31 
REMARK   15  A    between atoms: CA_30  and  CB_33 
REMARK       I    between atoms: C_31  and  N_38 
REMARK   16  A    between atoms: CB_33  and  CG_34 
REMARK   17  A    between atoms: CG_34  and  CD_35 
REMARK       I    between atoms: CD_35  and  NE2_37 
REMARK   18  A    between atoms: N_38  and  CA_39 
REMARK   19  A    between atoms: CA_39  and  C_40 
REMARK   20  A    between atoms: CA_39  and  CB_42 
REMARK       I    between atoms: C_40  and  N_43 
REMARK   21  A    between atoms: N_43  and  CA_44 
REMARK   22  A    between atoms: CA_44  and  C_45 
REMARK   23  A    between atoms: CA_44  and  CB_47 
REMARK       I    between atoms: C_45  and  N_51 
REMARK   24  A    between atoms: CB_47  and  CG_48 
REMARK   25  A    between atoms: N_51  and  CA_52 
REMARK   26  A    between atoms: CA_52  and  C_53 
REMARK   27  A    between atoms: CA_52  and  CB_55 
REMARK       I    between atoms: C_53  and  N_63 
REMARK   28  A    between atoms: CB_55  and  CG_56 
REMARK   29  A    between atoms: CZ_61  and  OH_62 
REMARK   30  A    between atoms: N_63  and  CA_64 
REMARK   31  A    between atoms: CA_64  and  C_65 
REMARK   32  A    between atoms: CA_64  and  CB_67 
REMARK       I    between atoms: C_65  and  N_74 
REMARK   33  A    between atoms: CB_67  and  CG_68 
REMARK   34  A    between atoms: N_74  and  CA_75 
REMARK   35  A    between atoms: CA_75  and  C_76 
REMARK   36  A    between atoms: CA_75  and  CB_78 
REMARK       I    between atoms: C_76  and  N_83 
REMARK   37  A    between atoms: CB_78  and  CG_79 
REMARK   38  A    between atoms: CG_79  and  CD_80 
REMARK   39  A    between atoms: N_83  and  CA_84 
REMARK   40  A    between atoms: CA_84  and  C_85 
REMARK   41  A    between atoms: CA_84  and  CB_87 
REMARK   42  A    between atoms: CB_87  and  CG_88 
REMARK   43  A    between atoms: CZ_93  and  OH_94 
ROOT
ATOM      1  CA  ASP d   1     -18.250  17.947 -17.071  0.00  0.00     0.098 C 
ATOM      2  H   ASP d   1     -17.487  18.737 -17.140  0.00  0.00     0.088 H 
ENDROOT
BRANCH   1   3
ATOM      3  N   ASP d   1     -18.107  17.239 -15.816  0.00  0.00    -0.346 N 
ATOM      4  C   ALA d   1     -17.975  17.820 -14.636  0.00  0.00     0.240 C 
ATOM      5  O   ALA d   1     -17.885  19.036 -14.504  0.00  0.00    -0.271 OA
ATOM      6  H   ASP d   1     -18.108  16.239 -15.844  0.00  0.00     0.163 HD
BRANCH   4   7
ATOM      7  CA  ALA d   1     -17.825  16.929 -13.414  0.00  0.00     0.086 C 
ATOM      8  H   ALA d   1     -16.833  16.454 -13.436  0.00  0.00     0.086 H 
BRANCH   7   9
ATOM      9  N   ALA d   1     -17.923  17.792 -12.224  0.00  0.00    -0.346 N 
ATOM     10  C   GLN d   1     -16.885  18.559 -11.844  0.00  0.00     0.241 C 
ATOM     11  O   GLN d   1     -15.771  18.532 -12.410  0.00  0.00    -0.271 OA
ATOM     12  H   ALA d   1     -18.770  17.808 -11.693  0.00  0.00     0.163 HD
BRANCH  10  13
ATOM     13  CA  GLN d   1     -17.116  19.452 -10.650  0.00  0.00     0.090 C 
ATOM     14  H   GLN d   1     -18.077  19.189 -10.184  0.00  0.00     0.087 H 
BRANCH  13  15
ATOM     15  N   GLN d   1     -16.050  19.211  -9.703  0.00  0.00    -0.346 N 
ATOM     16  C   GLY d   1     -16.060  18.250  -8.793  0.00  0.00     0.236 C 
ATOM     17  O   GLY d   1     -17.029  17.511  -8.587  0.00  0.00    -0.272 OA
ATOM     18  H   GLN d   1     -15.251  19.811  -9.738  0.00  0.00     0.163 HD
BRANCH  16  19
ATOM     19  CA  GLY d   1     -14.818  18.142  -7.955  0.00  0.00     0.069 C 
ATOM     20  H   GLY d   1     -14.262  17.231  -8.220  0.00  0.00     0.078 H 
ATOM     21  H   GLY d   1     -14.177  19.022  -8.115  0.00  0.00     0.078 H 
BRANCH  19  22
ATOM     22  N   GLY d   1     -15.240  18.081  -6.577  0.00  0.00    -0.351 N 
ATOM     23  C   VAL d   1     -15.391  19.158  -5.826  0.00  0.00     0.241 C 
ATOM     24  O   VAL d   1     -15.144  20.296  -6.210  0.00  0.00    -0.271 OA
ATOM     25  H   GLY d   1     -15.426  17.186  -6.173  0.00  0.00     0.163 HD
BRANCH  23  26
ATOM     26  CA  VAL d   1     -15.937  18.908  -4.436  0.00  0.00     0.092 C 
ATOM     27  H   VAL d   1     -15.645  17.892  -4.130  0.00  0.00     0.088 H 
BRANCH  26  28
ATOM     28  N   VAL d   1     -15.291  19.842  -3.536  0.00  0.00    -0.346 N 
ATOM     29  C   PRO d   1     -14.236  19.522  -2.769  0.00  0.00     0.241 C 
ATOM     30  O   PRO d   1     -13.747  18.375  -2.734  0.00  0.00    -0.271 OA
ATOM     31  H   VAL d   1     -15.650  20.774  -3.483  0.00  0.00     0.163 HD
BRANCH  29  32
ATOM     32  CA  PRO d   1     -13.637  20.674  -1.925  0.00  0.00     0.091 C 
ATOM     33  N   PRO d   1     -12.571  20.210  -1.014  0.00  0.00    -0.337 N 
ATOM     34  C   HIS d   1     -12.903  19.448   0.043  0.00  0.00     0.251 C 
ATOM     35  CD  PRO d   1     -11.236  20.660  -1.465  0.00  0.00    -0.001 C 
ATOM     36  O   HIS d   1     -14.085  19.161   0.260  0.00  0.00    -0.271 OA
ATOM     37  CG  PRO d   1     -11.501  21.255  -2.819  0.00  0.00    -0.048 C 
ATOM     38  H   PRO d   1     -10.540  19.811  -1.539  0.00  0.00     0.064 H 
ATOM     39  H   PRO d   1     -10.823  21.414  -0.779  0.00  0.00     0.064 H 
ATOM     40  CB  PRO d   1     -12.905  21.695  -2.813  0.00  0.00    -0.036 C 
ATOM     41  H   PRO d   1     -10.835  22.112  -2.995  0.00  0.00     0.035 H 
ATOM     42  H   PRO d   1     -11.342  20.500  -3.603  0.00  0.00     0.035 H 
ATOM     43  H   PRO d   1     -12.991  22.707  -2.391  0.00  0.00     0.036 H 
ATOM     44  H   PRO d   1     -13.317  21.687  -3.833  0.00  0.00     0.036 H 
ATOM     45  H   PRO d   1     -14.446  21.158  -1.358  0.00  0.00     0.087 H 
BRANCH  34  46
ATOM     46  CA  HIS d   1     -11.798  18.904   0.979  0.00  0.00     0.181 C 
ATOM     47  H   HIS d   1     -10.832  19.318   0.655  0.00  0.00     0.099 H 
BRANCH  46  48
ATOM     48  N   HIS d   1     -12.057  19.344   2.351  0.00  0.00    -0.066 N 
ATOM     49  H   HIS d   1     -11.336  18.989   2.959  0.00  0.00     0.275 HD
ATOM     50  H   HIS d   1     -12.953  18.995   2.652  0.00  0.00     0.275 HD
ATOM     51  H   HIS d   1     -12.060  20.351   2.386  0.00  0.00     0.275 HD
ENDBRANCH  46  48
BRANCH  46  52
ATOM     52  CB  HIS d   1     -11.713  17.362   0.903  0.00  0.00     0.009 C 
ATOM     53  H   HIS d   1     -12.737  16.960   0.928  0.00  0.00     0.046 H 
ATOM     54  H   HIS d   1     -11.157  17.006   1.783  0.00  0.00     0.046 H 
BRANCH  52  55
ATOM     55  CG  HIS d   1     -11.033  16.832  -0.326  0.00  0.00     0.030 A 
ATOM     56  ND1 HIS d   1     -11.588  16.989  -1.595  0.00  0.00    -0.353 N 
ATOM     57  CE1 HIS d   1     -10.753  16.394  -2.432  0.00  0.00     0.063 A 
ATOM     58  H   HIS d   1     -12.467  17.470  -1.833  0.00  0.00     0.166 HD
ATOM     59  NE2 HIS d   1      -9.719  15.845  -1.787  0.00  0.00    -0.254 NA
ATOM     60  H   HIS d   1     -10.891  16.356  -3.511  0.00  0.00     0.143 H 
ATOM     61  CD2 HIS d   1      -9.883  16.125  -0.442  0.00  0.00     0.025 A 
ATOM     62  H   HIS d   1      -9.216  15.833   0.368  0.00  0.00     0.117 H 
ENDBRANCH  52  55
ENDBRANCH  46  52
ENDBRANCH  34  46
ENDBRANCH  29  32
ENDBRANCH  26  28
BRANCH  26  63
ATOM     63  CB  VAL d   1     -17.512  18.961  -4.402  0.00  0.00    -0.033 C 
ATOM     64  H   VAL d   1     -17.811  18.848  -3.350  0.00  0.00     0.042 H 
BRANCH  63  65
ATOM     65  CG1 VAL d   1     -18.073  20.291  -4.887  0.00  0.00    -0.071 C 
ATOM     66  H   VAL d   1     -19.172  20.265  -4.839  0.00  0.00     0.028 H 
ATOM     67  H   VAL d   1     -17.755  20.466  -5.925  0.00  0.00     0.028 H 
ATOM     68  H   VAL d   1     -17.698  21.103  -4.247  0.00  0.00     0.028 H 
ENDBRANCH  63  65
BRANCH  63  69
ATOM     69  CG2 VAL d   1     -18.143  17.797  -5.186  0.00  0.00    -0.071 C 
ATOM     70  H   VAL d   1     -17.728  16.844  -4.825  0.00  0.00     0.028 H 
ATOM     71  H   VAL d   1     -17.919  17.912  -6.257  0.00  0.00     0.028 H 
ATOM     72  H   VAL d   1     -19.233  17.803  -5.037  0.00  0.00     0.028 H 
ENDBRANCH  63  69
ENDBRANCH  26  63
ENDBRANCH  23  26
ENDBRANCH  19  22
ENDBRANCH  16  19
ENDBRANCH  13  15
BRANCH  13  73
ATOM     73  CB  GLN d   1     -17.165  20.938 -11.069  0.00  0.00    -0.030 C 
ATOM     74  H   GLN d   1     -18.027  21.076 -11.738  0.00  0.00     0.037 H 
ATOM     75  H   GLN d   1     -16.238  21.171 -11.613  0.00  0.00     0.037 H 
BRANCH  73  76
ATOM     76  CG  GLN d   1     -17.299  21.935  -9.903  0.00  0.00     0.011 C 
ATOM     77  H   GLN d   1     -16.323  22.009  -9.401  0.00  0.00     0.047 H 
ATOM     78  H   GLN d   1     -18.045  21.540  -9.198  0.00  0.00     0.047 H 
BRANCH  76  79
ATOM     79  CD  GLN d   1     -17.727  23.331 -10.310  0.00  0.00     0.215 C 
ATOM     80  OE1 GLN d   1     -17.806  23.688 -11.497  0.00  0.00    -0.274 OA
ATOM     81  NE2 GLN d   1     -17.990  24.172  -9.318  0.00  0.00    -0.370 N 
ATOM     82  H   GLN d   1     -18.277  25.108  -9.519  0.00  0.00     0.159 HD
ATOM     83  H   GLN d   1     -17.901  23.869  -8.369  0.00  0.00     0.159 HD
ENDBRANCH  76  79
ENDBRANCH  73  76
ENDBRANCH  13  73
ENDBRANCH  10  13
ENDBRANCH   7   9
BRANCH   7  84
ATOM     84  CB  ALA d   1     -18.883  15.831 -13.381  0.00  0.00    -0.049 C 
ATOM     85  H   ALA d   1     -18.788  15.203 -14.279  0.00  0.00     0.030 H 
ATOM     86  H   ALA d   1     -19.884  16.287 -13.357  0.00  0.00     0.030 H 
ATOM     87  H   ALA d   1     -18.741  15.211 -12.483  0.00  0.00     0.030 H 
ENDBRANCH   7  84
ENDBRANCH   4   7
ENDBRANCH   1   3
BRANCH   1  88
ATOM     88  C   ASP d   1     -19.662  18.590 -17.136  0.00  0.00     0.241 C 
ATOM     89  O   ASP d   1     -20.606  18.069 -16.510  0.00  0.00    -0.271 OA
ATOM     90  N   TYR d   1     -19.806  19.714 -17.911  0.00  0.00    -0.346 N 
ATOM     91  H   TYR d   1     -18.994  20.063 -18.379  0.00  0.00     0.163 HD
BRANCH  90  92
ATOM     92  CA  TYR d   1     -21.075  20.444 -18.103  0.00  0.00     0.093 C 
ATOM     93  H   TYR d   1     -20.865  21.318 -18.737  0.00  0.00     0.088 H 
BRANCH  92  94
ATOM     94  C   TYR d   1     -21.641  20.952 -16.767  0.00  0.00     0.241 C 
ATOM     95  O   TYR d   1     -22.865  20.920 -16.559  0.00  0.00    -0.271 OA
ATOM     96  N   PHE d   1     -20.759  21.407 -15.855  0.00  0.00    -0.346 N 
ATOM     97  H   PHE d   1     -19.783  21.403 -16.074  0.00  0.00     0.163 HD
BRANCH  96  98
ATOM     98  CA  PHE d   1     -21.200  21.909 -14.545  0.00  0.00     0.093 C 
ATOM     99  H   PHE d   1     -22.211  21.515 -14.363  0.00  0.00     0.088 H 
BRANCH  98 100
ATOM    100  C   PHE d   1     -21.293  23.443 -14.538  0.00  0.00     0.241 C 
ATOM    101  O   PHE d   1     -21.698  24.023 -13.523  0.00  0.00    -0.271 OA
ATOM    102  N   GLU d   1     -20.979  24.082 -15.691  0.00  0.00    -0.346 N 
ATOM    103  H   GLU d   1     -20.696  23.511 -16.462  0.00  0.00     0.163 HD
BRANCH 102 104
ATOM    104  CA  GLU d   1     -21.015  25.540 -15.918  0.00  0.00     0.090 C 
ATOM    105  H   GLU d   1     -20.298  26.008 -15.228  0.00  0.00     0.087 H 
BRANCH 104 106
ATOM    106  C   GLU d   1     -22.405  26.141 -15.651  0.00  0.00     0.241 C 
ATOM    107  O   GLU d   1     -23.389  25.424 -15.642  0.00  0.00    -0.271 OA
ATOM    108  N   TYR d   1     -22.469  27.449 -15.421  0.00  0.00    -0.344 N 
ATOM    109  H   TYR d   1     -21.612  27.962 -15.371  0.00  0.00     0.163 HD
BRANCH 108 110
ATOM    110  CA  TYR d   1     -23.719  28.178 -15.237  0.00  0.00     0.100 C 
ATOM    111  H   TYR d   1     -24.399  27.578 -14.614  0.00  0.00     0.090 H 
BRANCH 110 112
ATOM    112  C   TYR d   1     -24.364  28.387 -16.629  0.00  0.00     0.197 C 
ATOM    113  O   TYR d   1     -23.609  28.490 -17.627  0.00  0.00    -0.646 OA
ATOM    114  OXT TYR d   1     -25.610  28.466 -16.725  0.00  0.00    -0.646 OA
ENDBRANCH 110 112
BRANCH 110 115
ATOM    115  CB  TYR d   1     -23.460  29.522 -14.526  0.00  0.00    -0.013 C 
ATOM    116  H   TYR d   1     -24.387  30.113 -14.563  0.00  0.00     0.043 H 
ATOM    117  H   TYR d   1     -22.666  30.051 -15.073  0.00  0.00     0.043 H 
BRANCH 115 118
ATOM    118  CG  TYR d   1     -23.035  29.404 -13.078  0.00  0.00    -0.056 A 
ATOM    119  CD1 TYR d   1     -21.785  28.890 -12.735  0.00  0.00    -0.074 A 
ATOM    120  CE1 TYR d   1     -21.408  28.727 -11.403  0.00  0.00    -0.051 A 
ATOM    121  H   TYR d   1     -21.092  28.611 -13.521  0.00  0.00     0.084 H 
ATOM    122  CZ  TYR d   1     -22.256  29.155 -10.393  0.00  0.00     0.065 A 
ATOM    123  H   TYR d   1     -20.457  28.268 -11.158  0.00  0.00     0.087 H 
ATOM    124  CE2 TYR d   1     -23.504  29.673 -10.708  0.00  0.00    -0.051 A 
ATOM    125  CD2 TYR d   1     -23.870  29.828 -12.048  0.00  0.00    -0.074 A 
ATOM    126  H   TYR d   1     -24.192  29.956  -9.919  0.00  0.00     0.087 H 
ATOM    127  H   TYR d   1     -24.822  30.287 -12.290  0.00  0.00     0.084 H 
BRANCH 122 128
ATOM    128  OH  TYR d   1     -21.855  29.052  -9.085  0.00  0.00    -0.361 OA
ATOM    129  H   TYR d   1     -22.459  28.490  -8.613  0.00  0.00     0.217 HD
ENDBRANCH 122 128
ENDBRANCH 115 118
ENDBRANCH 110 115
ENDBRANCH 108 110
ENDBRANCH 104 106
BRANCH 104 130
ATOM    130  CB  GLU d   1     -20.596  25.878 -17.377  0.00  0.00    -0.029 C 
ATOM    131  H   GLU d   1     -20.809  26.942 -17.560  0.00  0.00     0.037 H 
ATOM    132  H   GLU d   1     -21.197  25.261 -18.061  0.00  0.00     0.037 H 
BRANCH 130 133
ATOM    133  CG  GLU d   1     -19.117  25.626 -17.676  0.00  0.00     0.018 C 
ATOM    134  H   GLU d   1     -18.554  25.850 -16.758  0.00  0.00     0.049 H 
ATOM    135  H   GLU d   1     -18.819  26.327 -18.470  0.00  0.00     0.049 H 
BRANCH 133 136
ATOM    136  CD  GLU d   1     -18.712  24.229 -18.128  0.00  0.00     0.172 C 
ATOM    137  OE1 GLU d   1     -19.602  23.412 -18.470  0.00  0.00    -0.648 OA
ATOM    138  OE2 GLU d   1     -17.488  23.986 -18.232  0.00  0.00    -0.648 OA
ENDBRANCH 133 136
ENDBRANCH 130 133
ENDBRANCH 104 130
ENDBRANCH 102 104
ENDBRANCH  98 100
BRANCH  98 139
ATOM    139  CB  PHE d   1     -20.295  21.396 -13.413  0.00  0.00    -0.014 C 
ATOM    140  H   PHE d   1     -20.180  22.199 -12.670  0.00  0.00     0.043 H 
ATOM    141  H   PHE d   1     -19.312  21.148 -13.840  0.00  0.00     0.043 H 
BRANCH 139 142
ATOM    142  CG  PHE d   1     -20.832  20.173 -12.713  0.00  0.00    -0.056 A 
ATOM    143  CD1 PHE d   1     -21.324  19.085 -13.445  0.00  0.00    -0.077 A 
ATOM    144  CE1 PHE d   1     -21.846  17.957 -12.798  0.00  0.00    -0.082 A 
ATOM    145  H   PHE d   1     -21.301  19.116 -14.528  0.00  0.00     0.084 H 
ATOM    146  CZ  PHE d   1     -21.833  17.890 -11.417  0.00  0.00    -0.083 A 
ATOM    147  H   PHE d   1     -22.259  17.140 -13.378  0.00  0.00     0.083 H 
ATOM    148  CE2 PHE d   1     -21.314  18.944 -10.678  0.00  0.00    -0.082 A 
ATOM    149  H   PHE d   1     -22.228  17.016 -10.912  0.00  0.00     0.083 H 
ATOM    150  CD2 PHE d   1     -20.805  20.079 -11.329  0.00  0.00    -0.077 A 
ATOM    151  H   PHE d   1     -21.302  18.891  -9.595  0.00  0.00     0.083 H 
ATOM    152  H   PHE d   1     -20.387  20.890 -10.744  0.00  0.00     0.084 H 
ENDBRANCH 139 142
ENDBRANCH  98 139
ENDBRANCH  96  98
ENDBRANCH  92  94
BRANCH  92 153
ATOM    153  CB  TYR d   1     -22.129  19.572 -18.825  0.00  0.00    -0.014 C 
ATOM    154  H   TYR d   1     -22.931  20.235 -19.183  0.00  0.00     0.043 H 
ATOM    155  H   TYR d   1     -22.540  18.861 -18.094  0.00  0.00     0.043 H 
BRANCH 153 156
ATOM    156  CG  TYR d   1     -21.612  18.780 -20.009  0.00  0.00    -0.056 A 
ATOM    157  CD1 TYR d   1     -21.182  17.466 -19.861  0.00  0.00    -0.074 A 
ATOM    158  CE1 TYR d   1     -20.701  16.735 -20.942  0.00  0.00    -0.051 A 
ATOM    159  H   TYR d   1     -21.223  17.002 -18.882  0.00  0.00     0.084 H 
ATOM    160  CZ  TYR d   1     -20.707  17.291 -22.208  0.00  0.00     0.065 A 
ATOM    161  H   TYR d   1     -20.322  15.731 -20.792  0.00  0.00     0.087 H 
ATOM    162  CE2 TYR d   1     -21.128  18.599 -22.382  0.00  0.00    -0.051 A 
ATOM    163  CD2 TYR d   1     -21.569  19.339 -21.282  0.00  0.00    -0.074 A 
ATOM    164  H   TYR d   1     -21.115  19.047 -23.369  0.00  0.00     0.087 H 
ATOM    165  H   TYR d   1     -21.883  20.367 -21.423  0.00  0.00     0.084 H 
BRANCH 160 166
ATOM    166  OH  TYR d   1     -20.256  16.560 -23.282  0.00  0.00    -0.361 OA
ATOM    167  H   TYR d   1     -20.009  15.690 -22.990  0.00  0.00     0.217 HD
ENDBRANCH 160 166
ENDBRANCH 153 156
ENDBRANCH  92 153
ENDBRANCH  90  92
ENDBRANCH   1  88
BRANCH   1 168
ATOM    168  CB  ASP d   1     -18.057  16.949 -18.226  0.00  0.00     0.043 C 
ATOM    169  H   ASP d   1     -18.418  17.449 -19.137  0.00  0.00     0.052 H 
ATOM    170  H   ASP d   1     -18.699  16.084 -18.004  0.00  0.00     0.052 H 
BRANCH 168 171
ATOM    171  CG  ASP d   1     -16.664  16.388 -18.556  0.00  0.00     0.175 C 
ATOM    172  OD1 ASP d   1     -15.693  16.718 -17.839  0.00  0.00    -0.648 OA
ATOM    173  OD2 ASP d   1     -16.537  15.697 -19.602  0.00  0.00    -0.648 OA
ENDBRANCH 168 171
ENDBRANCH   1 168
TORSDOF 43
