REMARK  21 active torsions:
REMARK  status: ('A' for Active; 'I' for Inactive)
REMARK    1  A    between atoms: C_1  and  CH3_3 
REMARK       I    between atoms: C_1  and  N_4 
REMARK    2  A    between atoms: N_4  and  CA_5 
REMARK    3  A    between atoms: CA_5  and  C_6 
REMARK    4  A    between atoms: CA_5  and  CB_8 
REMARK       I    between atoms: C_6  and  N_12 
REMARK    5  A    between atoms: CB_8  and  CG_9 
REMARK    6  A    between atoms: CG_9  and  CD1_10 
REMARK    7  A    between atoms: CG_9  and  CD2_11 
REMARK    8  A    between atoms: N_12  and  CA_13 
REMARK    9  A    between atoms: CA_13  and  C_14 
REMARK   10  A    between atoms: CA_13  and  CB_16 
REMARK       I    between atoms: C_14  and  N_21 
REMARK   11  A    between atoms: CB_16  and  CG_17 
REMARK   12  A    between atoms: CG_17  and  CD_18 
REMARK   13  A    between atoms: N_21  and  CA_22 
REMARK   14  A    between atoms: CA_22  and  C_23 
REMARK   15  A    between atoms: CA_22  and  CB_25 
REMARK       I    between atoms: C_23  and  N_28 
REMARK   16  A    between atoms: CB_25  and  OG1_26 
REMARK   17  A    between atoms: CB_25  and  CG2_27 
REMARK   18  A    between atoms: N_28  and  CA_29 
REMARK   19  A    between atoms: CA_29  and  C_30 
REMARK   20  A    between atoms: CA_29  and  CB_32 
REMARK   21  A    between atoms: CB_32  and  CG_33 
ROOT
ATOM      1  CA  GLU d   1      39.412  10.480  71.195  0.00  0.00     0.090 C 
ATOM      2  H16 GLU d   1      40.107   9.642  71.350  0.00  0.00     0.087 H 
ENDROOT
BRANCH   1   3
ATOM      3  N   GLU d   1      40.000  11.687  71.769  0.00  0.00    -0.346 N 
ATOM      4  C   LEU d   1      41.048  11.667  72.585  0.00  0.00     0.241 C 
ATOM      5  O   LEU d   1      41.650  10.634  72.873  0.00  0.00    -0.271 OA
ATOM      6  H15 GLU d   1      39.594  12.571  71.537  0.00  0.00     0.163 HD
BRANCH   4   7
ATOM      7  CA  LEU d   1      41.469  13.015  73.181  0.00  0.00     0.089 C 
ATOM      8  H5  LEU d   1      40.687  13.755  72.954  0.00  0.00     0.087 H 
BRANCH   7   9
ATOM      9  N   LEU d   1      41.608  12.906  74.622  0.00  0.00    -0.348 N 
ATOM     10  C   ACE d   1      41.087  13.820  75.421  0.00  0.00     0.214 C 
ATOM     11  O   ACE d   1      40.212  14.587  75.025  0.00  0.00    -0.274 OA
ATOM     12  H4  LEU d   1      42.103  12.131  75.014  0.00  0.00     0.163 HD
BRANCH  10  13
ATOM     13  CH3 ACE d   1      41.259  13.585  76.903  0.00  0.00    -0.003 C 
ATOM     14  H1  ACE d   1      42.083  12.875  77.069  0.00  0.00     0.040 H 
ATOM     15  H2  ACE d   1      40.329  13.171  77.319  0.00  0.00     0.040 H 
ATOM     16  H3  ACE d   1      41.491  14.538  77.401  0.00  0.00     0.040 H 
ENDBRANCH  10  13
ENDBRANCH   7   9
BRANCH   7  17
ATOM     17  CB  LEU d   1      42.778  13.496  72.588  0.00  0.00    -0.035 C 
ATOM     18  H6  LEU d   1      43.438  12.617  72.571  0.00  0.00     0.037 H 
ATOM     19  H7  LEU d   1      43.172  14.237  73.299  0.00  0.00     0.037 H 
BRANCH  17  20
ATOM     20  CG  LEU d   1      42.906  14.132  71.218  0.00  0.00    -0.059 C 
ATOM     21  H8  LEU d   1      42.774  13.360  70.446  0.00  0.00     0.038 H 
BRANCH  20  22
ATOM     22  CD1 LEU d   1      41.879  15.244  70.968  0.00  0.00    -0.073 C 
ATOM     23  H9  LEU d   1      42.027  15.660  69.961  0.00  0.00     0.028 H 
ATOM     24  H10 LEU d   1      42.010  16.039  71.716  0.00  0.00     0.028 H 
ATOM     25  H11 LEU d   1      40.863  14.830  71.048  0.00  0.00     0.028 H 
ENDBRANCH  20  22
BRANCH  20  26
ATOM     26  CD2 LEU d   1      44.306  14.683  71.154  0.00  0.00    -0.073 C 
ATOM     27  H12 LEU d   1      45.028  13.873  71.335  0.00  0.00     0.028 H 
ATOM     28  H13 LEU d   1      44.429  15.462  71.921  0.00  0.00     0.028 H 
ATOM     29  H14 LEU d   1      44.484  15.117  70.159  0.00  0.00     0.028 H 
ENDBRANCH  20  26
ENDBRANCH  17  20
ENDBRANCH   7  17
ENDBRANCH   4   7
ENDBRANCH   1   3
BRANCH   1  30
ATOM     30  C   GLU d   1      39.199  10.662  69.689  0.00  0.00     0.241 C 
ATOM     31  O   GLU d   1      39.261  11.777  69.199  0.00  0.00    -0.271 OA
ATOM     32  N   THR d   1      38.979   9.562  68.972  0.00  0.00    -0.344 N 
ATOM     33  H21 THR d   1      39.035   8.671  69.422  0.00  0.00     0.163 HD
BRANCH  32  34
ATOM     34  CA  THR d   1      38.658   9.616  67.547  0.00  0.00     0.113 C 
ATOM     35  H22 THR d   1      38.779  10.657  67.212  0.00  0.00     0.091 H 
BRANCH  34  36
ATOM     36  C   THR d   1      37.220   9.188  67.320  0.00  0.00     0.243 C 
ATOM     37  O   THR d   1      36.651   8.432  68.093  0.00  0.00    -0.271 OA
ATOM     38  N   ASA d   1      36.642   9.702  66.250  0.00  0.00    -0.344 N 
ATOM     39  H28 ASA d   1      37.144  10.383  65.717  0.00  0.00     0.163 HD
BRANCH  38  40
ATOM     40  CA  ASA d   1      35.301   9.320  65.809  0.00  0.00     0.105 C 
ATOM     41  H29 ASA d   1      34.742   8.858  66.636  0.00  0.00     0.090 H 
BRANCH  40  42
ATOM     42  C   ASA d   1      35.364   8.381  64.652  0.00  0.00     0.197 C 
ATOM     43  O   ASA d   1      34.327   8.003  64.090  0.00  0.00    -0.646 OA
ATOM     44  OXT ASA d   1      36.454   7.965  64.236  0.00  0.00    -0.646 OA
ENDBRANCH  40  42
BRANCH  40  45
ATOM     45  CB  ASA d   1      34.624  10.625  65.348  0.00  0.00     0.044 C 
ATOM     46  H30 ASA d   1      33.850  10.394  64.602  0.00  0.00     0.053 H 
ATOM     47  H31 ASA d   1      35.376  11.292  64.902  0.00  0.00     0.053 H 
BRANCH  45  48
ATOM     48  CG  ASA d   1      33.974  11.320  66.572  0.00  0.00     0.175 C 
ATOM     49  OD1 ASA d   1      33.705  10.682  67.630  0.00  0.00    -0.648 OA
ATOM     50  OD2 ASA d   1      33.692  12.554  66.557  0.00  0.00    -0.648 OA
ENDBRANCH  45  48
ENDBRANCH  40  45
ENDBRANCH  38  40
ENDBRANCH  34  36
BRANCH  34  51
ATOM     51  CB  THR d   1      39.565   8.720  66.679  0.00  0.00     0.060 C 
ATOM     52  H23 THR d   1      39.162   8.700  65.656  0.00  0.00     0.086 H 
BRANCH  51  53
ATOM     53  OG1 THR d   1      39.571   7.383  67.204  0.00  0.00    -0.393 OA
ATOM     54  H24 THR d   1      40.131   6.835  66.666  0.00  0.00     0.210 HD
ENDBRANCH  51  53
BRANCH  51  55
ATOM     55  CG2 THR d   1      40.988   9.251  66.629  0.00  0.00    -0.050 C 
ATOM     56  H25 THR d   1      41.605   8.589  66.003  0.00  0.00     0.031 H 
ATOM     57  H26 THR d   1      41.403   9.284  67.647  0.00  0.00     0.031 H 
ATOM     58  H27 THR d   1      40.986  10.264  66.200  0.00  0.00     0.031 H 
ENDBRANCH  51  55
ENDBRANCH  34  51
ENDBRANCH  32  34
ENDBRANCH   1  30
BRANCH   1  59
ATOM     59  CB  GLU d   1      38.088  10.152  71.903  0.00  0.00    -0.029 C 
ATOM     60  H17 GLU d   1      37.690   9.213  71.491  0.00  0.00     0.037 H 
ATOM     61  H18 GLU d   1      37.374  10.967  71.713  0.00  0.00     0.037 H 
BRANCH  59  62
ATOM     62  CG  GLU d   1      38.262   9.988  73.449  0.00  0.00     0.018 C 
ATOM     63  H19 GLU d   1      38.666  10.931  73.846  0.00  0.00     0.049 H 
ATOM     64  H20 GLU d   1      38.984   9.177  73.624  0.00  0.00     0.049 H 
BRANCH  62  65
ATOM     65  CD  GLU d   1      36.977   9.656  74.231  0.00  0.00     0.172 C 
ATOM     66  OE1 GLU d   1      35.848   9.713  73.685  0.00  0.00    -0.648 OA
ATOM     67  OE2 GLU d   1      37.109   9.352  75.438  0.00  0.00    -0.648 OA
ENDBRANCH  62  65
ENDBRANCH  59  62
ENDBRANCH   1  59
TORSDOF 21
