REMARK  21 active torsions:
REMARK  status: ('A' for Active; 'I' for Inactive)
REMARK    1  A    between atoms: N_1  and  CB_2 
REMARK    2  A    between atoms: CB_2  and  CA_3 
REMARK    3  A    between atoms: CA_3  and  C_4 
REMARK       I    between atoms: C_4  and  N_6 
REMARK    4  A    between atoms: N_6  and  CA_7 
REMARK    5  A    between atoms: CA_7  and  C_8 
REMARK    6  A    between atoms: CA_7  and  CB_10 
REMARK       I    between atoms: C_8  and  N_14 
REMARK    7  A    between atoms: CB_10  and  CG_11 
REMARK    8  A    between atoms: CG_11  and  CD1_12 
REMARK    9  A    between atoms: CG_11  and  CD2_13 
REMARK   10  A    between atoms: N_14  and  CA_15 
REMARK   11  A    between atoms: CA_15  and  C_16 
REMARK   12  A    between atoms: CA_15  and  CB_18 
REMARK       I    between atoms: C_16  and  N_23 
REMARK   13  A    between atoms: CB_18  and  CG_19 
REMARK   14  A    between atoms: CG_19  and  CD_20 
REMARK       I    between atoms: CD_20  and  NE2_22 
REMARK   15  A    between atoms: CA_24  and  C_25 
REMARK       I    between atoms: C_25  and  N_31 
REMARK   16  A    between atoms: CG_28  and  OD1_30 
REMARK   17  A    between atoms: N_31  and  CA_32 
REMARK   18  A    between atoms: CA_32  and  C_33 
REMARK   19  A    between atoms: CA_32  and  CB_35 
REMARK   20  A    between atoms: C_33  and  C9_39 
REMARK   21  A    between atoms: CB_35  and  CG_36 
ROOT
ATOM      1  CA  GLN d   1     -25.298   6.274 -41.242  0.00  0.00     0.090 C 
ATOM      2  H20 GLN d   1     -26.200   6.899 -41.159  0.00  0.00     0.087 H 
ENDROOT
BRANCH   1   3
ATOM      3  N   GLN d   1     -24.241   7.034 -41.912  0.00  0.00    -0.346 N 
ATOM      4  C   LEU d   1     -24.532   8.073 -42.709  0.00  0.00     0.241 C 
ATOM      5  O   LEU d   1     -25.696   8.418 -42.989  0.00  0.00    -0.271 OA
ATOM      6  H19 GLN d   1     -23.285   6.774 -41.773  0.00  0.00     0.163 HD
BRANCH   4   7
ATOM      7  CA  LEU d   1     -23.348   8.899 -43.232  0.00  0.00     0.089 C 
ATOM      8  H9  LEU d   1     -22.415   8.371 -42.983  0.00  0.00     0.087 H 
BRANCH   7   9
ATOM      9  N   LEU d   1     -23.414   9.091 -44.696  0.00  0.00    -0.348 N 
ATOM     10  C   BAL d   1     -23.062   8.169 -45.586  0.00  0.00     0.219 C 
ATOM     11  O   BAL d   1     -23.152   6.952 -45.290  0.00  0.00    -0.274 OA
ATOM     12  H8  LEU d   1     -23.744   9.970 -45.038  0.00  0.00     0.163 HD
BRANCH  10  13
ATOM     13  CA  BAL d   1     -22.863   8.570 -47.036  0.00  0.00     0.031 C 
ATOM     14  H6  BAL d   1     -22.205   9.449 -47.101  0.00  0.00     0.049 H 
ATOM     15  H7  BAL d   1     -22.420   7.738 -47.604  0.00  0.00     0.049 H 
BRANCH  13  16
ATOM     16  CB  BAL d   1     -24.220   8.898 -47.572  0.00  0.00     0.087 C 
ATOM     17  H4  BAL d   1     -24.802   9.443 -46.814  0.00  0.00     0.075 H 
ATOM     18  H5  BAL d   1     -24.127   9.517 -48.477  0.00  0.00     0.075 H 
BRANCH  16  19
ATOM     19  N   BAL d   1     -24.866   7.666 -47.889  0.00  0.00    -0.079 N 
ATOM     20  H1  BAL d   1     -25.787   7.854 -48.254  0.00  0.00     0.274 HD
ATOM     21  H2  BAL d   1     -24.943   7.103 -47.056  0.00  0.00     0.274 HD
ATOM     22  H3  BAL d   1     -24.325   7.171 -48.580  0.00  0.00     0.274 HD
ENDBRANCH  16  19
ENDBRANCH  13  16
ENDBRANCH  10  13
ENDBRANCH   7   9
BRANCH   7  23
ATOM     23  CB  LEU d   1     -23.342  10.274 -42.571  0.00  0.00    -0.035 C 
ATOM     24  H10 LEU d   1     -24.292  10.774 -42.812  0.00  0.00     0.037 H 
ATOM     25  H11 LEU d   1     -22.507  10.853 -42.992  0.00  0.00     0.037 H 
BRANCH  23  26
ATOM     26  CG  LEU d   1     -23.188  10.253 -41.057  0.00  0.00    -0.059 C 
ATOM     27  H12 LEU d   1     -23.785   9.422 -40.652  0.00  0.00     0.038 H 
BRANCH  26  28
ATOM     28  CD1 LEU d   1     -21.691   9.974 -40.707  0.00  0.00    -0.073 C 
ATOM     29  H13 LEU d   1     -21.567   9.957 -39.614  0.00  0.00     0.028 H 
ATOM     30  H14 LEU d   1     -21.060  10.767 -41.135  0.00  0.00     0.028 H 
ATOM     31  H15 LEU d   1     -21.392   9.002 -41.126  0.00  0.00     0.028 H 
ENDBRANCH  26  28
BRANCH  26  32
ATOM     32  CD2 LEU d   1     -23.758  11.561 -40.474  0.00  0.00    -0.073 C 
ATOM     33  H16 LEU d   1     -24.811  11.668 -40.774  0.00  0.00     0.028 H 
ATOM     34  H17 LEU d   1     -23.180  12.415 -40.856  0.00  0.00     0.028 H 
ATOM     35  H18 LEU d   1     -23.690  11.534 -39.377  0.00  0.00     0.028 H 
ENDBRANCH  26  32
ENDBRANCH  23  26
ENDBRANCH   7  23
ENDBRANCH   4   7
ENDBRANCH   1   3
BRANCH   1  36
ATOM     36  C   GLN d   1     -24.806   5.898 -39.853  0.00  0.00     0.243 C 
ATOM     37  O   GLN d   1     -23.624   5.653 -39.693  0.00  0.00    -0.271 OA
ATOM     38  N   HYP d   1     -25.694   5.861 -38.867  0.00  0.00    -0.334 N 
ATOM     39  CA  HYP d   1     -25.305   5.451 -37.412  0.00  0.00     0.094 C 
ATOM     40  CD  HYP d   1     -26.982   6.242 -38.915  0.00  0.00     0.022 C 
ATOM     41  CB  HYP d   1     -26.305   6.425 -36.676  0.00  0.00    -0.012 C 
ATOM     42  H27 HYP d   1     -24.262   5.717 -37.185  0.00  0.00     0.088 H 
ATOM     43  CG  HYP d   1     -27.412   6.310 -37.395  0.00  0.00     0.053 C 
ATOM     44  H28 HYP d   1     -25.931   7.459 -36.688  0.00  0.00     0.040 H 
ATOM     45  H29 HYP d   1     -26.474   6.108 -35.636  0.00  0.00     0.040 H 
ATOM     46  H30 HYP d   1     -27.943   5.391 -37.108  0.00  0.00     0.085 H 
ATOM     47  H31 HYP d   1     -27.589   5.505 -39.461  0.00  0.00     0.068 H 
ATOM     48  H32 HYP d   1     -27.082   7.227 -39.395  0.00  0.00     0.068 H 
BRANCH  39  49
ATOM     49  C   HYP d   1     -25.460   4.083 -37.149  0.00  0.00     0.241 C 
ATOM     50  O   HYP d   1     -26.352   3.381 -37.759  0.00  0.00    -0.271 OA
ATOM     51  N   1U8 d   1     -24.657   3.549 -36.215  0.00  0.00    -0.347 N 
ATOM     52  H34 1U8 d   1     -23.920   4.101 -35.825  0.00  0.00     0.163 HD
BRANCH  51  53
ATOM     53  CA  1U8 d   1     -24.844   2.179 -35.763  0.00  0.00     0.078 C 
ATOM     54  H35 1U8 d   1     -25.523   1.651 -36.448  0.00  0.00     0.085 H 
BRANCH  53  55
ATOM     55  C   1U8 d   1     -25.419   2.171 -34.361  0.00  0.00     0.146 C 
ATOM     56  O   1U8 d   1     -25.318   1.168 -33.663  0.00  0.00    -0.296 OA
BRANCH  55  57
ATOM     57  C9  1U8 d   1     -26.047   3.415 -33.838  0.00  0.00    -0.019 C 
ATOM     58  H38 1U8 d   1     -26.411   3.240 -32.815  0.00  0.00     0.037 H 
ATOM     59  H39 1U8 d   1     -26.891   3.699 -34.483  0.00  0.00     0.037 H 
ATOM     60  H40 1U8 d   1     -25.303   4.226 -33.829  0.00  0.00     0.037 H 
ENDBRANCH  55  57
ENDBRANCH  53  55
BRANCH  53  61
ATOM     61  CB  1U8 d   1     -23.467   1.470 -35.729  0.00  0.00     0.041 C 
ATOM     62  H36 1U8 d   1     -23.505   0.619 -35.033  0.00  0.00     0.052 H 
ATOM     63  H37 1U8 d   1     -22.693   2.179 -35.399  0.00  0.00     0.052 H 
BRANCH  61  64
ATOM     64  CG  1U8 d   1     -23.145   0.976 -37.117  0.00  0.00     0.174 C 
ATOM     65  OD1 1U8 d   1     -21.976   0.733 -37.471  0.00  0.00    -0.648 OA
ATOM     66  OD2 1U8 d   1     -24.076   0.750 -37.901  0.00  0.00    -0.648 OA
ENDBRANCH  61  64
ENDBRANCH  53  61
ENDBRANCH  51  53
ENDBRANCH  39  49
BRANCH  43  67
ATOM     67  OD1 HYP d   1     -28.324   7.489 -37.212  0.00  0.00    -0.394 OA
ATOM     68  H33 HYP d   1     -28.591   7.543 -36.302  0.00  0.00     0.210 HD
ENDBRANCH  43  67
ENDBRANCH   1  36
BRANCH   1  69
ATOM     69  CB  GLN d   1     -25.640   5.001 -42.022  0.00  0.00    -0.030 C 
ATOM     70  H21 GLN d   1     -26.401   4.439 -41.461  0.00  0.00     0.037 H 
ATOM     71  H22 GLN d   1     -24.729   4.391 -42.117  0.00  0.00     0.037 H 
BRANCH  69  72
ATOM     72  CG  GLN d   1     -26.183   5.292 -43.427  0.00  0.00     0.011 C 
ATOM     73  H23 GLN d   1     -25.371   5.726 -44.029  0.00  0.00     0.047 H 
ATOM     74  H24 GLN d   1     -27.002   6.021 -43.337  0.00  0.00     0.047 H 
BRANCH  72  75
ATOM     75  CD  GLN d   1     -26.706   4.079 -44.143  0.00  0.00     0.215 C 
ATOM     76  OE1 GLN d   1     -26.626   2.939 -43.656  0.00  0.00    -0.274 OA
ATOM     77  NE2 GLN d   1     -27.302   4.325 -45.314  0.00  0.00    -0.370 N 
ATOM     78  H25 GLN d   1     -27.677   3.570 -45.852  0.00  0.00     0.159 HD
ATOM     79  H26 GLN d   1     -27.373   5.264 -45.651  0.00  0.00     0.159 HD
ENDBRANCH  72  75
ENDBRANCH  69  72
ENDBRANCH   1  69
TORSDOF 21
