REMARK  15 active torsions:
REMARK  status: ('A' for Active; 'I' for Inactive)
REMARK    1  A    between atoms: NAP_5  and  CAO_6 
REMARK    2  A    between atoms: CAO_6  and  CAN_7 
REMARK    3  A    between atoms: CAN_7  and  OAM_8 
REMARK    4  A    between atoms: OAM_8  and  CAJ_9 
REMARK    5  A    between atoms: CAG_14  and  NAF_15 
REMARK    6  A    between atoms: NAF_15  and  C2_16 
REMARK    7  A    between atoms: C5_20  and  CAA_21 
REMARK    8  A    between atoms: C4_22  and  NAW_23 
REMARK    9  A    between atoms: NAW_23  and  CAX_24 
REMARK   10  A    between atoms: CBB_29  and  SBD_30 
REMARK   11  A    between atoms: SBD_30  and  NBE_33 
REMARK   12  A    between atoms: NBE_33  and  CBF_34 
REMARK   13  A    between atoms: CBF_34  and  CBH_35 
REMARK   14  A    between atoms: CBF_34  and  CBI_36 
REMARK   15  A    between atoms: CBF_34  and  CBG_37 
ROOT
ATOM      1  C2  2TA d   1      22.465  11.120  37.007  0.00  0.00     0.728 A 
ATOM      2  N3  2TA d   1      22.744   9.867  36.561  0.00  0.00    -0.044 NA
ATOM      3  N1  2TA d   1      21.491  11.270  37.934  0.00  0.00    -0.074 NA
ATOM      4  C6  2TA d   1      20.781  10.230  38.419  0.00  0.00     0.030 A 
ATOM      5  C5  2TA d   1      21.043   8.918  37.970  0.00  0.00     0.003 A 
ATOM      6  C4  2TA d   1      22.076   8.769  37.001  0.00  0.00     0.154 A 
ATOM      7  H   2TA d   1      20.006  10.403  39.157  0.00  0.00     0.116 H 
ENDROOT
BRANCH   1   8
ATOM      8  NAF 2TA d   1      23.154  12.185  36.531  0.00  0.00    -0.188 N 
ATOM      9  H   2TA d   1      22.730  13.081  36.810  0.00  0.00     0.184 HD
BRANCH   8  10
ATOM     10  CAG 2TA d   1      24.279  12.357  35.767  0.00  0.00     0.049 A 
ATOM     11  CAL 2TA d   1      25.069  11.248  35.388  0.00  0.00    -0.054 A 
ATOM     12  CAK 2TA d   1      26.228  11.439  34.609  0.00  0.00    -0.049 A 
ATOM     13  H   2TA d   1      24.783  10.249  35.697  0.00  0.00     0.087 H 
ATOM     14  CAJ 2TA d   1      26.619  12.724  34.184  0.00  0.00     0.069 A 
ATOM     15  H   2TA d   1      26.830  10.581  34.332  0.00  0.00     0.087 H 
ATOM     16  CAI 2TA d   1      25.835  13.833  34.560  0.00  0.00    -0.049 A 
ATOM     17  CAH 2TA d   1      24.686  13.646  35.345  0.00  0.00    -0.054 A 
ATOM     18  H   2TA d   1      26.119  14.830  34.243  0.00  0.00     0.087 H 
ATOM     19  H   2TA d   1      24.097  14.508  35.635  0.00  0.00     0.087 H 
BRANCH  14  20
ATOM     20  OAM 2TA d   1      27.756  12.870  33.420  0.00  0.00    -0.349 OA
BRANCH  20  21
ATOM     21  CAN 2TA d   1      27.693  13.936  32.451  0.00  0.00     0.049 C 
ATOM     22  H   2TA d   1      26.692  13.958  31.994  0.00  0.00     0.077 H 
ATOM     23  H   2TA d   1      27.890  14.897  32.949  0.00  0.00     0.077 H 
BRANCH  21  24
ATOM     24  CAO 2TA d   1      28.754  13.697  31.355  0.00  0.00     0.103 C 
ATOM     25  H   2TA d   1      28.508  14.348  30.503  0.00  0.00     0.079 H 
ATOM     26  H   2TA d   1      29.732  13.986  31.767  0.00  0.00     0.079 H 
BRANCH  24  27
ATOM     27  NAP 2TA d   1      28.872  12.300  30.840  0.00  0.00    -0.069 N 
ATOM     28  CAQ 2TA d   1      29.934  12.033  29.840  0.00  0.00     0.084 C 
ATOM     29  CAR 2TA d   1      29.268  11.182  28.747  0.00  0.00    -0.041 C 
ATOM     30  H   2TA d   1      30.309  12.977  29.417  0.00  0.00     0.076 H 
ATOM     31  H   2TA d   1      30.766  11.482  30.302  0.00  0.00     0.076 H 
ATOM     32  CAS 2TA d   1      28.098  10.505  29.471  0.00  0.00    -0.041 C 
ATOM     33  H   2TA d   1      29.970  10.433  28.352  0.00  0.00     0.035 H 
ATOM     34  H   2TA d   1      28.905  11.815  27.924  0.00  0.00     0.035 H 
ATOM     35  CAT 2TA d   1      27.629  11.597  30.440  0.00  0.00     0.084 C 
ATOM     36  H   2TA d   1      28.432   9.609  30.014  0.00  0.00     0.035 H 
ATOM     37  H   2TA d   1      27.300  10.230  28.766  0.00  0.00     0.035 H 
ATOM     38  H   2TA d   1      27.135  11.152  31.317  0.00  0.00     0.076 H 
ATOM     39  H   2TA d   1      26.935  12.289  29.940  0.00  0.00     0.076 H 
ATOM     40  H   2TA d   1      29.178  11.796  31.658  0.00  0.00     0.280 HD
ENDBRANCH  24  27
ENDBRANCH  21  24
ENDBRANCH  20  21
ENDBRANCH  14  20
ENDBRANCH   8  10
ENDBRANCH   1   8
BRANCH   6  41
ATOM     41  NAW 2TA d   1      22.371   7.523  36.542  0.00  0.00    -0.340 N 
ATOM     42  H   2TA d   1      21.949   6.753  37.080  0.00  0.00     0.167 HD
BRANCH  41  43
ATOM     43  CAX 2TA d   1      23.141   7.128  35.476  0.00  0.00     0.035 A 
ATOM     44  CBC 2TA d   1      23.532   7.930  34.382  0.00  0.00    -0.035 A 
ATOM     45  CBB 2TA d   1      24.303   7.375  33.341  0.00  0.00     0.081 A 
ATOM     46  H   2TA d   1      23.239   8.973  34.343  0.00  0.00     0.089 H 
ATOM     47  CBA 2TA d   1      24.716   6.029  33.380  0.00  0.00    -0.060 A 
ATOM     48  CAZ 2TA d   1      24.341   5.223  34.466  0.00  0.00    -0.079 A 
ATOM     49  H   2TA d   1      25.319   5.619  32.578  0.00  0.00     0.085 H 
ATOM     50  CAY 2TA d   1      23.566   5.779  35.501  0.00  0.00    -0.057 A 
ATOM     51  H   2TA d   1      24.645   4.183  34.507  0.00  0.00     0.083 H 
ATOM     52  H   2TA d   1      23.287   5.155  36.342  0.00  0.00     0.086 H 
BRANCH  45  53
ATOM     53  SBD 2TA d   1      24.767   8.390  31.981  0.00  0.00     0.259 S 
ATOM     54  OBJ 2TA d   1      25.948   9.343  32.438  0.00  0.00    -0.201 OA
ATOM     55  OBK 2TA d   1      25.176   7.457  30.780  0.00  0.00    -0.201 OA
BRANCH  53  56
ATOM     56  NBE 2TA d   1      23.420   9.428  31.504  0.00  0.00    -0.307 N 
ATOM     57  H   2TA d   1      23.335  10.336  31.915  0.00  0.00     0.173 HD
BRANCH  56  58
ATOM     58  CBF 2TA d   1      22.404   8.985  30.502  0.00  0.00     0.029 C 
BRANCH  58  59
ATOM     59  CBH 2TA d   1      21.249  10.020  30.603  0.00  0.00    -0.053 C 
ATOM     60  H   2TA d   1      20.456   9.756  29.887  0.00  0.00     0.030 H 
ATOM     61  H   2TA d   1      21.634  11.024  30.370  0.00  0.00     0.030 H 
ATOM     62  H   2TA d   1      20.838  10.013  31.623  0.00  0.00     0.030 H 
ENDBRANCH  58  59
BRANCH  58  63
ATOM     63  CBI 2TA d   1      21.816   7.573  30.801  0.00  0.00    -0.053 C 
ATOM     64  H   2TA d   1      21.078   7.312  30.028  0.00  0.00     0.030 H 
ATOM     65  H   2TA d   1      21.327   7.580  31.786  0.00  0.00     0.030 H 
ATOM     66  H   2TA d   1      22.627   6.830  30.800  0.00  0.00     0.030 H 
ENDBRANCH  58  63
BRANCH  58  67
ATOM     67  CBG 2TA d   1      22.993   9.055  29.063  0.00  0.00    -0.053 C 
ATOM     68  H   2TA d   1      22.233   8.726  28.339  0.00  0.00     0.030 H 
ATOM     69  H   2TA d   1      23.873   8.398  28.995  0.00  0.00     0.030 H 
ATOM     70  H   2TA d   1      23.290  10.090  28.838  0.00  0.00     0.030 H 
ENDBRANCH  58  67
ENDBRANCH  56  58
ENDBRANCH  53  56
ENDBRANCH  45  53
ENDBRANCH  41  43
ENDBRANCH   6  41
BRANCH   5  71
ATOM     71  CAA 2TA d   1      20.257   7.775  38.508  0.00  0.00    -0.046 C 
ATOM     72  H   2TA d   1      19.523   8.146  39.239  0.00  0.00     0.033 H 
ATOM     73  H   2TA d   1      20.936   7.062  39.000  0.00  0.00     0.033 H 
ATOM     74  H   2TA d   1      19.731   7.271  37.684  0.00  0.00     0.033 H 
ENDBRANCH   5  71
TORSDOF 15
