REMARK  3 active torsions:
REMARK  status: ('A' for Active; 'I' for Inactive)
REMARK    1  A    between atoms: C1_1  and  C2_2 
REMARK       I    between atoms: C2_2  and  N4_4 
REMARK    2  A    between atoms: N4_4  and  C5_5 
REMARK    3  A    between atoms: C10_10  and  C14_14 
ROOT
ATOM      1  C5  2WJ d   1      18.016  61.634  23.412  0.00  0.00     0.174 A 
ATOM      2  N6  2WJ d   1      18.741  60.778  24.069  0.00  0.00    -0.223 NA
ATOM      3  C7  2WJ d   1      20.028  60.660  23.727  0.00  0.00     0.076 A 
ATOM      4  C8  2WJ d   1      21.009  59.816  24.263  0.00  0.00    -0.053 A 
ATOM      5  C9  2WJ d   1      22.289  59.833  23.765  0.00  0.00    -0.070 A 
ATOM      6  C10 2WJ d   1      22.637  60.694  22.718  0.00  0.00    -0.023 A 
ATOM      7  C11 2WJ d   1      21.677  61.538  22.185  0.00  0.00    -0.053 A 
ATOM      8  C12 2WJ d   1      20.388  61.529  22.680  0.00  0.00     0.038 A 
ATOM      9  S13 2WJ d   1      18.980  62.473  22.190  0.00  0.00    -0.050 SA
ATOM     10  H   2WJ d   1      20.756  59.145  25.076  0.00  0.00     0.087 H 
ATOM     11  H   2WJ d   1      23.038  59.172  24.187  0.00  0.00     0.084 H 
ATOM     12  H   2WJ d   1      21.939  62.209  21.375  0.00  0.00     0.087 H 
ENDROOT
BRANCH   6  13
ATOM     13  C14 2WJ d   1      23.997  60.710  22.130  0.00  0.00    -0.008 A 
ATOM     14  C15 2WJ d   1      24.182  61.229  20.823  0.00  0.00    -0.070 A 
ATOM     15  C16 2WJ d   1      25.458  61.220  20.248  0.00  0.00    -0.065 A 
ATOM     16  H   2WJ d   1      23.339  61.631  20.272  0.00  0.00     0.085 H 
ATOM     17  C17 2WJ d   1      26.515  60.691  20.966  0.00  0.00     0.002 A 
ATOM     18  H   2WJ d   1      25.616  61.622  19.254  0.00  0.00     0.085 H 
ATOM     19  N18 2WJ d   1      26.290  60.191  22.176  0.00  0.00    -0.272 NA
ATOM     20  H   2WJ d   1      27.515  60.684  20.547  0.00  0.00     0.114 H 
ATOM     21  C19 2WJ d   1      25.102  60.166  22.774  0.00  0.00     0.013 A 
ATOM     22  H   2WJ d   1      24.996  59.724  23.758  0.00  0.00     0.116 H 
ENDBRANCH   6  13
BRANCH   1  23
ATOM     23  N4  2WJ d   1      16.658  61.825  23.661  0.00  0.00    -0.306 N 
ATOM     24  C2  2WJ d   1      15.819  62.703  23.042  0.00  0.00     0.219 C 
ATOM     25  O3  2WJ d   1      16.210  63.475  22.195  0.00  0.00    -0.274 OA
ATOM     26  H   2WJ d   1      16.253  61.253  24.375  0.00  0.00     0.171 HD
BRANCH  24  27
ATOM     27  C1  2WJ d   1      14.359  62.731  23.425  0.00  0.00    -0.002 C 
ATOM     28  H   2WJ d   1      14.169  61.975  24.201  0.00  0.00     0.040 H 
ATOM     29  H   2WJ d   1      13.743  62.511  22.540  0.00  0.00     0.040 H 
ATOM     30  H   2WJ d   1      14.101  63.727  23.813  0.00  0.00     0.040 H 
ENDBRANCH  24  27
ENDBRANCH   1  23
TORSDOF 3
