REMARK  7 active torsions:
REMARK  status: ('A' for Active; 'I' for Inactive)
REMARK    1  A    between atoms: C1_1  and  C2_2 
REMARK       I    between atoms: C2_2  and  N4_4 
REMARK    2  A    between atoms: N4_4  and  C5_5 
REMARK    3  A    between atoms: C10_10  and  C14_14 
REMARK    4  A    between atoms: C16_16  and  O22_22 
REMARK    5  A    between atoms: C17_17  and  O20_20 
REMARK    6  A    between atoms: O20_20  and  C21_21 
REMARK    7  A    between atoms: O22_22  and  C23_23 
ROOT
ATOM      1  C5  2WK d   1      17.770  61.714  23.655  0.00  0.00     0.174 A 
ATOM      2  N6  2WK d   1      18.485  60.776  24.193  0.00  0.00    -0.223 NA
ATOM      3  C7  2WK d   1      19.769  60.684  23.782  0.00  0.00     0.076 A 
ATOM      4  C8  2WK d   1      20.779  59.777  24.183  0.00  0.00    -0.053 A 
ATOM      5  C9  2WK d   1      22.033  59.846  23.659  0.00  0.00    -0.070 A 
ATOM      6  C10 2WK d   1      22.379  60.819  22.703  0.00  0.00    -0.023 A 
ATOM      7  C11 2WK d   1      21.411  61.712  22.275  0.00  0.00    -0.053 A 
ATOM      8  C12 2WK d   1      20.127  61.646  22.818  0.00  0.00     0.038 A 
ATOM      9  S13 2WK d   1      18.721  62.641  22.493  0.00  0.00    -0.050 SA
ATOM     10  H   2WK d   1      20.550  59.015  24.919  0.00  0.00     0.087 H 
ATOM     11  H   2WK d   1      22.783  59.135  23.986  0.00  0.00     0.084 H 
ATOM     12  H   2WK d   1      21.649  62.457  21.524  0.00  0.00     0.087 H 
ENDROOT
BRANCH   6  13
ATOM     13  C14 2WK d   1      23.729  60.817  22.089  0.00  0.00    -0.005 A 
ATOM     14  C15 2WK d   1      23.842  61.277  20.766  0.00  0.00    -0.034 A 
ATOM     15  C16 2WK d   1      25.083  61.244  20.137  0.00  0.00     0.121 A 
ATOM     16  H   2WK d   1      22.972  61.654  20.241  0.00  0.00     0.089 H 
ATOM     17  C17 2WK d   1      26.194  60.695  20.827  0.00  0.00     0.198 A 
ATOM     18  N18 2WK d   1      26.037  60.231  22.074  0.00  0.00    -0.234 NA
ATOM     19  C19 2WK d   1      24.864  60.261  22.703  0.00  0.00     0.016 A 
ATOM     20  H   2WK d   1      24.783  59.851  23.703  0.00  0.00     0.116 H 
BRANCH  15  21
ATOM     21  O22 2WK d   1      25.175  61.716  18.864  0.00  0.00    -0.352 OA
BRANCH  21  22
ATOM     22  C23 2WK d   1      25.148  63.123  18.624  0.00  0.00     0.011 C 
ATOM     23  H   2WK d   1      25.233  63.312  17.544  0.00  0.00     0.067 H 
ATOM     24  H   2WK d   1      25.989  63.600  19.147  0.00  0.00     0.067 H 
ATOM     25  H   2WK d   1      24.201  63.540  18.996  0.00  0.00     0.067 H 
ENDBRANCH  21  22
ENDBRANCH  15  21
BRANCH  17  26
ATOM     26  O20 2WK d   1      27.432  60.648  20.240  0.00  0.00    -0.337 OA
BRANCH  26  27
ATOM     27  C21 2WK d   1      28.136  59.406  20.255  0.00  0.00     0.012 C 
ATOM     28  H   2WK d   1      29.105  59.528  19.750  0.00  0.00     0.067 H 
ATOM     29  H   2WK d   1      27.543  58.642  19.731  0.00  0.00     0.067 H 
ATOM     30  H   2WK d   1      28.302  59.091  21.296  0.00  0.00     0.067 H 
ENDBRANCH  26  27
ENDBRANCH  17  26
ENDBRANCH   6  13
BRANCH   1  31
ATOM     31  N4  2WK d   1      16.413  61.923  23.896  0.00  0.00    -0.306 N 
ATOM     32  C2  2WK d   1      15.610  62.852  23.304  0.00  0.00     0.219 C 
ATOM     33  O3  2WK d   1      15.980  63.708  22.517  0.00  0.00    -0.274 OA
ATOM     34  H   2WK d   1      15.983  61.328  24.575  0.00  0.00     0.171 HD
BRANCH  32  35
ATOM     35  C1  2WK d   1      14.162  62.842  23.667  0.00  0.00    -0.002 C 
ATOM     36  H   2WK d   1      13.968  62.026  24.378  0.00  0.00     0.040 H 
ATOM     37  H   2WK d   1      13.558  62.690  22.761  0.00  0.00     0.040 H 
ATOM     38  H   2WK d   1      13.893  63.803  24.130  0.00  0.00     0.040 H 
ENDBRANCH  32  35
ENDBRANCH   1  31
TORSDOF 7
