REMARK  6 active torsions:
REMARK  status: ('A' for Active; 'I' for Inactive)
REMARK    1  A    between atoms: N_1  and  CA_2 
REMARK    2  A    between atoms: CA_2  and  C_3 
REMARK    3  A    between atoms: CA_2  and  CB_5 
REMARK    4  A    between atoms: CB_5  and  CG_6 
REMARK    5  A    between atoms: CG_6  and  CD_7 
REMARK    6  A    between atoms: CD_7  and  NE_8 
REMARK       I    between atoms: NE_8  and  CZ_9 
REMARK       I    between atoms: CZ_9  and  NH1_10 
ROOT
ATOM      1  CG  ARG d   1      21.711  14.321  80.233  0.00  0.00    -0.047 C 
ATOM      2  H   ARG d   1      21.191  13.815  81.060  0.00  0.00     0.035 H 
ATOM      3  H   ARG d   1      22.344  15.126  80.635  0.00  0.00     0.035 H 
ENDROOT
BRANCH   1   4
ATOM      4  CB  ARG d   1      20.667  14.965  79.386  0.00  0.00    -0.028 C 
ATOM      5  H   ARG d   1      20.904  16.036  79.306  0.00  0.00     0.036 H 
ATOM      6  H   ARG d   1      20.705  14.505  78.387  0.00  0.00     0.036 H 
BRANCH   4   7
ATOM      7  CA  ARG d   1      19.232  14.831  79.920  0.00  0.00     0.182 C 
ATOM      8  H   ARG d   1      18.739  15.814  79.887  0.00  0.00     0.101 H 
BRANCH   7   9
ATOM      9  N   ARG d   1      19.159  14.320  81.286  0.00  0.00    -0.065 N 
ATOM     10  H   ARG d   1      19.624  14.961  81.910  0.00  0.00     0.275 HD
ATOM     11  H   ARG d   1      19.610  13.420  81.332  0.00  0.00     0.275 HD
ATOM     12  H   ARG d   1      18.193  14.227  81.559  0.00  0.00     0.275 HD
ENDBRANCH   7   9
BRANCH   7  13
ATOM     13  C   ARG d   1      18.539  13.874  78.994  0.00  0.00     0.204 C 
ATOM     14  O   ARG d   1      18.219  12.717  79.331  0.00  0.00    -0.646 OA
ATOM     15  OXT ARG d   1      18.296  14.260  77.852  0.00  0.00    -0.646 OA
ENDBRANCH   7  13
ENDBRANCH   4   7
ENDBRANCH   1   4
BRANCH   1  16
ATOM     16  CD  ARG d   1      22.636  13.300  79.595  0.00  0.00     0.009 C 
ATOM     17  H   ARG d   1      22.035  12.680  78.913  0.00  0.00     0.064 H 
ATOM     18  H   ARG d   1      23.047  12.670  80.397  0.00  0.00     0.064 H 
BRANCH  16  19
ATOM     19  NE  ARG d   1      23.753  13.843  78.837  0.00  0.00    -0.227 N 
ATOM     20  CZ  ARG d   1      24.976  13.306  78.728  0.00  0.00     0.665 C 
ATOM     21  NH1 ARG d   1      25.350  12.211  79.376  0.00  0.00    -0.235 N 
ATOM     22  NH2 ARG d   1      25.867  13.918  77.943  0.00  0.00    -0.235 N 
ATOM     23  H   ARG d   1      26.304  11.841  79.255  0.00  0.00     0.174 HD
ATOM     24  H   ARG d   1      24.687  11.730  80.000  0.00  0.00     0.174 HD
ATOM     25  H   ARG d   1      25.601  14.770  77.429  0.00  0.00     0.174 HD
ATOM     26  H   ARG d   1      26.820  13.538  77.852  0.00  0.00     0.174 HD
ATOM     27  H   ARG d   1      23.587  14.727  78.335  0.00  0.00     0.177 HD
ENDBRANCH  16  19
ENDBRANCH   1  16
TORSDOF 6
