REMARK  4 active torsions:
REMARK  status: ('A' for Active; 'I' for Inactive)
REMARK    1  A    between atoms: C1_7  and  N1_8 
REMARK       I    between atoms: N4_13  and  C21_14 
REMARK    2  A    between atoms: C21_14  and  C11_16 
REMARK    3  A    between atoms: N3_20  and  C13_21 
REMARK    4  A    between atoms: C13_21  and  C14_22 
ROOT
ATOM      1  N1  2WL d   1      28.392  -0.640  -6.792  0.00  0.00    -0.279 NA
ATOM      2  C10 2WL d   1      27.700  -1.669  -5.994  0.00  0.00    -0.001 C 
ATOM      3  C9  2WL d   1      26.257  -1.274  -5.700  0.00  0.00     0.009 C 
ATOM      4  C7  2WL d   1      27.627  -0.393  -8.033  0.00  0.00    -0.001 C 
ATOM      5  C8  2WL d   1      26.264   0.182  -7.669  0.00  0.00     0.009 C 
ATOM      6  N4  2WL d   1      25.590  -0.898  -6.949  0.00  0.00    -0.344 N 
ATOM      7  C21 2WL d   1      24.465  -1.509  -7.357  0.00  0.00     0.273 C 
ATOM      8  O1  2WL d   1      23.962  -2.397  -6.690  0.00  0.00    -0.266 OA
ATOM      9  H   2WL d   1      28.235  -1.802  -5.042  0.00  0.00     0.058 H 
ATOM     10  H   2WL d   1      27.704  -2.617  -6.553  0.00  0.00     0.058 H 
ATOM     11  H   2WL d   1      26.244  -0.420  -5.006  0.00  0.00     0.066 H 
ATOM     12  H   2WL d   1      25.729  -2.125  -5.244  0.00  0.00     0.066 H 
ATOM     13  H   2WL d   1      27.494  -1.339  -8.579  0.00  0.00     0.058 H 
ATOM     14  H   2WL d   1      28.172   0.323  -8.666  0.00  0.00     0.058 H 
ATOM     15  H   2WL d   1      25.703   0.455  -8.575  0.00  0.00     0.066 H 
ATOM     16  H   2WL d   1      26.375   1.068  -7.026  0.00  0.00     0.066 H 
ENDROOT
BRANCH   7  17
ATOM     17  C11 2WL d   1      23.749  -1.109  -8.609  0.00  0.00     0.141 A 
ATOM     18  C20 2WL d   1      23.394  -1.890  -9.701  0.00  0.00     0.014 A 
ATOM     19  N3  2WL d   1      22.747  -1.096 -10.571  0.00  0.00    -0.345 N 
ATOM     20  H   2WL d   1      23.602  -2.951  -9.829  0.00  0.00     0.115 H 
ATOM     21  C12 2WL d   1      22.673   0.133 -10.055  0.00  0.00     0.067 A 
ATOM     22  N2  2WL d   1      23.277   0.132  -8.849  0.00  0.00    -0.237 NA
ATOM     23  H   2WL d   1      22.203   0.993 -10.529  0.00  0.00     0.143 H 
BRANCH  19  24
ATOM     24  C13 2WL d   1      22.195  -1.471 -11.871  0.00  0.00     0.024 C 
ATOM     25  H   2WL d   1      21.274  -0.896 -12.047  0.00  0.00     0.072 H 
ATOM     26  H   2WL d   1      21.961  -2.546 -11.863  0.00  0.00     0.072 H 
BRANCH  24  27
ATOM     27  C14 2WL d   1      23.173  -1.189 -12.992  0.00  0.00    -0.040 A 
ATOM     28  C15 2WL d   1      23.100   0.004 -13.710  0.00  0.00    -0.075 A 
ATOM     29  C16 2WL d   1      24.007   0.255 -14.740  0.00  0.00    -0.082 A 
ATOM     30  H   2WL d   1      22.338   0.737 -13.468  0.00  0.00     0.084 H 
ATOM     31  C17 2WL d   1      24.983  -0.688 -15.061  0.00  0.00    -0.083 A 
ATOM     32  H   2WL d   1      23.953   1.186 -15.293  0.00  0.00     0.083 H 
ATOM     33  C18 2WL d   1      25.052  -1.884 -14.349  0.00  0.00    -0.082 A 
ATOM     34  H   2WL d   1      25.686  -0.491 -15.862  0.00  0.00     0.083 H 
ATOM     35  C19 2WL d   1      24.148  -2.133 -13.317  0.00  0.00    -0.075 A 
ATOM     36  H   2WL d   1      25.808  -2.620 -14.597  0.00  0.00     0.083 H 
ATOM     37  H   2WL d   1      24.203  -3.064 -12.765  0.00  0.00     0.084 H 
ENDBRANCH  24  27
ENDBRANCH  19  24
ENDBRANCH   7  17
BRANCH   1  38
ATOM     38  C1  2WL d   1      29.736  -1.055  -7.000  0.00  0.00     0.032 A 
ATOM     39  C2  2WL d   1      30.671  -0.772  -6.008  0.00  0.00     0.055 A 
ATOM     40 CL1  2WL d   1      30.170   0.116  -4.526  0.00  0.00    -0.082 Cl
ATOM     41  C3  2WL d   1      31.998  -1.165  -6.151  0.00  0.00    -0.060 A 
ATOM     42  C4  2WL d   1      32.408  -1.850  -7.289  0.00  0.00    -0.081 A 
ATOM     43  H   2WL d   1      32.715  -0.936  -5.371  0.00  0.00     0.086 H 
ATOM     44  C5  2WL d   1      31.483  -2.143  -8.286  0.00  0.00    -0.081 A 
ATOM     45  H   2WL d   1      33.443  -2.154  -7.399  0.00  0.00     0.083 H 
ATOM     46  C6  2WL d   1      30.154  -1.753  -8.141  0.00  0.00    -0.061 A 
ATOM     47  H   2WL d   1      31.797  -2.675  -9.177  0.00  0.00     0.083 H 
ATOM     48  H   2WL d   1      29.436  -1.992  -8.918  0.00  0.00     0.086 H 
ENDBRANCH   1  38
TORSDOF 4
