REMARK WARNING: 32 MAX_TORS EXCEEDED!!!
REMARK  58 active torsions:
REMARK  status: ('A' for Active; 'I' for Inactive)
REMARK    1  A    between atoms: N_1  and  CA_2 
REMARK    2  A    between atoms: CA_2  and  C_3 
REMARK    3  A    between atoms: CA_2  and  CB_5 
REMARK       I    between atoms: C_3  and  N_6 
REMARK    4  A    between atoms: N_6  and  CA_7 
REMARK    5  A    between atoms: CA_7  and  C_8 
REMARK    6  A    between atoms: CA_7  and  CB_10 
REMARK       I    between atoms: C_8  and  N_17 
REMARK    7  A    between atoms: CB_10  and  CG_11 
REMARK    8  A    between atoms: CG_11  and  CD_12 
REMARK    9  A    between atoms: CD_12  and  NE_13 
REMARK       I    between atoms: NE_13  and  CZ_14 
REMARK       I    between atoms: CZ_14  and  NH1_15 
REMARK       I    between atoms: CZ_14  and  NH2_16 
REMARK   10  A    between atoms: N_17  and  CA_18 
REMARK   11  A    between atoms: CA_18  and  C_19 
REMARK   12  A    between atoms: CA_18  and  CB_21 
REMARK       I    between atoms: C_19  and  N_24 
REMARK   13  A    between atoms: CB_21  and  OG1_22 
REMARK   14  A    between atoms: CB_21  and  CG2_23 
REMARK   15  A    between atoms: N_24  and  CA_25 
REMARK   16  A    between atoms: CA_25  and  C_26 
REMARK   17  A    between atoms: CA_25  and  CB_28 
REMARK       I    between atoms: C_26  and  N_33 
REMARK   18  A    between atoms: CB_28  and  CG_29 
REMARK   19  A    between atoms: CG_29  and  CD_30 
REMARK   20  A    between atoms: CD_30  and  CE_31 
REMARK   21  A    between atoms: CE_31  and  NZ_32 
REMARK   22  A    between atoms: N_33  and  CA_34 
REMARK   23  A    between atoms: CA_34  and  C_35 
REMARK   24  A    between atoms: CA_34  and  CB_37 
REMARK       I    between atoms: C_35  and  N_42 
REMARK   25  A    between atoms: CB_37  and  CG_38 
REMARK   26  A    between atoms: CG_38  and  CD_39 
REMARK       I    between atoms: CD_39  and  NE2_41 
REMARK   27  A    between atoms: N_42  and  CA_43 
REMARK   28  A    between atoms: CA_43  and  C_44 
REMARK   29  A    between atoms: CA_43  and  CB_46 
REMARK       I    between atoms: C_44  and  N_49 
REMARK   30  A    between atoms: CB_46  and  OG1_47 
REMARK   31  A    between atoms: CB_46  and  CG2_48 
REMARK   32  A    between atoms: N_49  and  CA_50 
REMARK   33  A    between atoms: CA_50  and  C_51 
REMARK   34  A    between atoms: CA_50  and  CB_53 
REMARK       I    between atoms: C_51  and  N_54 
REMARK   35  A    between atoms: N_54  and  CA_55 
REMARK   36  A    between atoms: CA_55  and  C_56 
REMARK   37  A    between atoms: CA_55  and  CB_58 
REMARK       I    between atoms: C_56  and  N_65 
REMARK   38  A    between atoms: CB_58  and  CG_59 
REMARK   39  A    between atoms: CG_59  and  CD_60 
REMARK   40  A    between atoms: CD_60  and  NE_61 
REMARK       I    between atoms: NE_61  and  CZ_62 
REMARK       I    between atoms: CZ_62  and  NH1_63 
REMARK   41  A    between atoms: N_65  and  CA_66 
REMARK   42  A    between atoms: CA_66  and  C_67 
REMARK   43  A    between atoms: CA_66  and  CB_69 
REMARK       I    between atoms: C_67  and  N_74 
REMARK   44  A    between atoms: CB_69  and  CG_70 
REMARK   45  A    between atoms: CG_70  and  CD_71 
REMARK   46  A    between atoms: CD_71  and  CE_72 
REMARK   47  A    between atoms: CE_72  and  NZ_73 
REMARK   48  A    between atoms: N_74  and  CA_75 
REMARK   49  A    between atoms: CA_75  and  C_76 
REMARK   50  A    between atoms: CA_75  and  CB_78 
REMARK       I    between atoms: C_76  and  N_80 
REMARK   51  A    between atoms: CB_78  and  OG_79 
REMARK   52  A    between atoms: N_80  and  CA_81 
REMARK   53  A    between atoms: CA_81  and  C_82 
REMARK   54  A    between atoms: CA_81  and  CB_84 
REMARK       I    between atoms: C_82  and  N_87 
REMARK   55  A    between atoms: CB_84  and  OG1_85 
REMARK   56  A    between atoms: CB_84  and  CG2_86 
REMARK   57  A    between atoms: N_87  and  CA_88 
REMARK   58  A    between atoms: CA_88  and  C_89 
ROOT
ATOM      1  CA  THR d   1     -18.411 -28.722  39.263  0.00  0.00     0.113 C 
ATOM      2  H   THR d   1     -18.247 -29.440  40.080  0.00  0.00     0.091 H 
ENDROOT
BRANCH   1   3
ATOM      3  N   THR d   1     -17.962 -29.294  38.006  0.00  0.00    -0.344 N 
ATOM      4  C   GLN d   1     -17.864 -30.609  37.842  0.00  0.00     0.241 C 
ATOM      5  O   GLN d   1     -17.884 -31.415  38.781  0.00  0.00    -0.271 OA
ATOM      6  H   THR d   1     -17.722 -28.686  37.249  0.00  0.00     0.163 HD
BRANCH   4   7
ATOM      7  CA  GLN d   1     -17.722 -31.080  36.399  0.00  0.00     0.090 C 
ATOM      8  H   GLN d   1     -16.914 -30.502  35.927  0.00  0.00     0.087 H 
BRANCH   7   9
ATOM      9  N   GLN d   1     -17.389 -32.490  36.305  0.00  0.00    -0.346 N 
ATOM     10  C   LYS d   1     -16.150 -32.938  36.461  0.00  0.00     0.241 C 
ATOM     11  O   LYS d   1     -15.217 -32.236  36.859  0.00  0.00    -0.271 OA
ATOM     12  H   GLN d   1     -18.119 -33.147  36.116  0.00  0.00     0.163 HD
BRANCH  10  13
ATOM     13  CA  LYS d   1     -15.947 -34.408  36.116  0.00  0.00     0.089 C 
ATOM     14  H   LYS d   1     -16.795 -34.725  35.491  0.00  0.00     0.087 H 
BRANCH  13  15
ATOM     15  N   LYS d   1     -14.729 -34.584  35.325  0.00  0.00    -0.346 N 
ATOM     16  C   THR d   1     -14.614 -34.014  34.125  0.00  0.00     0.243 C 
ATOM     17  O   THR d   1     -15.473 -33.276  33.644  0.00  0.00    -0.271 OA
ATOM     18  H   LYS d   1     -13.977 -35.136  35.687  0.00  0.00     0.163 HD
BRANCH  16  19
ATOM     19  CA  THR d   1     -13.357 -34.317  33.341  0.00  0.00     0.113 C 
ATOM     20  H   THR d   1     -12.594 -34.746  34.007  0.00  0.00     0.091 H 
BRANCH  19  21
ATOM     21  N   THR d   1     -13.683 -35.279  32.296  0.00  0.00    -0.344 N 
ATOM     22  C   ARG d   1     -13.148 -36.495  32.295  0.00  0.00     0.241 C 
ATOM     23  O   ARG d   1     -12.355 -36.877  33.178  0.00  0.00    -0.271 OA
ATOM     24  H   THR d   1     -14.319 -35.020  31.569  0.00  0.00     0.163 HD
BRANCH  22  25
ATOM     25  CA  ARG d   1     -13.580 -37.443  31.156  0.00  0.00     0.089 C 
ATOM     26  H   ARG d   1     -13.739 -36.868  30.232  0.00  0.00     0.087 H 
BRANCH  25  27
ATOM     27  N   ARG d   1     -12.484 -38.387  30.972  0.00  0.00    -0.346 N 
ATOM     28  C   ALA d   1     -11.375 -37.993  30.349  0.00  0.00     0.248 C 
ATOM     29  O   ALA d   1     -11.298 -36.926  29.732  0.00  0.00    -0.271 OA
ATOM     30  H   ARG d   1     -12.565 -39.324  31.311  0.00  0.00     0.163 HD
BRANCH  28  31
ATOM     31  CA  ALA d   1     -10.182 -38.934  30.386  0.00  0.00     0.172 C 
ATOM     32  H   ALA d   1      -9.381 -38.442  30.957  0.00  0.00     0.098 H 
BRANCH  31  33
ATOM     33  N   ALA d   1     -10.477 -40.204  31.041  0.00  0.00    -0.067 N 
ATOM     34  H   ALA d   1      -9.653 -40.784  31.036  0.00  0.00     0.275 HD
ATOM     35  H   ALA d   1     -11.221 -40.672  30.547  0.00  0.00     0.275 HD
ATOM     36  H   ALA d   1     -10.761 -40.033  31.993  0.00  0.00     0.275 HD
ENDBRANCH  31  33
BRANCH  31  37
ATOM     37  CB  ALA d   1      -9.697 -39.163  28.997  0.00  0.00    -0.042 C 
ATOM     38  H   ALA d   1      -9.480 -38.196  28.520  0.00  0.00     0.030 H 
ATOM     39  H   ALA d   1     -10.471 -39.691  28.421  0.00  0.00     0.030 H 
ATOM     40  H   ALA d   1      -8.781 -39.772  29.024  0.00  0.00     0.030 H 
ENDBRANCH  31  37
ENDBRANCH  28  31
ENDBRANCH  25  27
BRANCH  25  41
ATOM     41  CB  ARG d   1     -14.873 -38.179  31.512  0.00  0.00    -0.036 C 
ATOM     42  H   ARG d   1     -15.712 -37.472  31.431  0.00  0.00     0.036 H 
ATOM     43  H   ARG d   1     -14.796 -38.541  32.548  0.00  0.00     0.036 H 
BRANCH  41  44
ATOM     44  CG  ARG d   1     -15.149 -39.361  30.607  0.00  0.00    -0.048 C 
ATOM     45  H   ARG d   1     -14.216 -39.922  30.451  0.00  0.00     0.035 H 
ATOM     46  H   ARG d   1     -15.523 -38.995  29.639  0.00  0.00     0.035 H 
BRANCH  44  47
ATOM     47  CD  ARG d   1     -16.180 -40.275  31.224  0.00  0.00     0.009 C 
ATOM     48  H   ARG d   1     -17.186 -39.964  30.905  0.00  0.00     0.064 H 
ATOM     49  H   ARG d   1     -16.110 -40.223  32.321  0.00  0.00     0.064 H 
BRANCH  47  50
ATOM     50  NE  ARG d   1     -15.928 -41.642  30.783  0.00  0.00    -0.227 N 
ATOM     51  CZ  ARG d   1     -16.701 -42.318  29.949  0.00  0.00     0.665 C 
ATOM     52  NH1 ARG d   1     -17.805 -41.760  29.467  0.00  0.00    -0.235 N 
ATOM     53  NH2 ARG d   1     -16.379 -43.558  29.609  0.00  0.00    -0.235 N 
ATOM     54  H   ARG d   1     -18.407 -42.286  28.818  0.00  0.00     0.174 HD
ATOM     55  H   ARG d   1     -18.060 -40.801  29.742  0.00  0.00     0.174 HD
ATOM     56  H   ARG d   1     -15.522 -43.989  29.984  0.00  0.00     0.174 HD
ATOM     57  H   ARG d   1     -16.986 -44.091  28.970  0.00  0.00     0.174 HD
ATOM     58  H   ARG d   1     -15.088 -42.115  31.147  0.00  0.00     0.177 HD
ENDBRANCH  47  50
ENDBRANCH  44  47
ENDBRANCH  41  44
ENDBRANCH  25  41
ENDBRANCH  22  25
ENDBRANCH  19  21
BRANCH  19  59
ATOM     59  CB  THR d   1     -12.829 -32.996  32.741  0.00  0.00     0.060 C 
ATOM     60  H   THR d   1     -13.605 -32.565  32.091  0.00  0.00     0.086 H 
BRANCH  59  61
ATOM     61  OG1 THR d   1     -11.650 -33.252  31.961  0.00  0.00    -0.393 OA
ATOM     62  H   THR d   1     -11.330 -32.436  31.595  0.00  0.00     0.210 HD
ENDBRANCH  59  61
BRANCH  59  63
ATOM     63  CG2 THR d   1     -12.496 -31.998  33.847  0.00  0.00    -0.050 C 
ATOM     64  H   THR d   1     -12.122 -31.066  33.399  0.00  0.00     0.031 H 
ATOM     65  H   THR d   1     -11.724 -32.424  34.505  0.00  0.00     0.031 H 
ATOM     66  H   THR d   1     -13.402 -31.785  34.434  0.00  0.00     0.031 H 
ENDBRANCH  59  63
ENDBRANCH  19  59
ENDBRANCH  16  19
ENDBRANCH  13  15
BRANCH  13  67
ATOM     67  CB  LYS d   1     -15.957 -35.284  37.381  0.00  0.00    -0.038 C 
ATOM     68  H   LYS d   1     -15.267 -34.842  38.115  0.00  0.00     0.036 H 
ATOM     69  H   LYS d   1     -15.608 -36.291  37.109  0.00  0.00     0.036 H 
BRANCH  67  70
ATOM     70  CG  LYS d   1     -17.345 -35.411  38.035  0.00  0.00    -0.061 C 
ATOM     71  H   LYS d   1     -18.038 -35.874  37.318  0.00  0.00     0.033 H 
ATOM     72  H   LYS d   1     -17.709 -34.408  38.301  0.00  0.00     0.033 H 
BRANCH  70  73
ATOM     73  CD  LYS d   1     -17.288 -36.264  39.288  0.00  0.00    -0.043 C 
ATOM     74  H   LYS d   1     -18.258 -36.208  39.804  0.00  0.00     0.035 H 
ATOM     75  H   LYS d   1     -16.498 -35.877  39.949  0.00  0.00     0.035 H 
BRANCH  73  76
ATOM     76  CE  LYS d   1     -16.988 -37.717  38.956  0.00  0.00     0.080 C 
ATOM     77  H   LYS d   1     -16.126 -37.759  38.275  0.00  0.00     0.075 H 
ATOM     78  H   LYS d   1     -17.866 -38.162  38.464  0.00  0.00     0.075 H 
BRANCH  76  79
ATOM     79  NZ  LYS d   1     -16.673 -38.497  40.189  0.00  0.00    -0.079 N 
ATOM     80  H   LYS d   1     -16.479 -39.454  39.940  0.00  0.00     0.274 HD
ATOM     81  H   LYS d   1     -17.461 -38.466  40.817  0.00  0.00     0.274 HD
ATOM     82  H   LYS d   1     -15.867 -38.097  40.643  0.00  0.00     0.274 HD
ENDBRANCH  76  79
ENDBRANCH  73  76
ENDBRANCH  70  73
ENDBRANCH  67  70
ENDBRANCH  13  67
ENDBRANCH  10  13
ENDBRANCH   7   9
BRANCH   7  83
ATOM     83  CB  GLN d   1     -19.031 -30.816  35.638  0.00  0.00    -0.030 C 
ATOM     84  H   GLN d   1     -18.866 -31.040  34.574  0.00  0.00     0.037 H 
ATOM     85  H   GLN d   1     -19.292 -29.754  35.753  0.00  0.00     0.037 H 
BRANCH  83  86
ATOM     86  CG  GLN d   1     -20.204 -31.658  36.132  0.00  0.00     0.011 C 
ATOM     87  H   GLN d   1     -20.400 -31.402  37.184  0.00  0.00     0.047 H 
ATOM     88  H   GLN d   1     -19.928 -32.720  36.059  0.00  0.00     0.047 H 
BRANCH  86  89
ATOM     89  CD  GLN d   1     -21.475 -31.434  35.336  0.00  0.00     0.215 C 
ATOM     90  OE1 GLN d   1     -21.846 -32.248  34.493  0.00  0.00    -0.274 OA
ATOM     91  NE2 GLN d   1     -22.158 -30.333  35.614  0.00  0.00    -0.370 N 
ATOM     92  H   GLN d   1     -23.005 -30.132  35.121  0.00  0.00     0.159 HD
ATOM     93  H   GLN d   1     -21.827 -29.703  36.317  0.00  0.00     0.159 HD
ENDBRANCH  86  89
ENDBRANCH  83  86
ENDBRANCH   7  83
ENDBRANCH   4   7
ENDBRANCH   1   3
BRANCH   1  94
ATOM     94  C   THR d   1     -19.907 -28.473  39.078  0.00  0.00     0.243 C 
ATOM     95  O   THR d   1     -20.351 -28.047  38.002  0.00  0.00    -0.271 OA
ATOM     96  N   ALA d   1     -20.681 -28.771  40.116  0.00  0.00    -0.346 N 
ATOM     97  H   ALA d   1     -20.255 -29.019  40.986  0.00  0.00     0.163 HD
BRANCH  96  98
ATOM     98  CA  ALA d   1     -22.132 -28.746  40.019  0.00  0.00     0.086 C 
ATOM     99  H   ALA d   1     -22.407 -28.930  38.970  0.00  0.00     0.086 H 
BRANCH  98 100
ATOM    100  C   ALA d   1     -22.708 -27.391  40.425  0.00  0.00     0.240 C 
ATOM    101  O   ALA d   1     -22.095 -26.649  41.198  0.00  0.00    -0.271 OA
ATOM    102  N   ARG d   1     -23.879 -27.070  39.882  0.00  0.00    -0.346 N 
ATOM    103  H   ARG d   1     -24.296 -27.696  39.223  0.00  0.00     0.163 HD
BRANCH 102 104
ATOM    104  CA  ARG d   1     -24.572 -25.834  40.219  0.00  0.00     0.089 C 
ATOM    105  H   ARG d   1     -24.202 -25.476  41.191  0.00  0.00     0.087 H 
BRANCH 104 106
ATOM    106  C   ARG d   1     -26.073 -26.092  40.328  0.00  0.00     0.241 C 
ATOM    107  O   ARG d   1     -26.604 -27.005  39.684  0.00  0.00    -0.271 OA
ATOM    108  N   LYS d   1     -26.750 -25.282  41.140  0.00  0.00    -0.346 N 
ATOM    109  H   LYS d   1     -26.267 -24.533  41.593  0.00  0.00     0.163 HD
BRANCH 108 110
ATOM    110  CA  LYS d   1     -28.179 -25.457  41.387  0.00  0.00     0.089 C 
ATOM    111  H   LYS d   1     -28.424 -26.521  41.252  0.00  0.00     0.087 H 
BRANCH 110 112
ATOM    112  C   LYS d   1     -29.013 -24.647  40.398  0.00  0.00     0.241 C 
ATOM    113  O   LYS d   1     -28.468 -24.011  39.495  0.00  0.00    -0.271 OA
ATOM    114  N   SER d   1     -30.330 -24.664  40.568  0.00  0.00    -0.344 N 
ATOM    115  H   SER d   1     -30.725 -25.159  41.342  0.00  0.00     0.163 HD
BRANCH 114 116
ATOM    116  CA  SER d   1     -31.205 -23.965  39.632  0.00  0.00     0.109 C 
ATOM    117  H   SER d   1     -30.652 -23.884  38.684  0.00  0.00     0.090 H 
BRANCH 116 118
ATOM    118  C   SER d   1     -31.568 -22.534  40.051  0.00  0.00     0.243 C 
ATOM    119  O   SER d   1     -32.011 -22.287  41.176  0.00  0.00    -0.271 OA
ATOM    120  N   THR d   1     -31.378 -21.602  39.115  0.00  0.00    -0.344 N 
ATOM    121  H   THR d   1     -30.956 -21.879  38.252  0.00  0.00     0.163 HD
BRANCH 120 122
ATOM    122  CA  THR d   1     -31.753 -20.197  39.280  0.00  0.00     0.113 C 
ATOM    123  H   THR d   1     -31.308 -19.831  40.217  0.00  0.00     0.091 H 
BRANCH 122 124
ATOM    124  C   THR d   1     -33.275 -20.021  39.361  0.00  0.00     0.243 C 
ATOM    125  O   THR d   1     -33.860 -19.252  38.595  0.00  0.00    -0.271 OA
ATOM    126  N   GLY d   1     -33.907 -20.728  40.297  0.00  0.00    -0.349 N 
ATOM    127  H   GLY d   1     -33.367 -21.250  40.957  0.00  0.00     0.163 HD
BRANCH 126 128
ATOM    128  CA  GLY d   1     -35.357 -20.765  40.389  0.00  0.00     0.075 C 
ATOM    129  H   GLY d   1     -35.772 -19.974  39.748  0.00  0.00     0.080 H 
ATOM    130  H   GLY d   1     -35.650 -20.582  41.433  0.00  0.00     0.080 H 
BRANCH 128 131
ATOM    131  C   GLY d   1     -35.930 -22.103  39.948  0.00  0.00     0.191 C 
ATOM    132  O   GLY d   1     -35.305 -23.154  40.118  0.00  0.00    -0.647 OA
ATOM    133  O1  GLY d   1     -37.063 -22.140  39.399  0.00  0.00    -0.647 OA
ENDBRANCH 128 131
ENDBRANCH 126 128
ENDBRANCH 122 124
BRANCH 122 134
ATOM    134  CB  THR d   1     -31.213 -19.343  38.103  0.00  0.00     0.060 C 
ATOM    135  H   THR d   1     -31.710 -18.362  38.117  0.00  0.00     0.086 H 
BRANCH 134 136
ATOM    136  OG1 THR d   1     -31.496 -20.002  36.861  0.00  0.00    -0.393 OA
ATOM    137  H   THR d   1     -32.435 -20.110  36.768  0.00  0.00     0.210 HD
ENDBRANCH 134 136
BRANCH 134 138
ATOM    138  CG2 THR d   1     -29.704 -19.139  38.219  0.00  0.00    -0.050 C 
ATOM    139  H   THR d   1     -29.350 -18.532  37.373  0.00  0.00     0.031 H 
ATOM    140  H   THR d   1     -29.200 -20.116  38.205  0.00  0.00     0.031 H 
ATOM    141  H   THR d   1     -29.475 -18.622  39.163  0.00  0.00     0.031 H 
ENDBRANCH 134 138
ENDBRANCH 122 134
ENDBRANCH 120 122
ENDBRANCH 116 118
BRANCH 116 142
ATOM    142  CB  SER d   1     -32.466 -24.787  39.356  0.00  0.00     0.044 C 
ATOM    143  H   SER d   1     -33.276 -24.113  39.040  0.00  0.00     0.077 H 
ATOM    144  H   SER d   1     -32.764 -25.314  40.275  0.00  0.00     0.077 H 
BRANCH 142 145
ATOM    145  OG  SER d   1     -32.221 -25.736  38.332  0.00  0.00    -0.398 OA
ATOM    146  H   SER d   1     -31.523 -26.320  38.604  0.00  0.00     0.209 HD
ENDBRANCH 142 145
ENDBRANCH 116 142
ENDBRANCH 114 116
ENDBRANCH 110 112
BRANCH 110 147
ATOM    147  CB  LYS d   1     -28.520 -25.063  42.827  0.00  0.00    -0.038 C 
ATOM    148  H   LYS d   1     -29.231 -24.224  42.797  0.00  0.00     0.036 H 
ATOM    149  H   LYS d   1     -27.594 -24.741  43.327  0.00  0.00     0.036 H 
BRANCH 147 150
ATOM    150  CG  LYS d   1     -29.139 -26.187  43.643  0.00  0.00    -0.061 C 
ATOM    151  H   LYS d   1     -28.635 -26.241  44.619  0.00  0.00     0.033 H 
ATOM    152  H   LYS d   1     -29.002 -27.137  43.107  0.00  0.00     0.033 H 
BRANCH 150 153
ATOM    153  CD  LYS d   1     -30.628 -25.951  43.864  0.00  0.00    -0.043 C 
ATOM    154  H   LYS d   1     -31.182 -26.843  43.536  0.00  0.00     0.035 H 
ATOM    155  H   LYS d   1     -30.943 -25.083  43.266  0.00  0.00     0.035 H 
BRANCH 153 156
ATOM    156  CE  LYS d   1     -30.949 -25.682  45.329  0.00  0.00     0.080 C 
ATOM    157  H   LYS d   1     -31.778 -24.962  45.387  0.00  0.00     0.075 H 
ATOM    158  H   LYS d   1     -30.060 -25.257  45.818  0.00  0.00     0.075 H 
BRANCH 156 159
ATOM    159  NZ  LYS d   1     -31.342 -26.930  46.040  0.00  0.00    -0.079 N 
ATOM    160  H   LYS d   1     -31.547 -26.717  47.004  0.00  0.00     0.274 HD
ATOM    161  H   LYS d   1     -30.585 -27.594  45.996  0.00  0.00     0.274 HD
ATOM    162  H   LYS d   1     -32.160 -27.323  45.601  0.00  0.00     0.274 HD
ENDBRANCH 156 159
ENDBRANCH 153 156
ENDBRANCH 150 153
ENDBRANCH 147 150
ENDBRANCH 110 147
ENDBRANCH 108 110
ENDBRANCH 104 106
BRANCH 104 163
ATOM    163  CB  ARG d   1     -24.302 -24.757  39.166  0.00  0.00    -0.036 C 
ATOM    164  H   ARG d   1     -25.187 -24.107  39.102  0.00  0.00     0.036 H 
ATOM    165  H   ARG d   1     -24.141 -25.253  38.198  0.00  0.00     0.036 H 
BRANCH 163 166
ATOM    166  CG  ARG d   1     -23.091 -23.887  39.463  0.00  0.00    -0.048 C 
ATOM    167  H   ARG d   1     -22.214 -24.532  39.622  0.00  0.00     0.035 H 
ATOM    168  H   ARG d   1     -23.284 -23.299  40.373  0.00  0.00     0.035 H 
BRANCH 166 169
ATOM    169  CD  ARG d   1     -22.809 -22.940  38.309  0.00  0.00     0.009 C 
ATOM    170  H   ARG d   1     -23.713 -22.346  38.111  0.00  0.00     0.064 H 
ATOM    171  H   ARG d   1     -22.558 -23.534  37.418  0.00  0.00     0.064 H 
BRANCH 169 172
ATOM    172  NE  ARG d   1     -21.702 -22.029  38.593  0.00  0.00    -0.227 N 
ATOM    173  CZ  ARG d   1     -21.857 -20.756  38.948  0.00  0.00     0.665 C 
ATOM    174  NH1 ARG d   1     -23.078 -20.243  39.078  0.00  0.00    -0.235 N 
ATOM    175  NH2 ARG d   1     -20.793 -19.997  39.182  0.00  0.00    -0.235 N 
ATOM    176  H   ARG d   1     -23.196 -19.257  39.353  0.00  0.00     0.174 HD
ATOM    177  H   ARG d   1     -23.905 -20.832  38.904  0.00  0.00     0.174 HD
ATOM    178  H   ARG d   1     -19.847 -20.392  39.082  0.00  0.00     0.174 HD
ATOM    179  H   ARG d   1     -20.914 -19.014  39.463  0.00  0.00     0.174 HD
ATOM    180  H   ARG d   1     -20.742 -22.395  38.513  0.00  0.00     0.177 HD
ENDBRANCH 169 172
ENDBRANCH 166 169
ENDBRANCH 163 166
ENDBRANCH 104 163
ENDBRANCH 102 104
ENDBRANCH  98 100
BRANCH  98 181
ATOM    181  CB  ALA d   1     -22.726 -29.854  40.868  0.00  0.00    -0.049 C 
ATOM    182  H   ALA d   1     -23.823 -29.828  40.789  0.00  0.00     0.030 H 
ATOM    183  H   ALA d   1     -22.430 -29.710  41.918  0.00  0.00     0.030 H 
ATOM    184  H   ALA d   1     -22.356 -30.827  40.513  0.00  0.00     0.030 H 
ENDBRANCH  98 181
ENDBRANCH  96  98
ENDBRANCH   1  94
BRANCH   1 185
ATOM    185  CB  THR d   1     -17.669 -27.415  39.598  0.00  0.00     0.060 C 
ATOM    186  H   THR d   1     -17.956 -26.639  38.873  0.00  0.00     0.086 H 
BRANCH 185 187
ATOM    187  OG1 THR d   1     -16.254 -27.637  39.533  0.00  0.00    -0.393 OA
ATOM    188  H   THR d   1     -15.798 -26.830  39.740  0.00  0.00     0.210 HD
ENDBRANCH 185 187
BRANCH 185 189
ATOM    189  CG2 THR d   1     -18.017 -26.951  40.997  0.00  0.00    -0.050 C 
ATOM    190  H   THR d   1     -17.479 -26.018  41.218  0.00  0.00     0.031 H 
ATOM    191  H   THR d   1     -17.725 -27.724  41.723  0.00  0.00     0.031 H 
ATOM    192  H   THR d   1     -19.101 -26.774  41.066  0.00  0.00     0.031 H 
ENDBRANCH 185 189
ENDBRANCH   1 185
TORSDOF 58
