REMARK  4 active torsions:
REMARK  status: ('A' for Active; 'I' for Inactive)
REMARK    1  A    between atoms: O2_1  and  C3_2 
REMARK    2  A    between atoms: C4_3  and  C20_19 
REMARK    3  A    between atoms: C6_5  and  C8_7 
REMARK       I    between atoms: N14_13  and  C15_14 
REMARK    4  A    between atoms: C15_14  and  C17_16 
REMARK       I    between atoms: C20_19  and  N22_21 
ROOT
ATOM      1  C8  2WE d   1      -3.403  -0.585 -36.571  0.00  0.00     0.005 A 
ATOM      2  C9  2WE d   1      -3.126  -1.159 -37.798  0.00  0.00    -0.053 A 
ATOM      3  C10 2WE d   1      -2.331  -0.467 -38.698  0.00  0.00     0.005 A 
ATOM      4  N11 2WE d   1      -1.846   0.749 -38.368  0.00  0.00    -0.243 NA
ATOM      5  C12 2WE d   1      -2.115   1.326 -37.176  0.00  0.00     0.130 A 
ATOM      6  C13 2WE d   1      -2.897   0.659 -36.259  0.00  0.00    -0.026 A 
ATOM      7  N14 2WE d   1      -1.605   2.537 -36.875  0.00  0.00    -0.311 N 
ATOM      8  C15 2WE d   1      -1.997   3.439 -35.952  0.00  0.00     0.227 C 
ATOM      9  O16 2WE d   1      -2.447   3.128 -34.848  0.00  0.00    -0.273 OA
ATOM     10  H2  2WE d   1      -3.524  -2.135 -38.052  0.00  0.00     0.087 H 
ATOM     11  H3  2WE d   1      -2.099  -0.901 -39.664  0.00  0.00     0.114 H 
ATOM     12  H4  2WE d   1      -3.113   1.110 -35.297  0.00  0.00     0.090 H 
ATOM     13  H5  2WE d   1      -0.813   2.809 -37.421  0.00  0.00     0.170 HD
ENDROOT
BRANCH   1  14
ATOM     14  C6  2WE d   1      -4.236  -1.238 -35.550  0.00  0.00     0.111 A 
ATOM     15  S5  2WE d   1      -5.182  -2.660 -35.712  0.00  0.00    -0.060 SA
ATOM     16  C4  2WE d   1      -5.824  -2.714 -34.107  0.00  0.00     0.127 A 
ATOM     17  C3  2WE d   1      -5.249  -1.597 -33.501  0.00  0.00     0.186 A 
ATOM     18  N7  2WE d   1      -4.448  -0.871 -34.276  0.00  0.00    -0.215 NA
BRANCH  16  19
ATOM     19  C20 2WE d   1      -6.749  -3.757 -33.612  0.00  0.00     0.260 C 
ATOM     20  O21 2WE d   1      -6.978  -4.732 -34.315  0.00  0.00    -0.267 OA
ATOM     21  N22 2WE d   1      -7.327  -3.633 -32.413  0.00  0.00    -0.365 N 
ATOM     22  H11 2WE d   1      -7.952  -4.341 -32.083  0.00  0.00     0.159 HD
ATOM     23  H12 2WE d   1      -7.135  -2.832 -31.846  0.00  0.00     0.159 HD
ENDBRANCH  16  19
BRANCH  17  24
ATOM     24  O2  2WE d   1      -5.480  -1.269 -32.241  0.00  0.00    -0.344 OA
ATOM     25  H1  2WE d   1      -5.872  -0.405 -32.207  0.00  0.00     0.219 HD
ENDBRANCH  17  24
ENDBRANCH   1  14
BRANCH   8  26
ATOM     26  C17 2WE d   1      -1.839   4.900 -36.293  0.00  0.00     0.024 A 
ATOM     27  C18 2WE d   1      -2.151   5.882 -35.166  0.00  0.00    -0.053 A 
ATOM     28  C19 2WE d   1      -0.699   5.628 -35.570  0.00  0.00    -0.053 A 
ATOM     29  H7  2WE d   1      -2.526   5.510 -34.201  0.00  0.00     0.034 H 
ATOM     30  H8  2WE d   1      -2.624   6.848 -35.395  0.00  0.00     0.034 H 
ATOM     31  H9  2WE d   1      -0.128   6.410 -36.091  0.00  0.00     0.034 H 
ATOM     32  H10 2WE d   1      -0.030   5.072 -34.897  0.00  0.00     0.034 H 
ATOM     33  H6  2WE d   1      -2.098   5.111 -37.341  0.00  0.00     0.054 H 
ENDBRANCH   8  26
TORSDOF 4
