REMARK  3 active torsions:
REMARK  status: ('A' for Active; 'I' for Inactive)
REMARK    1  A    between atoms: C3_3  and  C11_11 
REMARK    2  A    between atoms: C15_15  and  N17_17 
REMARK       I    between atoms: N17_17  and  C18_18 
REMARK    3  A    between atoms: C18_18  and  C20_20 
ROOT
ATOM      1  C11 2WF d   1      -3.275  -0.282 -36.417  0.00  0.00    -0.021 A 
ATOM      2  C12 2WF d   1      -2.931  -1.000 -37.561  0.00  0.00    -0.055 A 
ATOM      3  C13 2WF d   1      -2.162  -0.391 -38.552  0.00  0.00     0.005 A 
ATOM      4  N14 2WF d   1      -1.777   0.900 -38.416  0.00  0.00    -0.243 NA
ATOM      5  C15 2WF d   1      -2.109   1.633 -37.316  0.00  0.00     0.130 A 
ATOM      6  C16 2WF d   1      -2.875   1.049 -36.315  0.00  0.00    -0.028 A 
ATOM      7  H7  2WF d   1      -3.260  -2.026 -37.680  0.00  0.00     0.087 H 
ATOM      8  H8  2WF d   1      -1.872  -0.952 -39.433  0.00  0.00     0.114 H 
ATOM      9  H9  2WF d   1      -3.164   1.633 -35.448  0.00  0.00     0.090 H 
ENDROOT
BRANCH   1  10
ATOM     10  C3  2WF d   1      -4.111  -0.907 -35.350  0.00  0.00    -0.025 A 
ATOM     11  C2  2WF d   1      -4.255  -0.289 -34.107  0.00  0.00    -0.071 A 
ATOM     12  C1  2WF d   1      -5.054  -0.853 -33.115  0.00  0.00    -0.071 A 
ATOM     13  H2  2WF d   1      -3.738   0.643 -33.911  0.00  0.00     0.084 H 
ATOM     14  C6  2WF d   1      -5.731  -2.045 -33.356  0.00  0.00    -0.023 A 
ATOM     15  H1  2WF d   1      -5.149  -0.362 -32.153  0.00  0.00     0.084 H 
ATOM     16  C5  2WF d   1      -5.593  -2.671 -34.593  0.00  0.00    -0.007 A 
ATOM     17  C7  2WF d   1      -6.535  -2.627 -32.374  0.00  0.00    -0.055 A 
ATOM     18  C4  2WF d   1      -4.779  -2.105 -35.577  0.00  0.00    -0.060 A 
ATOM     19  C10 2WF d   1      -6.270  -3.867 -34.831  0.00  0.00     0.013 A 
ATOM     20  H3  2WF d   1      -4.667  -2.607 -36.531  0.00  0.00     0.086 H 
ATOM     21  N9  2WF d   1      -7.049  -4.414 -33.870  0.00  0.00    -0.272 NA
ATOM     22  H6  2WF d   1      -6.171  -4.361 -35.791  0.00  0.00     0.116 H 
ATOM     23  C8  2WF d   1      -7.195  -3.821 -32.665  0.00  0.00     0.003 A 
ATOM     24  H5  2WF d   1      -7.832  -4.278 -31.916  0.00  0.00     0.114 H 
ATOM     25  H4  2WF d   1      -6.644  -2.159 -31.402  0.00  0.00     0.087 H 
ENDBRANCH   1  10
BRANCH   5  26
ATOM     26  N17 2WF d   1      -1.703   2.921 -37.216  0.00  0.00    -0.311 N 
ATOM     27  C18 2WF d   1      -1.783   3.810 -36.202  0.00  0.00     0.227 C 
ATOM     28  O19 2WF d   1      -2.222   3.514 -35.101  0.00  0.00    -0.273 OA
ATOM     29  H10 2WF d   1      -1.265   3.278 -38.041  0.00  0.00     0.170 HD
BRANCH  27  30
ATOM     30  C20 2WF d   1      -1.276   5.213 -36.433  0.00  0.00     0.024 A 
ATOM     31  C21 2WF d   1      -2.009   6.344 -35.709  0.00  0.00    -0.053 A 
ATOM     32  C22 2WF d   1      -0.617   5.906 -35.235  0.00  0.00    -0.053 A 
ATOM     33  H12 2WF d   1      -2.894   6.121 -35.095  0.00  0.00     0.034 H 
ATOM     34  H13 2WF d   1      -2.140   7.318 -36.202  0.00  0.00     0.034 H 
ATOM     35  H14 2WF d   1       0.250   6.566 -35.389  0.00  0.00     0.034 H 
ATOM     36  H15 2WF d   1      -0.504   5.369 -34.282  0.00  0.00     0.034 H 
ATOM     37  H11 2WF d   1      -0.892   5.339 -37.456  0.00  0.00     0.054 H 
ENDBRANCH  27  30
ENDBRANCH   5  26
TORSDOF 3
