REMARK  6 active torsions:
REMARK  status: ('A' for Active; 'I' for Inactive)
REMARK    1  A    between atoms: C1_1  and  O2_2 
REMARK    2  A    between atoms: O2_2  and  C3_3 
REMARK    3  A    between atoms: C4_4  and  C21_21 
REMARK    4  A    between atoms: C7_7  and  C9_9 
REMARK    5  A    between atoms: C13_13  and  N15_15 
REMARK       I    between atoms: N15_15  and  C16_16 
REMARK    6  A    between atoms: C16_16  and  C18_18 
REMARK       I    between atoms: C21_21  and  N23_23 
ROOT
ATOM      1  C9  2WG d   1       3.375  -0.861  37.032  0.00  0.00     0.017 A 
ATOM      2  C10 2WG d   1       2.993  -1.453  38.232  0.00  0.00    -0.052 A 
ATOM      3  C11 2WG d   1       2.173  -0.732  39.097  0.00  0.00     0.005 A 
ATOM      4  N12 2WG d   1       1.779   0.527  38.788  0.00  0.00    -0.243 NA
ATOM      5  C13 2WG d   1       2.169   1.131  37.639  0.00  0.00     0.130 A 
ATOM      6  C14 2WG d   1       2.983   0.439  36.750  0.00  0.00    -0.025 A 
ATOM      7  H5  2WG d   1       3.326  -2.452  38.488  0.00  0.00     0.087 H 
ATOM      8  H6  2WG d   1       1.847  -1.183  40.027  0.00  0.00     0.114 H 
ATOM      9  H7  2WG d   1       3.312   0.916  35.834  0.00  0.00     0.090 H 
ENDROOT
BRANCH   1  10
ATOM     10  C7  2WG d   1       4.275  -1.581  36.095  0.00  0.00     0.162 A 
ATOM     11  N6  2WG d   1       4.841  -2.725  36.505  0.00  0.00    -0.239 NA
ATOM     12  C5  2WG d   1       5.687  -3.402  35.716  0.00  0.00     0.024 A 
ATOM     13  C4  2WG d   1       5.985  -2.906  34.467  0.00  0.00     0.102 A 
ATOM     14  H4  2WG d   1       6.132  -4.330  36.058  0.00  0.00     0.116 H 
ATOM     15  C3  2WG d   1       5.406  -1.704  34.044  0.00  0.00     0.183 A 
ATOM     16  N8  2WG d   1       4.560  -1.067  34.881  0.00  0.00    -0.203 NA
BRANCH  13  17
ATOM     17  C21 2WG d   1       6.951  -3.689  33.650  0.00  0.00     0.255 C 
ATOM     18  O22 2WG d   1       7.453  -4.694  34.127  0.00  0.00    -0.268 OA
ATOM     19  N23 2WG d   1       7.319  -3.266  32.436  0.00  0.00    -0.366 N 
ATOM     20  H14 2WG d   1       7.969  -3.801  31.896  0.00  0.00     0.159 HD
ATOM     21  H15 2WG d   1       6.944  -2.415  32.068  0.00  0.00     0.159 HD
ENDBRANCH  13  17
BRANCH  15  22
ATOM     22  O2  2WG d   1       5.650  -1.186  32.840  0.00  0.00    -0.339 OA
BRANCH  22  23
ATOM     23  C1  2WG d   1       5.016   0.062  32.441  0.00  0.00     0.012 C 
ATOM     24  H1  2WG d   1       5.337   0.327  31.423  0.00  0.00     0.067 H 
ATOM     25  H2  2WG d   1       5.309   0.861  33.138  0.00  0.00     0.067 H 
ATOM     26  H3  2WG d   1       3.923  -0.059  32.461  0.00  0.00     0.067 H 
ENDBRANCH  22  23
ENDBRANCH  15  22
ENDBRANCH   1  10
BRANCH   5  27
ATOM     27  N15 2WG d   1       1.759   2.389  37.384  0.00  0.00    -0.311 N 
ATOM     28  C16 2WG d   1       1.937   3.227  36.343  0.00  0.00     0.227 C 
ATOM     29  O17 2WG d   1       2.497   2.887  35.302  0.00  0.00    -0.273 OA
ATOM     30  H8  2WG d   1       1.208   2.783  38.120  0.00  0.00     0.170 HD
BRANCH  28  31
ATOM     31  C18 2WG d   1       1.420   4.647  36.456  0.00  0.00     0.024 A 
ATOM     32  C19 2WG d   1       0.971   5.326  35.155  0.00  0.00    -0.053 A 
ATOM     33  C20 2WG d   1       2.285   5.744  35.823  0.00  0.00    -0.053 A 
ATOM     34  H10 2WG d   1       0.109   6.010  35.160  0.00  0.00     0.034 H 
ATOM     35  H11 2WG d   1       0.989   4.767  34.208  0.00  0.00     0.034 H 
ATOM     36  H12 2WG d   1       3.246   5.485  35.355  0.00  0.00     0.034 H 
ATOM     37  H13 2WG d   1       2.367   6.728  36.308  0.00  0.00     0.034 H 
ATOM     38  H9  2WG d   1       0.886   4.807  37.404  0.00  0.00     0.054 H 
ENDBRANCH  28  31
ENDBRANCH   5  27
TORSDOF 6
