REMARK  5 active torsions:
REMARK  status: ('A' for Active; 'I' for Inactive)
REMARK    1  A    between atoms: C8_8  and  N22_9 
REMARK    2  A    between atoms: C1_15  and  N14_16 
REMARK    3  A    between atoms: N14_16  and  C2_17 
REMARK    4  A    between atoms: C2_17  and  C7_18 
REMARK    5  A    between atoms: C7_18  and  N71_19 
ROOT
ATOM      1  N14 CKR d   1     -18.543  18.817 -16.179  0.00  0.00    -0.223 N 
ATOM      2  H   CKR d   1     -19.533  19.058 -16.026  0.00  0.00     0.177 HD
ENDROOT
BRANCH   1   3
ATOM      3  C1  CKR d   1     -18.149  18.499 -17.417  0.00  0.00     0.701 A 
ATOM      4  N2  CKR d   1     -18.981  18.674 -18.469  0.00  0.00    -0.063 NA
ATOM      5  C3  CKR d   1     -18.279  18.298 -19.596  0.00  0.00     0.104 A 
ATOM      6  C4  CKR d   1     -18.567  18.319 -20.946  0.00  0.00    -0.035 A 
ATOM      7  C12 CKR d   1     -17.027  17.886 -19.139  0.00  0.00     0.081 A 
ATOM      8  C5  CKR d   1     -17.604  17.934 -21.873  0.00  0.00     0.062 A 
ATOM      9  H   CKR d   1     -19.547  18.637 -21.285  0.00  0.00     0.088 H 
ATOM     10  C6  CKR d   1     -17.817  18.107 -23.317  0.00  0.00     0.272 A 
ATOM     11  C10 CKR d   1     -16.345  17.505 -21.418  0.00  0.00     0.067 A 
ATOM     12  O1  CKR d   1     -18.881  18.480 -23.804  0.00  0.00    -0.267 OA
ATOM     13  N7  CKR d   1     -16.731  17.820 -24.113  0.00  0.00    -0.156 N 
ATOM     14  C8  CKR d   1     -15.536  17.376 -23.673  0.00  0.00     0.679 A 
ATOM     15  H   CKR d   1     -16.837  17.952 -25.099  0.00  0.00     0.187 HD
ATOM     16  N9  CKR d   1     -15.342  17.210 -22.354  0.00  0.00    -0.191 N 
ATOM     17  H   CKR d   1     -14.433  16.857 -22.021  0.00  0.00     0.184 HD
ATOM     18  C11 CKR d   1     -16.056  17.470 -20.056  0.00  0.00    -0.027 A 
ATOM     19  H   CKR d   1     -15.089  17.124 -19.710  0.00  0.00     0.090 H 
ATOM     20  N13 CKR d   1     -16.963  18.024 -17.753  0.00  0.00    -0.188 N 
ATOM     21  H   CKR d   1     -16.171  17.805 -17.132  0.00  0.00     0.184 HD
BRANCH  14  22
ATOM     22  N22 CKR d   1     -14.565  17.124 -24.530  0.00  0.00    -0.234 N 
ATOM     23  H   CKR d   1     -13.654  16.785 -24.191  0.00  0.00     0.174 HD
ATOM     24  H   CKR d   1     -14.718  17.266 -25.538  0.00  0.00     0.174 HD
ENDBRANCH  14  22
ENDBRANCH   1   3
BRANCH   1  25
ATOM     25  C2  CKR d   1     -17.641  18.839 -15.037  0.00  0.00     0.032 C 
ATOM     26  H   CKR d   1     -17.068  17.900 -15.020  0.00  0.00     0.067 H 
ATOM     27  H   CKR d   1     -18.238  18.921 -14.117  0.00  0.00     0.067 H 
BRANCH  25  28
ATOM     28  C7  CKR d   1     -16.670  20.001 -15.094  0.00  0.00     0.099 C 
ATOM     29  H   CKR d   1     -17.239  20.937 -14.993  0.00  0.00     0.078 H 
ATOM     30  H   CKR d   1     -16.162  19.984 -16.070  0.00  0.00     0.078 H 
BRANCH  28  31
ATOM     31  N71 CKR d   1     -15.630  19.957 -14.015  0.00  0.00    -0.066 N 
ATOM     32  C12 CKR d   1     -16.195  20.313 -12.680  0.00  0.00     0.103 C 
ATOM     33  C13 CKR d   1     -15.108  20.270 -11.635  0.00  0.00     0.042 C 
ATOM     34  H   CKR d   1     -16.985  19.595 -12.415  0.00  0.00     0.079 H 
ATOM     35  H   CKR d   1     -16.620  21.326 -12.722  0.00  0.00     0.079 H 
ATOM     36  O2  CKR d   1     -14.034  21.149 -11.965  0.00  0.00    -0.388 OA
ATOM     37  H   CKR d   1     -14.721  19.243 -11.563  0.00  0.00     0.076 H 
ATOM     38  H   CKR d   1     -15.531  20.571 -10.665  0.00  0.00     0.076 H 
ATOM     39  C14 CKR d   1     -13.454  20.764 -13.204  0.00  0.00     0.042 C 
ATOM     40  C15 CKR d   1     -14.460  20.833 -14.327  0.00  0.00     0.103 C 
ATOM     41  H   CKR d   1     -13.082  19.732 -13.120  0.00  0.00     0.076 H 
ATOM     42  H   CKR d   1     -12.616  21.439 -13.432  0.00  0.00     0.076 H 
ATOM     43  H   CKR d   1     -14.803  21.871 -14.446  0.00  0.00     0.079 H 
ATOM     44  H   CKR d   1     -13.988  20.493 -15.261  0.00  0.00     0.079 H 
ATOM     45  H   CKR d   1     -15.295  19.008 -13.961  0.00  0.00     0.280 HD
ENDBRANCH  28  31
ENDBRANCH  25  28
ENDBRANCH   1  25
TORSDOF 5
