REMARK  3 active torsions:
REMARK  status: ('A' for Active; 'I' for Inactive)
REMARK    1  A    between atoms: C4_3  and  N2_12 
REMARK    2  A    between atoms: N2_12  and  C5_4 
REMARK    3  A    between atoms: C10_8  and  N5_16 
ROOT
ATOM      1  N1  2WU d   1     -16.922  18.062 -17.813  0.00  0.00    -0.188 N 
ATOM      2  N3  2WU d   1     -18.975  18.641 -18.495  0.00  0.00    -0.063 NA
ATOM      3  C4  2WU d   1     -18.117  18.500 -17.460  0.00  0.00     0.701 A 
ATOM      4  C6  2WU d   1     -18.274  18.292 -19.638  0.00  0.00     0.104 A 
ATOM      5  C7  2WU d   1     -18.584  18.327 -20.979  0.00  0.00    -0.035 A 
ATOM      6  C8  2WU d   1     -17.624  17.973 -21.915  0.00  0.00     0.062 A 
ATOM      7  C10 2WU d   1     -15.625  17.401 -23.716  0.00  0.00     0.679 A 
ATOM      8  C1  2WU d   1     -16.359  17.534 -21.503  0.00  0.00     0.067 A 
ATOM      9  C2  2WU d   1     -16.042  17.494 -20.128  0.00  0.00    -0.027 A 
ATOM     10  C3  2WU d   1     -17.005  17.915 -19.203  0.00  0.00     0.081 A 
ATOM     11  C9  2WU d   1     -17.897  18.115 -23.350  0.00  0.00     0.272 A 
ATOM     12  O1  2WU d   1     -18.979  18.469 -23.801  0.00  0.00    -0.267 OA
ATOM     13  N4  2WU d   1     -16.842  17.833 -24.171  0.00  0.00    -0.156 N 
ATOM     14  N6  2WU d   1     -15.359  17.230 -22.421  0.00  0.00    -0.191 N 
ATOM     15  H   2WU d   1     -16.113  17.872 -17.204  0.00  0.00     0.184 HD
ATOM     16  H   2WU d   1     -19.574  18.630 -21.302  0.00  0.00     0.088 H 
ATOM     17  H   2WU d   1     -15.072  17.144 -19.795  0.00  0.00     0.090 H 
ATOM     18  H   2WU d   1     -16.965  17.948 -25.157  0.00  0.00     0.187 HD
ATOM     19  H   2WU d   1     -14.441  16.883 -22.109  0.00  0.00     0.184 HD
ENDROOT
BRANCH   3  20
ATOM     20  N2  2WU d   1     -18.457  18.811 -16.211  0.00  0.00    -0.229 N 
ATOM     21  H   2WU d   1     -19.419  19.132 -16.029  0.00  0.00     0.177 HD
BRANCH  20  22
ATOM     22  C5  2WU d   1     -17.536  18.719 -15.093  0.00  0.00    -0.005 C 
ATOM     23  H   2WU d   1     -18.048  19.028 -14.170  0.00  0.00     0.057 H 
ATOM     24  H   2WU d   1     -16.674  19.379 -15.273  0.00  0.00     0.057 H 
ATOM     25  H   2WU d   1     -17.188  17.681 -14.989  0.00  0.00     0.057 H 
ENDBRANCH  20  22
ENDBRANCH   3  20
BRANCH   7  26
ATOM     26  N5  2WU d   1     -14.681  17.141 -24.637  0.00  0.00    -0.234 N 
ATOM     27  H   2WU d   1     -13.750  16.814 -24.342  0.00  0.00     0.174 HD
ATOM     28  H   2WU d   1     -14.889  17.269 -25.638  0.00  0.00     0.174 HD
ENDBRANCH   7  26
TORSDOF 3
