REMARK  3 active torsions:
REMARK  status: ('A' for Active; 'I' for Inactive)
REMARK    1  A    between atoms: C4_3  and  N2_12 
REMARK    2  A    between atoms: N2_12  and  C5_4 
REMARK    3  A    between atoms: C10_8  and  N5_16 
ROOT
ATOM      1  N1  2WU d   1     106.735  18.433  17.634  0.00  0.00    -0.188 N 
ATOM      2  N3  2WU d   1     108.779  18.895  18.418  0.00  0.00    -0.063 NA
ATOM      3  C4  2WU d   1     107.960  18.833  17.344  0.00  0.00     0.701 A 
ATOM      4  C6  2WU d   1     108.026  18.524  19.515  0.00  0.00     0.104 A 
ATOM      5  C7  2WU d   1     108.288  18.461  20.870  0.00  0.00    -0.035 A 
ATOM      6  C8  2WU d   1     107.282  18.099  21.761  0.00  0.00     0.062 A 
ATOM      7  C10 2WU d   1     105.182  17.468  23.429  0.00  0.00     0.679 A 
ATOM      8  C1  2WU d   1     106.009  17.764  21.270  0.00  0.00     0.067 A 
ATOM      9  C2  2WU d   1     105.750  17.821  19.892  0.00  0.00    -0.027 A 
ATOM     10  C3  2WU d   1     106.759  18.222  19.015  0.00  0.00     0.081 A 
ATOM     11  C9  2WU d   1     107.500  18.115  23.215  0.00  0.00     0.272 A 
ATOM     12  O1  2WU d   1     108.562  18.414  23.752  0.00  0.00    -0.267 OA
ATOM     13  N4  2WU d   1     106.399  17.787  23.962  0.00  0.00    -0.156 N 
ATOM     14  N6  2WU d   1     104.957  17.432  22.118  0.00  0.00    -0.191 N 
ATOM     15  H   2WU d   1     105.942  18.306  16.989  0.00  0.00     0.184 HD
ATOM     16  H   2WU d   1     109.280  18.694  21.240  0.00  0.00     0.088 H 
ATOM     17  H   2WU d   1     104.771  17.555  19.511  0.00  0.00     0.090 H 
ATOM     18  H   2WU d   1     106.492  17.781  24.958  0.00  0.00     0.187 HD
ATOM     19  H   2WU d   1     104.035  17.167  21.743  0.00  0.00     0.184 HD
ENDROOT
BRANCH   3  20
ATOM     20  N2  2WU d   1     108.362  19.177  16.123  0.00  0.00    -0.229 N 
ATOM     21  H   2WU d   1     109.336  19.488  15.999  0.00  0.00     0.177 HD
BRANCH  20  22
ATOM     22  C5  2WU d   1     107.499  19.136  14.958  0.00  0.00    -0.005 C 
ATOM     23  H   2WU d   1     108.062  19.466  14.073  0.00  0.00     0.057 H 
ATOM     24  H   2WU d   1     106.639  19.803  15.115  0.00  0.00     0.057 H 
ATOM     25  H   2WU d   1     107.141  18.108  14.803  0.00  0.00     0.057 H 
ENDBRANCH  20  22
ENDBRANCH   3  20
BRANCH   7  26
ATOM     26  N5  2WU d   1     104.187  17.227  24.283  0.00  0.00    -0.234 N 
ATOM     27  H   2WU d   1     103.251  16.983  23.928  0.00  0.00     0.174 HD
ATOM     28  H   2WU d   1     104.354  17.285  25.298  0.00  0.00     0.174 HD
ENDBRANCH   7  26
TORSDOF 3
