REMARK  4 active torsions:
REMARK  status: ('A' for Active; 'I' for Inactive)
REMARK    1  A    between atoms: N03_3  and  C07_7 
REMARK    2  A    between atoms: C10_10  and  N11_11 
REMARK    3  A    between atoms: N11_11  and  C12_12 
REMARK    4  A    between atoms: C14_14  and  C21_21 
ROOT
ATOM      1  C12 CG9 d   1     -23.298  17.313   5.555  0.00  0.00     0.175 A 
ATOM      2  N13 CG9 d   1     -23.810  18.219   6.382  0.00  0.00    -0.225 NA
ATOM      3  C14 CG9 d   1     -22.977  18.839   7.318  0.00  0.00     0.085 A 
ATOM      4  C15 CG9 d   1     -21.665  18.553   7.479  0.00  0.00     0.015 A 
ATOM      5  N16 CG9 d   1     -21.111  17.609   6.631  0.00  0.00    -0.311 N 
ATOM      6  C17 CG9 d   1     -19.846  17.098   6.527  0.00  0.00     0.003 A 
ATOM      7  C18 CG9 d   1     -19.939  16.185   5.494  0.00  0.00     0.020 A 
ATOM      8  N19 CG9 d   1     -21.213  16.110   4.976  0.00  0.00    -0.238 NA
ATOM      9  C20 CG9 d   1     -21.889  16.978   5.688  0.00  0.00     0.180 A 
ATOM     10  H   CG9 d   1     -21.068  19.046   8.245  0.00  0.00     0.116 H 
ATOM     11  H   CG9 d   1     -18.969  17.352   7.121  0.00  0.00     0.114 H 
ATOM     12  H   CG9 d   1     -19.101  15.592   5.131  0.00  0.00     0.117 H 
ENDROOT
BRANCH   1  13
ATOM     13  N11 CG9 d   1     -24.135  16.714   4.641  0.00  0.00    -0.338 N 
ATOM     14  H   CG9 d   1     -23.708  16.008   4.025  0.00  0.00     0.167 HD
BRANCH  13  15
ATOM     15  C10 CG9 d   1     -25.497  16.956   4.455  0.00  0.00     0.033 A 
ATOM     16  C09 CG9 d   1     -26.156  16.288   3.426  0.00  0.00    -0.055 A 
ATOM     17  C08 CG9 d   1     -27.507  16.519   3.187  0.00  0.00    -0.055 A 
ATOM     18  H   CG9 d   1     -25.613  15.583   2.807  0.00  0.00     0.087 H 
ATOM     19  C07 CG9 d   1     -28.258  17.424   3.955  0.00  0.00     0.030 A 
ATOM     20  H   CG9 d   1     -27.996  15.983   2.382  0.00  0.00     0.087 H 
ATOM     21  C31 CG9 d   1     -27.582  18.094   4.986  0.00  0.00    -0.055 A 
ATOM     22  C30 CG9 d   1     -26.223  17.861   5.230  0.00  0.00    -0.055 A 
ATOM     23  H   CG9 d   1     -28.121  18.803   5.604  0.00  0.00     0.087 H 
ATOM     24  H   CG9 d   1     -25.727  18.392   6.034  0.00  0.00     0.087 H 
BRANCH  19  25
ATOM     25  N03 CG9 d   1     -29.622  17.654   3.733  0.00  0.00    -0.377 N 
ATOM     26  C02 CG9 d   1     -30.151  19.013   3.948  0.00  0.00     0.015 C 
ATOM     27  C01 CG9 d   1     -31.641  18.930   4.298  0.00  0.00     0.034 C 
ATOM     28  H   CG9 d   1     -29.606  19.492   4.774  0.00  0.00     0.067 H 
ATOM     29  H   CG9 d   1     -30.022  19.606   3.031  0.00  0.00     0.067 H 
ATOM     30  O06 CG9 d   1     -32.361  18.199   3.300  0.00  0.00    -0.388 OA
ATOM     31  H   CG9 d   1     -32.052  19.948   4.365  0.00  0.00     0.076 H 
ATOM     32  H   CG9 d   1     -31.755  18.424   5.268  0.00  0.00     0.076 H 
ATOM     33  C05 CG9 d   1     -31.872  16.856   3.151  0.00  0.00     0.034 C 
ATOM     34  C04 CG9 d   1     -30.382  16.814   2.795  0.00  0.00     0.015 C 
ATOM     35  H   CG9 d   1     -32.025  16.317   4.098  0.00  0.00     0.076 H 
ATOM     36  H   CG9 d   1     -32.441  16.360   2.351  0.00  0.00     0.076 H 
ATOM     37  H   CG9 d   1     -30.021  15.777   2.858  0.00  0.00     0.067 H 
ATOM     38  H   CG9 d   1     -30.241  17.190   1.771  0.00  0.00     0.067 H 
ENDBRANCH  19  25
ENDBRANCH  13  15
ENDBRANCH   1  13
BRANCH   3  39
ATOM     39  C21 CG9 d   1     -23.599  19.830   8.210  0.00  0.00    -0.004 A 
ATOM     40  C22 CG9 d   1     -24.805  20.447   7.823  0.00  0.00    -0.070 A 
ATOM     41  C23 CG9 d   1     -25.438  21.376   8.672  0.00  0.00    -0.069 A 
ATOM     42  H   CG9 d   1     -25.249  20.205   6.864  0.00  0.00     0.084 H 
ATOM     43  C24 CG9 d   1     -24.832  21.683   9.901  0.00  0.00     0.011 A 
ATOM     44  H   CG9 d   1     -26.372  21.844   8.383  0.00  0.00     0.085 H 
ATOM     45  C25 CG9 d   1     -25.117  22.531  10.994  0.00  0.00     0.008 A 
ATOM     46  C28 CG9 d   1     -23.636  21.062  10.260  0.00  0.00     0.089 A 
ATOM     47  N26 CG9 d   1     -24.205  22.458  11.970  0.00  0.00    -0.288 N 
ATOM     48  H   CG9 d   1     -25.991  23.179  11.038  0.00  0.00     0.115 H 
ATOM     49  N27 CG9 d   1     -23.317  21.564  11.498  0.00  0.00    -0.175 NA
ATOM     50  H   CG9 d   1     -24.187  22.964  12.867  0.00  0.00     0.188 HD
ATOM     51  C29 CG9 d   1     -22.992  20.124   9.451  0.00  0.00    -0.040 A 
ATOM     52  H   CG9 d   1     -22.070  19.644   9.760  0.00  0.00     0.088 H 
ENDBRANCH   3  39
TORSDOF 4
