REMARK  10 active torsions:
REMARK  status: ('A' for Active; 'I' for Inactive)
REMARK    1  A    between atoms: C16_2  and  C7_4 
REMARK    2  A    between atoms: C2_9  and  N1_10 
REMARK       I    between atoms: N1_10  and  C8_11 
REMARK    3  A    between atoms: C8_11  and  C15_13 
REMARK    4  A    between atoms: C12_17  and  C24_19 
REMARK    5  A    between atoms: C21_22  and  N28_28 
REMARK    6  A    between atoms: N28_28  and  C33_29 
REMARK    7  A    between atoms: C29_31  and  O36_32 
REMARK    8  A    between atoms: O36_32  and  C37_33 
REMARK    9  A    between atoms: C30_36  and  O35_37 
REMARK   10  A    between atoms: O35_37  and  C38_38 
ROOT
ATOM      1  C24 CG4 d   1       3.109   1.286  13.308  0.00  0.00     0.085 A 
ATOM      2  C22 CG4 d   1       4.394   1.342  13.797  0.00  0.00     0.015 A 
ATOM      3  N23 CG4 d   1       2.188   0.403  13.857  0.00  0.00    -0.225 NA
ATOM      4  C21 CG4 d   1       2.501  -0.448  14.882  0.00  0.00     0.174 A 
ATOM      5  C19 CG4 d   1       3.806  -0.362  15.323  0.00  0.00     0.158 A 
ATOM      6  N27 CG4 d   1       4.397  -1.037  16.329  0.00  0.00    -0.347 N 
ATOM      7  C26 CG4 d   1       5.661  -0.588  16.380  0.00  0.00    -0.006 A 
ATOM      8  C25 CG4 d   1       5.830   0.370  15.419  0.00  0.00     0.001 A 
ATOM      9  N20 CG4 d   1       4.692   0.500  14.771  0.00  0.00    -0.312 N 
ATOM     10  H   CG4 d   1       5.124   2.040  13.404  0.00  0.00     0.116 H 
ATOM     11  H   CG4 d   1       6.427  -0.931  17.074  0.00  0.00     0.113 H 
ATOM     12  H   CG4 d   1       6.745   0.927  15.224  0.00  0.00     0.114 H 
ATOM     13  H1  CG4 d   1       3.967  -1.751  16.934  0.00  0.00     0.167 HD
ENDROOT
BRANCH   1  14
ATOM     14  C12 CG4 d   1       2.653   2.170  12.201  0.00  0.00    -0.005 A 
ATOM     15  C14 CG4 d   1       1.321   2.514  12.134  0.00  0.00    -0.056 A 
ATOM     16  C15 CG4 d   1       0.893   3.335  11.112  0.00  0.00     0.033 A 
ATOM     17  H   CG4 d   1       0.620   2.145  12.873  0.00  0.00     0.086 H 
ATOM     18  C13 CG4 d   1       1.769   3.832  10.170  0.00  0.00    -0.068 A 
ATOM     19  C11 CG4 d   1       3.097   3.498  10.247  0.00  0.00    -0.081 A 
ATOM     20  H   CG4 d   1       1.412   4.479   9.377  0.00  0.00     0.085 H 
ATOM     21  C10 CG4 d   1       3.539   2.673  11.260  0.00  0.00    -0.071 A 
ATOM     22  H   CG4 d   1       3.797   3.881   9.514  0.00  0.00     0.083 H 
ATOM     23  H   CG4 d   1       4.590   2.415  11.321  0.00  0.00     0.084 H 
BRANCH  16  24
ATOM     24  C8  CG4 d   1      -0.512   3.691  10.994  0.00  0.00     0.256 C 
ATOM     25  N1  CG4 d   1      -1.178   4.115  12.152  0.00  0.00    -0.323 N 
ATOM     26  H   CG4 d   1      -0.643   4.150  12.996  0.00  0.00     0.169 HD
ATOM     27  O9  CG4 d   1      -1.030   3.564   9.895  0.00  0.00    -0.267 OA
BRANCH  25  28
ATOM     28  C2  CG4 d   1      -2.525   4.495  12.237  0.00  0.00     0.035 A 
ATOM     29  C3  CG4 d   1      -2.862   5.352  13.282  0.00  0.00    -0.056 A 
ATOM     30  C5  CG4 d   1      -4.158   5.782  13.436  0.00  0.00    -0.064 A 
ATOM     31  H   CG4 d   1      -2.098   5.681  13.977  0.00  0.00     0.086 H 
ATOM     32  C7  CG4 d   1      -5.147   5.367  12.547  0.00  0.00     0.041 A 
ATOM     33  H   CG4 d   1      -4.412   6.447  14.253  0.00  0.00     0.085 H 
ATOM     34  C6  CG4 d   1      -4.831   4.511  11.484  0.00  0.00    -0.064 A 
ATOM     35  C4  CG4 d   1      -3.520   4.070  11.332  0.00  0.00    -0.056 A 
ATOM     36  H   CG4 d   1      -5.599   4.196  10.787  0.00  0.00     0.085 H 
ATOM     37  H   CG4 d   1      -3.264   3.401  10.519  0.00  0.00     0.086 H 
BRANCH  32  38
ATOM     38  C16 CG4 d   1      -6.535   5.860  12.729  0.00  0.00     0.209 C 
ATOM     39  O18 CG4 d   1      -6.771   6.809  13.473  0.00  0.00    -0.644 OA
ATOM     40  O17 CG4 d   1      -7.562   5.275  12.029  0.00  0.00    -0.644 OA
ENDBRANCH  32  38
ENDBRANCH  25  28
ENDBRANCH  16  24
ENDBRANCH   1  14
BRANCH   4  41
ATOM     41  N28 CG4 d   1       1.585  -1.366  15.492  0.00  0.00    -0.338 N 
ATOM     42  H   CG4 d   1       2.034  -1.937  16.222  0.00  0.00     0.167 HD
BRANCH  41  43
ATOM     43  C33 CG4 d   1       0.223  -1.678  15.337  0.00  0.00     0.036 A 
ATOM     44  C31 CG4 d   1      -0.505  -1.003  14.354  0.00  0.00    -0.022 A 
ATOM     45  C29 CG4 d   1      -1.840  -1.214  14.132  0.00  0.00     0.103 A 
ATOM     46  H   CG4 d   1       0.012  -0.277  13.737  0.00  0.00     0.091 H 
ATOM     47  C30 CG4 d   1      -2.482  -2.164  14.904  0.00  0.00     0.101 A 
ATOM     48  C32 CG4 d   1      -1.798  -2.868  15.895  0.00  0.00    -0.046 A 
ATOM     49  C34 CG4 d   1      -0.437  -2.632  16.116  0.00  0.00    -0.054 A 
ATOM     50  H   CG4 d   1      -2.323  -3.601  16.496  0.00  0.00     0.087 H 
ATOM     51  H   CG4 d   1       0.099  -3.182  16.881  0.00  0.00     0.087 H 
BRANCH  45  52
ATOM     52  O36 CG4 d   1      -2.562  -0.551  13.146  0.00  0.00    -0.353 OA
BRANCH  52  53
ATOM     53  C37 CG4 d   1      -2.219   0.589  12.362  0.00  0.00     0.010 C 
ATOM     54  H   CG4 d   1      -3.048   0.828  11.680  0.00  0.00     0.066 H 
ATOM     55  H   CG4 d   1      -1.313   0.372  11.777  0.00  0.00     0.066 H 
ATOM     56  H   CG4 d   1      -2.031   1.447  13.025  0.00  0.00     0.066 H 
ENDBRANCH  52  53
ENDBRANCH  45  52
BRANCH  47  57
ATOM     57  O35 CG4 d   1      -3.814  -2.379  14.705  0.00  0.00    -0.353 OA
BRANCH  57  58
ATOM     58  C38 CG4 d   1      -4.360  -2.725  13.419  0.00  0.00     0.010 C 
ATOM     59  H   CG4 d   1      -5.450  -2.848  13.504  0.00  0.00     0.066 H 
ATOM     60  H   CG4 d   1      -3.911  -3.667  13.072  0.00  0.00     0.066 H 
ATOM     61  H   CG4 d   1      -4.137  -1.925  12.698  0.00  0.00     0.066 H 
ENDBRANCH  57  58
ENDBRANCH  47  57
ENDBRANCH  41  43
ENDBRANCH   4  41
TORSDOF 10
