REMARK  5 active torsions:
REMARK  status: ('A' for Active; 'I' for Inactive)
REMARK    1  A    between atoms: S20_2  and  C21_4 
REMARK    2  A    between atoms: S20_2  and  N9_5 
REMARK    3  A    between atoms: C8_10  and  C10_16 
REMARK    4  A    between atoms: C7_11  and  C16_12 
REMARK    5  A    between atoms: C16_12  and  N17_13 
ROOT
ATOM      1  N9  CJP d   1     -10.701  40.016  30.727  0.00  0.00    -0.238 N 
ATOM      2  C4  CJP d   1     -11.358  38.856  30.985  0.00  0.00     0.061 A 
ATOM      3  C5  CJP d   1     -11.021  37.511  31.144  0.00  0.00    -0.055 A 
ATOM      4  C6  CJP d   1     -12.011  36.561  31.405  0.00  0.00    -0.081 A 
ATOM      5  C1  CJP d   1     -13.354  36.922  31.518  0.00  0.00    -0.082 A 
ATOM      6  C8  CJP d   1     -11.491  41.118  30.682  0.00  0.00     0.071 A 
ATOM      7  C7  CJP d   1     -12.880  40.676  30.907  0.00  0.00     0.008 A 
ATOM      8  C3  CJP d   1     -12.792  39.214  31.115  0.00  0.00     0.002 A 
ATOM      9  C2  CJP d   1     -13.762  38.252  31.377  0.00  0.00    -0.070 A 
ATOM     10  H4  CJP d   1      -9.985  37.202  31.064  0.00  0.00     0.087 H 
ATOM     11  H5  CJP d   1     -11.730  35.521  31.522  0.00  0.00     0.083 H 
ATOM     12  H6  CJP d   1     -14.095  36.157  31.719  0.00  0.00     0.083 H 
ATOM     13  H12 CJP d   1     -14.807  38.526  31.469  0.00  0.00     0.084 H 
ENDROOT
BRANCH   6  14
ATOM     14  C10 CJP d   1     -11.213  42.547  30.431  0.00  0.00     0.014 A 
ATOM     15  C15 CJP d   1     -11.209  43.465  31.463  0.00  0.00    -0.068 A 
ATOM     16  C14 CJP d   1     -10.968  44.800  31.169  0.00  0.00    -0.061 A 
ATOM     17  H13 CJP d   1     -11.391  43.149  32.484  0.00  0.00     0.085 H 
ATOM     18  C13 CJP d   1     -10.753  45.207  29.859  0.00  0.00     0.035 A 
ATOM     19  H14 CJP d   1     -10.947  45.531  31.969  0.00  0.00     0.086 H 
ATOM     20 CL1  CJP d   1     -10.457  46.922  29.508  0.00  0.00    -0.084 Cl
ATOM     21  C12 CJP d   1     -10.764  44.330  28.794  0.00  0.00    -0.040 A 
ATOM     22  C11 CJP d   1     -11.000  42.998  29.049  0.00  0.00     0.048 A 
ATOM     23  H15 CJP d   1     -10.591  44.681  27.783  0.00  0.00     0.088 H 
ATOM     24 CL2  CJP d   1     -11.024  41.783  27.734  0.00  0.00    -0.083 Cl
ENDBRANCH   6  14
BRANCH   1  25
ATOM     25  S20 CJP d   1      -9.080  40.070  30.520  0.00  0.00     0.233 S 
ATOM     26  O23 CJP d   1      -8.647  41.277  29.844  0.00  0.00    -0.206 OA
ATOM     27  O22 CJP d   1      -8.427  40.067  31.815  0.00  0.00    -0.206 OA
BRANCH  25  28
ATOM     28  C21 CJP d   1      -8.519  38.780  29.606  0.00  0.00     0.033 C 
ATOM     29  H1  CJP d   1      -9.015  38.783  28.624  0.00  0.00     0.051 H 
ATOM     30  H2  CJP d   1      -8.743  37.837  30.127  0.00  0.00     0.051 H 
ATOM     31  H3  CJP d   1      -7.432  38.874  29.468  0.00  0.00     0.051 H 
ENDBRANCH  25  28
ENDBRANCH   1  25
BRANCH   7  32
ATOM     32  C16 CJP d   1     -14.089  41.569  30.918  0.00  0.00     0.106 C 
ATOM     33  H7  CJP d   1     -14.912  41.080  30.376  0.00  0.00     0.082 H 
ATOM     34  H8  CJP d   1     -13.845  42.524  30.429  0.00  0.00     0.082 H 
BRANCH  32  35
ATOM     35  N17 CJP d   1     -14.491  41.816  32.288  0.00  0.00    -0.075 N 
ATOM     36  H9  CJP d   1     -15.302  42.415  32.297  0.00  0.00     0.274 HD
ATOM     37  H10 CJP d   1     -13.737  42.264  32.784  0.00  0.00     0.274 HD
ATOM     38  H11 CJP d   1     -14.714  40.941  32.736  0.00  0.00     0.274 HD
ENDBRANCH  32  35
ENDBRANCH   7  32
TORSDOF 5
