REMARK  8 active torsions:
REMARK  status: ('A' for Active; 'I' for Inactive)
REMARK    1  A    between atoms: C11_1  and  C10_2 
REMARK    2  A    between atoms: C10_2  and  C7_3 
REMARK    3  A    between atoms: C6_6  and  N6_7 
REMARK    4  A    between atoms: N9_12  and  C1'_13 
REMARK    5  A    between atoms: C4'_15  and  C5'_16 
REMARK    6  A    between atoms: C5'_16  and  O5'_17 
REMARK    7  A    between atoms: C3'_18  and  O3'_19 
REMARK    8  A    between atoms: C2'_20  and  O2'_21 
ROOT
ATOM      1  C7  HO4 d   1      11.453  -1.647  10.331  0.00  0.00    -0.025 A 
ATOM      2  C8  HO4 d   1      11.487  -0.458  10.875  0.00  0.00    -0.009 A 
ATOM      3  C5  HO4 d   1      12.459  -2.403  10.820  0.00  0.00     0.063 A 
ATOM      4  C6  HO4 d   1      12.890  -3.652  10.601  0.00  0.00     0.137 A 
ATOM      5  N1  HO4 d   1      13.952  -4.146  11.179  0.00  0.00    -0.224 NA
ATOM      6  C2  HO4 d   1      14.644  -3.364  12.104  0.00  0.00     0.091 A 
ATOM      7  N3  HO4 d   1      14.223  -2.051  12.339  0.00  0.00    -0.223 NA
ATOM      8  C4  HO4 d   1      13.131  -1.608  11.703  0.00  0.00     0.147 A 
ATOM      9  N9  HO4 d   1      12.519  -0.430  11.726  0.00  0.00    -0.310 N 
ATOM     10  H   HO4 d   1      10.799   0.361  10.672  0.00  0.00     0.112 H 
ATOM     11  H   HO4 d   1      15.498  -3.769  12.634  0.00  0.00     0.146 H 
ENDROOT
BRANCH   9  12
ATOM     12  C1' HO4 d   1      12.929   0.675  12.541  0.00  0.00     0.138 C 
ATOM     13  O4' HO4 d   1      11.952   0.862  13.579  0.00  0.00    -0.353 OA
ATOM     14  C4' HO4 d   1      12.198   2.134  14.085  0.00  0.00     0.088 C 
ATOM     15  C3' HO4 d   1      12.340   2.994  12.828  0.00  0.00     0.091 C 
ATOM     16  H   HO4 d   1      13.115   2.165  14.691  0.00  0.00     0.090 H 
ATOM     17  C2' HO4 d   1      12.836   1.995  11.774  0.00  0.00     0.105 C 
ATOM     18  H   HO4 d   1      11.370   3.421  12.535  0.00  0.00     0.091 H 
ATOM     19  H   HO4 d   1      12.090   1.903  10.971  0.00  0.00     0.093 H 
ATOM     20  H   HO4 d   1      13.939   0.505  12.942  0.00  0.00     0.122 H 
BRANCH  14  21
ATOM     21  C5' HO4 d   1      10.992   2.545  14.930  0.00  0.00     0.043 C 
ATOM     22  H   HO4 d   1      10.101   2.639  14.291  0.00  0.00     0.078 H 
ATOM     23  H   HO4 d   1      11.191   3.507  15.425  0.00  0.00     0.078 H 
BRANCH  21  24
ATOM     24  O5' HO4 d   1      10.778   1.506  15.932  0.00  0.00    -0.398 OA
ATOM     25  H   HO4 d   1      11.553   1.428  16.476  0.00  0.00     0.209 HD
ENDBRANCH  21  24
ENDBRANCH  14  21
BRANCH  15  26
ATOM     26  O3' HO4 d   1      13.256   4.026  13.019  0.00  0.00    -0.390 OA
ATOM     27  H   HO4 d   1      13.322   4.541  12.223  0.00  0.00     0.210 HD
ENDBRANCH  15  26
BRANCH  17  28
ATOM     28  O2' HO4 d   1      14.069   2.387  11.179  0.00  0.00    -0.388 OA
ATOM     29  H   HO4 d   1      13.960   3.229  10.753  0.00  0.00     0.210 HD
ENDBRANCH  17  28
ENDBRANCH   9  12
BRANCH   1  30
ATOM     30  C10 HO4 d   1      10.229  -2.065   9.761  0.00  0.00    -0.042 C 
ATOM     31  H   HO4 d   1       9.779  -2.681  10.554  0.00  0.00     0.039 H 
ATOM     32  H   HO4 d   1       9.664  -1.126   9.661  0.00  0.00     0.039 H 
BRANCH  30  33
ATOM     33  C11 HO4 d   1       9.881  -2.811   8.507  0.00  0.00    -0.073 C 
ATOM     34  H   HO4 d   1       8.789  -2.929   8.442  0.00  0.00     0.028 H 
ATOM     35  H   HO4 d   1      10.357  -3.803   8.526  0.00  0.00     0.028 H 
ATOM     36  H   HO4 d   1      10.242  -2.248   7.633  0.00  0.00     0.028 H 
ENDBRANCH  30  33
ENDBRANCH   1  30
BRANCH   4  37
ATOM     37  N6  HO4 d   1      12.247  -4.371   9.749  0.00  0.00    -0.383 N 
ATOM     38  H   HO4 d   1      12.551  -5.336   9.556  0.00  0.00     0.157 HD
ATOM     39  H   HO4 d   1      11.428  -3.981   9.260  0.00  0.00     0.157 HD
ENDBRANCH   4  37
TORSDOF 8
