REMARK  5 active torsions:
REMARK  status: ('A' for Active; 'I' for Inactive)
REMARK    1  A    between atoms: C12_5  and  N4_28 
REMARK    2  A    between atoms: N4_28  and  C13_6 
REMARK    3  A    between atoms: N1_23  and  C6_22 
REMARK    4  A    between atoms: C5_24  and  N1_23 
REMARK    5  A    between atoms: C_26  and  N_27 
ROOT
ATOM      1  C11 2X6 d   1       6.729   0.784  15.376  0.00  0.00     0.067 A 
ATOM      2  C12 2X6 d   1       2.717   0.900  14.186  0.00  0.00     0.148 A 
ATOM      3  O   2X6 d   1       3.866  -1.241  15.837  0.00  0.00    -0.267 OA
ATOM      4  C10 2X6 d   1       4.550  -0.289  15.436  0.00  0.00     0.262 A 
ATOM      5  N2  2X6 d   1       5.916  -0.266  15.803  0.00  0.00    -0.317 N 
ATOM      6  N3  2X6 d   1       6.334   1.794  14.639  0.00  0.00    -0.243 NA
ATOM      7  C8  2X6 d   1       4.976   1.823  14.242  0.00  0.00     0.081 A 
ATOM      8  C7  2X6 d   1       4.550   2.883  13.465  0.00  0.00    -0.010 A 
ATOM      9  C9  2X6 d   1       4.078   0.801  14.627  0.00  0.00     0.107 A 
ATOM     10  N6  2X6 d   1       2.267   1.936  13.417  0.00  0.00    -0.213 NA
ATOM     11  C6  2X6 d   1       3.185   2.904  13.071  0.00  0.00     0.128 A 
ATOM     12  H   2X6 d   1       7.775   0.763  15.679  0.00  0.00     0.143 H 
ATOM     13  H   2X6 d   1       6.297  -0.999  16.366  0.00  0.00     0.170 HD
ATOM     14  H   2X6 d   1       5.233   3.670  13.167  0.00  0.00     0.093 H 
ENDROOT
BRANCH  11  15
ATOM     15  N1  2X6 d   1       2.743   3.951  12.298  0.00  0.00    -0.368 N 
ATOM     16  H   2X6 d   1       3.418   4.682  12.033  0.00  0.00     0.161 HD
BRANCH  15  17
ATOM     17  C5  2X6 d   1       1.354   4.079  11.831  0.00  0.00     0.038 C 
ATOM     18  C4  2X6 d   1       1.302   5.039  10.645  0.00  0.00    -0.044 C 
ATOM     19  C3  2X6 d   1      -0.123   5.227  10.138  0.00  0.00    -0.063 C 
ATOM     20  H   2X6 d   1       1.701   6.015  10.958  0.00  0.00     0.036 H 
ATOM     21  H   2X6 d   1       1.920   4.634   9.830  0.00  0.00     0.036 H 
ATOM     22  C2  2X6 d   1      -1.048   5.686  11.247  0.00  0.00    -0.063 C 
ATOM     23  H   2X6 d   1      -0.121   5.982   9.338  0.00  0.00     0.033 H 
ATOM     24  H   2X6 d   1      -0.490   4.270   9.739  0.00  0.00     0.033 H 
ATOM     25  C1  2X6 d   1      -0.981   4.751  12.449  0.00  0.00    -0.037 C 
ATOM     26  H   2X6 d   1      -0.753   6.697  11.563  0.00  0.00     0.033 H 
ATOM     27  H   2X6 d   1      -2.080   5.707  10.867  0.00  0.00     0.033 H 
ATOM     28  C   2X6 d   1       0.438   4.610  12.983  0.00  0.00     0.119 C 
ATOM     29  H   2X6 d   1      -1.347   3.759  12.148  0.00  0.00     0.036 H 
ATOM     30  H   2X6 d   1      -1.623   5.152  13.247  0.00  0.00     0.036 H 
ATOM     31  H   2X6 d   1       0.446   3.904  13.826  0.00  0.00     0.087 H 
ATOM     32  H   2X6 d   1       0.991   3.091  11.512  0.00  0.00     0.075 H 
BRANCH  28  33
ATOM     33  N   2X6 d   1       0.956   5.913  13.425  0.00  0.00    -0.073 N 
ATOM     34  H   2X6 d   1       0.377   6.270  14.168  0.00  0.00     0.274 HD
ATOM     35  H   2X6 d   1       0.946   6.559  12.651  0.00  0.00     0.274 HD
ATOM     36  H   2X6 d   1       1.901   5.803  13.759  0.00  0.00     0.274 HD
ENDBRANCH  28  33
ENDBRANCH  15  17
ENDBRANCH  11  15
BRANCH   2  37
ATOM     37  N4  2X6 d   1       1.846  -0.100  14.565  0.00  0.00    -0.338 N 
ATOM     38  H   2X6 d   1       2.248  -0.851  15.144  0.00  0.00     0.167 HD
BRANCH  37  39
ATOM     39  C13 2X6 d   1       0.472  -0.224  14.259  0.00  0.00     0.061 A 
ATOM     40  C14 2X6 d   1      -0.272   0.660  13.503  0.00  0.00    -0.055 A 
ATOM     41  C15 2X6 d   1      -1.645   0.437  13.258  0.00  0.00    -0.080 A 
ATOM     42  H   2X6 d   1       0.206   1.541  13.090  0.00  0.00     0.087 H 
ATOM     43  C16 2X6 d   1      -2.308  -0.657  13.753  0.00  0.00    -0.071 A 
ATOM     44  H   2X6 d   1      -2.193   1.155  12.659  0.00  0.00     0.083 H 
ATOM     45  C17 2X6 d   1      -1.583  -1.572  14.524  0.00  0.00    -0.006 A 
ATOM     46  H   2X6 d   1      -3.363  -0.808  13.553  0.00  0.00     0.084 H 
ATOM     47  C18 2X6 d   1      -0.205  -1.360  14.776  0.00  0.00     0.069 A 
ATOM     48  C20 2X6 d   1      -1.957  -2.789  15.176  0.00  0.00    -0.056 A 
ATOM     49  N5  2X6 d   1       0.248  -2.422  15.562  0.00  0.00    -0.363 N 
ATOM     50  C19 2X6 d   1      -0.829  -3.284  15.798  0.00  0.00    -0.022 A 
ATOM     51  H   2X6 d   1       1.210  -2.549  15.909  0.00  0.00     0.165 HD
ATOM     52  H   2X6 d   1      -0.784  -4.202  16.382  0.00  0.00     0.111 H 
ATOM     53  H   2X6 d   1      -2.948  -3.241  15.181  0.00  0.00     0.086 H 
ENDBRANCH  37  39
ENDBRANCH   2  37
TORSDOF 5
