REMARK WARNING: 32 MAX_TORS EXCEEDED!!!
REMARK  33 active torsions:
REMARK  status: ('A' for Active; 'I' for Inactive)
REMARK    1  A    between atoms: N_1  and  CA_2 
REMARK    2  A    between atoms: CA_2  and  C_3 
REMARK    3  A    between atoms: CA_2  and  CB_5 
REMARK       I    between atoms: C_3  and  N_9 
REMARK    4  A    between atoms: CB_5  and  CG_6 
REMARK    5  A    between atoms: N_9  and  CA_10 
REMARK    6  A    between atoms: CA_10  and  C_11 
REMARK    7  A    between atoms: CA_10  and  CB_13 
REMARK       I    between atoms: C_11  and  N_17 
REMARK    8  A    between atoms: CB_13  and  CG1_14 
REMARK    9  A    between atoms: CB_13  and  CG2_15 
REMARK   10  A    between atoms: CG1_14  and  CD1_16 
REMARK   11  A    between atoms: N_17  and  CA_18 
REMARK   12  A    between atoms: CA_18  and  C_19 
REMARK   13  A    between atoms: CA_18  and  CB_21 
REMARK       I    between atoms: C_19  and  N_25 
REMARK   14  A    between atoms: CB_21  and  CG_22 
REMARK   15  A    between atoms: N_25  and  CA_26 
REMARK   16  A    between atoms: CA_26  and  C_27 
REMARK   17  A    between atoms: CA_26  and  CB_29 
REMARK       I    between atoms: C_27  and  N_32 
REMARK   18  A    between atoms: CB_29  and  CG1_30 
REMARK   19  A    between atoms: CB_29  and  CG2_31 
REMARK   20  A    between atoms: N_32  and  CA_33 
REMARK   21  A    between atoms: CA_33  and  C_34 
REMARK   22  A    between atoms: CA_33  and  CB_36 
REMARK       I    between atoms: C_34  and  N_40 
REMARK   23  A    between atoms: CB_36  and  CG_37 
REMARK   24  A    between atoms: CG_37  and  SD_38 
REMARK   25  A    between atoms: SD_38  and  CE_39 
REMARK   26  A    between atoms: N_40  and  CA_41 
REMARK   27  A    between atoms: CA_41  and  C_42 
REMARK       I    between atoms: C_42  and  N_44 
REMARK   28  A    between atoms: N_44  and  CA_45 
REMARK   29  A    between atoms: CA_45  and  C_46 
REMARK   30  A    between atoms: CA_45  and  CB_48 
REMARK   31  A    between atoms: CB_48  and  CG_49 
REMARK   32  A    between atoms: CG_49  and  CD1_50 
REMARK   33  A    between atoms: CG_49  and  CD2_51 
ROOT
ATOM      1  CA  VAL d   1     125.113 225.534  39.061  0.00  0.00     0.092 C 
ATOM      2  H   VAL d   1     125.460 225.332  40.085  0.00  0.00     0.088 H 
ENDROOT
BRANCH   1   3
ATOM      3  N   VAL d   1     123.688 225.192  39.024  0.00  0.00    -0.346 N 
ATOM      4  C   ASP d   1     122.835 225.585  39.967  0.00  0.00     0.241 C 
ATOM      5  O   ASP d   1     123.166 226.274  40.940  0.00  0.00    -0.271 OA
ATOM      6  H   VAL d   1     123.344 224.643  38.262  0.00  0.00     0.163 HD
BRANCH   4   7
ATOM      7  CA  ASP d   1     121.382 225.148  39.781  0.00  0.00     0.098 C 
ATOM      8  H   ASP d   1     120.744 226.025  39.967  0.00  0.00     0.088 H 
BRANCH   7   9
ATOM      9  N   ASP d   1     121.106 224.683  38.424  0.00  0.00    -0.345 N 
ATOM     10  C   ILE d   1     120.887 225.552  37.442  0.00  0.00     0.241 C 
ATOM     11  O   ILE d   1     120.996 226.777  37.603  0.00  0.00    -0.271 OA
ATOM     12  H   ASP d   1     121.082 223.702  38.232  0.00  0.00     0.163 HD
BRANCH  10  13
ATOM     13  CA  ILE d   1     120.496 224.968  36.071  0.00  0.00     0.092 C 
ATOM     14  H   ILE d   1     120.882 225.657  35.305  0.00  0.00     0.088 H 
BRANCH  13  15
ATOM     15  N   ILE d   1     121.076 223.641  35.789  0.00  0.00    -0.346 N 
ATOM     16  C   ASP d   1     122.080 223.459  34.933  0.00  0.00     0.249 C 
ATOM     17  O   ASP d   1     122.800 224.369  34.525  0.00  0.00    -0.271 OA
ATOM     18  H   ILE d   1     120.699 222.844  36.261  0.00  0.00     0.163 HD
BRANCH  16  19
ATOM     19  CA  ASP d   1     122.309 222.026  34.476  0.00  0.00     0.185 C 
ATOM     20  H   ASP d   1     121.436 221.420  34.761  0.00  0.00     0.100 H 
BRANCH  19  21
ATOM     21  N   ASP d   1     122.440 222.003  32.989  0.00  0.00    -0.066 N 
ATOM     22  H   ASP d   1     122.592 221.056  32.680  0.00  0.00     0.275 HD
ATOM     23  H   ASP d   1     123.221 222.576  32.712  0.00  0.00     0.275 HD
ATOM     24  H   ASP d   1     121.595 222.361  32.572  0.00  0.00     0.275 HD
ENDBRANCH  19  21
BRANCH  19  25
ATOM     25  CB  ASP d   1     123.549 221.433  35.155  0.00  0.00     0.050 C 
ATOM     26  H   ASP d   1     124.388 222.133  35.030  0.00  0.00     0.052 H 
ATOM     27  H   ASP d   1     123.794 220.477  34.669  0.00  0.00     0.052 H 
BRANCH  25  28
ATOM     28  CG  ASP d   1     123.338 221.183  36.648  0.00  0.00     0.175 C 
ATOM     29  OD1 ASP d   1     122.596 221.957  37.293  0.00  0.00    -0.648 OA
ATOM     30  OD2 ASP d   1     123.916 220.211  37.178  0.00  0.00    -0.648 OA
ENDBRANCH  25  28
ENDBRANCH  19  25
ENDBRANCH  16  19
ENDBRANCH  13  15
BRANCH  13  31
ATOM     31  CB  ILE d   1     118.945 224.919  35.931  0.00  0.00    -0.030 C 
ATOM     32  H   ILE d   1     118.594 223.969  36.359  0.00  0.00     0.043 H 
BRANCH  31  33
ATOM     33  CG1 ILE d   1     118.555 224.946  34.442  0.00  0.00    -0.063 C 
ATOM     34  H   ILE d   1     118.838 223.980  33.998  0.00  0.00     0.033 H 
ATOM     35  H   ILE d   1     119.122 225.753  33.956  0.00  0.00     0.033 H 
BRANCH  33  36
ATOM     36  CD1 ILE d   1     117.080 225.176  34.167  0.00  0.00    -0.076 C 
ATOM     37  H   ILE d   1     116.906 225.178  33.081  0.00  0.00     0.027 H 
ATOM     38  H   ILE d   1     116.775 226.145  34.589  0.00  0.00     0.027 H 
ATOM     39  H   ILE d   1     116.491 224.372  34.632  0.00  0.00     0.027 H 
ENDBRANCH  33  36
ENDBRANCH  31  33
BRANCH  31  40
ATOM     40  CG2 ILE d   1     118.273 226.055  36.704  0.00  0.00    -0.071 C 
ATOM     41  H   ILE d   1     118.572 226.006  37.761  0.00  0.00     0.028 H 
ATOM     42  H   ILE d   1     117.180 225.954  36.627  0.00  0.00     0.028 H 
ATOM     43  H   ILE d   1     118.583 227.021  36.279  0.00  0.00     0.028 H 
ENDBRANCH  31  40
ENDBRANCH  13  31
ENDBRANCH  10  13
ENDBRANCH   7   9
BRANCH   7  44
ATOM     44  CB  ASP d   1     121.019 224.075  40.807  0.00  0.00     0.043 C 
ATOM     45  H   ASP d   1     121.920 223.488  41.039  0.00  0.00     0.052 H 
ATOM     46  H   ASP d   1     120.253 223.415  40.373  0.00  0.00     0.052 H 
BRANCH  44  47
ATOM     47  CG  ASP d   1     120.481 224.666  42.088  0.00  0.00     0.175 C 
ATOM     48  OD1 ASP d   1     119.816 225.720  42.027  0.00  0.00    -0.648 OA
ATOM     49  OD2 ASP d   1     120.707 224.072  43.154  0.00  0.00    -0.648 OA
ENDBRANCH  44  47
ENDBRANCH   7  44
ENDBRANCH   4   7
ENDBRANCH   1   3
BRANCH   1  50
ATOM     50  C   VAL d   1     125.366 227.024  38.796  0.00  0.00     0.241 C 
ATOM     51  O   VAL d   1     126.509 227.455  38.632  0.00  0.00    -0.271 OA
ATOM     52  N   MET d   1     124.293 227.795  38.695  0.00  0.00    -0.346 N 
ATOM     53  H   MET d   1     123.386 227.387  38.801  0.00  0.00     0.163 HD
BRANCH  52  54
ATOM     54  CA  MET d   1     124.406 229.224  38.433  0.00  0.00     0.090 C 
ATOM     55  H   MET d   1     124.881 229.332  37.447  0.00  0.00     0.087 H 
BRANCH  54  56
ATOM     56  C   MET d   1     125.307 229.954  39.438  0.00  0.00     0.240 C 
ATOM     57  O   MET d   1     125.976 230.918  39.076  0.00  0.00    -0.271 OA
ATOM     58  N   GLY d   1     125.321 229.490  40.686  0.00  0.00    -0.351 N 
ATOM     59  H   GLY d   1     124.713 228.730  40.917  0.00  0.00     0.163 HD
BRANCH  58  60
ATOM     60  CA  GLY d   1     126.174 230.032  41.729  0.00  0.00     0.069 C 
ATOM     61  H   GLY d   1     125.874 231.068  41.946  0.00  0.00     0.078 H 
ATOM     62  H   GLY d   1     127.221 230.017  41.391  0.00  0.00     0.078 H 
BRANCH  60  63
ATOM     63  C   GLY d   1     126.039 229.199  42.977  0.00  0.00     0.236 C 
ATOM     64  O   GLY d   1     126.988 229.041  43.742  0.00  0.00    -0.272 OA
ATOM     65  N   LEU d   1     124.854 228.638  43.166  0.00  0.00    -0.345 N 
ATOM     66  H   LEU d   1     124.175 228.689  42.434  0.00  0.00     0.163 HD
BRANCH  65  67
ATOM     67  CA  LEU d   1     124.505 227.951  44.399  0.00  0.00     0.096 C 
ATOM     68  H   LEU d   1     125.069 228.406  45.227  0.00  0.00     0.089 H 
BRANCH  67  69
ATOM     69  C   LEU d   1     124.870 226.472  44.313  0.00  0.00     0.196 C 
ATOM     70  O   LEU d   1     124.120 225.605  44.766  0.00  0.00    -0.646 OA
ATOM     71  O1  LEU d   1     125.955 226.132  43.770  0.00  0.00    -0.646 OA
ENDBRANCH  67  69
BRANCH  67  72
ATOM     72  CB  LEU d   1     123.008 228.101  44.682  0.00  0.00    -0.034 C 
ATOM     73  H   LEU d   1     122.827 227.769  45.715  0.00  0.00     0.037 H 
ATOM     74  H   LEU d   1     122.468 227.443  43.986  0.00  0.00     0.037 H 
BRANCH  72  75
ATOM     75  CG  LEU d   1     122.427 229.513  44.536  0.00  0.00    -0.059 C 
ATOM     76  H   LEU d   1     122.983 230.027  43.738  0.00  0.00     0.038 H 
BRANCH  75  77
ATOM     77  CD1 LEU d   1     120.967 229.447  44.123  0.00  0.00    -0.073 C 
ATOM     78  H   LEU d   1     120.568 230.467  44.023  0.00  0.00     0.028 H 
ATOM     79  H   LEU d   1     120.394 228.902  44.888  0.00  0.00     0.028 H 
ATOM     80  H   LEU d   1     120.882 228.924  43.159  0.00  0.00     0.028 H 
ENDBRANCH  75  77
BRANCH  75  81
ATOM     81  CD2 LEU d   1     122.596 230.320  45.817  0.00  0.00    -0.073 C 
ATOM     82  H   LEU d   1     123.660 230.352  46.093  0.00  0.00     0.028 H 
ATOM     83  H   LEU d   1     122.021 229.847  46.627  0.00  0.00     0.028 H 
ATOM     84  H   LEU d   1     122.228 231.344  45.656  0.00  0.00     0.028 H 
ENDBRANCH  75  81
ENDBRANCH  72  75
ENDBRANCH  67  72
ENDBRANCH  65  67
ENDBRANCH  60  63
ENDBRANCH  58  60
ENDBRANCH  54  56
BRANCH  54  85
ATOM     85  CB  MET d   1     123.020 229.868  38.341  0.00  0.00    -0.030 C 
ATOM     86  H   MET d   1     122.291 229.068  38.144  0.00  0.00     0.037 H 
ATOM     87  H   MET d   1     123.032 230.570  37.494  0.00  0.00     0.037 H 
BRANCH  85  88
ATOM     88  CG  MET d   1     122.549 230.631  39.569  0.00  0.00    -0.021 C 
ATOM     89  H   MET d   1     123.330 231.348  39.862  0.00  0.00     0.049 H 
ATOM     90  H   MET d   1     122.381 229.917  40.388  0.00  0.00     0.049 H 
BRANCH  88  91
ATOM     91  SD  MET d   1     121.024 231.528  39.260  0.00  0.00    -0.173 SA
BRANCH  91  92
ATOM     92  CE  MET d   1     121.529 233.223  39.427  0.00  0.00    -0.035 C 
ATOM     93  H   MET d   1     120.665 233.882  39.257  0.00  0.00     0.041 H 
ATOM     94  H   MET d   1     122.312 233.447  38.687  0.00  0.00     0.041 H 
ATOM     95  H   MET d   1     121.923 233.390  40.440  0.00  0.00     0.041 H 
ENDBRANCH  91  92
ENDBRANCH  88  91
ENDBRANCH  85  88
ENDBRANCH  54  85
ENDBRANCH  52  54
ENDBRANCH   1  50
BRANCH   1  96
ATOM     96  CB  VAL d   1     125.945 224.632  38.122  0.00  0.00    -0.033 C 
ATOM     97  H   VAL d   1     126.991 224.969  38.160  0.00  0.00     0.042 H 
BRANCH  96  98
ATOM     98  CG1 VAL d   1     125.890 223.183  38.583  0.00  0.00    -0.071 C 
ATOM     99  H   VAL d   1     126.488 222.559  37.902  0.00  0.00     0.028 H 
ATOM    100  H   VAL d   1     124.846 222.836  38.578  0.00  0.00     0.028 H 
ATOM    101  H   VAL d   1     126.296 223.107  39.602  0.00  0.00     0.028 H 
ENDBRANCH  96  98
BRANCH  96 102
ATOM    102  CG2 VAL d   1     125.460 224.740  36.688  0.00  0.00    -0.071 C 
ATOM    103  H   VAL d   1     125.504 225.790  36.364  0.00  0.00     0.028 H 
ATOM    104  H   VAL d   1     124.423 224.379  36.623  0.00  0.00     0.028 H 
ATOM    105  H   VAL d   1     126.102 224.129  36.037  0.00  0.00     0.028 H 
ENDBRANCH  96 102
ENDBRANCH   1  96
TORSDOF 33
