REMARK  3 active torsions:
REMARK  status: ('A' for Active; 'I' for Inactive)
REMARK    1  A    between atoms: C3_3  and  O3_4 
REMARK    2  A    between atoms: C13_14  and  C18_20 
REMARK    3  A    between atoms: C17_18  and  O17_19 
ROOT
ATOM      1  C1  EST d   1      23.779  -2.525   4.050  0.00  0.00    -0.073 A 
ATOM      2  C2  EST d   1      22.989  -2.319   2.703  0.00  0.00    -0.051 A 
ATOM      3  C3  EST d   1      21.574  -2.423   2.815  0.00  0.00     0.066 A 
ATOM      4  C4  EST d   1      20.927  -2.824   3.994  0.00  0.00    -0.044 A 
ATOM      5  C5  EST d   1      21.709  -3.002   5.180  0.00  0.00    -0.049 A 
ATOM      6  C6  EST d   1      21.049  -3.362   6.664  0.00  0.00    -0.040 C 
ATOM      7  C7  EST d   1      22.053  -3.912   7.660  0.00  0.00    -0.057 C 
ATOM      8  C8  EST d   1      23.304  -3.054   7.743  0.00  0.00    -0.042 C 
ATOM      9  C9  EST d   1      24.129  -3.196   6.434  0.00  0.00    -0.024 C 
ATOM     10  C10 EST d   1      23.259  -2.885   5.269  0.00  0.00    -0.047 A 
ATOM     11  C11 EST d   1      25.364  -2.263   6.537  0.00  0.00    -0.057 C 
ATOM     12  C12 EST d   1      26.271  -2.793   7.731  0.00  0.00    -0.055 C 
ATOM     13  C13 EST d   1      25.468  -2.813   9.049  0.00  0.00    -0.014 C 
ATOM     14  C14 EST d   1      24.181  -3.628   8.852  0.00  0.00    -0.041 C 
ATOM     15  C15 EST d   1      23.611  -3.724  10.285  0.00  0.00    -0.058 C 
ATOM     16  C16 EST d   1      24.894  -3.782  11.189  0.00  0.00    -0.040 C 
ATOM     17  C17 EST d   1      26.083  -3.540  10.248  0.00  0.00     0.043 C 
ATOM     18  H1  EST d   1      24.850  -2.365   4.011  0.00  0.00     0.084 H 
ATOM     19  H2  EST d   1      23.486  -2.114   1.762  0.00  0.00     0.087 H 
ATOM     20  H4  EST d   1      19.857  -2.995   4.006  0.00  0.00     0.088 H 
ATOM     21  H5  EST d   1      20.257  -4.111   6.519  0.00  0.00     0.040 H 
ATOM     22  H6  EST d   1      20.613  -2.443   7.082  0.00  0.00     0.040 H 
ATOM     23  H7  EST d   1      22.340  -4.928   7.351  0.00  0.00     0.034 H 
ATOM     24  H8  EST d   1      21.583  -3.950   8.654  0.00  0.00     0.034 H 
ATOM     25  H9  EST d   1      23.044  -2.003   7.936  0.00  0.00     0.041 H 
ATOM     26  H10 EST d   1      24.481  -4.234   6.336  0.00  0.00     0.048 H 
ATOM     27  H11 EST d   1      25.039  -1.232   6.742  0.00  0.00     0.034 H 
ATOM     28  H12 EST d   1      25.932  -2.288   5.595  0.00  0.00     0.034 H 
ATOM     29  H13 EST d   1      27.141  -2.130   7.847  0.00  0.00     0.034 H 
ATOM     30  H14 EST d   1      26.614  -3.812   7.500  0.00  0.00     0.034 H 
ATOM     31  H15 EST d   1      24.446  -4.646   8.530  0.00  0.00     0.042 H 
ATOM     32  H16 EST d   1      23.004  -4.633  10.406  0.00  0.00     0.033 H 
ATOM     33  H17 EST d   1      23.001  -2.841  10.525  0.00  0.00     0.033 H 
ATOM     34  H18 EST d   1      24.980  -4.768  11.668  0.00  0.00     0.036 H 
ATOM     35  H19 EST d   1      24.853  -3.001  11.962  0.00  0.00     0.036 H 
ATOM     36  H20 EST d   1      26.506  -4.503   9.925  0.00  0.00     0.084 H 
ENDROOT
BRANCH  13  37
ATOM     37  C18 EST d   1      25.141  -1.376   9.496  0.00  0.00    -0.066 C 
ATOM     38  H22 EST d   1      24.696  -0.823   8.656  0.00  0.00     0.028 H 
ATOM     39  H23 EST d   1      26.065  -0.873   9.818  0.00  0.00     0.028 H 
ATOM     40  H24 EST d   1      24.429  -1.406  10.334  0.00  0.00     0.028 H 
ENDBRANCH  13  37
BRANCH  17  41
ATOM     41  O17 EST d   1      27.120  -2.780  10.866  0.00  0.00    -0.395 OA
ATOM     42  H21 EST d   1      27.440  -3.245  11.630  0.00  0.00     0.210 HD
ENDBRANCH  17  41
BRANCH   3  43
ATOM     43  O3  EST d   1      20.829  -2.093   1.767  0.00  0.00    -0.361 OA
ATOM     44  H3  EST d   1      20.988  -1.184   1.540  0.00  0.00     0.217 HD
ENDBRANCH   3  43
TORSDOF 3
