REMARK  8 active torsions:
REMARK  status: ('A' for Active; 'I' for Inactive)
REMARK    1  A    between atoms: C7_4  and  S_19 
REMARK    2  A    between atoms: O1_17  and  C16_10 
REMARK    3  A    between atoms: O2_12  and  C17_11 
REMARK    4  A    between atoms: C12_13  and  O2_12 
REMARK    5  A    between atoms: C15_16  and  O1_17 
REMARK    6  A    between atoms: S_19  and  C10_18 
REMARK    7  A    between atoms: C5_22  and  C3_23 
REMARK    8  A    between atoms: N1_25  and  C1_26 
ROOT
ATOM      1  N3  2YK d   1       9.365 -11.398  16.279  0.00  0.00    -0.127 NA
ATOM      2  C7  2YK d   1       9.632  -8.628  12.807  0.00  0.00     0.119 A 
ATOM      3  C6  2YK d   1      10.335 -10.818  14.398  0.00  0.00     0.175 A 
ATOM      4  C9  2YK d   1      11.096 -10.591  13.214  0.00  0.00    -0.032 A 
ATOM      5  C8  2YK d   1      10.748  -9.505  12.426  0.00  0.00    -0.043 A 
ATOM      6  N5  2YK d   1       9.280  -9.876  14.667  0.00  0.00    -0.192 N 
ATOM      7  N4  2YK d   1      10.341 -11.733  15.401  0.00  0.00    -0.128 NA
ATOM      8  N6  2YK d   1       8.942  -8.841  13.897  0.00  0.00    -0.157 NA
ATOM      9  C5  2YK d   1       8.708 -10.254  15.868  0.00  0.00     0.188 A 
ATOM     10  H   2YK d   1      11.921 -11.247  12.939  0.00  0.00     0.089 H 
ATOM     11  H   2YK d   1      11.308  -9.299  11.515  0.00  0.00     0.088 H 
ENDROOT
BRANCH   2  12
ATOM     12  S   2YK d   1       9.085  -7.166  11.855  0.00  0.00    -0.066 SA
BRANCH  12  13
ATOM     13  C10 2YK d   1       7.732  -6.357  12.747  0.00  0.00     0.043 A 
ATOM     14  C11 2YK d   1       6.433  -6.249  12.125  0.00  0.00    -0.032 A 
ATOM     15  C12 2YK d   1       5.331  -5.679  12.859  0.00  0.00     0.069 A 
ATOM     16  H   2YK d   1       6.287  -6.596  11.108  0.00  0.00     0.090 H 
ATOM     17  C13 2YK d   1       5.516  -5.217  14.166  0.00  0.00    -0.048 A 
ATOM     18  C14 2YK d   1       6.739  -5.265  14.766  0.00  0.00    -0.047 A 
ATOM     19  H   2YK d   1       4.671  -4.813  14.712  0.00  0.00     0.087 H 
ATOM     20  C15 2YK d   1       7.855  -5.820  14.089  0.00  0.00     0.085 A 
ATOM     21  H   2YK d   1       6.860  -4.875  15.770  0.00  0.00     0.087 H 
BRANCH  15  22
ATOM     22  O2  2YK d   1       3.981  -5.466  12.547  0.00  0.00    -0.356 OA
BRANCH  22  23
ATOM     23  C17 2YK d   1       3.343  -5.842  11.376  0.00  0.00     0.010 C 
ATOM     24  H   2YK d   1       2.286  -5.540  11.421  0.00  0.00     0.066 H 
ATOM     25  H   2YK d   1       3.408  -6.934  11.257  0.00  0.00     0.066 H 
ATOM     26  H   2YK d   1       3.828  -5.350  10.520  0.00  0.00     0.066 H 
ENDBRANCH  22  23
ENDBRANCH  15  22
BRANCH  20  27
ATOM     27  O1  2YK d   1       9.054  -5.763  14.754  0.00  0.00    -0.355 OA
BRANCH  27  28
ATOM     28  C16 2YK d   1       8.943  -5.488  16.150  0.00  0.00     0.010 C 
ATOM     29  H   2YK d   1       9.947  -5.461  16.599  0.00  0.00     0.066 H 
ATOM     30  H   2YK d   1       8.346  -6.276  16.633  0.00  0.00     0.066 H 
ATOM     31  H   2YK d   1       8.450  -4.515  16.294  0.00  0.00     0.066 H 
ENDBRANCH  27  28
ENDBRANCH  20  27
ENDBRANCH  12  13
ENDBRANCH   2  12
BRANCH   9  32
ATOM     32  C3  2YK d   1       7.653  -9.560  16.504  0.00  0.00     0.050 A 
ATOM     33  C4  2YK d   1       7.251  -9.808  17.842  0.00  0.00     0.037 A 
ATOM     34  N2  2YK d   1       6.239  -8.996  18.182  0.00  0.00    -0.185 NA
ATOM     35  H   2YK d   1       7.700 -10.551  18.499  0.00  0.00     0.118 H 
ATOM     36  N1  2YK d   1       5.987  -8.217  17.071  0.00  0.00    -0.285 N 
ATOM     37  C2  2YK d   1       6.829  -8.498  16.021  0.00  0.00     0.013 A 
ATOM     38  H   2YK d   1       6.861  -8.020  15.043  0.00  0.00     0.115 H 
BRANCH  36  39
ATOM     39  C1  2YK d   1       4.898  -7.249  17.097  0.00  0.00     0.002 C 
ATOM     40  H   2YK d   1       4.850  -6.725  16.131  0.00  0.00     0.059 H 
ATOM     41  H   2YK d   1       5.075  -6.519  17.901  0.00  0.00     0.059 H 
ATOM     42  H   2YK d   1       3.947  -7.771  17.279  0.00  0.00     0.059 H 
ENDBRANCH  36  39
ENDBRANCH   9  32
TORSDOF 8
