REMARK  7 active torsions:
REMARK  status: ('A' for Active; 'I' for Inactive)
REMARK    1  A    between atoms: CAU_8  and  CAM_9 
REMARK    2  A    between atoms: CAM_9  and  NAN_10 
REMARK    3  A    between atoms: NAN_10  and  CAK_11 
REMARK    4  A    between atoms: CAK_11  and  CAJ_12 
REMARK    5  A    between atoms: CAJ_12  and  CAL_13 
REMARK    6  A    between atoms: CAL_13  and  NAO_14 
REMARK       I    between atoms: NAO_14  and  CAR_15 
REMARK       I    between atoms: CAR_15  and  NAP_17 
REMARK    7  A    between atoms: NAP_17  and  CAV_18 
ROOT
ATOM      1  CAK 43E d   1      30.535   7.327  12.884  0.00  0.00     0.083 C 
ATOM      2  H8  43E d   1      31.371   7.566  12.210  0.00  0.00     0.075 H 
ATOM      3  H9  43E d   1      29.598   7.296  12.309  0.00  0.00     0.075 H 
ENDROOT
BRANCH   1   4
ATOM      4  NAN 43E d   1      30.435   8.364  13.922  0.00  0.00    -0.071 N 
ATOM      5  H6  43E d   1      29.546   8.260  14.385  0.00  0.00     0.277 HD
ATOM      6  H7  43E d   1      31.179   8.217  14.586  0.00  0.00     0.277 HD
BRANCH   4   7
ATOM      7  CAM 43E d   1      30.532   9.726  13.427  0.00  0.00     0.105 C 
ATOM      8  H4  43E d   1      30.764  10.387  14.275  0.00  0.00     0.083 H 
ATOM      9  H5  43E d   1      31.351   9.770  12.694  0.00  0.00     0.083 H 
BRANCH   7  10
ATOM     10  CAU 43E d   1      29.226  10.247  12.739  0.00  0.00    -0.029 A 
ATOM     11  CAH 43E d   1      29.210  10.161  11.340  0.00  0.00    -0.054 A 
ATOM     12  CAS 43E d   1      28.073  10.621  10.676  0.00  0.00     0.036 A 
ATOM     13  H1  43E d   1      30.052   9.751  10.793  0.00  0.00     0.086 H 
ATOM     14 CLB  43E d   1      27.996  10.541   8.977  0.00  0.00    -0.084 Cl
ATOM     15  CAG 43E d   1      26.964  11.164  11.340  0.00  0.00    -0.041 A 
ATOM     16  CAT 43E d   1      26.942  11.255  12.742  0.00  0.00     0.036 A 
ATOM     17  H2  43E d   1      26.115  11.517  10.766  0.00  0.00     0.088 H 
ATOM     18 CLC  43E d   1      25.456  11.976  13.459  0.00  0.00    -0.084 Cl
ATOM     19  CAI 43E d   1      28.111  10.777  13.430  0.00  0.00    -0.054 A 
ATOM     20  H3  43E d   1      28.139  10.824  14.513  0.00  0.00     0.086 H 
ENDBRANCH   7  10
ENDBRANCH   4   7
ENDBRANCH   1   4
BRANCH   1  21
ATOM     21  CAJ 43E d   1      30.785   5.930  13.543  0.00  0.00    -0.028 C 
ATOM     22  H10 43E d   1      30.038   5.788  14.338  0.00  0.00     0.037 H 
ATOM     23  H11 43E d   1      31.793   5.935  13.983  0.00  0.00     0.037 H 
BRANCH  21  24
ATOM     24  CAL 43E d   1      30.689   4.727  12.572  0.00  0.00    -0.002 C 
ATOM     25  H12 43E d   1      31.093   3.826  13.057  0.00  0.00     0.064 H 
ATOM     26  H13 43E d   1      31.264   4.941  11.659  0.00  0.00     0.064 H 
BRANCH  24  27
ATOM     27  NAO 43E d   1      29.319   4.520  12.240  0.00  0.00    -0.343 N 
ATOM     28  CAR 43E d   1      28.936   3.696  11.158  0.00  0.00     0.320 C 
ATOM     29  OAA 43E d   1      29.782   3.135  10.493  0.00  0.00    -0.247 OA
ATOM     30  NAP 43E d   1      27.528   3.547  10.945  0.00  0.00    -0.308 N 
ATOM     31  H15 43E d   1      26.905   4.002  11.582  0.00  0.00     0.170 HD
ATOM     32  H14 43E d   1      28.611   4.969  12.786  0.00  0.00     0.164 HD
BRANCH  30  33
ATOM     33  CAV 43E d   1      26.966   2.797   9.890  0.00  0.00     0.043 A 
ATOM     34  CAE 43E d   1      25.453   2.881   9.550  0.00  0.00    -0.050 A 
ATOM     35  CAD 43E d   1      25.201   2.047   8.393  0.00  0.00    -0.043 A 
ATOM     36  H16 43E d   1      24.709   3.466  10.089  0.00  0.00     0.087 H 
ATOM     37  SAQ 43E d   1      26.586   1.334   7.887  0.00  0.00    -0.111 SA
ATOM     38  H17 43E d   1      24.227   1.913   7.925  0.00  0.00     0.095 H 
ATOM     39  CAF 43E d   1      27.664   1.922   8.947  0.00  0.00    -0.019 A 
ATOM     40  H18 43E d   1      28.730   1.702   8.956  0.00  0.00     0.098 H 
ENDBRANCH  30  33
ENDBRANCH  24  27
ENDBRANCH  21  24
ENDBRANCH   1  21
TORSDOF 7
