REMARK  8 active torsions:
REMARK  status: ('A' for Active; 'I' for Inactive)
REMARK    1  A    between atoms: C06_6  and  C10_10 
REMARK    2  A    between atoms: C08_8  and  N14_14 
REMARK       I    between atoms: C10_10  and  N12_12 
REMARK    3  A    between atoms: N14_14  and  C15_15 
REMARK    4  A    between atoms: C18_18  and  C21_21 
REMARK    5  A    between atoms: C21_21  and  C22_22 
REMARK    6  A    between atoms: C21_21  and  N23_23 
REMARK    7  A    between atoms: N23_23  and  C24_24 
REMARK    8  A    between atoms: N23_23  and  C25_25 
ROOT
ATOM      1  C15 XL2 d   1     -22.369 -13.205  13.835  0.00  0.00     0.034 A 
ATOM      2  C16 XL2 d   1     -21.239 -14.071  13.831  0.00  0.00    -0.057 A 
ATOM      3  C17 XL2 d   1     -20.498 -14.239  15.003  0.00  0.00    -0.073 A 
ATOM      4  C18 XL2 d   1     -20.871 -13.553  16.201  0.00  0.00    -0.028 A 
ATOM      5  C19 XL2 d   1     -21.974 -12.718  16.189  0.00  0.00    -0.073 A 
ATOM      6  C20 XL2 d   1     -22.749 -12.541  14.980  0.00  0.00    -0.057 A 
ATOM      7  H6  XL2 d   1     -20.956 -14.596  12.926  0.00  0.00     0.086 H 
ATOM      8  H7  XL2 d   1     -19.634 -14.894  15.005  0.00  0.00     0.084 H 
ATOM      9  H8  XL2 d   1     -22.260 -12.192  17.093  0.00  0.00     0.084 H 
ATOM     10  H9  XL2 d   1     -23.618 -11.893  14.976  0.00  0.00     0.086 H 
ENDROOT
BRANCH   1  11
ATOM     11  N14 XL2 d   1     -23.118 -13.060  12.658  0.00  0.00    -0.335 N 
ATOM     12  H5  XL2 d   1     -23.462 -13.915  12.197  0.00  0.00     0.168 HD
BRANCH  11  13
ATOM     13  C08 XL2 d   1     -23.442 -11.774  12.044  0.00  0.00     0.172 A 
ATOM     14  S07 XL2 d   1     -24.027 -11.633  10.451  0.00  0.00    -0.050 SA
ATOM     15  C04 XL2 d   1     -24.197  -9.927  10.377  0.00  0.00     0.041 A 
ATOM     16  C03 XL2 d   1     -24.627  -9.038   9.359  0.00  0.00    -0.027 A 
ATOM     17  C05 XL2 d   1     -23.777  -9.457  11.665  0.00  0.00     0.092 A 
ATOM     18  C02 XL2 d   1     -24.660  -7.643   9.600  0.00  0.00     0.118 A 
ATOM     19  H2  XL2 d   1     -24.931  -9.427   8.394  0.00  0.00     0.090 H 
ATOM     20  C01 XL2 d   1     -24.251  -7.150  10.883  0.00  0.00    -0.028 A 
ATOM     21  F13 XL2 d   1     -25.068  -6.828   8.620  0.00  0.00    -0.206 F 
ATOM     22  C06 XL2 d   1     -23.815  -8.055  11.904  0.00  0.00     0.065 A 
ATOM     23  H1  XL2 d   1     -24.272  -6.085  11.082  0.00  0.00     0.089 H 
ATOM     24  N09 XL2 d   1     -23.378 -10.477  12.553  0.00  0.00    -0.222 NA
BRANCH  22  25
ATOM     25  C10 XL2 d   1     -23.387  -7.505  13.236  0.00  0.00     0.251 C 
ATOM     26  O11 XL2 d   1     -23.005  -8.262  14.083  0.00  0.00    -0.268 OA
ATOM     27  N12 XL2 d   1     -23.423  -6.123  13.455  0.00  0.00    -0.366 N 
ATOM     28  H3  XL2 d   1     -23.140  -5.749  14.338  0.00  0.00     0.159 HD
ATOM     29  H4  XL2 d   1     -23.732  -5.510  12.728  0.00  0.00     0.159 HD
ENDBRANCH  22  25
ENDBRANCH  11  13
ENDBRANCH   1  11
BRANCH   4  30
ATOM     30  C21 XL2 d   1     -20.056 -13.736  17.465  0.00  0.00     0.125 C 
ATOM     31  H10 XL2 d   1     -19.135 -13.143  17.359  0.00  0.00     0.091 H 
BRANCH  30  32
ATOM     32  C22 XL2 d   1     -20.842 -13.138  18.584  0.00  0.00    -0.045 C 
ATOM     33  H11 XL2 d   1     -21.112 -12.102  18.330  0.00  0.00     0.030 H 
ATOM     34  H12 XL2 d   1     -20.236 -13.144  19.502  0.00  0.00     0.030 H 
ATOM     35  H13 XL2 d   1     -21.757 -13.727  18.745  0.00  0.00     0.030 H 
ENDBRANCH  30  32
BRANCH  30  36
ATOM     36  N23 XL2 d   1     -19.630 -15.114  17.670  0.00  0.00    -0.071 N 
ATOM     37  H14 XL2 d   1     -20.270 -15.709  17.167  0.00  0.00     0.279 HD
BRANCH  36  38
ATOM     38  C24 XL2 d   1     -19.618 -15.506  19.040  0.00  0.00     0.067 C 
ATOM     39  H15 XL2 d   1     -19.288 -16.552  19.119  0.00  0.00     0.068 H 
ATOM     40  H16 XL2 d   1     -20.631 -15.408  19.458  0.00  0.00     0.068 H 
ATOM     41  H17 XL2 d   1     -18.926 -14.860  19.600  0.00  0.00     0.068 H 
ENDBRANCH  36  38
BRANCH  36  42
ATOM     42  C25 XL2 d   1     -18.258 -15.347  17.171  0.00  0.00     0.067 C 
ATOM     43  H18 XL2 d   1     -18.200 -15.062  16.110  0.00  0.00     0.068 H 
ATOM     44  H19 XL2 d   1     -18.005 -16.412  17.279  0.00  0.00     0.068 H 
ATOM     45  H20 XL2 d   1     -17.548 -14.741  17.753  0.00  0.00     0.068 H 
ENDBRANCH  36  42
ENDBRANCH  30  36
ENDBRANCH   4  30
TORSDOF 8
