REMARK  11 active torsions:
REMARK  status: ('A' for Active; 'I' for Inactive)
REMARK    1  A    between atoms: N_1  and  CA_2 
REMARK    2  A    between atoms: CA_2  and  CB_3 
REMARK    3  A    between atoms: CA_2  and  C_6 
REMARK    4  A    between atoms: CB_3  and  CG_4 
REMARK    5  A    between atoms: CG_4  and  SD_5 
REMARK    6  A    between atoms: SD_5  and  C5'_9 
REMARK    7  A    between atoms: C5'_9  and  C4'_10 
REMARK    8  A    between atoms: C3'_12  and  O3'_13 
REMARK    9  A    between atoms: C2'_14  and  O2'_15 
REMARK   10  A    between atoms: C1'_16  and  N9_17 
REMARK   11  A    between atoms: C6_21  and  N6_22 
ROOT
ATOM      1  C4' SAH d   1     -16.107 -12.282  15.621  0.00  0.00     0.076 C 
ATOM      2  O4' SAH d   1     -16.571 -13.342  16.469  0.00  0.00    -0.355 OA
ATOM      3  C3' SAH d   1     -17.201 -12.030  14.579  0.00  0.00     0.090 C 
ATOM      4  C2' SAH d   1     -18.322 -13.001  15.041  0.00  0.00     0.105 C 
ATOM      5  C1' SAH d   1     -17.548 -14.085  15.757  0.00  0.00     0.139 C 
ATOM      6  H   SAH d   1     -15.183 -12.580  15.104  0.00  0.00     0.088 H 
ATOM      7  H   SAH d   1     -17.550 -10.989  14.646  0.00  0.00     0.091 H 
ATOM      8  H   SAH d   1     -18.988 -12.485  15.748  0.00  0.00     0.093 H 
ATOM      9  H   SAH d   1     -17.096 -14.776  15.030  0.00  0.00     0.122 H 
ENDROOT
BRANCH   1  10
ATOM     10  C5' SAH d   1     -15.804 -11.075  16.532  0.00  0.00     0.003 C 
ATOM     11  H   SAH d   1     -16.759 -10.639  16.861  0.00  0.00     0.052 H 
ATOM     12  H   SAH d   1     -15.243 -11.432  17.408  0.00  0.00     0.052 H 
BRANCH  10  13
ATOM     13  SD  SAH d   1     -14.839  -9.788  15.724  0.00  0.00    -0.166 SA
BRANCH  13  14
ATOM     14  CG  SAH d   1     -13.266 -10.636  15.545  0.00  0.00    -0.021 C 
ATOM     15  H   SAH d   1     -12.981 -11.088  16.506  0.00  0.00     0.049 H 
ATOM     16  H   SAH d   1     -13.358 -11.424  14.783  0.00  0.00     0.049 H 
BRANCH  14  17
ATOM     17  CB  SAH d   1     -12.207  -9.643  15.120  0.00  0.00    -0.021 C 
ATOM     18  H   SAH d   1     -12.599  -9.056  14.276  0.00  0.00     0.037 H 
ATOM     19  H   SAH d   1     -11.999  -8.973  15.967  0.00  0.00     0.037 H 
BRANCH  17  20
ATOM     20  CA  SAH d   1     -10.882 -10.301  14.682  0.00  0.00     0.183 C 
ATOM     21  H   SAH d   1     -11.068 -10.877  13.764  0.00  0.00     0.101 H 
BRANCH  20  22
ATOM     22  N   SAH d   1     -10.355 -11.221  15.712  0.00  0.00    -0.065 N 
ATOM     23  H   SAH d   1     -11.040 -11.934  15.908  0.00  0.00     0.275 HD
ATOM     24  H   SAH d   1     -10.157 -10.704  16.554  0.00  0.00     0.275 HD
ATOM     25  H   SAH d   1      -9.508 -11.653  15.376  0.00  0.00     0.275 HD
ENDBRANCH  20  22
BRANCH  20  26
ATOM     26  C   SAH d   1      -9.847  -9.227  14.387  0.00  0.00     0.204 C 
ATOM     27  O   SAH d   1      -9.900  -8.693  13.281  0.00  0.00    -0.646 OA
ATOM     28  OXT SAH d   1      -9.019  -8.902  15.256  0.00  0.00    -0.646 OA
ENDBRANCH  20  26
ENDBRANCH  17  20
ENDBRANCH  14  17
ENDBRANCH  13  14
ENDBRANCH  10  13
ENDBRANCH   1  10
BRANCH   3  29
ATOM     29  O3' SAH d   1     -16.782 -12.266  13.229  0.00  0.00    -0.390 OA
ATOM     30  H   SAH d   1     -16.508 -13.171  13.137  0.00  0.00     0.210 HD
ENDBRANCH   3  29
BRANCH   5  31
ATOM     31  N9  SAH d   1     -18.309 -14.850  16.752  0.00  0.00    -0.294 N 
ATOM     32  C8  SAH d   1     -19.210 -14.339  17.640  0.00  0.00     0.071 A 
ATOM     33  N7  SAH d   1     -19.619 -15.303  18.503  0.00  0.00    -0.236 NA
ATOM     34  H   SAH d   1     -19.552 -13.305  17.654  0.00  0.00     0.144 H 
ATOM     35  C5  SAH d   1     -18.956 -16.444  18.105  0.00  0.00     0.149 A 
ATOM     36  C6  SAH d   1     -18.945 -17.773  18.592  0.00  0.00     0.155 A 
ATOM     37  C4  SAH d   1     -18.136 -16.156  16.992  0.00  0.00     0.167 A 
ATOM     38  N1  SAH d   1     -18.167 -18.654  17.967  0.00  0.00    -0.222 NA
ATOM     39  C2  SAH d   1     -17.436 -18.264  16.907  0.00  0.00     0.091 A 
ATOM     40  N3  SAH d   1     -17.368 -17.040  16.365  0.00  0.00    -0.222 NA
ATOM     41  H   SAH d   1     -16.831 -19.030  16.436  0.00  0.00     0.146 H 
BRANCH  36  42
ATOM     42  N6  SAH d   1     -19.704 -18.161  19.654  0.00  0.00    -0.382 N 
ATOM     43  H   SAH d   1     -19.671 -19.137  19.982  0.00  0.00     0.157 HD
ATOM     44  H   SAH d   1     -20.311 -17.479  20.130  0.00  0.00     0.157 HD
ENDBRANCH  36  42
ENDBRANCH   5  31
BRANCH   4  45
ATOM     45  O2' SAH d   1     -19.134 -13.524  13.978  0.00  0.00    -0.388 OA
ATOM     46  H   SAH d   1     -18.585 -14.005  13.369  0.00  0.00     0.210 HD
ENDBRANCH   4  45
TORSDOF 11
