REMARK  10 active torsions:
REMARK  status: ('A' for Active; 'I' for Inactive)
REMARK    1  A    between atoms: N_1  and  CA_2 
REMARK    2  A    between atoms: CA_2  and  CB_3 
REMARK    3  A    between atoms: CA_2  and  C_6 
REMARK    4  A    between atoms: CB_3  and  CG_4 
REMARK    5  A    between atoms: CG_4  and  SD_5 
REMARK    6  A    between atoms: SD_5  and  C5'_9 
REMARK    7  A    between atoms: C5'_9  and  C4'_10 
REMARK    8  A    between atoms: C3'_12  and  O3'_13 
REMARK    9  A    between atoms: C2'_14  and  O2'_15 
REMARK   10  A    between atoms: C1'_16  and  N9_17 
ROOT
ATOM      1  C4' SAH d   1      10.544  -0.604 -37.470  0.00  0.00     0.076 C 
ATOM      2  O4' SAH d   1       9.931  -1.856 -37.726  0.00  0.00    -0.355 OA
ATOM      3  C3' SAH d   1      11.247  -0.204 -38.749  0.00  0.00     0.090 C 
ATOM      4  C2' SAH d   1      10.851  -1.246 -39.774  0.00  0.00     0.105 C 
ATOM      5  C1' SAH d   1      10.440  -2.422 -38.917  0.00  0.00     0.139 C 
ATOM      6  H   SAH d   1      11.290  -0.713 -36.669  0.00  0.00     0.088 H 
ATOM      7  H   SAH d   1      10.957   0.805 -39.077  0.00  0.00     0.091 H 
ATOM      8  H   SAH d   1      10.015  -0.893 -40.396  0.00  0.00     0.093 H 
ATOM      9  H   SAH d   1      11.318  -3.051 -38.709  0.00  0.00     0.122 H 
ENDROOT
BRANCH   1  10
ATOM     10  C5' SAH d   1       9.501   0.409 -37.019  0.00  0.00     0.003 C 
ATOM     11  H   SAH d   1       8.943   0.770 -37.895  0.00  0.00     0.052 H 
ATOM     12  H   SAH d   1       8.807  -0.074 -36.316  0.00  0.00     0.052 H 
BRANCH  10  13
ATOM     13  SD  SAH d   1      10.277   1.770 -36.225  0.00  0.00    -0.166 SA
BRANCH  13  14
ATOM     14  CG  SAH d   1      10.449   1.060 -34.624  0.00  0.00    -0.021 C 
ATOM     15  H   SAH d   1       9.451   0.816 -34.231  0.00  0.00     0.049 H 
ATOM     16  H   SAH d   1      11.047   0.140 -34.702  0.00  0.00     0.049 H 
BRANCH  14  17
ATOM     17  CB  SAH d   1      11.138   2.020 -33.666  0.00  0.00    -0.021 C 
ATOM     18  H   SAH d   1      11.991   2.482 -34.185  0.00  0.00     0.037 H 
ATOM     19  H   SAH d   1      10.420   2.801 -33.375  0.00  0.00     0.037 H 
BRANCH  17  20
ATOM     20  CA  SAH d   1      11.650   1.337 -32.404  0.00  0.00     0.183 C 
ATOM     21  H   SAH d   1      12.473   0.657 -32.668  0.00  0.00     0.101 H 
BRANCH  20  22
ATOM     22  N   SAH d   1      10.597   0.584 -31.759  0.00  0.00    -0.065 N 
ATOM     23  H   SAH d   1      10.256  -0.124 -32.390  0.00  0.00     0.275 HD
ATOM     24  H   SAH d   1       9.843   1.205 -31.512  0.00  0.00     0.275 HD
ATOM     25  H   SAH d   1      10.959   0.146 -30.926  0.00  0.00     0.275 HD
ENDBRANCH  20  22
BRANCH  20  26
ATOM     26  C   SAH d   1      12.145   2.384 -31.455  0.00  0.00     0.204 C 
ATOM     27  O   SAH d   1      11.417   2.716 -30.503  0.00  0.00    -0.646 OA
ATOM     28  OXT SAH d   1      13.262   2.892 -31.653  0.00  0.00    -0.646 OA
ENDBRANCH  20  26
ENDBRANCH  17  20
ENDBRANCH  14  17
ENDBRANCH  13  14
ENDBRANCH  10  13
ENDBRANCH   1  10
BRANCH   3  29
ATOM     29  O3' SAH d   1      12.639  -0.271 -38.494  0.00  0.00    -0.390 OA
ATOM     30  H   SAH d   1      12.872  -1.158 -38.245  0.00  0.00     0.210 HD
ENDBRANCH   3  29
BRANCH   5  31
ATOM     31  N9  SAH d   1       9.378  -3.255 -39.508  0.00  0.00    -0.294 N 
ATOM     32  C8  SAH d   1       8.330  -2.850 -40.223  0.00  0.00     0.071 A 
ATOM     33  N7  SAH d   1       7.561  -3.892 -40.583  0.00  0.00    -0.236 NA
ATOM     34  H   SAH d   1       8.123  -1.812 -40.482  0.00  0.00     0.144 H 
ATOM     35  C5  SAH d   1       8.121  -4.998 -40.089  0.00  0.00     0.149 A 
ATOM     36  C6  SAH d   1       7.831  -6.444 -40.090  0.00  0.00     0.155 A 
ATOM     37  C4  SAH d   1       9.317  -4.566 -39.382  0.00  0.00     0.167 A 
ATOM     38  N6  SAH d   1       6.757  -6.950 -40.712  0.00  0.00    -0.382 N 
ATOM     39  N1  SAH d   1       8.683  -7.250 -39.450  0.00  0.00    -0.222 NA
ATOM     40  H   SAH d   1       6.582  -7.965 -40.694  0.00  0.00     0.157 HD
ATOM     41  H   SAH d   1       6.106  -6.324 -41.208  0.00  0.00     0.157 HD
ATOM     42  C2  SAH d   1       9.760  -6.779 -38.826  0.00  0.00     0.091 A 
ATOM     43  N3  SAH d   1      10.077  -5.487 -38.780  0.00  0.00    -0.222 NA
ATOM     44  H   SAH d   1      10.414  -7.486 -38.328  0.00  0.00     0.146 H 
ENDBRANCH   5  31
BRANCH   4  45
ATOM     45  O2' SAH d   1      11.947  -1.597 -40.603  0.00  0.00    -0.388 OA
ATOM     46  H   SAH d   1      12.647  -1.950 -40.067  0.00  0.00     0.210 HD
ENDBRANCH   4  45
TORSDOF 10
