REMARK  6 active torsions:
REMARK  status: ('A' for Active; 'I' for Inactive)
REMARK       I    between atoms: C1_1  and  N3_3 
REMARK       I    between atoms: N4_4  and  C1_1 
REMARK    1  A    between atoms: C5_5  and  C2_2 
REMARK    2  A    between atoms: C2_2  and  N6_6 
REMARK    3  A    between atoms: N3_3  and  C8_8 
REMARK    4  A    between atoms: C12_12  and  N4_4 
REMARK    5  A    between atoms: C16_16  and  C20_20 
REMARK    6  A    between atoms: C20_20  and  N17_17 
ROOT
ATOM      1  C1  2X1 d   1       2.676 -32.679 -34.118  0.00  0.00     0.325 C 
ATOM      2  N3  2X1 d   1       1.861 -32.659 -35.290  0.00  0.00    -0.309 N 
ATOM      3  N4  2X1 d   1       4.069 -32.576 -34.431  0.00  0.00    -0.309 N 
ATOM      4  O7  2X1 d   1       2.223 -32.759 -32.990  0.00  0.00    -0.247 OA
ATOM      5  H   2X1 d   1       2.361 -32.549 -36.149  0.00  0.00     0.170 HD
ATOM      6  H   2X1 d   1       4.292 -32.517 -35.404  0.00  0.00     0.170 HD
ENDROOT
BRANCH   2   7
ATOM      7  C8  2X1 d   1       0.441 -32.772 -35.430  0.00  0.00     0.036 A 
ATOM      8  C13 2X1 d   1      -0.057 -32.624 -36.710  0.00  0.00    -0.049 A 
ATOM      9  C16 2X1 d   1      -1.409 -32.738 -36.960  0.00  0.00    -0.031 A 
ATOM     10  H   2X1 d   1       0.623 -32.416 -37.528  0.00  0.00     0.087 H 
ATOM     11  C21 2X1 d   1      -2.282 -33.010 -35.914  0.00  0.00    -0.075 A 
ATOM     12  C18 2X1 d   1      -1.788 -33.169 -34.628  0.00  0.00    -0.080 A 
ATOM     13  H   2X1 d   1      -3.346 -33.098 -36.102  0.00  0.00     0.084 H 
ATOM     14  C19 2X1 d   1      -0.428 -33.064 -34.390  0.00  0.00    -0.057 A 
ATOM     15  H   2X1 d   1      -2.467 -33.376 -33.809  0.00  0.00     0.083 H 
ATOM     16  H   2X1 d   1      -0.042 -33.211 -33.388  0.00  0.00     0.086 H 
BRANCH   9  17
ATOM     17  C20 2X1 d   1      -1.881 -32.555 -38.368  0.00  0.00     0.103 C 
ATOM     18  H   2X1 d   1      -1.392 -33.307 -39.004  0.00  0.00     0.082 H 
ATOM     19  H   2X1 d   1      -1.597 -31.548 -38.707  0.00  0.00     0.082 H 
BRANCH  17  20
ATOM     20  N17 2X1 d   1      -3.305 -32.700 -38.496  0.00  0.00    -0.075 N 
ATOM     21  H   2X1 d   1      -3.571 -32.568 -39.459  0.00  0.00     0.274 HD
ATOM     22  H   2X1 d   1      -3.766 -32.011 -37.923  0.00  0.00     0.274 HD
ATOM     23  H   2X1 d   1      -3.577 -33.623 -38.196  0.00  0.00     0.274 HD
ENDBRANCH  17  20
ENDBRANCH   9  17
ENDBRANCH   2   7
BRANCH   3  24
ATOM     24  C12 2X1 d   1       5.176 -32.547 -33.542  0.00  0.00     0.036 A 
ATOM     25  C14 2X1 d   1       6.444 -32.338 -34.053  0.00  0.00    -0.056 A 
ATOM     26  C9  2X1 d   1       7.526 -32.295 -33.214  0.00  0.00    -0.067 A 
ATOM     27  H   2X1 d   1       6.582 -32.208 -35.120  0.00  0.00     0.086 H 
ATOM     28  C5  2X1 d   1       7.325 -32.480 -31.865  0.00  0.00     0.007 A 
ATOM     29  H   2X1 d   1       8.521 -32.119 -33.605  0.00  0.00     0.085 H 
ATOM     30  C10 2X1 d   1       6.069 -32.702 -31.342  0.00  0.00    -0.067 A 
ATOM     31  C15 2X1 d   1       4.981 -32.738 -32.188  0.00  0.00    -0.056 A 
ATOM     32  H   2X1 d   1       5.938 -32.847 -30.276  0.00  0.00     0.085 H 
ATOM     33  H   2X1 d   1       3.986 -32.914 -31.796  0.00  0.00     0.086 H 
BRANCH  28  34
ATOM     34  C2  2X1 d   1       8.489 -32.408 -30.973  0.00  0.00     0.102 C 
ATOM     35  N11 2X1 d   1       9.607 -31.950 -31.450  0.00  0.00    -0.385 N 
ATOM     36  H   2X1 d   1       9.672 -31.680 -32.442  0.00  0.00     0.157 HD
ATOM     37  H   2X1 d   1      10.429 -31.856 -30.836  0.00  0.00     0.157 HD
BRANCH  34  38
ATOM     38  N6  2X1 d   1       8.371 -32.787 -29.611  0.00  0.00    -0.385 N 
ATOM     39  H   2X1 d   1       9.190 -32.735 -28.989  0.00  0.00     0.157 HD
ATOM     40  H   2X1 d   1       7.466 -33.114 -29.244  0.00  0.00     0.157 HD
ENDBRANCH  34  38
ENDBRANCH  28  34
ENDBRANCH   3  24
TORSDOF 6
