REMARK  10 active torsions:
REMARK  status: ('A' for Active; 'I' for Inactive)
REMARK    1  A    between atoms: C1_1  and  N10_10 
REMARK    2  A    between atoms: C5_5  and  C7_7 
REMARK       I    between atoms: C7_7  and  N8_8 
REMARK    3  A    between atoms: N8_8  and  C11_11 
REMARK    4  A    between atoms: N8_8  and  C12_12 
REMARK       I    between atoms: N10_10  and  C23_23 
REMARK    5  A    between atoms: C12_12  and  C15_15 
REMARK    6  A    between atoms: C23_23  and  O25_25 
REMARK    7  A    between atoms: O25_25  and  C26_26 
REMARK    8  A    between atoms: C26_26  and  C27_27 
REMARK    9  A    between atoms: C26_26  and  C28_28 
REMARK   10  A    between atoms: C26_26  and  C29_29 
ROOT
ATOM      1  C1  2XF d   1      40.512 110.125  10.385  0.00  0.00     0.038 C 
ATOM      2  C2  2XF d   1      40.826 110.347   8.876  0.00  0.00     0.100 C 
ATOM      3  N3  2XF d   1      42.262 110.098   8.553  0.00  0.00    -0.072 N 
ATOM      4  C4  2XF d   1      42.902 108.856   9.071  0.00  0.00     0.093 C 
ATOM      5  C5  2XF d   1      42.758 108.937  10.606  0.00  0.00     0.049 C 
ATOM      6  C6  2XF d   1      41.221 108.839  10.902  0.00  0.00    -0.032 C 
ATOM      7  H   2XF d   1      40.942 110.970  10.943  0.00  0.00     0.075 H 
ATOM      8  H   2XF d   1      40.579 111.386   8.613  0.00  0.00     0.078 H 
ATOM      9  H   2XF d   1      40.206 109.661   8.281  0.00  0.00     0.078 H 
ATOM     10  H   2XF d   1      42.788 110.877   8.916  0.00  0.00     0.277 HD
ATOM     11  H   2XF d   1      42.342 110.077   7.548  0.00  0.00     0.277 HD
ATOM     12  H   2XF d   1      43.963 108.820   8.784  0.00  0.00     0.076 H 
ATOM     13  H   2XF d   1      42.387 107.965   8.682  0.00  0.00     0.076 H 
ATOM     14  H   2XF d   1      43.121 109.926  10.923  0.00  0.00     0.057 H 
ATOM     15  H   2XF d   1      40.804 107.959  10.390  0.00  0.00     0.037 H 
ATOM     16  H   2XF d   1      41.062 108.743  11.986  0.00  0.00     0.037 H 
ENDROOT
BRANCH   5  17
ATOM     17  C7  2XF d   1      43.527 107.899  11.428  0.00  0.00     0.226 C 
ATOM     18  N8  2XF d   1      44.551 108.163  12.318  0.00  0.00    -0.343 N 
ATOM     19  O9  2XF d   1      43.110 106.758  11.310  0.00  0.00    -0.273 OA
BRANCH  18  20
ATOM     20  C11 2XF d   1      45.067 109.515  12.594  0.00  0.00     0.015 A 
ATOM     21  C13 2XF d   1      46.603 109.721  12.626  0.00  0.00    -0.044 A 
ATOM     22  C14 2XF d   1      45.786 110.287  11.462  0.00  0.00    -0.044 A 
ATOM     23  H   2XF d   1      47.275 108.866  12.461  0.00  0.00     0.036 H 
ATOM     24  H   2XF d   1      47.050 110.402  13.365  0.00  0.00     0.036 H 
ATOM     25  H   2XF d   1      45.648 111.374  11.366  0.00  0.00     0.036 H 
ATOM     26  H   2XF d   1      45.873 109.838  10.461  0.00  0.00     0.036 H 
ATOM     27  H   2XF d   1      44.410 110.039  13.304  0.00  0.00     0.072 H 
ENDBRANCH  18  20
BRANCH  18  28
ATOM     28  C12 2XF d   1      44.971 107.067  13.201  0.00  0.00     0.023 C 
ATOM     29  H   2XF d   1      44.115 106.378  13.252  0.00  0.00     0.071 H 
ATOM     30  H   2XF d   1      45.134 107.523  14.189  0.00  0.00     0.071 H 
BRANCH  28  31
ATOM     31  C15 2XF d   1      46.199 106.190  12.937  0.00  0.00    -0.017 A 
ATOM     32  C16 2XF d   1      46.733 105.951  11.662  0.00  0.00    -0.073 A 
ATOM     33  C17 2XF d   1      47.820 105.059  11.533  0.00  0.00    -0.081 A 
ATOM     34  H   2XF d   1      46.318 106.443  10.790  0.00  0.00     0.084 H 
ATOM     35  C18 2XF d   1      48.375 104.398  12.645  0.00  0.00    -0.060 A 
ATOM     36  H   2XF d   1      48.239 104.878  10.550  0.00  0.00     0.083 H 
ATOM     37  C19 2XF d   1      47.817 104.607  13.914  0.00  0.00     0.056 A 
ATOM     38  H   2XF d   1      49.224 103.735  12.522  0.00  0.00     0.086 H 
ATOM     39  C20 2XF d   1      46.731 105.490  14.048  0.00  0.00     0.063 A 
ATOM     40 CL2  2XF d   1      48.446 103.758  15.324  0.00  0.00    -0.083 Cl
ATOM     41 CL1  2XF d   1      46.048 105.721  15.646  0.00  0.00    -0.082 Cl
ENDBRANCH  28  31
ENDBRANCH  18  28
ENDBRANCH   5  17
BRANCH   1  42
ATOM     42  N10 2XF d   1      39.047 110.160  10.616  0.00  0.00    -0.331 N 
ATOM     43  C23 2XF d   1      38.554 111.265  11.253  0.00  0.00     0.361 C 
ATOM     44  O24 2XF d   1      39.272 112.172  11.664  0.00  0.00    -0.238 OA
ATOM     45  H   2XF d   1      38.450 109.414  10.321  0.00  0.00     0.165 HD
BRANCH  43  46
ATOM     46  O25 2XF d   1      37.210 111.266  11.387  0.00  0.00    -0.294 OA
BRANCH  46  47
ATOM     47  C26 2XF d   1      36.472 112.397  11.985  0.00  0.00     0.061 C 
BRANCH  47  48
ATOM     48  C27 2XF d   1      36.955 112.906  13.395  0.00  0.00    -0.048 C 
ATOM     49  H   2XF d   1      36.322 113.745  13.719  0.00  0.00     0.031 H 
ATOM     50  H   2XF d   1      38.000 113.241  13.325  0.00  0.00     0.031 H 
ATOM     51  H   2XF d   1      36.880 112.087  14.126  0.00  0.00     0.031 H 
ENDBRANCH  47  48
BRANCH  47  52
ATOM     52  C28 2XF d   1      36.559 113.571  10.946  0.00  0.00    -0.048 C 
ATOM     53  H   2XF d   1      36.023 114.448  11.338  0.00  0.00     0.031 H 
ATOM     54  H   2XF d   1      36.101 113.256   9.997  0.00  0.00     0.031 H 
ATOM     55  H   2XF d   1      37.614 113.832  10.775  0.00  0.00     0.031 H 
ENDBRANCH  47  52
BRANCH  47  56
ATOM     56  C29 2XF d   1      34.964 112.038  12.125  0.00  0.00    -0.048 C 
ATOM     57  H   2XF d   1      34.425 112.887  12.571  0.00  0.00     0.031 H 
ATOM     58  H   2XF d   1      34.856 111.155  12.771  0.00  0.00     0.031 H 
ATOM     59  H   2XF d   1      34.545 111.819  11.132  0.00  0.00     0.031 H 
ENDBRANCH  47  56
ENDBRANCH  46  47
ENDBRANCH  43  46
ENDBRANCH   1  42
TORSDOF 10
