REMARK  8 active torsions:
REMARK  status: ('A' for Active; 'I' for Inactive)
REMARK    1  A    between atoms: C4_3  and  S7_4 
REMARK    2  A    between atoms: S7_4  and  N10_6 
REMARK    3  A    between atoms: C6_12  and  N19_20 
REMARK    4  A    between atoms: C1_13  and  S11_14 
REMARK    5  A    between atoms: S11_14  and  C15_17 
REMARK    6  A    between atoms: C15_17  and  C18_18 
REMARK    7  A    between atoms: C18_18  and  O21_19 
REMARK    8  A    between atoms: N19_20  and  C14_21 
ROOT
ATOM      1  F20 V14 d   1      14.412   4.917  14.180  0.00  0.00    -0.202 F 
ATOM      2  C5  V14 d   1      15.717   5.004  14.398  0.00  0.00     0.170 A 
ATOM      3  C4  V14 d   1      16.320   4.099  15.280  0.00  0.00     0.161 A 
ATOM      4  C3  V14 d   1      17.680   4.195  15.456  0.00  0.00     0.182 A 
ATOM      5  F12 V14 d   1      18.317   3.303  16.242  0.00  0.00    -0.201 F 
ATOM      6  C2  V14 d   1      18.438   5.139  14.791  0.00  0.00     0.180 A 
ATOM      7  F13 V14 d   1      19.786   5.175  15.024  0.00  0.00    -0.201 F 
ATOM      8  C6  V14 d   1      16.453   5.964  13.698  0.00  0.00     0.094 A 
ATOM      9  C1  V14 d   1      17.843   6.033  13.901  0.00  0.00     0.130 A 
ENDROOT
BRANCH   8  10
ATOM     10  N19 V14 d   1      15.736   6.818  12.785  0.00  0.00    -0.382 N 
ATOM     11  H8  V14 d   1      15.981   6.815  11.784  0.00  0.00     0.160 HD
BRANCH  10  12
ATOM     12  C14 V14 d   1      14.693   7.665  13.254  0.00  0.00     0.010 C 
ATOM     13  C28 V14 d   1      14.983   8.124  14.681  0.00  0.00    -0.046 C 
ATOM     14  C27 V14 d   1      16.229   9.013  14.814  0.00  0.00    -0.063 C 
ATOM     15  H10 V14 d   1      15.127   7.232  15.308  0.00  0.00     0.035 H 
ATOM     16  H11 V14 d   1      14.114   8.691  15.045  0.00  0.00     0.035 H 
ATOM     17  C26 V14 d   1      15.946  10.477  14.438  0.00  0.00    -0.065 C 
ATOM     18  H12 V14 d   1      17.014   8.623  14.150  0.00  0.00     0.033 H 
ATOM     19  H13 V14 d   1      16.579   8.977  15.856  0.00  0.00     0.033 H 
ATOM     20  C25 V14 d   1      14.504  10.974  14.387  0.00  0.00    -0.065 C 
ATOM     21  H14 V14 d   1      16.376  10.640  13.439  0.00  0.00     0.033 H 
ATOM     22  H15 V14 d   1      16.475  11.104  15.171  0.00  0.00     0.033 H 
ATOM     23  C24 V14 d   1      13.948  11.036  12.975  0.00  0.00    -0.065 C 
ATOM     24  H16 V14 d   1      14.465  11.983  14.824  0.00  0.00     0.033 H 
ATOM     25  H17 V14 d   1      13.877  10.293  14.981  0.00  0.00     0.033 H 
ATOM     26  C23 V14 d   1      13.345   9.679  12.533  0.00  0.00    -0.063 C 
ATOM     27  H18 V14 d   1      14.760  11.306  12.284  0.00  0.00     0.033 H 
ATOM     28  H19 V14 d   1      13.162  11.805  12.935  0.00  0.00     0.033 H 
ATOM     29  C22 V14 d   1      14.520   8.766  12.220  0.00  0.00    -0.046 C 
ATOM     30  H20 V14 d   1      12.720   9.814  11.638  0.00  0.00     0.033 H 
ATOM     31  H21 V14 d   1      12.737   9.251  13.344  0.00  0.00     0.033 H 
ATOM     32  H22 V14 d   1      14.355   8.303  11.236  0.00  0.00     0.035 H 
ATOM     33  H23 V14 d   1      15.438   9.370  12.191  0.00  0.00     0.035 H 
ATOM     34  H9  V14 d   1      13.757   7.089  13.287  0.00  0.00     0.072 H 
ENDBRANCH  10  12
ENDBRANCH   8  10
BRANCH   9  35
ATOM     35  S11 V14 d   1      19.015   7.176  13.143  0.00  0.00     0.182 S 
ATOM     36  O16 V14 d   1      19.521   8.066  14.268  0.00  0.00    -0.222 OA
ATOM     37  O17 V14 d   1      18.257   8.113  12.204  0.00  0.00    -0.222 OA
BRANCH  35  38
ATOM     38  C15 V14 d   1      20.309   6.327  12.203  0.00  0.00     0.053 C 
ATOM     39  H3  V14 d   1      20.822   5.608  12.859  0.00  0.00     0.059 H 
ATOM     40  H4  V14 d   1      21.034   7.067  11.833  0.00  0.00     0.059 H 
BRANCH  38  41
ATOM     41  C18 V14 d   1      19.692   5.569  10.998  0.00  0.00     0.029 C 
ATOM     42  H5  V14 d   1      20.284   4.655  10.840  0.00  0.00     0.075 H 
ATOM     43  H6  V14 d   1      19.779   6.219  10.115  0.00  0.00     0.075 H 
BRANCH  41  44
ATOM     44  O21 V14 d   1      18.336   5.187  11.118  0.00  0.00    -0.400 OA
ATOM     45  H7  V14 d   1      17.799   5.962  11.240  0.00  0.00     0.209 HD
ENDBRANCH  41  44
ENDBRANCH  38  41
ENDBRANCH  35  38
ENDBRANCH   9  35
BRANCH   3  46
ATOM     46  S7  V14 d   1      15.450   2.888  16.273  0.00  0.00     0.263 S 
ATOM     47  O9  V14 d   1      13.914   3.042  16.315  0.00  0.00    -0.201 OA
ATOM     48  O8  V14 d   1      16.016   3.126  17.645  0.00  0.00    -0.201 OA
BRANCH  46  49
ATOM     49  N10 V14 d   1      15.840   1.286  15.837  0.00  0.00    -0.324 N 
ATOM     50  H1  V14 d   1      15.417   0.519  16.320  0.00  0.00     0.169 HD
ATOM     51  H2  V14 d   1      16.491   1.113  15.098  0.00  0.00     0.169 HD
ENDBRANCH  46  49
ENDBRANCH   3  46
TORSDOF 8
