REMARK WARNING: 32 MAX_TORS EXCEEDED!!!
REMARK  68 active torsions:
REMARK  status: ('A' for Active; 'I' for Inactive)
REMARK    1  A    between atoms: C_1  and  CH3_3 
REMARK       I    between atoms: C_1  and  N_4 
REMARK    2  A    between atoms: N_4  and  CA_5 
REMARK    3  A    between atoms: CA_5  and  C_6 
REMARK    4  A    between atoms: CA_5  and  CB_8 
REMARK       I    between atoms: C_6  and  N_10 
REMARK    5  A    between atoms: CB_8  and  OG_9 
REMARK    6  A    between atoms: N_10  and  CA_11 
REMARK    7  A    between atoms: CA_11  and  C_12 
REMARK    8  A    between atoms: CA_11  and  CB_14 
REMARK       I    between atoms: C_12  and  N_18 
REMARK    9  A    between atoms: CB_14  and  CG1_15 
REMARK   10  A    between atoms: CB_14  and  CG2_16 
REMARK   11  A    between atoms: CG1_15  and  CD1_17 
REMARK   12  A    between atoms: N_18  and  CA_19 
REMARK   13  A    between atoms: CA_19  and  C_20 
REMARK   14  A    between atoms: CA_19  and  CB_22 
REMARK       I    between atoms: C_20  and  N_24 
REMARK   15  A    between atoms: CB_22  and  OG_23 
REMARK   16  A    between atoms: N_24  and  CA_25 
REMARK   17  A    between atoms: CA_25  and  C_26 
REMARK   18  A    between atoms: CA_25  and  CB_28 
REMARK       I    between atoms: C_26  and  N_36 
REMARK   19  A    between atoms: CB_28  and  CG_29 
REMARK   20  A    between atoms: CZ_34  and  OH_35 
REMARK   21  A    between atoms: N_36  and  CA_37 
REMARK   22  A    between atoms: CA_37  and  C_38 
REMARK   23  A    between atoms: CA_37  and  CB_40 
REMARK       I    between atoms: C_38  and  N_43 
REMARK   24  A    between atoms: CB_40  and  OG1_41 
REMARK   25  A    between atoms: CB_40  and  CG2_42 
REMARK   26  A    between atoms: N_43  and  CA_44 
REMARK   27  A    between atoms: CA_44  and  C_45 
REMARK   28  A    between atoms: CA_44  and  CB_47 
REMARK       I    between atoms: C_45  and  N_51 
REMARK   29  A    between atoms: CB_47  and  CG_48 
REMARK   30  A    between atoms: N_51  and  CA_52 
REMARK   31  A    between atoms: CA_52  and  C_53 
REMARK   32  A    between atoms: CA_52  and  CB_55 
REMARK       I    between atoms: C_53  and  N_60 
REMARK   33  A    between atoms: CB_55  and  CG_56 
REMARK   34  A    between atoms: CG_56  and  CD_57 
REMARK   35  A    between atoms: N_60  and  CA_61 
REMARK   36  A    between atoms: CA_61  and  C_62 
REMARK   37  A    between atoms: CA_61  and  CB_64 
REMARK       I    between atoms: C_62  and  N_68 
REMARK   38  A    between atoms: CB_64  and  CG1_65 
REMARK   39  A    between atoms: CB_64  and  CG2_66 
REMARK   40  A    between atoms: CG1_65  and  CD1_67 
REMARK   41  A    between atoms: N_68  and  CA_69 
REMARK   42  A    between atoms: CA_69  and  C_70 
REMARK   43  A    between atoms: CA_69  and  CB_72 
REMARK       I    between atoms: C_70  and  N_77 
REMARK   44  A    between atoms: CB_72  and  CG_73 
REMARK   45  A    between atoms: CG_73  and  CD_74 
REMARK   46  A    between atoms: N_77  and  CA_78 
REMARK   47  A    between atoms: CA_78  and  C_79 
REMARK   48  A    between atoms: CA_78  and  CB_81 
REMARK       I    between atoms: C_79  and  N_86 
REMARK   49  A    between atoms: CB_81  and  CG_82 
REMARK   50  A    between atoms: CG_82  and  CD_83 
REMARK   51  A    between atoms: N_86  and  CA_87 
REMARK   52  A    between atoms: CA_87  and  C_88 
REMARK   53  A    between atoms: CA_87  and  CB_90 
REMARK       I    between atoms: C_88  and  N_95 
REMARK   54  A    between atoms: CB_90  and  CG_91 
REMARK   55  A    between atoms: CG_91  and  CD_92 
REMARK   56  A    between atoms: N_95  and  CA_96 
REMARK   57  A    between atoms: CA_96  and  C_97 
REMARK   58  A    between atoms: CA_96  and  CB_99 
REMARK       I    between atoms: C_97  and  N_103 
REMARK   59  A    between atoms: CB_99  and  CG_100 
REMARK   60  A    between atoms: N_103  and  CA_104 
REMARK   61  A    between atoms: CA_104  and  C_105 
REMARK   62  A    between atoms: CA_104  and  CB_107 
REMARK       I    between atoms: C_105  and  N_115 
REMARK   63  A    between atoms: CB_107  and  CG_108 
REMARK   64  A    between atoms: CZ_113  and  OH_114 
REMARK   65  A    between atoms: N_115  and  CA_116 
REMARK   66  A    between atoms: CA_116  and  C_117 
REMARK   67  A    between atoms: CA_116  and  CB_119 
REMARK   68  A    between atoms: CB_119  and  CG_120 
ROOT
ATOM      1  N   ILE d   1     -41.103   7.468  52.750  0.00  0.00    -0.346 N 
ATOM      2  H   ILE d   1     -42.030   7.788  52.553  0.00  0.00     0.163 HD
ATOM      3  C   GLU d   1     -40.669   7.511  54.003  0.00  0.00     0.241 C 
ATOM      4  O   GLU d   1     -39.577   7.078  54.383  0.00  0.00    -0.271 OA
ENDROOT
BRANCH   1   5
ATOM      5  CA  ILE d   1     -40.287   6.975  51.649  0.00  0.00     0.092 C 
ATOM      6  H   ILE d   1     -39.300   6.691  52.043  0.00  0.00     0.088 H 
BRANCH   5   7
ATOM      7  C   ILE d   1     -40.115   8.087  50.627  0.00  0.00     0.241 C 
ATOM      8  O   ILE d   1     -41.060   8.810  50.322  0.00  0.00    -0.271 OA
ATOM      9  N   GLU d   1     -38.899   8.237  50.118  0.00  0.00    -0.346 N 
ATOM     10  H   GLU d   1     -38.144   7.685  50.473  0.00  0.00     0.163 HD
BRANCH   9  11
ATOM     11  CA  GLU d   1     -38.648   9.196  49.047  0.00  0.00     0.090 C 
ATOM     12  H   GLU d   1     -39.613   9.555  48.659  0.00  0.00     0.087 H 
BRANCH  11  13
ATOM     13  C   GLU d   1     -37.892   8.507  47.925  0.00  0.00     0.241 C 
ATOM     14  O   GLU d   1     -37.084   7.614  48.172  0.00  0.00    -0.271 OA
ATOM     15  N   GLU d   1     -38.154   8.914  46.689  0.00  0.00    -0.346 N 
ATOM     16  H   GLU d   1     -38.920   9.534  46.520  0.00  0.00     0.163 HD
BRANCH  15  17
ATOM     17  CA  GLU d   1     -37.329   8.461  45.580  0.00  0.00     0.090 C 
ATOM     18  H   GLU d   1     -36.312   8.275  45.955  0.00  0.00     0.087 H 
BRANCH  17  19
ATOM     19  C   GLU d   1     -37.261   9.553  44.528  0.00  0.00     0.241 C 
ATOM     20  O   GLU d   1     -37.923  10.586  44.670  0.00  0.00    -0.271 OA
ATOM     21  N   GLU d   1     -36.455   9.333  43.490  0.00  0.00    -0.346 N 
ATOM     22  H   GLU d   1     -35.975   8.458  43.421  0.00  0.00     0.163 HD
BRANCH  21  23
ATOM     23  CA  GLU d   1     -36.255  10.343  42.447  0.00  0.00     0.090 C 
ATOM     24  H   GLU d   1     -35.814  11.237  42.913  0.00  0.00     0.087 H 
BRANCH  23  25
ATOM     25  C   GLU d   1     -37.583  10.740  41.806  0.00  0.00     0.241 C 
ATOM     26  O   GLU d   1     -38.430   9.873  41.569  0.00  0.00    -0.271 OA
ATOM     27  N   ASP d   1     -37.763  12.044  41.553  0.00  0.00    -0.346 N 
ATOM     28  H   ASP d   1     -37.068  12.695  41.859  0.00  0.00     0.163 HD
BRANCH  27  29
ATOM     29  CA  ASP d   1     -38.944  12.552  40.843  0.00  0.00     0.098 C 
ATOM     30  H   ASP d   1     -39.846  12.212  41.374  0.00  0.00     0.088 H 
BRANCH  29  31
ATOM     31  C   ASP d   1     -38.963  12.008  39.427  0.00  0.00     0.241 C 
ATOM     32  O   ASP d   1     -37.902  11.785  38.843  0.00  0.00    -0.271 OA
ATOM     33  N   TYR d   1     -40.155  11.831  38.863  0.00  0.00    -0.346 N 
ATOM     34  H   TYR d   1     -40.980  12.060  39.379  0.00  0.00     0.163 HD
BRANCH  33  35
ATOM     35  CA  TYR d   1     -40.282  11.307  37.501  0.00  0.00     0.093 C 
ATOM     36  H   TYR d   1     -39.798  10.320  37.462  0.00  0.00     0.088 H 
BRANCH  35  37
ATOM     37  C   TYR d   1     -39.574  12.232  36.512  0.00  0.00     0.241 C 
ATOM     38  O   TYR d   1     -39.127  11.808  35.443  0.00  0.00    -0.271 OA
ATOM     39  N   ASP d   1     -39.462  13.503  36.884  0.00  0.00    -0.344 N 
ATOM     40  H   ASP d   1     -39.849  13.797  37.758  0.00  0.00     0.163 HD
BRANCH  39  41
ATOM     41  CA  ASP d   1     -38.783  14.473  36.036  0.00  0.00     0.105 C 
ATOM     42  H   ASP d   1     -38.498  13.974  35.098  0.00  0.00     0.090 H 
BRANCH  41  43
ATOM     43  C   ASP d   1     -37.510  14.974  36.721  0.00  0.00     0.197 C 
ATOM     44  O   ASP d   1     -36.963  16.005  36.326  0.00  0.00    -0.646 OA
ATOM     45  O1  ASP d   1     -37.021  14.332  37.689  0.00  0.00    -0.646 OA
ENDBRANCH  41  43
BRANCH  41  46
ATOM     46  CB  ASP d   1     -39.720  15.642  35.693  0.00  0.00     0.044 C 
ATOM     47  H   ASP d   1     -40.582  15.249  35.134  0.00  0.00     0.053 H 
ATOM     48  H   ASP d   1     -39.172  16.360  35.065  0.00  0.00     0.053 H 
BRANCH  46  49
ATOM     49  CG  ASP d   1     -40.235  16.374  36.938  0.00  0.00     0.175 C 
ATOM     50  OD1 ASP d   1     -40.006  15.887  38.069  0.00  0.00    -0.648 OA
ATOM     51  OD2 ASP d   1     -40.880  17.435  36.787  0.00  0.00    -0.648 OA
ENDBRANCH  46  49
ENDBRANCH  41  46
ENDBRANCH  39  41
ENDBRANCH  35  37
BRANCH  35  52
ATOM     52  CB  TYR d   1     -41.754  11.135  37.121  0.00  0.00    -0.014 C 
ATOM     53  H   TYR d   1     -42.302  10.809  38.017  0.00  0.00     0.043 H 
ATOM     54  H   TYR d   1     -41.819  10.356  36.347  0.00  0.00     0.043 H 
BRANCH  52  55
ATOM     55  CG  TYR d   1     -42.427  12.388  36.586  0.00  0.00    -0.056 A 
ATOM     56  CD1 TYR d   1     -42.994  13.326  37.449  0.00  0.00    -0.074 A 
ATOM     57  CE1 TYR d   1     -43.614  14.478  36.949  0.00  0.00    -0.051 A 
ATOM     58  H   TYR d   1     -42.954  13.161  38.520  0.00  0.00     0.084 H 
ATOM     59  CZ  TYR d   1     -43.673  14.685  35.579  0.00  0.00     0.065 A 
ATOM     60  H   TYR d   1     -44.045  15.204  37.629  0.00  0.00     0.087 H 
ATOM     61  CE2 TYR d   1     -43.118  13.763  34.707  0.00  0.00    -0.051 A 
ATOM     62  CD2 TYR d   1     -42.509  12.622  35.214  0.00  0.00    -0.074 A 
ATOM     63  H   TYR d   1     -43.159  13.931  33.637  0.00  0.00     0.087 H 
ATOM     64  H   TYR d   1     -42.088  11.897  34.527  0.00  0.00     0.084 H 
BRANCH  59  65
ATOM     65  OH  TYR d   1     -44.288  15.809  35.065  0.00  0.00    -0.361 OA
ATOM     66  H   TYR d   1     -43.659  16.309  34.558  0.00  0.00     0.217 HD
ENDBRANCH  59  65
ENDBRANCH  52  55
ENDBRANCH  35  52
ENDBRANCH  33  35
ENDBRANCH  29  31
BRANCH  29  67
ATOM     67  CB  ASP d   1     -38.955  14.082  40.780  0.00  0.00     0.043 C 
ATOM     68  H   ASP d   1     -39.811  14.401  40.167  0.00  0.00     0.052 H 
ATOM     69  H   ASP d   1     -38.020  14.420  40.309  0.00  0.00     0.052 H 
BRANCH  67  70
ATOM     70  CG  ASP d   1     -39.069  14.728  42.138  0.00  0.00     0.175 C 
ATOM     71  OD1 ASP d   1     -39.558  14.068  43.082  0.00  0.00    -0.648 OA
ATOM     72  OD2 ASP d   1     -38.681  15.913  42.246  0.00  0.00    -0.648 OA
ENDBRANCH  67  70
ENDBRANCH  29  67
ENDBRANCH  27  29
ENDBRANCH  23  25
BRANCH  23  73
ATOM     73  CB  GLU d   1     -35.286   9.826  41.372  0.00  0.00    -0.029 C 
ATOM     74  H   GLU d   1     -35.381  10.468  40.484  0.00  0.00     0.037 H 
ATOM     75  H   GLU d   1     -35.575   8.797  41.113  0.00  0.00     0.037 H 
BRANCH  73  76
ATOM     76  CG  GLU d   1     -33.821   9.818  41.804  0.00  0.00     0.018 C 
ATOM     77  H   GLU d   1     -33.750   9.341  42.792  0.00  0.00     0.049 H 
ATOM     78  H   GLU d   1     -33.471  10.858  41.873  0.00  0.00     0.049 H 
BRANCH  76  79
ATOM     79  CD  GLU d   1     -32.921   9.068  40.839  0.00  0.00     0.172 C 
ATOM     80  OE1 GLU d   1     -33.323   8.876  39.669  0.00  0.00    -0.648 OA
ATOM     81  OE2 GLU d   1     -31.809   8.669  41.256  0.00  0.00    -0.648 OA
ENDBRANCH  76  79
ENDBRANCH  73  76
ENDBRANCH  23  73
ENDBRANCH  21  23
ENDBRANCH  17  19
BRANCH  17  82
ATOM     82  CB  GLU d   1     -37.867   7.152  44.993  0.00  0.00    -0.029 C 
ATOM     83  H   GLU d   1     -37.749   6.364  45.751  0.00  0.00     0.037 H 
ATOM     84  H   GLU d   1     -37.265   6.902  44.107  0.00  0.00     0.037 H 
BRANCH  82  85
ATOM     85  CG  GLU d   1     -39.328   7.191  44.575  0.00  0.00     0.018 C 
ATOM     86  H   GLU d   1     -39.423   7.821  43.678  0.00  0.00     0.049 H 
ATOM     87  H   GLU d   1     -39.919   7.627  45.394  0.00  0.00     0.049 H 
BRANCH  85  88
ATOM     88  CD  GLU d   1     -39.873   5.805  44.261  0.00  0.00     0.172 C 
ATOM     89  OE1 GLU d   1     -39.237   4.804  44.660  0.00  0.00    -0.648 OA
ATOM     90  OE2 GLU d   1     -40.938   5.714  43.618  0.00  0.00    -0.648 OA
ENDBRANCH  85  88
ENDBRANCH  82  85
ENDBRANCH  17  82
ENDBRANCH  15  17
ENDBRANCH  11  13
BRANCH  11  91
ATOM     91  CB  GLU d   1     -37.856  10.392  49.561  0.00  0.00    -0.029 C 
ATOM     92  H   GLU d   1     -37.676  11.078  48.720  0.00  0.00     0.037 H 
ATOM     93  H   GLU d   1     -36.893  10.030  49.952  0.00  0.00     0.037 H 
BRANCH  91  94
ATOM     94  CG  GLU d   1     -38.565  11.160  50.665  0.00  0.00     0.018 C 
ATOM     95  H   GLU d   1     -38.780  10.469  51.494  0.00  0.00     0.049 H 
ATOM     96  H   GLU d   1     -39.509  11.560  50.267  0.00  0.00     0.049 H 
BRANCH  94  97
ATOM     97  CD  GLU d   1     -37.733  12.312  51.195  0.00  0.00     0.172 C 
ATOM     98  OE1 GLU d   1     -36.620  12.536  50.660  0.00  0.00    -0.648 OA
ATOM     99  OE2 GLU d   1     -38.196  12.988  52.144  0.00  0.00    -0.648 OA
ENDBRANCH  94  97
ENDBRANCH  91  94
ENDBRANCH  11  91
ENDBRANCH   9  11
ENDBRANCH   5   7
BRANCH   5 100
ATOM    100  CB  ILE d   1     -40.919   5.735  50.966  0.00  0.00    -0.030 C 
ATOM    101  H   ILE d   1     -41.991   5.933  50.821  0.00  0.00     0.043 H 
BRANCH 100 102
ATOM    102  CG1 ILE d   1     -40.770   4.496  51.847  0.00  0.00    -0.063 C 
ATOM    103  H   ILE d   1     -39.786   4.535  52.337  0.00  0.00     0.033 H 
ATOM    104  H   ILE d   1     -40.824   3.605  51.204  0.00  0.00     0.033 H 
BRANCH 102 105
ATOM    105  CD1 ILE d   1     -41.825   4.376  52.913  0.00  0.00    -0.076 C 
ATOM    106  H   ILE d   1     -41.649   3.463  53.502  0.00  0.00     0.027 H 
ATOM    107  H   ILE d   1     -42.818   4.323  52.442  0.00  0.00     0.027 H 
ATOM    108  H   ILE d   1     -41.779   5.253  53.575  0.00  0.00     0.027 H 
ENDBRANCH 102 105
ENDBRANCH 100 102
BRANCH 100 109
ATOM    109  CG2 ILE d   1     -40.290   5.473  49.605  0.00  0.00    -0.071 C 
ATOM    110  H   ILE d   1     -40.399   6.367  48.973  0.00  0.00     0.028 H 
ATOM    111  H   ILE d   1     -40.795   4.621  49.126  0.00  0.00     0.028 H 
ATOM    112  H   ILE d   1     -39.222   5.242  49.733  0.00  0.00     0.028 H 
ENDBRANCH 100 109
ENDBRANCH   5 100
ENDBRANCH   1   5
BRANCH   3 113
ATOM    113  CA  GLU d   1     -41.668   8.083  54.987  0.00  0.00     0.090 C 
ATOM    114  H   GLU d   1     -42.663   7.679  54.749  0.00  0.00     0.087 H 
BRANCH 113 115
ATOM    115  N   GLU d   1     -41.303   7.648  56.315  0.00  0.00    -0.346 N 
ATOM    116  C   ASP d   1     -42.237   7.482  57.240  0.00  0.00     0.241 C 
ATOM    117  O   ASP d   1     -43.405   7.829  57.077  0.00  0.00    -0.271 OA
ATOM    118  H   GLU d   1     -40.344   7.472  56.537  0.00  0.00     0.163 HD
BRANCH 116 119
ATOM    119  CA  ASP d   1     -41.782   6.846  58.537  0.00  0.00     0.098 C 
ATOM    120  H   ASP d   1     -40.892   7.390  58.887  0.00  0.00     0.088 H 
BRANCH 119 121
ATOM    121  N   ASP d   1     -42.797   6.948  59.575  0.00  0.00    -0.345 N 
ATOM    122  C   THR d   1     -42.429   7.049  60.849  0.00  0.00     0.243 C 
ATOM    123  O   THR d   1     -41.251   6.955  61.206  0.00  0.00    -0.271 OA
ATOM    124  H   ASP d   1     -43.767   6.942  59.331  0.00  0.00     0.163 HD
BRANCH 122 125
ATOM    125  CA  THR d   1     -43.534   7.286  61.886  0.00  0.00     0.113 C 
ATOM    126  H   THR d   1     -43.473   8.337  62.206  0.00  0.00     0.091 H 
BRANCH 125 127
ATOM    127  N   THR d   1     -44.874   7.072  61.353  0.00  0.00    -0.344 N 
ATOM    128  C   TYR d   1     -45.659   8.105  61.061  0.00  0.00     0.241 C 
ATOM    129  O   TYR d   1     -45.282   9.275  61.157  0.00  0.00    -0.271 OA
ATOM    130  H   THR d   1     -45.206   6.140  61.206  0.00  0.00     0.163 HD
BRANCH 128 131
ATOM    131  CA  TYR d   1     -47.063   7.791  60.571  0.00  0.00     0.093 C 
ATOM    132  H   TYR d   1     -47.440   6.899  61.093  0.00  0.00     0.088 H 
BRANCH 131 133
ATOM    133  N   TYR d   1     -47.933   8.927  60.883  0.00  0.00    -0.346 N 
ATOM    134  C   SER d   1     -49.169   8.787  61.357  0.00  0.00     0.243 C 
ATOM    135  O   SER d   1     -49.703   7.693  61.509  0.00  0.00    -0.271 OA
ATOM    136  H   TYR d   1     -47.582   9.851  60.733  0.00  0.00     0.163 HD
BRANCH 134 137
ATOM    137  CA  SER d   1     -49.922  10.074  61.701  0.00  0.00     0.109 C 
ATOM    138  H   SER d   1     -50.596   9.860  62.544  0.00  0.00     0.090 H 
BRANCH 137 139
ATOM    139  N   SER d   1     -49.013  11.142  62.107  0.00  0.00    -0.344 N 
ATOM    140  C   ILE d   1     -48.657  11.302  63.377  0.00  0.00     0.241 C 
ATOM    141  O   ILE d   1     -49.029  10.540  64.271  0.00  0.00    -0.271 OA
ATOM    142  H   SER d   1     -48.651  11.766  61.415  0.00  0.00     0.163 HD
BRANCH 140 143
ATOM    143  CA  ILE d   1     -47.798  12.520  63.702  0.00  0.00     0.092 C 
ATOM    144  H   ILE d   1     -47.324  12.891  62.781  0.00  0.00     0.088 H 
BRANCH 143 145
ATOM    145  N   ILE d   1     -48.694  13.547  64.224  0.00  0.00    -0.346 N 
ATOM    146  C   SER d   1     -49.090  14.583  63.489  0.00  0.00     0.243 C 
ATOM    147  O   SER d   1     -48.531  14.922  62.445  0.00  0.00    -0.271 OA
ATOM    148  H   ILE d   1     -49.021  13.469  65.166  0.00  0.00     0.163 HD
BRANCH 146 149
ATOM    149  CA  SER d   1     -50.272  15.378  64.041  0.00  0.00     0.109 C 
ATOM    150  H   SER d   1     -50.267  15.281  65.137  0.00  0.00     0.090 H 
BRANCH 149 151
ATOM    151  N   SER d   1     -50.175  16.785  63.712  0.00  0.00    -0.346 N 
ATOM    152  C   ACE d   1     -50.750  17.679  64.505  0.00  0.00     0.214 C 
ATOM    153  O   ACE d   1     -51.037  17.404  65.682  0.00  0.00    -0.274 OA
ATOM    154  H   SER d   1     -49.679  17.079  62.895  0.00  0.00     0.163 HD
BRANCH 152 155
ATOM    155  CH3 ACE d   1     -50.623  19.098  64.023  0.00  0.00    -0.003 C 
ATOM    156  H   ACE d   1     -50.364  19.100  62.954  0.00  0.00     0.040 H 
ATOM    157  H   ACE d   1     -49.833  19.609  64.593  0.00  0.00     0.040 H 
ATOM    158  H   ACE d   1     -51.579  19.622  64.170  0.00  0.00     0.040 H 
ENDBRANCH 152 155
ENDBRANCH 149 151
BRANCH 149 159
ATOM    159  CB  SER d   1     -51.590  14.808  63.510  0.00  0.00     0.044 C 
ATOM    160  H   SER d   1     -51.564  14.809  62.410  0.00  0.00     0.077 H 
ATOM    161  H   SER d   1     -52.420  15.440  63.858  0.00  0.00     0.077 H 
BRANCH 159 162
ATOM    162  OG  SER d   1     -51.797  13.481  63.966  0.00  0.00    -0.398 OA
ATOM    163  H   SER d   1     -52.620  13.154  63.622  0.00  0.00     0.209 HD
ENDBRANCH 159 162
ENDBRANCH 149 159
ENDBRANCH 146 149
ENDBRANCH 143 145
BRANCH 143 164
ATOM    164  CB  ILE d   1     -46.680  12.143  64.710  0.00  0.00    -0.030 C 
ATOM    165  H   ILE d   1     -47.157  11.803  65.641  0.00  0.00     0.043 H 
BRANCH 164 166
ATOM    166  CG1 ILE d   1     -45.801  13.356  65.037  0.00  0.00    -0.063 C 
ATOM    167  H   ILE d   1     -45.133  13.084  65.868  0.00  0.00     0.033 H 
ATOM    168  H   ILE d   1     -46.456  14.183  65.349  0.00  0.00     0.033 H 
BRANCH 166 169
ATOM    169  CD1 ILE d   1     -44.949  13.836  63.881  0.00  0.00    -0.076 C 
ATOM    170  H   ILE d   1     -44.353  14.704  64.200  0.00  0.00     0.027 H 
ATOM    171  H   ILE d   1     -45.599  14.126  63.042  0.00  0.00     0.027 H 
ATOM    172  H   ILE d   1     -44.276  13.027  63.561  0.00  0.00     0.027 H 
ENDBRANCH 166 169
ENDBRANCH 164 166
BRANCH 164 173
ATOM    173  CG2 ILE d   1     -45.827  11.001  64.163  0.00  0.00    -0.071 C 
ATOM    174  H   ILE d   1     -46.471  10.139  63.934  0.00  0.00     0.028 H 
ATOM    175  H   ILE d   1     -45.079  10.709  64.915  0.00  0.00     0.028 H 
ATOM    176  H   ILE d   1     -45.316  11.331  63.246  0.00  0.00     0.028 H 
ENDBRANCH 164 173
ENDBRANCH 143 164
ENDBRANCH 140 143
ENDBRANCH 137 139
BRANCH 137 177
ATOM    177  CB  SER d   1     -50.770  10.533  60.507  0.00  0.00     0.044 C 
ATOM    178  H   SER d   1     -51.542   9.777  60.302  0.00  0.00     0.077 H 
ATOM    179  H   SER d   1     -50.121  10.643  59.625  0.00  0.00     0.077 H 
BRANCH 177 180
ATOM    180  OG  SER d   1     -51.399  11.780  60.782  0.00  0.00    -0.398 OA
ATOM    181  H   SER d   1     -51.963  11.688  61.541  0.00  0.00     0.209 HD
ENDBRANCH 177 180
ENDBRANCH 137 177
ENDBRANCH 134 137
ENDBRANCH 131 133
BRANCH 131 182
ATOM    182  CB  TYR d   1     -47.027   7.501  59.056  0.00  0.00    -0.014 C 
ATOM    183  H   TYR d   1     -46.467   6.568  58.895  0.00  0.00     0.043 H 
ATOM    184  H   TYR d   1     -46.507   8.332  58.557  0.00  0.00     0.043 H 
BRANCH 182 185
ATOM    185  CG  TYR d   1     -48.394   7.349  58.427  0.00  0.00    -0.056 A 
ATOM    186  CD1 TYR d   1     -49.006   6.099  58.345  0.00  0.00    -0.074 A 
ATOM    187  CE1 TYR d   1     -50.264   5.952  57.780  0.00  0.00    -0.051 A 
ATOM    188  H   TYR d   1     -48.490   5.227  58.730  0.00  0.00     0.084 H 
ATOM    189  CZ  TYR d   1     -50.923   7.061  57.289  0.00  0.00     0.065 A 
ATOM    190  H   TYR d   1     -50.726   4.973  57.724  0.00  0.00     0.087 H 
ATOM    191  CE2 TYR d   1     -50.339   8.318  57.361  0.00  0.00    -0.051 A 
ATOM    192  CD2 TYR d   1     -49.082   8.456  57.930  0.00  0.00    -0.074 A 
ATOM    193  H   TYR d   1     -50.862   9.186  56.975  0.00  0.00     0.087 H 
ATOM    194  H   TYR d   1     -48.627   9.438  57.989  0.00  0.00     0.084 H 
BRANCH 189 195
ATOM    195  OH  TYR d   1     -52.175   6.917  56.732  0.00  0.00    -0.361 OA
ATOM    196  H   TYR d   1     -52.429   6.002  56.759  0.00  0.00     0.217 HD
ENDBRANCH 189 195
ENDBRANCH 182 185
ENDBRANCH 131 182
ENDBRANCH 128 131
ENDBRANCH 125 127
BRANCH 125 197
ATOM    197  CB  THR d   1     -43.271   6.387  63.128  0.00  0.00     0.060 C 
ATOM    198  H   THR d   1     -42.195   6.392  63.354  0.00  0.00     0.086 H 
BRANCH 197 199
ATOM    199  OG1 THR d   1     -43.695   5.047  62.852  0.00  0.00    -0.393 OA
ATOM    200  H   THR d   1     -43.209   4.709  62.109  0.00  0.00     0.210 HD
ENDBRANCH 197 199
BRANCH 197 201
ATOM    201  CG2 THR d   1     -44.044   6.907  64.340  0.00  0.00    -0.050 C 
ATOM    202  H   THR d   1     -43.846   6.260  65.207  0.00  0.00     0.031 H 
ATOM    203  H   THR d   1     -45.121   6.902  64.118  0.00  0.00     0.031 H 
ATOM    204  H   THR d   1     -43.721   7.934  64.568  0.00  0.00     0.031 H 
ENDBRANCH 197 201
ENDBRANCH 125 197
ENDBRANCH 122 125
ENDBRANCH 119 121
BRANCH 119 205
ATOM    205  CB  ASP d   1     -41.376   5.382  58.289  0.00  0.00     0.043 C 
ATOM    206  H   ASP d   1     -40.865   5.005  59.187  0.00  0.00     0.052 H 
ATOM    207  H   ASP d   1     -40.685   5.352  57.434  0.00  0.00     0.052 H 
BRANCH 205 208
ATOM    208  CG  ASP d   1     -42.561   4.467  57.986  0.00  0.00     0.175 C 
ATOM    209  OD1 ASP d   1     -43.531   4.899  57.336  0.00  0.00    -0.648 OA
ATOM    210  OD2 ASP d   1     -42.507   3.291  58.397  0.00  0.00    -0.648 OA
ENDBRANCH 205 208
ENDBRANCH 119 205
ENDBRANCH 116 119
ENDBRANCH 113 115
BRANCH 113 211
ATOM    211  CB  GLU d   1     -41.745   9.615  54.886  0.00  0.00    -0.029 C 
ATOM    212  H   GLU d   1     -42.598   9.951  55.493  0.00  0.00     0.037 H 
ATOM    213  H   GLU d   1     -41.920   9.876  53.832  0.00  0.00     0.037 H 
BRANCH 211 214
ATOM    214  CG  GLU d   1     -40.515  10.367  55.354  0.00  0.00     0.018 C 
ATOM    215  H   GLU d   1     -39.665  10.080  54.717  0.00  0.00     0.049 H 
ATOM    216  H   GLU d   1     -40.305  10.082  56.396  0.00  0.00     0.049 H 
BRANCH 214 217
ATOM    217  CD  GLU d   1     -40.683  11.888  55.288  0.00  0.00     0.172 C 
ATOM    218  OE1 GLU d   1     -41.770  12.369  54.890  0.00  0.00    -0.648 OA
ATOM    219  OE2 GLU d   1     -39.716  12.607  55.628  0.00  0.00    -0.648 OA
ENDBRANCH 214 217
ENDBRANCH 211 214
ENDBRANCH 113 211
ENDBRANCH   3 113
TORSDOF 68
