REMARK  15 active torsions:
REMARK  status: ('A' for Active; 'I' for Inactive)
REMARK    1  A    between atoms: N_1  and  CA_2 
REMARK    2  A    between atoms: CA_2  and  C_3 
REMARK    3  A    between atoms: CA_2  and  CB_5 
REMARK       I    between atoms: C_3  and  N_6 
REMARK    4  A    between atoms: N_6  and  CA_7 
REMARK    5  A    between atoms: CA_7  and  C_8 
REMARK    6  A    between atoms: CA_7  and  CB_10 
REMARK       I    between atoms: C_8  and  N_20 
REMARK    7  A    between atoms: CB_10  and  CG_11 
REMARK    8  A    between atoms: N_20  and  CA_21 
REMARK    9  A    between atoms: CA_21  and  C_22 
REMARK   10  A    between atoms: CA_21  and  CB_24 
REMARK       I    between atoms: C_22  and  N_28 
REMARK   11  A    between atoms: CB_24  and  CG_25 
REMARK       I    between atoms: CG_25  and  ND2_27 
REMARK   12  A    between atoms: N_28  and  CA_29 
REMARK   13  A    between atoms: CA_29  and  C_30 
REMARK   14  A    between atoms: CA_29  and  CB_32 
REMARK   15  A    between atoms: CB_32  and  OG_33 
ROOT
ATOM      1  CA  TRP d   1      65.565  16.026  27.987  0.00  0.00     0.093 C 
ATOM      2  H   TRP d   1      66.123  16.170  27.050  0.00  0.00     0.088 H 
ENDROOT
BRANCH   1   3
ATOM      3  N   TRP d   1      66.174  14.892  28.677  0.00  0.00    -0.346 N 
ATOM      4  C   ALA d   1      66.802  13.925  28.014  0.00  0.00     0.248 C 
ATOM      5  O   ALA d   1      66.936  13.928  26.789  0.00  0.00    -0.271 OA
ATOM      6  H   TRP d   1      66.117  14.841  29.674  0.00  0.00     0.163 HD
BRANCH   4   7
ATOM      7  CA  ALA d   1      67.368  12.787  28.859  0.00  0.00     0.172 C 
ATOM      8  H   ALA d   1      67.897  13.228  29.717  0.00  0.00     0.098 H 
BRANCH   7   9
ATOM      9  N   ALA d   1      66.303  11.932  29.371  0.00  0.00    -0.067 N 
ATOM     10  H   ALA d   1      66.704  11.191  29.924  0.00  0.00     0.275 HD
ATOM     11  H   ALA d   1      65.790  11.536  28.599  0.00  0.00     0.275 HD
ATOM     12  H   ALA d   1      65.679  12.479  29.944  0.00  0.00     0.275 HD
ENDBRANCH   7   9
BRANCH   7  13
ATOM     13  CB  ALA d   1      68.364  11.967  28.054  0.00  0.00    -0.042 C 
ATOM     14  H   ALA d   1      69.160  12.625  27.675  0.00  0.00     0.030 H 
ATOM     15  H   ALA d   1      67.848  11.491  27.207  0.00  0.00     0.030 H 
ATOM     16  H   ALA d   1      68.805  11.191  28.697  0.00  0.00     0.030 H 
ENDBRANCH   7  13
ENDBRANCH   4   7
ENDBRANCH   1   3
BRANCH   1  17
ATOM     17  C   TRP d   1      65.662  17.337  28.771  0.00  0.00     0.241 C 
ATOM     18  O   TRP d   1      66.164  17.368  29.896  0.00  0.00    -0.271 OA
ATOM     19  N   ASN d   1      65.176  18.414  28.160  0.00  0.00    -0.346 N 
ATOM     20  H   ASN d   1      64.741  18.301  27.267  0.00  0.00     0.163 HD
BRANCH  19  21
ATOM     21  CA  ASN d   1      65.250  19.755  28.736  0.00  0.00     0.097 C 
ATOM     22  H   ASN d   1      66.297  19.940  29.016  0.00  0.00     0.088 H 
BRANCH  21  23
ATOM     23  C   ASN d   1      64.396  19.929  29.991  0.00  0.00     0.241 C 
ATOM     24  O   ASN d   1      63.519  19.112  30.272  0.00  0.00    -0.271 OA
ATOM     25  N   SER d   1      64.666  21.000  30.737  0.00  0.00    -0.343 N 
ATOM     26  H   SER d   1      65.415  21.599  30.456  0.00  0.00     0.163 HD
BRANCH  25  27
ATOM     27  CA  SER d   1      63.917  21.341  31.950  0.00  0.00     0.116 C 
ATOM     28  H   SER d   1      64.407  22.221  32.393  0.00  0.00     0.093 H 
BRANCH  27  29
ATOM     29  C   SER d   1      63.931  20.239  33.010  0.00  0.00     0.198 C 
ATOM     30  O   SER d   1      63.191  20.305  33.992  0.00  0.00    -0.646 OA
ATOM     31  O1  SER d   1      64.707  19.255  32.877  0.00  0.00    -0.646 OA
ENDBRANCH  27  29
BRANCH  27  32
ATOM     32  CB  SER d   1      62.475  21.737  31.609  0.00  0.00     0.045 C 
ATOM     33  H   SER d   1      61.981  20.893  31.107  0.00  0.00     0.077 H 
ATOM     34  H   SER d   1      62.492  22.606  30.935  0.00  0.00     0.077 H 
BRANCH  32  35
ATOM     35  OG  SER d   1      61.744  22.072  32.777  0.00  0.00    -0.398 OA
ATOM     36  H   SER d   1      61.723  21.323  33.361  0.00  0.00     0.209 HD
ENDBRANCH  32  35
ENDBRANCH  27  32
ENDBRANCH  25  27
ENDBRANCH  21  23
BRANCH  21  37
ATOM     37  CB  ASN d   1      64.838  20.792  27.689  0.00  0.00     0.036 C 
ATOM     38  H   ASN d   1      65.215  21.777  28.001  0.00  0.00     0.051 H 
ATOM     39  H   ASN d   1      63.740  20.820  27.634  0.00  0.00     0.051 H 
BRANCH  37  40
ATOM     40  CG  ASN d   1      65.386  20.477  26.309  0.00  0.00     0.217 C 
ATOM     41  OD1 ASN d   1      65.860  19.369  26.055  0.00  0.00    -0.274 OA
ATOM     42  ND2 ASN d   1      65.315  21.449  25.407  0.00  0.00    -0.370 N 
ATOM     43  H   ASN d   1      65.661  21.298  24.481  0.00  0.00     0.159 HD
ATOM     44  H   ASN d   1      64.916  22.332  25.654  0.00  0.00     0.159 HD
ENDBRANCH  37  40
ENDBRANCH  21  37
ENDBRANCH  19  21
ENDBRANCH   1  17
BRANCH   1  45
ATOM     45  CB  TRP d   1      64.109  15.716  27.615  0.00  0.00    -0.012 C 
ATOM     46  H   TRP d   1      64.113  15.029  26.756  0.00  0.00     0.044 H 
ATOM     47  H   TRP d   1      63.620  16.659  27.328  0.00  0.00     0.044 H 
BRANCH  45  48
ATOM     48  CG  TRP d   1      63.302  15.085  28.716  0.00  0.00    -0.028 A 
ATOM     49  CD1 TRP d   1      63.483  15.234  30.061  0.00  0.00    -0.015 A 
ATOM     50  NE1 TRP d   1      62.549  14.497  30.749  0.00  0.00    -0.365 N 
ATOM     51  H   TRP d   1      64.255  15.848  30.522  0.00  0.00     0.112 H 
ATOM     52  CE2 TRP d   1      61.744  13.850  29.849  0.00  0.00     0.042 A 
ATOM     53  H   TRP d   1      62.468  14.440  31.774  0.00  0.00     0.165 HD
ATOM     54  CD2 TRP d   1      62.189  14.196  28.558  0.00  0.00    -0.002 A 
ATOM     55  CZ2 TRP d   1      60.665  12.994  30.062  0.00  0.00    -0.056 A 
ATOM     56  CE3 TRP d   1      61.525  13.661  27.450  0.00  0.00    -0.070 A 
ATOM     57  CZ3 TRP d   1      60.455  12.811  27.664  0.00  0.00    -0.082 A 
ATOM     58  H   TRP d   1      61.842  13.908  26.443  0.00  0.00     0.084 H 
ATOM     59  CH2 TRP d   1      60.037  12.485  28.959  0.00  0.00    -0.081 A 
ATOM     60  H   TRP d   1      59.931  12.390  26.814  0.00  0.00     0.083 H 
ATOM     61  H   TRP d   1      59.196  11.814  29.091  0.00  0.00     0.083 H 
ATOM     62  H   TRP d   1      60.336  12.741  31.064  0.00  0.00     0.086 H 
ENDBRANCH  45  48
ENDBRANCH   1  45
TORSDOF 15
