REMARK  6 active torsions:
REMARK  status: ('A' for Active; 'I' for Inactive)
REMARK    1  A    between atoms: S15_2  and  C16_4 
REMARK    2  A    between atoms: S15_2  and  C1_7 
REMARK    3  A    between atoms: C16_4  and  C17_5 
REMARK    4  A    between atoms: C17_5  and  O18_6 
REMARK    5  A    between atoms: C4_12  and  S7_13 
REMARK    6  A    between atoms: S7_13  and  N10_15 
ROOT
ATOM      1  C1  V13 d   1      17.324   6.332  14.430  0.00  0.00     0.142 A 
ATOM      2  C6  V13 d   1      15.960   6.229  14.511  0.00  0.00     0.181 A 
ATOM      3  F11 V13 d   1      15.188   7.146  13.953  0.00  0.00    -0.201 F 
ATOM      4  C5  V13 d   1      15.346   5.181  15.219  0.00  0.00     0.182 A 
ATOM      5  F12 V13 d   1      14.009   5.188  15.186  0.00  0.00    -0.201 F 
ATOM      6  C4  V13 d   1      15.987   4.146  15.782  0.00  0.00     0.162 A 
ATOM      7  C3  V13 d   1      17.402   4.273  15.681  0.00  0.00     0.182 A 
ATOM      8  F13 V13 d   1      18.148   3.314  16.224  0.00  0.00    -0.201 F 
ATOM      9  C2  V13 d   1      18.017   5.335  15.069  0.00  0.00     0.181 A 
ATOM     10  F14 V13 d   1      19.382   5.371  15.101  0.00  0.00    -0.201 F 
ENDROOT
BRANCH   1  11
ATOM     11  S15 V13 d   1      18.222   7.682  13.664  0.00  0.00     0.183 S 
ATOM     12  O20 V13 d   1      19.171   8.308  14.618  0.00  0.00    -0.222 OA
ATOM     13  O19 V13 d   1      17.212   8.543  12.962  0.00  0.00    -0.222 OA
BRANCH  11  14
ATOM     14  C16 V13 d   1      19.534   7.433  12.379  0.00  0.00     0.053 C 
ATOM     15  H1  V13 d   1      20.059   8.396  12.295  0.00  0.00     0.059 H 
ATOM     16  H2  V13 d   1      19.000   7.223  11.441  0.00  0.00     0.059 H 
BRANCH  14  17
ATOM     17  C17 V13 d   1      20.661   6.336  12.488  0.00  0.00     0.029 C 
ATOM     18  H3  V13 d   1      20.243   5.453  11.983  0.00  0.00     0.075 H 
ATOM     19  H4  V13 d   1      20.753   6.133  13.565  0.00  0.00     0.075 H 
BRANCH  17  20
ATOM     20  O18 V13 d   1      22.057   6.426  12.000  0.00  0.00    -0.400 OA
ATOM     21  H5  V13 d   1      22.054   6.565  11.060  0.00  0.00     0.209 HD
ENDBRANCH  17  20
ENDBRANCH  14  17
ENDBRANCH  11  14
ENDBRANCH   1  11
BRANCH   6  22
ATOM     22  S7  V13 d   1      15.260   2.754  16.729  0.00  0.00     0.263 S 
ATOM     23  O9  V13 d   1      13.867   2.897  16.545  0.00  0.00    -0.201 OA
ATOM     24  O8  V13 d   1      15.817   2.954  18.011  0.00  0.00    -0.201 OA
BRANCH  22  25
ATOM     25  N10 V13 d   1      15.772   1.425  16.032  0.00  0.00    -0.324 N 
ATOM     26  H6  V13 d   1      15.494   0.534  16.390  0.00  0.00     0.169 HD
ATOM     27  H7  V13 d   1      16.373   1.478  15.235  0.00  0.00     0.169 HD
ENDBRANCH  22  25
ENDBRANCH   6  22
TORSDOF 6
