REMARK  1 active torsions:
REMARK  status: ('A' for Active; 'I' for Inactive)
REMARK    1  A    between atoms: C13_13  and  C19_19 
ROOT
ATOM      1  C1  2X4 d   1      21.037  11.591   7.100  0.00  0.00     0.020 C 
ATOM      2  O2  2X4 d   1      21.684  10.607   7.906  0.00  0.00    -0.389 OA
ATOM      3  C3  2X4 d   1      23.107  10.617   7.914  0.00  0.00     0.044 C 
ATOM      4  C4  2X4 d   1      23.597  11.977   8.457  0.00  0.00     0.072 C 
ATOM      5  C5  2X4 d   1      22.915  13.175   7.743  0.00  0.00     0.006 C 
ATOM      6  C6  2X4 d   1      21.377  13.007   7.614  0.00  0.00    -0.037 C 
ATOM      7  O7  2X4 d   1      24.997  12.043   8.233  0.00  0.00    -0.343 OA
ATOM      8  C8  2X4 d   1      25.618  13.216   8.568  0.00  0.00     0.078 A 
ATOM      9  C9  2X4 d   1      24.896  14.440   8.643  0.00  0.00     0.007 A 
ATOM     10  C10 2X4 d   1      23.393  14.531   8.317  0.00  0.00     0.091 A 
ATOM     11  C11 2X4 d   1      27.008  13.167   8.853  0.00  0.00    -0.049 A 
ATOM     12  C12 2X4 d   1      27.696  14.350   9.217  0.00  0.00    -0.070 A 
ATOM     13  C13 2X4 d   1      26.982  15.576   9.289  0.00  0.00    -0.024 A 
ATOM     14  C14 2X4 d   1      25.589  15.617   9.007  0.00  0.00    -0.061 A 
ATOM     15  N15 2X4 d   1      22.610  14.845   9.498  0.00  0.00    -0.340 N 
ATOM     16  C16 2X4 d   1      22.051  16.051   9.365  0.00  0.00     0.213 A 
ATOM     17  O17 2X4 d   1      22.221  16.609   8.139  0.00  0.00    -0.320 OA
ATOM     18  C18 2X4 d   1      23.100  15.749   7.402  0.00  0.00     0.057 A 
ATOM     19  N25 2X4 d   1      21.176  16.612  10.207  0.00  0.00    -0.365 N 
ATOM     20  H   2X4 d   1      19.948  11.440   7.145  0.00  0.00     0.074 H 
ATOM     21  H   2X4 d   1      21.378  11.490   6.059  0.00  0.00     0.074 H 
ATOM     22  H   2X4 d   1      23.483  10.472   6.890  0.00  0.00     0.078 H 
ATOM     23  H   2X4 d   1      23.478   9.807   8.559  0.00  0.00     0.078 H 
ATOM     24  H   2X4 d   1      23.386  12.036   9.535  0.00  0.00     0.088 H 
ATOM     25  H   2X4 d   1      23.288  13.155   6.709  0.00  0.00     0.048 H 
ATOM     26  H   2X4 d   1      20.911  13.158   8.599  0.00  0.00     0.036 H 
ATOM     27  H   2X4 d   1      20.988  13.754   6.906  0.00  0.00     0.036 H 
ATOM     28  H   2X4 d   1      27.542  12.226   8.792  0.00  0.00     0.087 H 
ATOM     29  H   2X4 d   1      28.757  14.320   9.438  0.00  0.00     0.085 H 
ATOM     30  H   2X4 d   1      25.055  16.558   9.072  0.00  0.00     0.086 H 
ATOM     31  H   2X4 d   1      22.502  14.230  10.317  0.00  0.00     0.164 HD
ATOM     32  H   2X4 d   1      22.616  15.418   6.472  0.00  0.00     0.079 H 
ATOM     33  H   2X4 d   1      24.034  16.277   7.161  0.00  0.00     0.079 H 
ATOM     34  H   2X4 d   1      20.803  17.552  10.011  0.00  0.00     0.159 HD
ATOM     35  H   2X4 d   1      20.875  16.104  11.051  0.00  0.00     0.159 HD
ENDROOT
BRANCH  13  36
ATOM     36  C19 2X4 d   1      27.624  16.777   9.654  0.00  0.00    -0.007 A 
ATOM     37  C20 2X4 d   1      26.987  17.656  10.569  0.00  0.00    -0.048 A 
ATOM     38  C21 2X4 d   1      27.639  18.867  10.906  0.00  0.00     0.052 A 
ATOM     39  H   2X4 d   1      26.024  17.406  11.000  0.00  0.00     0.087 H 
ATOM     40  C22 2X4 d   1      28.907  19.144  10.334  0.00  0.00     0.023 A 
ATOM     41 CL1  2X4 d   1      26.907  19.969  11.997  0.00  0.00    -0.083 Cl
ATOM     42  N23 2X4 d   1      29.505  18.299   9.465  0.00  0.00    -0.271 NA
ATOM     43  H   2X4 d   1      29.413  20.064  10.603  0.00  0.00     0.117 H 
ATOM     44  C24 2X4 d   1      28.890  17.144   9.125  0.00  0.00     0.013 A 
ATOM     45  H   2X4 d   1      29.379  16.476   8.425  0.00  0.00     0.116 H 
ENDBRANCH  13  36
TORSDOF 1
