REMARK  1 active torsions:
REMARK  status: ('A' for Active; 'I' for Inactive)
REMARK    1  A    between atoms: C13_13  and  C19_19 
ROOT
ATOM      1  C1  2X5 d   1      20.857  11.503   7.657  0.00  0.00     0.020 C 
ATOM      2  O2  2X5 d   1      21.705  10.958   6.647  0.00  0.00    -0.389 OA
ATOM      3  C3  2X5 d   1      23.079  10.855   7.006  0.00  0.00     0.044 C 
ATOM      4  C4  2X5 d   1      23.634  12.287   7.206  0.00  0.00     0.072 C 
ATOM      5  C5  2X5 d   1      22.765  13.069   8.235  0.00  0.00     0.006 C 
ATOM      6  C6  2X5 d   1      21.254  12.979   7.900  0.00  0.00    -0.037 C 
ATOM      7  O7  2X5 d   1      24.972  12.165   7.673  0.00  0.00    -0.343 OA
ATOM      8  C8  2X5 d   1      25.601  13.284   8.168  0.00  0.00     0.078 A 
ATOM      9  C9  2X5 d   1      24.861  14.417   8.615  0.00  0.00     0.007 A 
ATOM     10  C10 2X5 d   1      23.328  14.474   8.523  0.00  0.00     0.091 C 
ATOM     11  C11 2X5 d   1      27.018  13.279   8.251  0.00  0.00    -0.049 A 
ATOM     12  C12 2X5 d   1      27.720  14.402   8.758  0.00  0.00    -0.070 A 
ATOM     13  C13 2X5 d   1      26.985  15.532   9.209  0.00  0.00    -0.024 A 
ATOM     14  C14 2X5 d   1      25.567  15.536   9.118  0.00  0.00    -0.061 A 
ATOM     15  N15 2X5 d   1      22.725  14.979   9.754  0.00  0.00    -0.340 N 
ATOM     16  C16 2X5 d   1      22.004  16.068   9.488  0.00  0.00     0.213 C 
ATOM     17  O17 2X5 d   1      22.008  16.420   8.180  0.00  0.00    -0.320 OA
ATOM     18  C18 2X5 d   1      22.913  15.555   7.492  0.00  0.00     0.057 C 
ATOM     19  N25 2X5 d   1      21.169  16.693  10.326  0.00  0.00    -0.365 N 
ATOM     20  H   2X5 d   1      20.976  10.930   8.588  0.00  0.00     0.074 H 
ATOM     21  H   2X5 d   1      19.809  11.452   7.327  0.00  0.00     0.074 H 
ATOM     22  H   2X5 d   1      23.637  10.348   6.205  0.00  0.00     0.078 H 
ATOM     23  H   2X5 d   1      23.178  10.283   7.940  0.00  0.00     0.078 H 
ATOM     24  H   2X5 d   1      23.625  12.825   6.246  0.00  0.00     0.088 H 
ATOM     25  H   2X5 d   1      22.873  12.526   9.186  0.00  0.00     0.048 H 
ATOM     26  H   2X5 d   1      20.669  13.381   8.741  0.00  0.00     0.036 H 
ATOM     27  H   2X5 d   1      21.045  13.567   6.994  0.00  0.00     0.036 H 
ATOM     28  H   2X5 d   1      27.570  12.406   7.923  0.00  0.00     0.087 H 
ATOM     29  H   2X5 d   1      28.803  14.399   8.801  0.00  0.00     0.085 H 
ATOM     30  H   2X5 d   1      25.016  16.412   9.440  0.00  0.00     0.086 H 
ATOM     31  H   2X5 d   1      22.840  14.557  10.687  0.00  0.00     0.164 HD
ATOM     32  H   2X5 d   1      22.416  15.090   6.628  0.00  0.00     0.079 H 
ATOM     33  H   2X5 d   1      23.795  16.117   7.150  0.00  0.00     0.079 H 
ATOM     34  H   2X5 d   1      20.659  17.532  10.014  0.00  0.00     0.159 HD
ATOM     35  H   2X5 d   1      21.036  16.335  11.283  0.00  0.00     0.159 HD
ENDROOT
BRANCH  13  36
ATOM     36  C19 2X5 d   1      27.612  16.710   9.684  0.00  0.00    -0.007 A 
ATOM     37  C20 2X5 d   1      26.972  17.562  10.621  0.00  0.00    -0.048 A 
ATOM     38  C21 2X5 d   1      27.634  18.759  10.995  0.00  0.00     0.052 A 
ATOM     39  H   2X5 d   1      26.005  17.305  11.039  0.00  0.00     0.087 H 
ATOM     40  C22 2X5 d   1      28.894  19.069  10.430  0.00  0.00     0.023 A 
ATOM     41 CL1  2X5 d   1      26.927  19.832  12.125  0.00  0.00    -0.083 Cl
ATOM     42  N23 2X5 d   1      29.487  18.261   9.526  0.00  0.00    -0.271 NA
ATOM     43  H   2X5 d   1      29.397  19.981  10.732  0.00  0.00     0.117 H 
ATOM     44  C24 2X5 d   1      28.861  17.125   9.148  0.00  0.00     0.013 A 
ATOM     45  H   2X5 d   1      29.334  16.500   8.400  0.00  0.00     0.116 H 
ENDBRANCH  13  36
TORSDOF 1
