REMARK  8 active torsions:
REMARK  status: ('A' for Active; 'I' for Inactive)
REMARK    1  A    between atoms: C6_3  and  S12_4 
REMARK    2  A    between atoms: S12_4  and  C13_5 
REMARK    3  A    between atoms: C13_5  and  C14_6 
REMARK    4  A    between atoms: C14_6  and  O15_7 
REMARK    5  A    between atoms: C4_10  and  N7_18 
REMARK    6  A    between atoms: C3_11  and  S8_12 
REMARK    7  A    between atoms: S8_12  and  N11_14 
REMARK    8  A    between atoms: N7_18  and  C19_19 
ROOT
ATOM      1  N7  V90 d   1      -5.630   3.042  13.901  0.00  0.00    -0.381 N 
ATOM      2  H8  V90 d   1      -6.655   3.025  13.797  0.00  0.00     0.160 HD
ENDROOT
BRANCH   1   3
ATOM      3  C4  V90 d   1      -4.934   1.925  13.537  0.00  0.00     0.095 A 
ATOM      4  C5  V90 d   1      -4.527   1.717  12.300  0.00  0.00     0.164 A 
ATOM      5  F18 V90 d   1      -4.764   2.641  11.368  0.00  0.00    -0.202 F 
ATOM      6  C6  V90 d   1      -3.758   0.594  11.822  0.00  0.00     0.083 A 
ATOM      7  C1  V90 d   1      -3.423  -0.352  12.754  0.00  0.00     0.176 A 
ATOM      8  F17 V90 d   1      -2.665  -1.431  12.434  0.00  0.00    -0.201 F 
ATOM      9  C2  V90 d   1      -3.758  -0.113  13.984  0.00  0.00     0.181 A 
ATOM     10  C3  V90 d   1      -4.561   0.927  14.445  0.00  0.00     0.150 A 
ATOM     11  F16 V90 d   1      -3.522  -1.137  15.023  0.00  0.00    -0.201 F 
BRANCH   6  12
ATOM     12  S12 V90 d   1      -3.140   0.341  10.189  0.00  0.00    -0.121 SA
BRANCH  12  13
ATOM     13  C13 V90 d   1      -1.529   1.131  10.131  0.00  0.00     0.001 C 
ATOM     14  H1  V90 d   1      -1.424   1.622   9.152  0.00  0.00     0.052 H 
ATOM     15  H2  V90 d   1      -0.761   0.350  10.233  0.00  0.00     0.052 H 
BRANCH  13  16
ATOM     16  C14 V90 d   1      -1.293   2.152  11.188  0.00  0.00     0.025 C 
ATOM     17  H3  V90 d   1      -0.439   1.864  11.818  0.00  0.00     0.075 H 
ATOM     18  H4  V90 d   1      -2.188   2.271  11.816  0.00  0.00     0.075 H 
BRANCH  16  19
ATOM     19  O15 V90 d   1      -1.020   3.323  10.508  0.00  0.00    -0.400 OA
ATOM     20  H5  V90 d   1      -0.859   4.020  11.133  0.00  0.00     0.209 HD
ENDBRANCH  16  19
ENDBRANCH  13  16
ENDBRANCH  12  13
ENDBRANCH   6  12
BRANCH  10  21
ATOM     21  S8  V90 d   1      -5.159   0.873  16.175  0.00  0.00     0.262 S 
ATOM     22  O10 V90 d   1      -6.385   1.725  16.242  0.00  0.00    -0.201 OA
ATOM     23  O9  V90 d   1      -4.183   1.378  17.097  0.00  0.00    -0.201 OA
BRANCH  21  24
ATOM     24  N11 V90 d   1      -5.275  -0.685  16.330  0.00  0.00    -0.324 N 
ATOM     25  H6  V90 d   1      -5.588  -1.080  17.194  0.00  0.00     0.169 HD
ATOM     26  H7  V90 d   1      -5.035  -1.283  15.565  0.00  0.00     0.169 HD
ENDBRANCH  21  24
ENDBRANCH  10  21
ENDBRANCH   1   3
BRANCH   1  27
ATOM     27  C19 V90 d   1      -4.996   4.308  14.449  0.00  0.00     0.010 C 
ATOM     28  C26 V90 d   1      -3.443   4.368  14.561  0.00  0.00    -0.046 C 
ATOM     29  C25 V90 d   1      -2.565   5.166  13.636  0.00  0.00    -0.063 C 
ATOM     30  H10 V90 d   1      -3.097   3.327  14.477  0.00  0.00     0.035 H 
ATOM     31  H11 V90 d   1      -3.231   4.744  15.573  0.00  0.00     0.035 H 
ATOM     32  C24 V90 d   1      -2.497   6.678  13.886  0.00  0.00    -0.065 C 
ATOM     33  H12 V90 d   1      -2.935   5.014  12.611  0.00  0.00     0.033 H 
ATOM     34  H13 V90 d   1      -1.543   4.768  13.720  0.00  0.00     0.033 H 
ATOM     35  C23 V90 d   1      -3.440   7.474  12.980  0.00  0.00    -0.065 C 
ATOM     36  H14 V90 d   1      -1.467   7.018  13.705  0.00  0.00     0.033 H 
ATOM     37  H15 V90 d   1      -2.769   6.873  14.934  0.00  0.00     0.033 H 
ATOM     38  C22 V90 d   1      -4.841   7.748  13.558  0.00  0.00    -0.065 C 
ATOM     39  H16 V90 d   1      -3.564   6.912  12.043  0.00  0.00     0.033 H 
ATOM     40  H17 V90 d   1      -2.966   8.443  12.766  0.00  0.00     0.033 H 
ATOM     41  C21 V90 d   1      -5.375   6.911  14.718  0.00  0.00    -0.063 C 
ATOM     42  H18 V90 d   1      -5.554   7.629  12.729  0.00  0.00     0.033 H 
ATOM     43  H19 V90 d   1      -4.844   8.795  13.896  0.00  0.00     0.033 H 
ATOM     44  C20 V90 d   1      -5.793   5.559  14.208  0.00  0.00    -0.046 C 
ATOM     45  H20 V90 d   1      -6.242   7.418  15.168  0.00  0.00     0.033 H 
ATOM     46  H21 V90 d   1      -4.587   6.790  15.476  0.00  0.00     0.033 H 
ATOM     47  H22 V90 d   1      -6.789   5.370  14.634  0.00  0.00     0.035 H 
ATOM     48  H23 V90 d   1      -5.875   5.660  13.116  0.00  0.00     0.035 H 
ATOM     49  H9  V90 d   1      -5.222   4.169  15.517  0.00  0.00     0.072 H 
ENDBRANCH   1  27
TORSDOF 8
