REMARK  8 active torsions:
REMARK  status: ('A' for Active; 'I' for Inactive)
REMARK    1  A    between atoms: C4_3  and  S7_4 
REMARK    2  A    between atoms: S7_4  and  N10_6 
REMARK    3  A    between atoms: C6_12  and  N19_20 
REMARK    4  A    between atoms: C1_13  and  S11_14 
REMARK    5  A    between atoms: S11_14  and  C15_17 
REMARK    6  A    between atoms: C15_17  and  C18_18 
REMARK    7  A    between atoms: C18_18  and  O21_19 
REMARK    8  A    between atoms: N19_20  and  C14_21 
ROOT
ATOM      1  F20 V14 d   1      -5.773   3.340  15.486  0.00  0.00    -0.202 F 
ATOM      2  C5  V14 d   1      -5.185   2.458  14.607  0.00  0.00     0.170 A 
ATOM      3  C4  V14 d   1      -4.984   1.166  15.079  0.00  0.00     0.161 A 
ATOM      4  C3  V14 d   1      -4.419   0.303  14.152  0.00  0.00     0.182 A 
ATOM      5  F12 V14 d   1      -4.122  -0.992  14.490  0.00  0.00    -0.201 F 
ATOM      6  C2  V14 d   1      -4.201   0.632  12.861  0.00  0.00     0.180 A 
ATOM      7  F13 V14 d   1      -3.748  -0.318  12.026  0.00  0.00    -0.201 F 
ATOM      8  C6  V14 d   1      -4.938   2.882  13.298  0.00  0.00     0.094 A 
ATOM      9  C1  V14 d   1      -4.441   1.936  12.380  0.00  0.00     0.130 A 
ENDROOT
BRANCH   8  10
ATOM     10  N19 V14 d   1      -5.242   4.200  12.950  0.00  0.00    -0.382 N 
ATOM     11  H8  V14 d   1      -5.670   4.344  12.024  0.00  0.00     0.160 HD
BRANCH  10  12
ATOM     12  C14 V14 d   1      -5.020   5.388  13.752  0.00  0.00     0.010 C 
ATOM     13  C28 V14 d   1      -3.651   5.361  14.462  0.00  0.00    -0.046 C 
ATOM     14  C27 V14 d   1      -2.448   5.692  13.600  0.00  0.00    -0.063 C 
ATOM     15  H10 V14 d   1      -3.504   4.351  14.871  0.00  0.00     0.035 H 
ATOM     16  H11 V14 d   1      -3.685   6.089  15.286  0.00  0.00     0.035 H 
ATOM     17  C26 V14 d   1      -1.970   7.110  13.853  0.00  0.00    -0.065 C 
ATOM     18  H12 V14 d   1      -2.726   5.590  12.541  0.00  0.00     0.033 H 
ATOM     19  H13 V14 d   1      -1.634   4.991  13.835  0.00  0.00     0.033 H 
ATOM     20  C25 V14 d   1      -2.772   8.181  13.118  0.00  0.00    -0.065 C 
ATOM     21  H14 V14 d   1      -0.921   7.183  13.531  0.00  0.00     0.033 H 
ATOM     22  H15 V14 d   1      -2.037   7.309  14.933  0.00  0.00     0.033 H 
ATOM     23  C24 V14 d   1      -3.972   8.601  13.907  0.00  0.00    -0.065 C 
ATOM     24  H16 V14 d   1      -3.103   7.779  12.149  0.00  0.00     0.033 H 
ATOM     25  H17 V14 d   1      -2.129   9.058  12.950  0.00  0.00     0.033 H 
ATOM     26  C23 V14 d   1      -5.263   7.967  13.405  0.00  0.00    -0.063 C 
ATOM     27  H18 V14 d   1      -4.070   9.695  13.842  0.00  0.00     0.033 H 
ATOM     28  H19 V14 d   1      -3.822   8.308  14.957  0.00  0.00     0.033 H 
ATOM     29  C22 V14 d   1      -5.251   6.554  12.815  0.00  0.00    -0.046 C 
ATOM     30  H20 V14 d   1      -5.659   8.632  12.624  0.00  0.00     0.033 H 
ATOM     31  H21 V14 d   1      -5.958   7.948  14.257  0.00  0.00     0.033 H 
ATOM     32  H22 V14 d   1      -6.226   6.395  12.331  0.00  0.00     0.035 H 
ATOM     33  H23 V14 d   1      -4.455   6.525  12.056  0.00  0.00     0.035 H 
ATOM     34  H9  V14 d   1      -5.785   5.430  14.541  0.00  0.00     0.072 H 
ENDBRANCH  10  12
ENDBRANCH   8  10
BRANCH   9  35
ATOM     35  S11 V14 d   1      -4.203   2.175  10.660  0.00  0.00     0.182 S 
ATOM     36  O16 V14 d   1      -4.451   3.624  10.375  0.00  0.00    -0.222 OA
ATOM     37  O17 V14 d   1      -5.146   1.239   9.965  0.00  0.00    -0.222 OA
BRANCH  35  38
ATOM     38  C15 V14 d   1      -2.594   1.793  10.212  0.00  0.00     0.053 C 
ATOM     39  H3  V14 d   1      -2.406   2.084   9.168  0.00  0.00     0.059 H 
ATOM     40  H4  V14 d   1      -2.406   0.716  10.332  0.00  0.00     0.059 H 
BRANCH  38  41
ATOM     41  C18 V14 d   1      -1.720   2.587  11.145  0.00  0.00     0.029 C 
ATOM     42  H5  V14 d   1      -1.831   2.217  12.175  0.00  0.00     0.075 H 
ATOM     43  H6  V14 d   1      -1.993   3.652  11.106  0.00  0.00     0.075 H 
BRANCH  41  44
ATOM     44  O21 V14 d   1      -0.423   2.414  10.717  0.00  0.00    -0.400 OA
ATOM     45  H7  V14 d   1      -0.340   2.730   9.825  0.00  0.00     0.209 HD
ENDBRANCH  41  44
ENDBRANCH  38  41
ENDBRANCH  35  38
ENDBRANCH   9  35
BRANCH   3  46
ATOM     46  S7  V14 d   1      -5.640   0.690  16.689  0.00  0.00     0.263 S 
ATOM     47  O9  V14 d   1      -7.035   1.106  16.654  0.00  0.00    -0.201 OA
ATOM     48  O8  V14 d   1      -4.772   1.266  17.723  0.00  0.00    -0.201 OA
BRANCH  46  49
ATOM     49  N10 V14 d   1      -5.567  -0.859  16.704  0.00  0.00    -0.324 N 
ATOM     50  H1  V14 d   1      -5.880  -1.367  17.507  0.00  0.00     0.169 HD
ATOM     51  H2  V14 d   1      -5.207  -1.350  15.911  0.00  0.00     0.169 HD
ENDBRANCH  46  49
ENDBRANCH   3  46
TORSDOF 8
