REMARK  8 active torsions:
REMARK  status: ('A' for Active; 'I' for Inactive)
REMARK    1  A    between atoms: C10_2  and  C19_11 
REMARK    2  A    between atoms: C13_5  and  C18_10 
REMARK    3  A    between atoms: C17_9  and  C20_14 
REMARK    4  A    between atoms: C3_19  and  O1B_12 
REMARK    5  A    between atoms: C20_14  and  C21_15 
REMARK    6  A    between atoms: C20_14  and  C22_16 
REMARK    7  A    between atoms: C22_16  and  C23_17 
REMARK    8  A    between atoms: C23_17  and  C24_18 
ROOT
ATOM      1  C1  4OA d   1      -0.004  31.088  35.204  0.00  0.00    -0.055 C 
ATOM      2  C10 4OA d   1       0.461  31.534  36.664  0.00  0.00    -0.036 C 
ATOM      3  C11 4OA d   1      -0.943  33.836  36.583  0.00  0.00    -0.060 C 
ATOM      4  C12 4OA d   1      -0.932  35.367  36.724  0.00  0.00    -0.057 C 
ATOM      5  C13 4OA d   1      -0.341  35.899  38.103  0.00  0.00    -0.036 C 
ATOM      6  C14 4OA d   1       1.089  35.226  38.340  0.00  0.00    -0.043 C 
ATOM      7  C15 4OA d   1       1.610  35.822  39.664  0.00  0.00    -0.060 C 
ATOM      8  C16 4OA d   1       1.027  37.278  39.551  0.00  0.00    -0.060 C 
ATOM      9  C17 4OA d   1       0.202  37.354  38.223  0.00  0.00    -0.044 C 
ATOM     10  C2  4OA d   1       0.962  31.656  34.103  0.00  0.00    -0.040 C 
ATOM     11  C3  4OA d   1       2.461  31.169  34.375  0.00  0.00     0.036 C 
ATOM     12  C4  4OA d   1       2.954  31.588  35.811  0.00  0.00    -0.037 C 
ATOM     13  C5  4OA d   1       1.960  30.994  36.925  0.00  0.00    -0.044 C 
ATOM     14  C6  4OA d   1       2.436  31.427  38.413  0.00  0.00    -0.060 C 
ATOM     15  C7  4OA d   1       2.461  33.001  38.517  0.00  0.00    -0.061 C 
ATOM     16  C8  4OA d   1       1.037  33.625  38.276  0.00  0.00    -0.046 C 
ATOM     17  C9  4OA d   1       0.505  33.180  36.815  0.00  0.00    -0.043 C 
ATOM     18  H   4OA d   1      -1.020  31.466  35.020  0.00  0.00     0.034 H 
ATOM     19  H   4OA d   1      -0.006  29.989  35.148  0.00  0.00     0.034 H 
ATOM     20  H   4OA d   1      -1.288  33.579  35.571  0.00  0.00     0.033 H 
ATOM     21  H   4OA d   1      -1.641  33.420  37.325  0.00  0.00     0.033 H 
ATOM     22  H   4OA d   1      -1.967  35.728  36.632  0.00  0.00     0.034 H 
ATOM     23  H   4OA d   1      -0.325  35.783  35.907  0.00  0.00     0.034 H 
ATOM     24  H   4OA d   1       1.765  35.550  37.535  0.00  0.00     0.041 H 
ATOM     25  H   4OA d   1       2.709  35.824  39.707  0.00  0.00     0.033 H 
ATOM     26  H   4OA d   1       1.210  35.288  40.538  0.00  0.00     0.033 H 
ATOM     27  H   4OA d   1       1.848  38.010  39.525  0.00  0.00     0.033 H 
ATOM     28  H   4OA d   1       0.374  37.489  40.411  0.00  0.00     0.033 H 
ATOM     29  H   4OA d   1       0.854  37.572  37.364  0.00  0.00     0.041 H 
ATOM     30  H   4OA d   1       0.928  32.755  34.123  0.00  0.00     0.036 H 
ATOM     31  H   4OA d   1       0.637  31.297  33.115  0.00  0.00     0.036 H 
ATOM     32  H   4OA d   1       2.481  30.071  34.309  0.00  0.00     0.082 H 
ATOM     33  H   4OA d   1       2.971  32.685  35.885  0.00  0.00     0.037 H 
ATOM     34  H   4OA d   1       3.967  31.194  35.978  0.00  0.00     0.037 H 
ATOM     35  H   4OA d   1       1.964  29.896  36.855  0.00  0.00     0.041 H 
ATOM     36  H   4OA d   1       3.444  31.030  38.606  0.00  0.00     0.033 H 
ATOM     37  H   4OA d   1       1.734  31.021  39.156  0.00  0.00     0.033 H 
ATOM     38  H   4OA d   1       3.156  33.397  37.761  0.00  0.00     0.033 H 
ATOM     39  H   4OA d   1       2.809  33.286  39.521  0.00  0.00     0.033 H 
ATOM     40  H   4OA d   1       0.346  33.255  39.048  0.00  0.00     0.041 H 
ATOM     41  H   4OA d   1       1.195  33.573  36.054  0.00  0.00     0.041 H 
ENDROOT
BRANCH   9  42
ATOM     42  C20 4OA d   1      -0.900  38.560  38.340  0.00  0.00    -0.053 C 
ATOM     43  H   4OA d   1      -1.502  38.381  39.243  0.00  0.00     0.040 H 
BRANCH  42  44
ATOM     44  C21 4OA d   1      -1.828  38.704  37.119  0.00  0.00    -0.072 C 
ATOM     45  H   4OA d   1      -2.530  39.534  37.288  0.00  0.00     0.028 H 
ATOM     46  H   4OA d   1      -2.392  37.771  36.975  0.00  0.00     0.028 H 
ATOM     47  H   4OA d   1      -1.225  38.910  36.222  0.00  0.00     0.028 H 
ENDBRANCH  42  44
BRANCH  42  48
ATOM     48  C22 4OA d   1      -0.220  39.959  38.414  0.00  0.00    -0.053 C 
ATOM     49  H   4OA d   1      -0.099  40.304  37.377  0.00  0.00     0.034 H 
ATOM     50  H   4OA d   1       0.770  39.803  38.866  0.00  0.00     0.034 H 
BRANCH  48  51
ATOM     51  C23 4OA d   1      -0.869  41.097  39.176  0.00  0.00     0.016 C 
ATOM     52  H   4OA d   1      -1.002  40.783  40.222  0.00  0.00     0.049 H 
ATOM     53  H   4OA d   1      -1.852  41.300  38.726  0.00  0.00     0.049 H 
BRANCH  51  54
ATOM     54  C24 4OA d   1      -0.039  42.414  39.160  0.00  0.00     0.172 C 
ATOM     55  O4  4OA d   1      -0.518  43.375  39.789  0.00  0.00    -0.648 OA
ATOM     56  O4A 4OA d   1       1.067  42.519  38.560  0.00  0.00    -0.648 OA
ENDBRANCH  51  54
ENDBRANCH  48  51
ENDBRANCH  42  48
ENDBRANCH   9  42
BRANCH   5  57
ATOM     57  C18 4OA d   1      -1.466  35.560  39.212  0.00  0.00    -0.068 C 
ATOM     58  H   4OA d   1      -1.811  34.524  39.079  0.00  0.00     0.028 H 
ATOM     59  H   4OA d   1      -2.316  36.248  39.094  0.00  0.00     0.028 H 
ATOM     60  H   4OA d   1      -1.036  35.677  40.218  0.00  0.00     0.028 H 
ENDBRANCH   5  57
BRANCH   2  61
ATOM     61  C19 4OA d   1      -0.547  30.929  37.698  0.00  0.00    -0.068 C 
ATOM     62  H   4OA d   1      -0.249  31.222  38.715  0.00  0.00     0.028 H 
ATOM     63  H   4OA d   1      -0.542  29.832  37.616  0.00  0.00     0.028 H 
ATOM     64  H   4OA d   1      -1.558  31.308  37.489  0.00  0.00     0.028 H 
ENDBRANCH   2  61
BRANCH  11  65
ATOM     65  O1B 4OA d   1       3.351  31.700  33.391  0.00  0.00    -0.396 OA
ATOM     66  H   4OA d   1       3.083  31.403  32.529  0.00  0.00     0.210 HD
ENDBRANCH  11  65
TORSDOF 8
