REMARK  8 active torsions:
REMARK  status: ('A' for Active; 'I' for Inactive)
REMARK    1  A    between atoms: C4_3  and  S7_4 
REMARK    2  A    between atoms: S7_4  and  N10_6 
REMARK    3  A    between atoms: C6_12  and  N19_20 
REMARK    4  A    between atoms: C1_13  and  S11_14 
REMARK    5  A    between atoms: S11_14  and  C15_17 
REMARK    6  A    between atoms: C15_17  and  C18_18 
REMARK    7  A    between atoms: C18_18  and  O21_19 
REMARK    8  A    between atoms: N19_20  and  C14_21 
ROOT
ATOM      1  F20 V14 d   1      -2.414 -17.886  -6.470  0.00  0.00    -0.202 F 
ATOM      2  C5  V14 d   1      -1.073 -17.706  -6.548  0.00  0.00     0.170 A 
ATOM      3  C4  V14 d   1      -0.553 -16.693  -5.752  0.00  0.00     0.161 A 
ATOM      4  C3  V14 d   1       0.791 -16.409  -5.669  0.00  0.00     0.182 A 
ATOM      5  F12 V14 d   1       1.227 -15.400  -4.872  0.00  0.00    -0.201 F 
ATOM      6  C2  V14 d   1       1.650 -17.153  -6.459  0.00  0.00     0.180 A 
ATOM      7  F13 V14 d   1       2.947 -16.778  -6.337  0.00  0.00    -0.201 F 
ATOM      8  C6  V14 d   1      -0.216 -18.507  -7.363  0.00  0.00     0.094 A 
ATOM      9  C1  V14 d   1       1.171 -18.205  -7.311  0.00  0.00     0.130 A 
ENDROOT
BRANCH   8  10
ATOM     10  N19 V14 d   1      -0.741 -19.535  -8.226  0.00  0.00    -0.382 N 
ATOM     11  H8  V14 d   1      -0.237 -20.431  -8.289  0.00  0.00     0.160 HD
BRANCH  10  12
ATOM     12  C14 V14 d   1      -1.973 -19.358  -9.026  0.00  0.00     0.010 C 
ATOM     13  C28 V14 d   1      -1.770 -18.780 -10.453  0.00  0.00    -0.046 C 
ATOM     14  C27 V14 d   1      -0.854 -19.504 -11.431  0.00  0.00    -0.063 C 
ATOM     15  H10 V14 d   1      -1.369 -17.763 -10.332  0.00  0.00     0.035 H 
ATOM     16  H11 V14 d   1      -2.764 -18.730 -10.922  0.00  0.00     0.035 H 
ATOM     17  C26 V14 d   1      -1.695 -20.396 -12.355  0.00  0.00    -0.065 C 
ATOM     18  H12 V14 d   1      -0.139 -20.126 -10.872  0.00  0.00     0.033 H 
ATOM     19  H13 V14 d   1      -0.305 -18.766 -12.034  0.00  0.00     0.033 H 
ATOM     20  C25 V14 d   1      -1.598 -21.874 -11.992  0.00  0.00    -0.065 C 
ATOM     21  H14 V14 d   1      -1.343 -20.263 -13.389  0.00  0.00     0.033 H 
ATOM     22  H15 V14 d   1      -2.747 -20.084 -12.283  0.00  0.00     0.033 H 
ATOM     23  C24 V14 d   1      -1.796 -22.182 -10.510  0.00  0.00    -0.065 C 
ATOM     24  H16 V14 d   1      -0.601 -22.234 -12.286  0.00  0.00     0.033 H 
ATOM     25  H17 V14 d   1      -2.367 -22.418 -12.560  0.00  0.00     0.033 H 
ATOM     26  C23 V14 d   1      -3.116 -21.560 -10.035  0.00  0.00    -0.063 C 
ATOM     27  H18 V14 d   1      -0.961 -21.759  -9.932  0.00  0.00     0.033 H 
ATOM     28  H19 V14 d   1      -1.829 -23.271 -10.362  0.00  0.00     0.033 H 
ATOM     29  C22 V14 d   1      -2.908 -20.590  -8.868  0.00  0.00    -0.046 C 
ATOM     30  H20 V14 d   1      -3.791 -22.365  -9.711  0.00  0.00     0.033 H 
ATOM     31  H21 V14 d   1      -3.573 -21.014 -10.873  0.00  0.00     0.033 H 
ATOM     32  H22 V14 d   1      -3.901 -20.200  -8.601  0.00  0.00     0.035 H 
ATOM     33  H23 V14 d   1      -2.510 -21.183  -8.032  0.00  0.00     0.035 H 
ATOM     34  H9  V14 d   1      -2.515 -18.551  -8.511  0.00  0.00     0.072 H 
ENDBRANCH  10  12
ENDBRANCH   8  10
BRANCH   9  35
ATOM     35  S11 V14 d   1       2.373 -19.117  -8.298  0.00  0.00     0.182 S 
ATOM     36  O16 V14 d   1       3.526 -19.228  -7.316  0.00  0.00    -0.222 OA
ATOM     37  O17 V14 d   1       2.986 -18.054  -9.259  0.00  0.00    -0.222 OA
BRANCH  35  38
ATOM     38  C15 V14 d   1       2.303 -20.720  -9.191  0.00  0.00     0.053 C 
ATOM     39  H3  V14 d   1       3.286 -21.205  -9.097  0.00  0.00     0.059 H 
ATOM     40  H4  V14 d   1       2.098 -20.510 -10.251  0.00  0.00     0.059 H 
BRANCH  38  41
ATOM     41  C18 V14 d   1       1.243 -21.699  -8.689  0.00  0.00     0.029 C 
ATOM     42  H5  V14 d   1       0.456 -21.770  -9.454  0.00  0.00     0.075 H 
ATOM     43  H6  V14 d   1       0.817 -21.293  -7.760  0.00  0.00     0.075 H 
BRANCH  41  44
ATOM     44  O21 V14 d   1       1.711 -23.003  -8.421  0.00  0.00    -0.400 OA
ATOM     45  H7  V14 d   1       0.990 -23.541  -8.116  0.00  0.00     0.209 HD
ENDBRANCH  41  44
ENDBRANCH  38  41
ENDBRANCH  35  38
ENDBRANCH   9  35
BRANCH   3  46
ATOM     46  S7  V14 d   1      -1.673 -15.796  -4.757  0.00  0.00     0.263 S 
ATOM     47  O9  V14 d   1      -2.533 -16.800  -3.982  0.00  0.00    -0.201 OA
ATOM     48  O8  V14 d   1      -2.651 -14.972  -5.614  0.00  0.00    -0.201 OA
BRANCH  46  49
ATOM     49  N10 V14 d   1      -1.144 -14.803  -3.381  0.00  0.00    -0.324 N 
ATOM     50  H1  V14 d   1      -1.818 -14.304  -2.836  0.00  0.00     0.169 HD
ATOM     51  H2  V14 d   1      -0.172 -14.743  -3.152  0.00  0.00     0.169 HD
ENDBRANCH  46  49
ENDBRANCH   3  46
TORSDOF 8
