REMARK  5 active torsions:
REMARK  status: ('A' for Active; 'I' for Inactive)
REMARK    1  A    between atoms: C21_2  and  C3'_3 
REMARK    2  A    between atoms: C21_2  and  C1'_11 
REMARK    3  A    between atoms: C3'_3  and  C2'_4 
REMARK    4  A    between atoms: C39_9  and  O7'_10 
REMARK    5  A    between atoms: C1'_11  and  N3_12 
ROOT
ATOM      1  O4' HFG d   1     -22.049   7.644 -32.787  0.00  0.00    -0.296 OA
ATOM      2  C21 HFG d   1     -22.377   8.025 -33.874  0.00  0.00     0.147 C 
ENDROOT
BRANCH   2   3
ATOM      3  C3' HFG d   1     -22.020   9.449 -34.361  0.00  0.00     0.021 C 
ATOM      4  H1  HFG d   1     -22.929  10.067 -34.325  0.00  0.00     0.047 H 
ATOM      5  H2  HFG d   1     -21.664   9.382 -35.400  0.00  0.00     0.047 H 
BRANCH   3   6
ATOM      6  C2' HFG d   1     -20.938  10.132 -33.522  0.00  0.00     0.132 C 
ATOM      7  N1' HFG d   1     -21.333  10.229 -32.181  0.00  0.00    -0.068 N 
ATOM      8  C6' HFG d   1     -20.209  10.416 -31.313  0.00  0.00     0.082 C 
ATOM      9  H4  HFG d   1     -21.811   9.382 -31.919  0.00  0.00     0.277 HD
ATOM     10  H5  HFG d   1     -21.958  11.013 -32.080  0.00  0.00     0.277 HD
ATOM     11  C5' HFG d   1     -18.968  10.912 -32.058  0.00  0.00    -0.040 C 
ATOM     12  H6  HFG d   1     -19.971   9.456 -30.832  0.00  0.00     0.075 H 
ATOM     13  H7  HFG d   1     -20.477  11.155 -30.543  0.00  0.00     0.075 H 
ATOM     14  C4' HFG d   1     -18.536   9.982 -33.056  0.00  0.00    -0.038 C 
ATOM     15  H8  HFG d   1     -18.154  11.059 -31.333  0.00  0.00     0.035 H 
ATOM     16  H9  HFG d   1     -19.204  11.870 -32.544  0.00  0.00     0.035 H 
ATOM     17  C39 HFG d   1     -19.625   9.329 -33.672  0.00  0.00     0.063 C 
ATOM     18  H10 HFG d   1     -17.890   9.228 -32.584  0.00  0.00     0.036 H 
ATOM     19  H11 HFG d   1     -17.965  10.524 -33.824  0.00  0.00     0.036 H 
ATOM     20  H12 HFG d   1     -19.755   8.340 -33.208  0.00  0.00     0.086 H 
ATOM     21  H3  HFG d   1     -20.776  11.149 -33.908  0.00  0.00     0.088 H 
BRANCH  17  22
ATOM     22  O7' HFG d   1     -19.334   9.161 -35.157  0.00  0.00    -0.393 OA
ATOM     23  H13 HFG d   1     -19.209  10.016 -35.553  0.00  0.00     0.210 HD
ENDBRANCH  17  22
ENDBRANCH   3   6
ENDBRANCH   2   3
BRANCH   2  24
ATOM     24  C1' HFG d   1     -23.214   7.021 -34.869  0.00  0.00     0.058 C 
ATOM     25  H14 HFG d   1     -22.518   6.531 -35.566  0.00  0.00     0.076 H 
ATOM     26  H15 HFG d   1     -23.954   7.603 -35.438  0.00  0.00     0.076 H 
BRANCH  24  27
ATOM     27  N3  HFG d   1     -23.931   5.961 -34.038  0.00  0.00    -0.303 N 
ATOM     28  C4  HFG d   1     -25.037   6.312 -33.276  0.00  0.00     0.261 A 
ATOM     29  O11 HFG d   1     -25.439   7.477 -33.274  0.00  0.00    -0.267 OA
ATOM     30  C10 HFG d   1     -25.676   5.360 -32.534  0.00  0.00     0.060 A 
ATOM     31  C5  HFG d   1     -26.830   5.677 -31.728  0.00  0.00    -0.043 A 
ATOM     32  C9  HFG d   1     -25.188   4.069 -32.569  0.00  0.00     0.050 A 
ATOM     33  C6  HFG d   1     -27.444   4.687 -30.995  0.00  0.00     0.052 A 
ATOM     34  H16 HFG d   1     -27.212   6.691 -31.700  0.00  0.00     0.087 H 
ATOM     35  C7  HFG d   1     -26.946   3.377 -31.033  0.00  0.00     0.035 A 
ATOM     36 CL1  HFG d   1     -28.856   5.072 -30.011  0.00  0.00    -0.083 Cl
ATOM     37  C8  HFG d   1     -25.814   3.062 -31.822  0.00  0.00    -0.038 A 
ATOM     38 BR1  HFG d   1     -27.804   1.960 -29.995  0.00  0.00    -0.049 Br
ATOM     39  H19 HFG d   1     -25.433   2.047 -31.848  0.00  0.00     0.089 H 
ATOM     40  N1  HFG d   1     -24.096   3.758 -33.329  0.00  0.00    -0.351 N 
ATOM     41  C2  HFG d   1     -23.498   4.719 -34.048  0.00  0.00     0.046 A 
ATOM     42  H18 HFG d   1     -23.735   2.793 -33.349  0.00  0.00     0.166 HD
ATOM     43  H17 HFG d   1     -22.631   4.465 -34.656  0.00  0.00     0.140 H 
ENDBRANCH  24  27
ENDBRANCH   2  24
TORSDOF 5
