REMARK  17 active torsions:
REMARK  status: ('A' for Active; 'I' for Inactive)
REMARK    1  A    between atoms: CAC_1  and  CBF_2 
REMARK    2  A    between atoms: CBF_2  and  CAD_3 
REMARK    3  A    between atoms: CBF_2  and  OAG_4 
REMARK    4  A    between atoms: CBF_2  and  CAN_5 
REMARK    5  A    between atoms: CAN_5  and  OAT_6 
REMARK    6  A    between atoms: OAT_6  and  CBB_7 
REMARK    7  A    between atoms: CBA_9  and  OAS_10 
REMARK    8  A    between atoms: OAS_10  and  CAB_11 
REMARK    9  A    between atoms: CAY_14  and  CBE_15 
REMARK   10  A    between atoms: CBD_18  and  CAM_19 
REMARK   11  A    between atoms: CAM_19  and  CAL_20 
REMARK   12  A    between atoms: CAL_20  and  CAA_21 
REMARK   13  A    between atoms: CBC_22  and  CAO_23 
REMARK   14  A    between atoms: CAO_23  and  SAU_24 
REMARK   15  A    between atoms: SAU_24  and  C4_25 
REMARK   16  A    between atoms: C2_28  and  NAF_29 
REMARK   17  A    between atoms: C6_31  and  NAE_32 
ROOT
ATOM      1  CBE 2XJ d   1     -34.031  12.183  -4.109  0.00  0.00     0.108 A 
ATOM      2  NAR 2XJ d   1     -33.125  11.778  -3.223  0.00  0.00    -0.243 NA
ATOM      3  SAV 2XJ d   1     -33.308  13.043  -5.338  0.00  0.00    -0.072 SA
ATOM      4  CBD 2XJ d   1     -31.823  12.914  -4.703  0.00  0.00     0.010 A 
ATOM      5  CBC 2XJ d   1     -31.904  12.202  -3.574  0.00  0.00     0.058 A 
ENDROOT
BRANCH   1   6
ATOM      6  CAY 2XJ d   1     -35.308  11.908  -3.993  0.00  0.00     0.003 A 
ATOM      7  CAK 2XJ d   1     -35.711  10.948  -3.068  0.00  0.00    -0.035 A 
ATOM      8  CBB 2XJ d   1     -37.066  10.662  -2.951  0.00  0.00     0.103 A 
ATOM      9  H   2XJ d   1     -34.982  10.434  -2.452  0.00  0.00     0.089 H 
ATOM     10  CBA 2XJ d   1     -38.011  11.304  -3.740  0.00  0.00     0.101 A 
ATOM     11  CAI 2XJ d   1     -37.594  12.266  -4.671  0.00  0.00    -0.047 A 
ATOM     12  CAH 2XJ d   1     -36.245  12.553  -4.795  0.00  0.00    -0.068 A 
ATOM     13  H   2XJ d   1     -38.321  12.781  -5.288  0.00  0.00     0.087 H 
ATOM     14  H   2XJ d   1     -35.916  13.286  -5.523  0.00  0.00     0.085 H 
BRANCH   8  15
ATOM     15  OAT 2XJ d   1     -37.570   9.759  -2.079  0.00  0.00    -0.345 OA
BRANCH  15  16
ATOM     16  CAN 2XJ d   1     -36.653   8.816  -1.513  0.00  0.00     0.054 C 
ATOM     17  H   2XJ d   1     -36.062   8.317  -2.295  0.00  0.00     0.079 H 
ATOM     18  H   2XJ d   1     -35.975   9.302  -0.795  0.00  0.00     0.079 H 
BRANCH  16  19
ATOM     19  CBF 2XJ d   1     -37.584   7.832  -0.813  0.00  0.00     0.072 C 
BRANCH  19  20
ATOM     20  CAC 2XJ d   1     -37.426   7.980   0.697  0.00  0.00    -0.046 C 
ATOM     21  H   2XJ d   1     -37.732   8.992   1.000  0.00  0.00     0.031 H 
ATOM     22  H   2XJ d   1     -36.374   7.817   0.973  0.00  0.00     0.031 H 
ATOM     23  H   2XJ d   1     -38.058   7.238   1.206  0.00  0.00     0.031 H 
ENDBRANCH  19  20
BRANCH  19  24
ATOM     24  CAD 2XJ d   1     -39.067   8.058  -1.190  0.00  0.00    -0.046 C 
ATOM     25  H   2XJ d   1     -39.189   7.953  -2.278  0.00  0.00     0.031 H 
ATOM     26  H   2XJ d   1     -39.373   9.069  -0.883  0.00  0.00     0.031 H 
ATOM     27  H   2XJ d   1     -39.693   7.313  -0.677  0.00  0.00     0.031 H 
ENDBRANCH  19  24
BRANCH  19  28
ATOM     28  OAG 2XJ d   1     -37.179   6.501  -1.197  0.00  0.00    -0.388 OA
ATOM     29  H   2XJ d   1     -37.284   6.397  -2.135  0.00  0.00     0.210 HD
ENDBRANCH  19  28
ENDBRANCH  16  19
ENDBRANCH  15  16
ENDBRANCH   8  15
BRANCH  10  30
ATOM     30  OAS 2XJ d   1     -39.317  10.941  -3.544  0.00  0.00    -0.353 OA
BRANCH  30  31
ATOM     31  CAB 2XJ d   1     -40.328  11.848  -3.992  0.00  0.00     0.010 C 
ATOM     32  H   2XJ d   1     -41.321  11.429  -3.771  0.00  0.00     0.066 H 
ATOM     33  H   2XJ d   1     -40.228  12.002  -5.077  0.00  0.00     0.066 H 
ATOM     34  H   2XJ d   1     -40.213  12.811  -3.473  0.00  0.00     0.066 H 
ENDBRANCH  30  31
ENDBRANCH  10  30
ENDBRANCH   1   6
BRANCH   5  35
ATOM     35  CAO 2XJ d   1     -30.735  11.873  -2.727  0.00  0.00     0.024 C 
ATOM     36  H   2XJ d   1     -31.050  11.585  -1.713  0.00  0.00     0.059 H 
ATOM     37  H   2XJ d   1     -30.038  12.722  -2.668  0.00  0.00     0.059 H 
BRANCH  35  38
ATOM     38  SAU 2XJ d   1     -29.973  10.454  -3.609  0.00  0.00    -0.103 SA
BRANCH  38  39
ATOM     39  C4  2XJ d   1     -28.210  10.887  -3.808  0.00  0.00     0.116 A 
ATOM     40  C5  2XJ d   1     -27.697  12.161  -3.670  0.00  0.00    -0.004 A 
ATOM     41  C6  2XJ d   1     -26.346  12.372  -3.851  0.00  0.00     0.143 A 
ATOM     42  H   2XJ d   1     -28.351  12.989  -3.421  0.00  0.00     0.093 H 
ATOM     43  N1  2XJ d   1     -25.508  11.348  -4.161  0.00  0.00    -0.046 NA
ATOM     44  C2  2XJ d   1     -26.009  10.119  -4.268  0.00  0.00     0.723 A 
ATOM     45  N3  2XJ d   1     -27.335   9.905  -4.098  0.00  0.00    -0.056 NA
BRANCH  41  46
ATOM     46  NAE 2XJ d   1     -25.889  13.626  -3.728  0.00  0.00    -0.383 N 
ATOM     47  H   2XJ d   1     -24.886  13.824  -3.856  0.00  0.00     0.157 HD
ATOM     48  H   2XJ d   1     -26.541  14.392  -3.506  0.00  0.00     0.157 HD
ENDBRANCH  41  46
BRANCH  44  49
ATOM     49  NAF 2XJ d   1     -25.193   9.090  -4.548  0.00  0.00    -0.231 N 
ATOM     50  H   2XJ d   1     -25.576   8.137  -4.632  0.00  0.00     0.174 HD
ATOM     51  H   2XJ d   1     -24.184   9.253  -4.679  0.00  0.00     0.174 HD
ENDBRANCH  44  49
ENDBRANCH  38  39
ENDBRANCH  35  38
ENDBRANCH   5  35
BRANCH   4  52
ATOM     52  CAM 2XJ d   1     -30.545  13.432  -5.345  0.00  0.00    -0.033 C 
ATOM     53  H   2XJ d   1     -30.686  13.451  -6.436  0.00  0.00     0.041 H 
ATOM     54  H   2XJ d   1     -29.725  12.744  -5.093  0.00  0.00     0.041 H 
BRANCH  52  55
ATOM     55  CAL 2XJ d   1     -30.161  14.824  -4.887  0.00  0.00    -0.064 C 
ATOM     56  H   2XJ d   1     -29.068  14.946  -4.914  0.00  0.00     0.032 H 
ATOM     57  H   2XJ d   1     -30.525  15.003  -3.864  0.00  0.00     0.032 H 
BRANCH  55  58
ATOM     58  CAA 2XJ d   1     -30.820  15.784  -5.853  0.00  0.00    -0.076 C 
ATOM     59  H   2XJ d   1     -30.574  16.818  -5.568  0.00  0.00     0.027 H 
ATOM     60  H   2XJ d   1     -31.911  15.645  -5.822  0.00  0.00     0.027 H 
ATOM     61  H   2XJ d   1     -30.454  15.588  -6.872  0.00  0.00     0.027 H 
ENDBRANCH  55  58
ENDBRANCH  52  55
ENDBRANCH   4  52
TORSDOF 17
