REMARK  15 active torsions:
REMARK  status: ('A' for Active; 'I' for Inactive)
REMARK    1  A    between atoms: OAE_1  and  CAK_2 
REMARK    2  A    between atoms: CAK_2  and  CAL_3 
REMARK    3  A    between atoms: CAL_3  and  OAS_4 
REMARK    4  A    between atoms: OAS_4  and  CBA_5 
REMARK    5  A    between atoms: CAZ_7  and  OAR_8 
REMARK    6  A    between atoms: OAR_8  and  CAB_9 
REMARK    7  A    between atoms: CAX_12  and  CBD_13 
REMARK    8  A    between atoms: CBC_16  and  CAM_17 
REMARK    9  A    between atoms: CAM_17  and  CAJ_18 
REMARK   10  A    between atoms: CAJ_18  and  CAA_19 
REMARK   11  A    between atoms: CBB_20  and  CAN_21 
REMARK   12  A    between atoms: CAN_21  and  SAT_22 
REMARK   13  A    between atoms: SAT_22  and  C2_23 
REMARK   14  A    between atoms: C6_26  and  NAC_27 
REMARK   15  A    between atoms: C4_29  and  NAD_30 
ROOT
ATOM      1  CBD 2XZ d   1     -33.041  12.464  -4.291  0.00  0.00     0.108 A 
ATOM      2  NAQ 2XZ d   1     -32.098  12.085  -3.459  0.00  0.00    -0.243 NA
ATOM      3  SAU 2XZ d   1     -32.403  13.404  -5.459  0.00  0.00    -0.072 SA
ATOM      4  CBC 2XZ d   1     -30.837  13.277  -4.825  0.00  0.00     0.010 A 
ATOM      5  CBB 2XZ d   1     -30.868  12.490  -3.758  0.00  0.00     0.058 A 
ENDROOT
BRANCH   1   6
ATOM      6  CAX 2XZ d   1     -34.313  12.131  -4.073  0.00  0.00     0.003 A 
ATOM      7  CAI 2XZ d   1     -34.593  11.106  -3.180  0.00  0.00    -0.035 A 
ATOM      8  CBA 2XZ d   1     -35.927  10.795  -2.927  0.00  0.00     0.103 A 
ATOM      9  H6  2XZ d   1     -33.793  10.561  -2.692  0.00  0.00     0.089 H 
ATOM     10  CAZ 2XZ d   1     -36.964  11.497  -3.502  0.00  0.00     0.101 A 
ATOM     11  CAG 2XZ d   1     -36.699  12.546  -4.373  0.00  0.00    -0.047 A 
ATOM     12  CAF 2XZ d   1     -35.366  12.862  -4.638  0.00  0.00    -0.068 A 
ATOM     13  H10 2XZ d   1     -37.506  13.104  -4.834  0.00  0.00     0.087 H 
ATOM     14  H11 2XZ d   1     -35.140  13.693  -5.297  0.00  0.00     0.085 H 
BRANCH   8  15
ATOM     15  OAS 2XZ d   1     -36.345   9.813  -2.103  0.00  0.00    -0.346 OA
BRANCH  15  16
ATOM     16  CAL 2XZ d   1     -35.507   8.715  -1.818  0.00  0.00     0.045 C 
ATOM     17  H4  2XZ d   1     -34.812   8.506  -2.645  0.00  0.00     0.078 H 
ATOM     18  H5  2XZ d   1     -34.937   8.866  -0.889  0.00  0.00     0.078 H 
BRANCH  16  19
ATOM     19  CAK 2XZ d   1     -36.537   7.635  -1.670  0.00  0.00     0.037 C 
ATOM     20  H2  2XZ d   1     -37.496   8.061  -1.339  0.00  0.00     0.077 H 
ATOM     21  H3  2XZ d   1     -36.680   7.107  -2.624  0.00  0.00     0.077 H 
BRANCH  19  22
ATOM     22  OAE 2XZ d   1     -36.032   6.770  -0.708  0.00  0.00    -0.399 OA
ATOM     23  H1  2XZ d   1     -36.646   6.059  -0.570  0.00  0.00     0.209 HD
ENDBRANCH  19  22
ENDBRANCH  16  19
ENDBRANCH  15  16
ENDBRANCH   8  15
BRANCH  10  24
ATOM     24  OAR 2XZ d   1     -38.206  11.074  -3.137  0.00  0.00    -0.353 OA
BRANCH  24  25
ATOM     25  CAB 2XZ d   1     -39.240  11.123  -4.139  0.00  0.00     0.010 C 
ATOM     26  H7  2XZ d   1     -40.184  10.755  -3.710  0.00  0.00     0.066 H 
ATOM     27  H8  2XZ d   1     -38.954  10.491  -4.992  0.00  0.00     0.066 H 
ATOM     28  H9  2XZ d   1     -39.372  12.161  -4.479  0.00  0.00     0.066 H 
ENDBRANCH  24  25
ENDBRANCH  10  24
ENDBRANCH   1   6
BRANCH   5  29
ATOM     29  CAN 2XZ d   1     -29.692  12.148  -2.853  0.00  0.00     0.025 C 
ATOM     30  H19 2XZ d   1     -30.074  12.021  -1.829  0.00  0.00     0.059 H 
ATOM     31  H20 2XZ d   1     -28.985  12.990  -2.879  0.00  0.00     0.059 H 
BRANCH  29  32
ATOM     32  SAT 2XZ d   1     -28.780  10.626  -3.312  0.00  0.00    -0.084 SA
BRANCH  32  33
ATOM     33  C2  2XZ d   1     -27.101  11.137  -3.690  0.00  0.00     0.192 A 
ATOM     34  N3  2XZ d   1     -26.217  10.154  -3.909  0.00  0.00    -0.206 NA
ATOM     35  C4  2XZ d   1     -24.936  10.407  -4.182  0.00  0.00     0.127 A 
ATOM     36  C5  2XZ d   1     -24.508  11.731  -4.273  0.00  0.00     0.005 A 
ATOM     37  C6  2XZ d   1     -25.448  12.747  -4.066  0.00  0.00     0.127 A 
ATOM     38  H23 2XZ d   1     -23.474  11.967  -4.498  0.00  0.00     0.095 H 
ATOM     39  N1  2XZ d   1     -26.717  12.415  -3.768  0.00  0.00    -0.206 NA
BRANCH  35  40
ATOM     40  NAD 2XZ d   1     -24.127   9.374  -4.381  0.00  0.00    -0.384 N 
ATOM     41  H24 2XZ d   1     -23.132   9.533  -4.594  0.00  0.00     0.157 HD
ATOM     42  H25 2XZ d   1     -24.494   8.414  -4.322  0.00  0.00     0.157 HD
ENDBRANCH  35  40
BRANCH  37  43
ATOM     43  NAC 2XZ d   1     -25.095  14.037  -4.113  0.00  0.00    -0.384 N 
ATOM     44  H21 2XZ d   1     -24.125  14.297  -4.341  0.00  0.00     0.157 HD
ATOM     45  H22 2XZ d   1     -25.794  14.769  -3.921  0.00  0.00     0.157 HD
ENDBRANCH  37  43
ENDBRANCH  32  33
ENDBRANCH  29  32
ENDBRANCH   5  29
BRANCH   4  46
ATOM     46  CAM 2XZ d   1     -29.590  13.891  -5.388  0.00  0.00    -0.033 C 
ATOM     47  H12 2XZ d   1     -29.419  13.541  -6.417  0.00  0.00     0.041 H 
ATOM     48  H13 2XZ d   1     -28.720  13.636  -4.765  0.00  0.00     0.041 H 
BRANCH  46  49
ATOM     49  CAJ 2XZ d   1     -29.831  15.374  -5.371  0.00  0.00    -0.064 C 
ATOM     50  H14 2XZ d   1     -30.839  15.580  -4.982  0.00  0.00     0.032 H 
ATOM     51  H15 2XZ d   1     -29.743  15.774  -6.392  0.00  0.00     0.032 H 
BRANCH  49  52
ATOM     52  CAA 2XZ d   1     -28.777  16.042  -4.459  0.00  0.00    -0.076 C 
ATOM     53  H16 2XZ d   1     -28.945  17.129  -4.440  0.00  0.00     0.027 H 
ATOM     54  H17 2XZ d   1     -27.770  15.834  -4.849  0.00  0.00     0.027 H 
ATOM     55  H18 2XZ d   1     -28.866  15.639  -3.439  0.00  0.00     0.027 H 
ENDBRANCH  49  52
ENDBRANCH  46  49
ENDBRANCH   4  46
TORSDOF 15
