REMARK  17 active torsions:
REMARK  status: ('A' for Active; 'I' for Inactive)
REMARK    1  A    between atoms: OAE_1  and  CAL_2 
REMARK    2  A    between atoms: CAL_2  and  CAN_3 
REMARK    3  A    between atoms: CAN_3  and  OAU_4 
REMARK    4  A    between atoms: OAU_4  and  CBC_5 
REMARK    5  A    between atoms: CBB_7  and  OAT_8 
REMARK    6  A    between atoms: OAT_8  and  CAM_9 
REMARK    7  A    between atoms: CAM_9  and  CAK_10 
REMARK    8  A    between atoms: CAK_10  and  OAD_11 
REMARK    9  A    between atoms: CAZ_14  and  CBF_15 
REMARK   10  A    between atoms: CBE_18  and  CAO_19 
REMARK   11  A    between atoms: CAO_19  and  CAJ_20 
REMARK   12  A    between atoms: CAJ_20  and  CAA_21 
REMARK   13  A    between atoms: CBD_22  and  CAP_23 
REMARK   14  A    between atoms: CAP_23  and  SAV_24 
REMARK   15  A    between atoms: SAV_24  and  C2_25 
REMARK   16  A    between atoms: C6_28  and  NAB_29 
REMARK   17  A    between atoms: C4_31  and  NAC_32 
ROOT
ATOM      1  CBF 2XM d   1     -32.853  12.586  -4.091  0.00  0.00     0.108 A 
ATOM      2  NAS 2XM d   1     -31.913  12.188  -3.264  0.00  0.00    -0.243 NA
ATOM      3  SAW 2XM d   1     -32.193  13.546  -5.221  0.00  0.00    -0.072 SA
ATOM      4  CBE 2XM d   1     -30.705  13.460  -4.634  0.00  0.00     0.010 A 
ATOM      5  CBD 2XM d   1     -30.700  12.656  -3.560  0.00  0.00     0.058 A 
ENDROOT
BRANCH   1   6
ATOM      6  CAZ 2XM d   1     -34.148  12.235  -3.944  0.00  0.00     0.003 A 
ATOM      7  CAI 2XM d   1     -34.511  11.237  -3.066  0.00  0.00    -0.035 A 
ATOM      8  CBC 2XM d   1     -35.851  10.887  -2.907  0.00  0.00     0.103 A 
ATOM      9  H   2XM d   1     -33.749  10.720  -2.494  0.00  0.00     0.089 H 
ATOM     10  CBB 2XM d   1     -36.836  11.567  -3.607  0.00  0.00     0.102 A 
ATOM     11  CAG 2XM d   1     -36.491  12.584  -4.482  0.00  0.00    -0.047 A 
ATOM     12  CAF 2XM d   1     -35.146  12.905  -4.632  0.00  0.00    -0.068 A 
ATOM     13  H   2XM d   1     -37.253  13.118  -5.038  0.00  0.00     0.087 H 
ATOM     14  H   2XM d   1     -34.870  13.705  -5.309  0.00  0.00     0.085 H 
BRANCH   8  15
ATOM     15  OAU 2XM d   1     -36.275   9.911  -2.035  0.00  0.00    -0.346 OA
BRANCH  15  16
ATOM     16  CAN 2XM d   1     -35.331   8.847  -1.817  0.00  0.00     0.045 C 
ATOM     17  H   2XM d   1     -34.900   8.530  -2.778  0.00  0.00     0.078 H 
ATOM     18  H   2XM d   1     -34.527   9.194  -1.151  0.00  0.00     0.078 H 
BRANCH  16  19
ATOM     19  CAL 2XM d   1     -36.067   7.676  -1.170  0.00  0.00     0.037 C 
ATOM     20  H   2XM d   1     -36.900   8.055  -0.560  0.00  0.00     0.077 H 
ATOM     21  H   2XM d   1     -36.459   7.009  -1.952  0.00  0.00     0.077 H 
BRANCH  19  22
ATOM     22  OAE 2XM d   1     -35.142   6.948  -0.330  0.00  0.00    -0.399 OA
ATOM     23  H   2XM d   1     -35.593   6.217   0.076  0.00  0.00     0.209 HD
ENDBRANCH  19  22
ENDBRANCH  16  19
ENDBRANCH  15  16
ENDBRANCH   8  15
BRANCH  10  24
ATOM     24  OAT 2XM d   1     -38.118  11.157  -3.375  0.00  0.00    -0.346 OA
BRANCH  24  25
ATOM     25  CAM 2XM d   1     -39.169  11.996  -3.794  0.00  0.00     0.045 C 
ATOM     26  H   2XM d   1     -38.794  12.846  -4.383  0.00  0.00     0.078 H 
ATOM     27  H   2XM d   1     -39.750  12.370  -2.938  0.00  0.00     0.078 H 
BRANCH  25  28
ATOM     28  CAK 2XM d   1     -39.993  11.042  -4.654  0.00  0.00     0.037 C 
ATOM     29  H   2XM d   1     -39.352  10.607  -5.435  0.00  0.00     0.077 H 
ATOM     30  H   2XM d   1     -40.820  11.594  -5.124  0.00  0.00     0.077 H 
BRANCH  28  31
ATOM     31  OAD 2XM d   1     -40.526   9.990  -3.833  0.00  0.00    -0.399 OA
ATOM     32  H   2XM d   1     -39.811   9.513  -3.428  0.00  0.00     0.209 HD
ENDBRANCH  28  31
ENDBRANCH  25  28
ENDBRANCH  24  25
ENDBRANCH  10  24
ENDBRANCH   1   6
BRANCH   5  33
ATOM     33  CAP 2XM d   1     -29.510  12.289  -2.706  0.00  0.00     0.025 C 
ATOM     34  H   2XM d   1     -29.854  12.139  -1.672  0.00  0.00     0.059 H 
ATOM     35  H   2XM d   1     -28.788  13.118  -2.736  0.00  0.00     0.059 H 
BRANCH  33  36
ATOM     36  SAV 2XM d   1     -28.658  10.741  -3.276  0.00  0.00    -0.084 SA
BRANCH  36  37
ATOM     37  C2  2XM d   1     -27.005  11.152  -3.636  0.00  0.00     0.192 A 
ATOM     38  N3  2XM d   1     -26.136  10.169  -3.936  0.00  0.00    -0.206 NA
ATOM     39  C4  2XM d   1     -24.858  10.435  -4.208  0.00  0.00     0.127 A 
ATOM     40  C5  2XM d   1     -24.421  11.751  -4.228  0.00  0.00     0.005 A 
ATOM     41  C6  2XM d   1     -25.345  12.741  -3.946  0.00  0.00     0.127 A 
ATOM     42  H   2XM d   1     -23.390  11.996  -4.457  0.00  0.00     0.095 H 
ATOM     43  N1  2XM d   1     -26.626  12.419  -3.648  0.00  0.00    -0.206 NA
BRANCH  39  44
ATOM     44  NAC 2XM d   1     -24.022   9.423  -4.447  0.00  0.00    -0.384 N 
ATOM     45  H   2XM d   1     -23.032   9.612  -4.659  0.00  0.00     0.157 HD
ATOM     46  H   2XM d   1     -24.367   8.453  -4.420  0.00  0.00     0.157 HD
ENDBRANCH  39  44
BRANCH  41  47
ATOM     47  NAB 2XM d   1     -24.983  14.015  -3.966  0.00  0.00    -0.384 N 
ATOM     48  H   2XM d   1     -24.011  14.271  -4.191  0.00  0.00     0.157 HD
ATOM     49  H   2XM d   1     -25.673  14.750  -3.756  0.00  0.00     0.157 HD
ENDBRANCH  41  47
ENDBRANCH  36  37
ENDBRANCH  33  36
ENDBRANCH   5  33
BRANCH   4  50
ATOM     50  CAO 2XM d   1     -29.550  14.197  -5.235  0.00  0.00    -0.033 C 
ATOM     51  H   2XM d   1     -29.766  14.533  -6.260  0.00  0.00     0.041 H 
ATOM     52  H   2XM d   1     -28.631  13.592  -5.233  0.00  0.00     0.041 H 
BRANCH  50  53
ATOM     53  CAJ 2XM d   1     -29.463  15.362  -4.264  0.00  0.00    -0.064 C 
ATOM     54  H   2XM d   1     -29.009  15.015  -3.324  0.00  0.00     0.032 H 
ATOM     55  H   2XM d   1     -30.476  15.741  -4.064  0.00  0.00     0.032 H 
BRANCH  53  56
ATOM     56  CAA 2XM d   1     -28.616  16.485  -4.841  0.00  0.00    -0.076 C 
ATOM     57  H   2XM d   1     -28.568  17.315  -4.121  0.00  0.00     0.027 H 
ATOM     58  H   2XM d   1     -29.067  16.839  -5.780  0.00  0.00     0.027 H 
ATOM     59  H   2XM d   1     -27.600  16.113  -5.040  0.00  0.00     0.027 H 
ENDBRANCH  53  56
ENDBRANCH  50  53
ENDBRANCH   4  50
TORSDOF 17
