REMARK  15 active torsions:
REMARK  status: ('A' for Active; 'I' for Inactive)
REMARK    1  A    between atoms: CAL_2  and  CAM_3 
REMARK    2  A    between atoms: CAM_3  and  OAS_4 
REMARK    3  A    between atoms: OAS_4  and  CAZ_5 
REMARK    4  A    between atoms: CAY_7  and  OAR_8 
REMARK    5  A    between atoms: OAR_8  and  CAB_9 
REMARK    6  A    between atoms: CAX_12  and  CBC_13 
REMARK    7  A    between atoms: CBB_16  and  CAN_17 
REMARK    8  A    between atoms: CAN_17  and  CAK_18 
REMARK    9  A    between atoms: CAK_18  and  CAA_19 
REMARK   10  A    between atoms: CBD_20  and  CBE_21 
REMARK   11  A    between atoms: CBE_21  and  CAC_22 
REMARK   12  A    between atoms: CBE_21  and  SAT_23 
REMARK   13  A    between atoms: SAT_23  and  C2_24 
REMARK   14  A    between atoms: C6_27  and  NAD_28 
REMARK   15  A    between atoms: C4_30  and  NAE_31 
ROOT
ATOM      1  CBC 2Y1 d   1      12.318  32.994  -4.110  0.00  0.00     0.108 A 
ATOM      2  NAQ 2Y1 d   1      12.073  31.955  -3.298  0.00  0.00    -0.243 NA
ATOM      3  SAU 2Y1 d   1      13.269  32.565  -5.410  0.00  0.00    -0.072 SA
ATOM      4  CBB 2Y1 d   1      13.355  30.942  -4.898  0.00  0.00     0.011 A 
ATOM      5  CBD 2Y1 d   1      12.652  30.834  -3.725  0.00  0.00     0.062 A 
ENDROOT
BRANCH   1   6
ATOM      6  CAX 2Y1 d   1      11.841  34.278  -3.861  0.00  0.00     0.003 A 
ATOM      7  CAJ 2Y1 d   1      10.607  34.441  -3.257  0.00  0.00    -0.035 A 
ATOM      8  CAZ 2Y1 d   1      10.174  35.734  -2.999  0.00  0.00     0.103 A 
ATOM      9  H5  2Y1 d   1       9.997  33.585  -2.993  0.00  0.00     0.089 H 
ATOM     10  CAY 2Y1 d   1      10.962  36.832  -3.340  0.00  0.00     0.101 A 
ATOM     11  CAH 2Y1 d   1      12.209  36.641  -3.937  0.00  0.00    -0.047 A 
ATOM     12  CAG 2Y1 d   1      12.648  35.355  -4.190  0.00  0.00    -0.068 A 
ATOM     13  H9  2Y1 d   1      12.827  37.492  -4.199  0.00  0.00     0.087 H 
ATOM     14  H10 2Y1 d   1      13.619  35.190  -4.644  0.00  0.00     0.085 H 
BRANCH   8  15
ATOM     15  OAS 2Y1 d   1       8.932  35.972  -2.409  0.00  0.00    -0.346 OA
BRANCH  15  16
ATOM     16  CAM 2Y1 d   1       8.873  35.436  -1.089  0.00  0.00     0.050 C 
ATOM     17  H3  2Y1 d   1       8.974  34.341  -1.114  0.00  0.00     0.078 H 
ATOM     18  H4  2Y1 d   1       9.671  35.864  -0.464  0.00  0.00     0.078 H 
BRANCH  16  19
ATOM     19  CAL 2Y1 d   1       7.503  35.833  -0.551  0.00  0.00     0.078 C 
ATOM     20  FAF 2Y1 d   1       7.364  35.175   0.649  0.00  0.00    -0.253 F 
ATOM     21  H1  2Y1 d   1       7.452  36.921  -0.399  0.00  0.00     0.085 H 
ATOM     22  H2  2Y1 d   1       6.713  35.523  -1.251  0.00  0.00     0.085 H 
ENDBRANCH  16  19
ENDBRANCH  15  16
ENDBRANCH   8  15
BRANCH  10  23
ATOM     23  OAR 2Y1 d   1      10.448  38.095  -3.052  0.00  0.00    -0.353 OA
BRANCH  23  24
ATOM     24  CAB 2Y1 d   1      10.998  39.196  -3.812  0.00  0.00     0.010 C 
ATOM     25  H6  2Y1 d   1      10.518  40.134  -3.498  0.00  0.00     0.066 H 
ATOM     26  H7  2Y1 d   1      10.813  39.030  -4.884  0.00  0.00     0.066 H 
ATOM     27  H8  2Y1 d   1      12.081  39.261  -3.632  0.00  0.00     0.066 H 
ENDBRANCH  23  24
ENDBRANCH  10  23
ENDBRANCH   1   6
BRANCH   5  28
ATOM     28  CBE 2Y1 d   1      12.485  29.519  -2.989  0.00  0.00     0.038 C 
ATOM     29  H18 2Y1 d   1      13.254  28.806  -3.321  0.00  0.00     0.066 H 
BRANCH  28  30
ATOM     30  CAC 2Y1 d   1      12.629  29.693  -1.478  0.00  0.00    -0.059 C 
ATOM     31  H19 2Y1 d   1      12.502  28.719  -0.983  0.00  0.00     0.029 H 
ATOM     32  H20 2Y1 d   1      11.861  30.392  -1.115  0.00  0.00     0.029 H 
ATOM     33  H21 2Y1 d   1      13.628  30.093  -1.248  0.00  0.00     0.029 H 
ENDBRANCH  28  30
BRANCH  28  34
ATOM     34  SAT 2Y1 d   1      10.877  28.934  -3.499  0.00  0.00    -0.079 SA
BRANCH  34  35
ATOM     35  C2  2Y1 d   1      11.168  27.268  -3.825  0.00  0.00     0.192 A 
ATOM     36  N3  2Y1 d   1      10.162  26.391  -3.943  0.00  0.00    -0.206 NA
ATOM     37  C4  2Y1 d   1      10.415  25.084  -4.178  0.00  0.00     0.127 A 
ATOM     38  C5  2Y1 d   1      11.725  24.668  -4.329  0.00  0.00     0.005 A 
ATOM     39  C6  2Y1 d   1      12.737  25.631  -4.188  0.00  0.00     0.127 A 
ATOM     40  H24 2Y1 d   1      11.963  23.633  -4.549  0.00  0.00     0.095 H 
ATOM     41  N1  2Y1 d   1      12.427  26.902  -3.943  0.00  0.00    -0.206 NA
BRANCH  37  42
ATOM     42  NAE 2Y1 d   1       9.403  24.170  -4.294  0.00  0.00    -0.384 N 
ATOM     43  H25 2Y1 d   1       9.622  23.180  -4.473  0.00  0.00     0.157 HD
ATOM     44  H26 2Y1 d   1       8.423  24.473  -4.202  0.00  0.00     0.157 HD
ENDBRANCH  37  42
BRANCH  39  45
ATOM     45  NAD 2Y1 d   1      14.039  25.304  -4.307  0.00  0.00    -0.384 N 
ATOM     46  H22 2Y1 d   1      14.310  24.328  -4.497  0.00  0.00     0.157 HD
ATOM     47  H23 2Y1 d   1      14.763  26.030  -4.208  0.00  0.00     0.157 HD
ENDBRANCH  39  45
ENDBRANCH  34  35
ENDBRANCH  28  34
ENDBRANCH   5  28
BRANCH   4  48
ATOM     48  CAN 2Y1 d   1      14.090  29.810  -5.566  0.00  0.00    -0.033 C 
ATOM     49  H11 2Y1 d   1      13.713  29.662  -6.589  0.00  0.00     0.041 H 
ATOM     50  H12 2Y1 d   1      13.963  28.881  -4.990  0.00  0.00     0.041 H 
BRANCH  48  51
ATOM     51  CAK 2Y1 d   1      15.553  30.213  -5.598  0.00  0.00    -0.064 C 
ATOM     52  H13 2Y1 d   1      15.669  31.141  -6.176  0.00  0.00     0.032 H 
ATOM     53  H14 2Y1 d   1      16.147  29.414  -6.064  0.00  0.00     0.032 H 
BRANCH  51  54
ATOM     54  CAA 2Y1 d   1      16.036  30.441  -4.142  0.00  0.00    -0.076 C 
ATOM     55  H15 2Y1 d   1      17.096  30.734  -4.149  0.00  0.00     0.027 H 
ATOM     56  H16 2Y1 d   1      15.916  29.511  -3.566  0.00  0.00     0.027 H 
ATOM     57  H17 2Y1 d   1      15.438  31.239  -3.678  0.00  0.00     0.027 H 
ENDBRANCH  51  54
ENDBRANCH  48  51
ENDBRANCH   4  48
TORSDOF 15
