REMARK  16 active torsions:
REMARK  status: ('A' for Active; 'I' for Inactive)
REMARK    1  A    between atoms: CAD_1  and  SBG_2 
REMARK    2  A    between atoms: SBG_2  and  NAR_5 
REMARK    3  A    between atoms: NAR_5  and  CAM_6 
REMARK    4  A    between atoms: CAM_6  and  CAN_7 
REMARK    5  A    between atoms: CAN_7  and  OAT_8 
REMARK    6  A    between atoms: OAT_8  and  CBC_9 
REMARK    7  A    between atoms: CBB_11  and  OAS_12 
REMARK    8  A    between atoms: OAS_12  and  CAA_13 
REMARK    9  A    between atoms: CAY_16  and  CBD_17 
REMARK   10  A    between atoms: CAZ_20  and  CAB_21 
REMARK   11  A    between atoms: CBE_22  and  CBF_23 
REMARK   12  A    between atoms: CBF_23  and  CAC_24 
REMARK   13  A    between atoms: CBF_23  and  SAU_25 
REMARK   14  A    between atoms: SAU_25  and  C2_26 
REMARK   15  A    between atoms: C6_29  and  NAE_30 
REMARK   16  A    between atoms: C4_32  and  NAF_33 
ROOT
ATOM      1  CBC 2XN d   1      10.239 -36.000 -10.846  0.00  0.00     0.102 A 
ATOM      2  CAL 2XN d   1      10.688 -34.697 -10.595  0.00  0.00    -0.035 A 
ATOM      3  CBB 2XN d   1      10.682 -37.051 -10.008  0.00  0.00     0.101 A 
ATOM      4  CAJ 2XN d   1      11.510 -36.763  -8.938  0.00  0.00    -0.047 A 
ATOM      5  CAI 2XN d   1      11.937 -35.463  -8.696  0.00  0.00    -0.068 A 
ATOM      6  CAY 2XN d   1      11.515 -34.431  -9.514  0.00  0.00     0.003 A 
ATOM      7  H   2XN d   1      10.386 -33.889 -11.252  0.00  0.00     0.089 H 
ATOM      8  H   2XN d   1      11.830 -37.562  -8.279  0.00  0.00     0.087 H 
ATOM      9  H   2XN d   1      12.602 -35.258  -7.865  0.00  0.00     0.085 H 
ENDROOT
BRANCH   6  10
ATOM     10  CBD 2XN d   1      11.987 -33.225  -9.228  0.00  0.00     0.108 A 
ATOM     11  NAQ 2XN d   1      11.841 -32.080  -9.914  0.00  0.00    -0.243 NA
ATOM     12  CBE 2XN d   1      12.520 -31.087  -9.307  0.00  0.00     0.062 A 
ATOM     13  CAZ 2XN d   1      13.161 -31.440  -8.199  0.00  0.00     0.007 A 
ATOM     14  SAV 2XN d   1      12.940 -32.983  -7.924  0.00  0.00    -0.072 SA
BRANCH  12  15
ATOM     15  CBF 2XN d   1      12.575 -29.639  -9.752  0.00  0.00     0.038 C 
ATOM     16  H   2XN d   1      13.236 -29.052  -9.098  0.00  0.00     0.066 H 
BRANCH  15  17
ATOM     17  CAC 2XN d   1      13.097 -29.597 -11.187  0.00  0.00    -0.059 C 
ATOM     18  H   2XN d   1      13.145 -28.553 -11.529  0.00  0.00     0.029 H 
ATOM     19  H   2XN d   1      12.420 -30.167 -11.840  0.00  0.00     0.029 H 
ATOM     20  H   2XN d   1      14.103 -30.041 -11.225  0.00  0.00     0.029 H 
ENDBRANCH  15  17
BRANCH  15  21
ATOM     21  SAU 2XN d   1      10.910 -29.029  -9.649  0.00  0.00    -0.079 SA
BRANCH  21  22
ATOM     22  C2  2XN d   1      11.154 -27.338  -9.474  0.00  0.00     0.192 A 
ATOM     23  N3  2XN d   1      12.389 -26.819  -9.410  0.00  0.00    -0.206 NA
ATOM     24  C4  2XN d   1      12.559 -25.498  -9.260  0.00  0.00     0.127 A 
ATOM     25  C5  2XN d   1      11.452 -24.666  -9.158  0.00  0.00     0.005 A 
ATOM     26  C6  2XN d   1      10.189 -25.237  -9.216  0.00  0.00     0.127 A 
ATOM     27  H   2XN d   1      11.572 -23.596  -9.036  0.00  0.00     0.095 H 
ATOM     28  N1  2XN d   1      10.071 -26.559  -9.365  0.00  0.00    -0.206 NA
BRANCH  24  29
ATOM     29  NAF 2XN d   1      13.784 -24.984  -9.209  0.00  0.00    -0.384 N 
ATOM     30  H   2XN d   1      13.912 -23.968  -9.094  0.00  0.00     0.157 HD
ATOM     31  H   2XN d   1      14.605 -25.601  -9.285  0.00  0.00     0.157 HD
ENDBRANCH  24  29
BRANCH  26  32
ATOM     32  NAE 2XN d   1       9.101 -24.480  -9.123  0.00  0.00    -0.384 N 
ATOM     33  H   2XN d   1       9.191 -23.460  -9.008  0.00  0.00     0.157 HD
ATOM     34  H   2XN d   1       8.167 -24.913  -9.166  0.00  0.00     0.157 HD
ENDBRANCH  26  32
ENDBRANCH  21  22
ENDBRANCH  15  21
ENDBRANCH  12  15
BRANCH  13  35
ATOM     35  CAB 2XN d   1      13.986 -30.483  -7.348  0.00  0.00    -0.043 C 
ATOM     36  H   2XN d   1      13.953 -29.477  -7.791  0.00  0.00     0.034 H 
ATOM     37  H   2XN d   1      15.028 -30.832  -7.309  0.00  0.00     0.034 H 
ATOM     38  H   2XN d   1      13.573 -30.449  -6.329  0.00  0.00     0.034 H 
ENDBRANCH  13  35
ENDBRANCH   6  10
BRANCH   1  39
ATOM     39  OAT 2XN d   1       9.419 -36.237 -11.907  0.00  0.00    -0.347 OA
BRANCH  39  40
ATOM     40  CAN 2XN d   1       9.116 -35.048 -12.638  0.00  0.00     0.041 C 
ATOM     41  H   2XN d   1       8.381 -34.452 -12.078  0.00  0.00     0.077 H 
ATOM     42  H   2XN d   1      10.035 -34.460 -12.777  0.00  0.00     0.077 H 
BRANCH  40  43
ATOM     43  CAM 2XN d   1       8.537 -35.417 -14.003  0.00  0.00     0.023 C 
ATOM     44  H   2XN d   1       7.613 -35.996 -13.861  0.00  0.00     0.068 H 
ATOM     45  H   2XN d   1       8.311 -34.498 -14.563  0.00  0.00     0.068 H 
BRANCH  43  46
ATOM     46  NAR 2XN d   1       9.506 -36.224 -14.762  0.00  0.00    -0.318 N 
ATOM     47  H   2XN d   1      10.401 -36.511 -14.420  0.00  0.00     0.172 HD
BRANCH  46  48
ATOM     48  SBG 2XN d   1       8.916 -36.583 -16.236  0.00  0.00     0.222 S 
ATOM     49  OAG 2XN d   1       7.614 -37.373 -16.092  0.00  0.00    -0.206 OA
ATOM     50  OAH 2XN d   1       8.646 -35.282 -16.992  0.00  0.00    -0.206 OA
BRANCH  48  51
ATOM     51  CAD 2XN d   1      10.101 -37.558 -17.137  0.00  0.00     0.032 C 
ATOM     52  H   2XN d   1      10.295 -38.494 -16.593  0.00  0.00     0.051 H 
ATOM     53  H   2XN d   1      11.039 -36.992 -17.240  0.00  0.00     0.051 H 
ATOM     54  H   2XN d   1       9.702 -37.790 -18.135  0.00  0.00     0.051 H 
ENDBRANCH  48  51
ENDBRANCH  46  48
ENDBRANCH  43  46
ENDBRANCH  40  43
ENDBRANCH  39  40
ENDBRANCH   1  39
BRANCH   3  55
ATOM     55  OAS 2XN d   1      10.294 -38.373 -10.158  0.00  0.00    -0.353 OA
BRANCH  55  56
ATOM     56  CAA 2XN d   1       9.466 -38.961 -11.178  0.00  0.00     0.010 C 
ATOM     57  H   2XN d   1       9.363 -40.040 -10.990  0.00  0.00     0.066 H 
ATOM     58  H   2XN d   1       9.930 -38.803 -12.163  0.00  0.00     0.066 H 
ATOM     59  H   2XN d   1       8.472 -38.489 -11.161  0.00  0.00     0.066 H 
ENDBRANCH  55  56
ENDBRANCH   3  55
TORSDOF 16
