REMARK  17 active torsions:
REMARK  status: ('A' for Active; 'I' for Inactive)
REMARK    1  A    between atoms: C2_2  and  C7_7 
REMARK    2  A    between atoms: C3_3  and  O13_13 
REMARK    3  A    between atoms: C4_4  and  C8_8 
REMARK       I    between atoms: C7_7  and  N10_10 
REMARK       I    between atoms: C8_8  and  N12_12 
REMARK    4  A    between atoms: N10_10  and  C14_14 
REMARK    5  A    between atoms: N10_10  and  C15_15 
REMARK    6  A    between atoms: N12_12  and  C26_26 
REMARK    7  A    between atoms: C20_20  and  C23_23 
REMARK    8  A    between atoms: C23_23  and  C24_24 
REMARK    9  A    between atoms: C23_23  and  C25_25 
REMARK   10  A    between atoms: C26_26  and  C27_27 
REMARK   11  A    between atoms: C26_26  and  C31_31 
REMARK   12  A    between atoms: C27_27  and  C28_28 
REMARK   13  A    between atoms: C28_28  and  C29_29 
REMARK   14  A    between atoms: C28_28  and  C30_30 
REMARK   15  A    between atoms: C31_31  and  O32_32 
REMARK   16  A    between atoms: O32_32  and  C33_33 
REMARK   17  A    between atoms: C33_33  and  C34_34 
ROOT
ATOM      1  C1  2Y9 d   1      68.818   7.885  43.576  0.00  0.00     0.095 C 
ATOM      2  C2  2Y9 d   1      68.754   7.836  45.136  0.00  0.00     0.072 C 
ATOM      3  C3  2Y9 d   1      68.812   6.328  45.548  0.00  0.00     0.062 C 
ATOM      4  C4  2Y9 d   1      67.614   5.512  44.931  0.00  0.00     0.072 C 
ATOM      5  C5  2Y9 d   1      67.518   5.716  43.382  0.00  0.00     0.095 C 
ATOM      6  N6  2Y9 d   1      67.648   7.154  43.016  0.00  0.00    -0.073 N 
ATOM      7  H   2Y9 d   1      69.748   7.410  43.231  0.00  0.00     0.077 H 
ATOM      8  H   2Y9 d   1      68.793   8.932  43.239  0.00  0.00     0.077 H 
ATOM      9  H   2Y9 d   1      67.782   8.246  45.449  0.00  0.00     0.061 H 
ATOM     10  H   2Y9 d   1      68.727   6.269  46.643  0.00  0.00     0.085 H 
ATOM     11  H   2Y9 d   1      66.695   5.933  45.364  0.00  0.00     0.061 H 
ATOM     12  H   2Y9 d   1      66.544   5.344  43.031  0.00  0.00     0.077 H 
ATOM     13  H   2Y9 d   1      68.325   5.148  42.895  0.00  0.00     0.077 H 
ATOM     14  H   2Y9 d   1      67.706   7.209  42.011  0.00  0.00     0.277 HD
ATOM     15  H   2Y9 d   1      66.814   7.625  43.331  0.00  0.00     0.277 HD
ENDROOT
BRANCH   2  16
ATOM     16  C7  2Y9 d   1      69.835   8.660  45.839  0.00  0.00     0.234 C 
ATOM     17  N10 2Y9 d   1      69.652   9.458  46.971  0.00  0.00    -0.297 N 
ATOM     18  O11 2Y9 d   1      70.959   8.478  45.390  0.00  0.00    -0.272 OA
BRANCH  17  19
ATOM     19  C14 2Y9 d   1      68.358   9.847  47.553  0.00  0.00     0.021 A 
ATOM     20  C16 2Y9 d   1      67.102   8.980  47.713  0.00  0.00    -0.044 A 
ATOM     21  C17 2Y9 d   1      68.013   9.243  48.933  0.00  0.00    -0.044 A 
ATOM     22  H   2Y9 d   1      67.065   7.978  47.261  0.00  0.00     0.036 H 
ATOM     23  H   2Y9 d   1      66.105   9.442  47.662  0.00  0.00     0.036 H 
ATOM     24  H   2Y9 d   1      67.667   9.895  49.749  0.00  0.00     0.036 H 
ATOM     25  H   2Y9 d   1      68.627   8.430  49.348  0.00  0.00     0.036 H 
ATOM     26  H   2Y9 d   1      68.205  10.919  47.357  0.00  0.00     0.073 H 
ENDBRANCH  17  19
BRANCH  17  27
ATOM     27  C15 2Y9 d   1      70.688  10.243  47.600  0.00  0.00     0.132 A 
ATOM     28  C18 2Y9 d   1      71.185  11.390  46.957  0.00  0.00    -0.038 A 
ATOM     29  C19 2Y9 d   1      72.114  12.195  47.629  0.00  0.00    -0.071 A 
ATOM     30  H   2Y9 d   1      70.855  11.648  45.957  0.00  0.00     0.089 H 
ATOM     31  C20 2Y9 d   1      72.543  11.875  48.940  0.00  0.00    -0.037 A 
ATOM     32  H   2Y9 d   1      72.510  13.076  47.138  0.00  0.00     0.084 H 
ATOM     33  C21 2Y9 d   1      71.920  10.779  49.585  0.00  0.00     0.011 A 
ATOM     34  N22 2Y9 d   1      71.030  10.005  48.910  0.00  0.00    -0.243 NA
ATOM     35  H   2Y9 d   1      72.154  10.557  50.620  0.00  0.00     0.115 H 
BRANCH  31  36
ATOM     36  C23 2Y9 d   1      73.479  12.848  49.682  0.00  0.00    -0.034 C 
ATOM     37  H   2Y9 d   1      73.084  13.829  49.379  0.00  0.00     0.046 H 
BRANCH  36  38
ATOM     38  C24 2Y9 d   1      73.205  12.811  51.189  0.00  0.00    -0.069 C 
ATOM     39  H   2Y9 d   1      73.881  13.511  51.702  0.00  0.00     0.028 H 
ATOM     40  H   2Y9 d   1      73.375  11.792  51.568  0.00  0.00     0.028 H 
ATOM     41  H   2Y9 d   1      72.162  13.103  51.379  0.00  0.00     0.028 H 
ENDBRANCH  36  38
BRANCH  36  42
ATOM     42  C25 2Y9 d   1      74.976  12.982  49.267  0.00  0.00    -0.069 C 
ATOM     43  H   2Y9 d   1      75.052  12.998  48.170  0.00  0.00     0.028 H 
ATOM     44  H   2Y9 d   1      75.544  12.126  49.661  0.00  0.00     0.028 H 
ATOM     45  H   2Y9 d   1      75.388  13.916  49.677  0.00  0.00     0.028 H 
ENDBRANCH  36  42
ENDBRANCH  31  36
ENDBRANCH  17  27
ENDBRANCH   2  16
BRANCH   3  46
ATOM     46  O13 2Y9 d   1      70.087   5.775  45.169  0.00  0.00    -0.394 OA
ATOM     47  H   2Y9 d   1      70.146   4.878  45.477  0.00  0.00     0.210 HD
ENDBRANCH   3  46
BRANCH   4  48
ATOM     48  C8  2Y9 d   1      67.631   4.044  45.306  0.00  0.00     0.226 C 
ATOM     49  O9  2Y9 d   1      68.701   3.520  45.618  0.00  0.00    -0.273 OA
ATOM     50  N12 2Y9 d   1      66.418   3.413  45.262  0.00  0.00    -0.354 N 
ATOM     51  H   2Y9 d   1      65.630   3.966  44.991  0.00  0.00     0.162 HD
BRANCH  50  52
ATOM     52  C26 2Y9 d   1      66.163   2.003  45.575  0.00  0.00     0.033 C 
ATOM     53  H   2Y9 d   1      66.930   1.622  46.266  0.00  0.00     0.075 H 
BRANCH  52  54
ATOM     54  C27 2Y9 d   1      66.176   1.142  44.261  0.00  0.00    -0.042 C 
ATOM     55  H   2Y9 d   1      65.260   1.388  43.703  0.00  0.00     0.036 H 
ATOM     56  H   2Y9 d   1      66.147   0.086  44.566  0.00  0.00     0.036 H 
BRANCH  54  57
ATOM     57  C28 2Y9 d   1      67.383   1.304  43.264  0.00  0.00    -0.059 C 
ATOM     58  H   2Y9 d   1      67.515   2.385  43.106  0.00  0.00     0.038 H 
BRANCH  57  59
ATOM     59  C29 2Y9 d   1      68.750   0.751  43.777  0.00  0.00    -0.073 C 
ATOM     60  H   2Y9 d   1      69.522   0.913  43.010  0.00  0.00     0.028 H 
ATOM     61  H   2Y9 d   1      68.656  -0.326  43.982  0.00  0.00     0.028 H 
ATOM     62  H   2Y9 d   1      69.035   1.276  44.700  0.00  0.00     0.028 H 
ENDBRANCH  57  59
BRANCH  57  63
ATOM     63  C30 2Y9 d   1      67.058   0.659  41.885  0.00  0.00    -0.073 C 
ATOM     64  H   2Y9 d   1      66.096   1.044  41.518  0.00  0.00     0.028 H 
ATOM     65  H   2Y9 d   1      66.997  -0.434  41.996  0.00  0.00     0.028 H 
ATOM     66  H   2Y9 d   1      67.852   0.910  41.166  0.00  0.00     0.028 H 
ENDBRANCH  57  63
ENDBRANCH  54  57
ENDBRANCH  52  54
BRANCH  52  67
ATOM     67  C31 2Y9 d   1      64.762   1.958  46.253  0.00  0.00     0.038 C 
ATOM     68  H   2Y9 d   1      64.437   0.911  46.346  0.00  0.00     0.077 H 
ATOM     69  H   2Y9 d   1      64.041   2.512  45.634  0.00  0.00     0.077 H 
BRANCH  67  70
ATOM     70  O32 2Y9 d   1      64.821   2.560  47.574  0.00  0.00    -0.389 OA
BRANCH  70  71
ATOM     71  C33 2Y9 d   1      63.801   2.149  48.527  0.00  0.00     0.016 C 
ATOM     72  H   2Y9 d   1      62.873   1.897  47.992  0.00  0.00     0.073 H 
ATOM     73  H   2Y9 d   1      63.605   2.967  49.236  0.00  0.00     0.073 H 
BRANCH  71  74
ATOM     74  C34 2Y9 d   1      64.315   0.910  49.290  0.00  0.00    -0.056 C 
ATOM     75  H   2Y9 d   1      63.555   0.585  50.016  0.00  0.00     0.030 H 
ATOM     76  H   2Y9 d   1      65.244   1.166  49.821  0.00  0.00     0.030 H 
ATOM     77  H   2Y9 d   1      64.512   0.096  48.577  0.00  0.00     0.030 H 
ENDBRANCH  71  74
ENDBRANCH  70  71
ENDBRANCH  67  70
ENDBRANCH  52  67
ENDBRANCH  50  52
ENDBRANCH   4  48
TORSDOF 17
