REMARK  10 active torsions:
REMARK  status: ('A' for Active; 'I' for Inactive)
REMARK    1  A    between atoms: O1_1  and  C1_2 
REMARK    2  A    between atoms: C23_8  and  C27_9 
REMARK    3  A    between atoms: C24_10  and  O5_11 
REMARK    4  A    between atoms: C25_12  and  C26_13 
REMARK    5  A    between atoms: C17_18  and  C18_19 
REMARK    6  A    between atoms: C15_21  and  C28_22 
REMARK    7  A    between atoms: C12_24  and  C13_25 
REMARK    8  A    between atoms: C9_27  and  C10_28 
REMARK    9  A    between atoms: C5_29  and  O2_31 
REMARK   10  A    between atoms: C7_34  and  C8_35 
ROOT
ATOM      1  C1  2YD d   1      75.006-146.205  58.718  0.00  0.00     0.122 C 
ATOM      2  C   2YD d   1      73.768-146.743  58.120  0.00  0.00     0.213 C 
ATOM      3  O   2YD d   1      73.546-146.483  56.951  0.00  0.00    -0.285 OA
ATOM      4  C2  2YD d   1      75.275-146.368  60.033  0.00  0.00    -0.003 C 
ATOM      5  C3  2YD d   1      74.459-147.405  60.796  0.00  0.00     0.025 C 
ATOM      6  C22 2YD d   1      76.507-145.785  60.715  0.00  0.00     0.070 C 
ATOM      7  C23 2YD d   1      76.282-144.627  61.737  0.00  0.00    -0.003 C 
ATOM      8  C24 2YD d   1      77.654-144.336  62.449  0.00  0.00     0.047 C 
ATOM      9  C25 2YD d   1      78.336-145.622  63.059  0.00  0.00    -0.007 C 
ATOM     10  O4  2YD d   1      77.095-146.919  61.392  0.00  0.00    -0.375 OA
ATOM     11  C21 2YD d   1      78.394-146.743  61.964  0.00  0.00     0.045 C 
ATOM     12  C20 2YD d   1      78.752-148.181  62.450  0.00  0.00    -0.040 C 
ATOM     13  C19 2YD d   1      78.832-149.199  61.280  0.00  0.00    -0.057 C 
ATOM     14  C17 2YD d   1      79.049-150.681  61.756  0.00  0.00    -0.041 C 
ATOM     15  C16 2YD d   1      77.871-151.313  62.515  0.00  0.00    -0.097 C 
ATOM     16  C15 2YD d   1      77.647-151.545  63.848  0.00  0.00    -0.087 C 
ATOM     17  C14 2YD d   1      76.321-152.109  64.399  0.00  0.00    -0.042 C 
ATOM     18  C12 2YD d   1      75.031-152.022  63.508  0.00  0.00    -0.054 C 
ATOM     19  C11 2YD d   1      74.684-150.513  63.234  0.00  0.00    -0.054 C 
ATOM     20  C9  2YD d   1      73.710-150.175  62.065  0.00  0.00    -0.003 C 
ATOM     21  C5  2YD d   1      73.096-148.723  62.232  0.00  0.00     0.171 C 
ATOM     22  C4  2YD d   1      74.014-147.447  62.273  0.00  0.00     0.000 C 
ATOM     23  O3  2YD d   1      72.316-148.377  61.075  0.00  0.00    -0.317 OA
ATOM     24  C6  2YD d   1      73.118-147.722  60.208  0.00  0.00     0.068 C 
ATOM     25  C7  2YD d   1      72.808-147.531  58.919  0.00  0.00     0.021 C 
ATOM     26  H2  2YD d   1      75.092-148.297  60.679  0.00  0.00     0.058 H 
ATOM     27  H3  2YD d   1      77.191-145.411  59.939  0.00  0.00     0.091 H 
ATOM     28  H4  2YD d   1      75.587-144.996  62.505  0.00  0.00     0.047 H 
ATOM     29  H8  2YD d   1      78.337-143.935  61.686  0.00  0.00     0.084 H 
ATOM     30  H10 2YD d   1      79.375-145.348  63.293  0.00  0.00     0.047 H 
ATOM     31  H14 2YD d   1      79.118-146.430  61.197  0.00  0.00     0.084 H 
ATOM     32  H15 2YD d   1      77.980-148.517  63.158  0.00  0.00     0.036 H 
ATOM     33  H16 2YD d   1      79.727-148.150  62.958  0.00  0.00     0.036 H 
ATOM     34  H17 2YD d   1      79.671-148.916  60.628  0.00  0.00     0.034 H 
ATOM     35  H18 2YD d   1      77.892-149.150  60.710  0.00  0.00     0.034 H 
ATOM     36  H19 2YD d   1      79.918-150.688  62.430  0.00  0.00     0.045 H 
ATOM     37  H23 2YD d   1      77.057-151.640  61.869  0.00  0.00     0.077 H 
ATOM     38  H27 2YD d   1      76.105-151.571  65.334  0.00  0.00     0.040 H 
ATOM     39  H28 2YD d   1      76.490-153.173  64.620  0.00  0.00     0.040 H 
ATOM     40  H29 2YD d   1      75.242-152.505  62.542  0.00  0.00     0.040 H 
ATOM     41  H33 2YD d   1      75.632-149.994  63.028  0.00  0.00     0.034 H 
ATOM     42  H34 2YD d   1      74.238-150.110  64.155  0.00  0.00     0.034 H 
ATOM     43  H35 2YD d   1      72.853-150.855  62.178  0.00  0.00     0.047 H 
ATOM     44  H39 2YD d   1      73.451-146.546  62.558  0.00  0.00     0.042 H 
ATOM     45  H40 2YD d   1      74.867-147.577  62.955  0.00  0.00     0.042 H 
ENDROOT
BRANCH   7  46
ATOM     46  C27 2YD d   1      75.610-143.368  61.110  0.00  0.00    -0.068 C 
ATOM     47  H5  2YD d   1      75.483-142.596  61.884  0.00  0.00     0.028 H 
ATOM     48  H6  2YD d   1      74.626-143.643  60.701  0.00  0.00     0.028 H 
ATOM     49  H7  2YD d   1      76.246-142.976  60.303  0.00  0.00     0.028 H 
ENDBRANCH   7  46
BRANCH   8  50
ATOM     50  O5  2YD d   1      77.494-143.329  63.475  0.00  0.00    -0.395 OA
ATOM     51  H9  2YD d   1      78.332-143.168  63.892  0.00  0.00     0.210 HD
ENDBRANCH   8  50
BRANCH   9  52
ATOM     52  C26 2YD d   1      77.706-146.111  64.405  0.00  0.00    -0.068 C 
ATOM     53  H11 2YD d   1      78.240-147.006  64.756  0.00  0.00     0.028 H 
ATOM     54  H12 2YD d   1      76.645-146.355  64.246  0.00  0.00     0.028 H 
ATOM     55  H13 2YD d   1      77.790-145.315  65.160  0.00  0.00     0.028 H 
ENDBRANCH   9  52
BRANCH   1  56
ATOM     56  O1  2YD d   1      75.861-145.584  57.902  0.00  0.00    -0.357 OA
ATOM     57  H1  2YD d   1      76.612-145.285  58.401  0.00  0.00     0.218 HD
ENDBRANCH   1  56
BRANCH  25  58
ATOM     58  C8  2YD d   1      71.494-148.020  58.360  0.00  0.00    -0.045 C 
ATOM     59  H42 2YD d   1      71.433-147.767  57.291  0.00  0.00     0.033 H 
ATOM     60  H43 2YD d   1      70.665-147.539  58.899  0.00  0.00     0.033 H 
ATOM     61  H44 2YD d   1      71.427-149.111  58.482  0.00  0.00     0.033 H 
ENDBRANCH  25  58
BRANCH  21  62
ATOM     62  O2  2YD d   1      72.211-148.734  63.377  0.00  0.00    -0.365 OA
ATOM     63  H41 2YD d   1      71.524-149.375  63.239  0.00  0.00     0.213 HD
ENDBRANCH  21  62
BRANCH  20  64
ATOM     64  C10 2YD d   1      74.332-150.549  60.687  0.00  0.00    -0.068 C 
ATOM     65  H36 2YD d   1      74.714-151.580  60.725  0.00  0.00     0.028 H 
ATOM     66  H37 2YD d   1      75.159-149.860  60.459  0.00  0.00     0.028 H 
ATOM     67  H38 2YD d   1      73.563-150.471  59.904  0.00  0.00     0.028 H 
ENDBRANCH  20  64
BRANCH  14  68
ATOM     68  C18 2YD d   1      79.369-151.564  60.508  0.00  0.00    -0.070 C 
ATOM     69  H20 2YD d   1      79.524-152.606  60.826  0.00  0.00     0.028 H 
ATOM     70  H21 2YD d   1      80.281-151.191  60.019  0.00  0.00     0.028 H 
ATOM     71  H22 2YD d   1      78.528-151.518  59.800  0.00  0.00     0.028 H 
ENDBRANCH  14  68
BRANCH  18  72
ATOM     72  C13 2YD d   1      73.852-152.786  64.178  0.00  0.00    -0.073 C 
ATOM     73  H30 2YD d   1      72.959-152.714  63.540  0.00  0.00     0.028 H 
ATOM     74  H31 2YD d   1      73.638-152.341  65.161  0.00  0.00     0.028 H 
ATOM     75  H32 2YD d   1      74.126-153.844  64.307  0.00  0.00     0.028 H 
ENDBRANCH  18  72
BRANCH  16  76
ATOM     76  C28 2YD d   1      78.635-151.244  64.964  0.00  0.00    -0.055 C 
ATOM     77  H24 2YD d   1      78.194-151.529  65.931  0.00  0.00     0.033 H 
ATOM     78  H25 2YD d   1      78.865-150.168  64.969  0.00  0.00     0.033 H 
ATOM     79  H26 2YD d   1      79.560-151.816  64.799  0.00  0.00     0.033 H 
ENDBRANCH  16  76
TORSDOF 10
