REMARK  5 active torsions:
REMARK  status: ('A' for Active; 'I' for Inactive)
REMARK    1  A    between atoms: C32_32  and  C33_33 
REMARK    2  A    between atoms: N35_35  and  C36_36 
REMARK    3  A    between atoms: C36_36  and  C37_37 
REMARK    4  A    between atoms: C36_36  and  C39_39 
REMARK    5  A    between atoms: C39_39  and  C40_40 
ROOT
ATOM      1  C01 5BF d   1      60.791   6.456  32.944  0.00  0.00    -0.050 A 
ATOM      2  C02 5BF d   1      59.914   5.372  32.918  0.00  0.00    -0.074 A 
ATOM      3  C03 5BF d   1      59.260   5.012  31.746  0.00  0.00    -0.056 A 
ATOM      4  C04 5BF d   1      58.295   3.845  31.782  0.00  0.00    -0.015 C 
ATOM      5  C05 5BF d   1      59.485   5.750  30.583  0.00  0.00    -0.074 A 
ATOM      6  C06 5BF d   1      60.369   6.818  30.606  0.00  0.00    -0.050 A 
ATOM      7  C07 5BF d   1      61.034   7.182  31.775  0.00  0.00     0.068 A 
ATOM      8  O08 5BF d   1      61.882   8.269  31.733  0.00  0.00    -0.351 OA
ATOM      9  C09 5BF d   1      63.153   8.305  32.361  0.00  0.00     0.026 C 
ATOM     10  C10 5BF d   1      63.836   6.975  32.092  0.00  0.00    -0.043 C 
ATOM     11  C11 5BF d   1      64.770   7.066  30.907  0.00  0.00    -0.043 C 
ATOM     12  C12 5BF d   1      64.131   6.506  29.656  0.00  0.00     0.026 C 
ATOM     13  O13 5BF d   1      65.237   5.863  29.059  0.00  0.00    -0.351 OA
ATOM     14  C14 5BF d   1      65.131   5.082  27.960  0.00  0.00     0.068 A 
ATOM     15  C15 5BF d   1      64.724   5.561  26.711  0.00  0.00    -0.050 A 
ATOM     16  C16 5BF d   1      64.671   4.659  25.651  0.00  0.00    -0.074 A 
ATOM     17  C17 5BF d   1      65.485   3.771  28.168  0.00  0.00    -0.050 A 
ATOM     18  C18 5BF d   1      65.446   2.887  27.121  0.00  0.00    -0.074 A 
ATOM     19  C19 5BF d   1      65.044   3.327  25.883  0.00  0.00    -0.058 A 
ATOM     20  C20 5BF d   1      65.023   2.266  24.824  0.00  0.00    -0.034 C 
ATOM     21  C21 5BF d   1      63.600   1.740  24.763  0.00  0.00    -0.000 C 
ATOM     22  C22 5BF d   1      63.218   1.044  26.045  0.00  0.00     0.176 C 
ATOM     23  O23 5BF d   1      63.726  -0.008  26.419  0.00  0.00    -0.291 OA
ATOM     24  C24 5BF d   1      62.185   1.714  26.860  0.00  0.00     0.079 A 
ATOM     25  N25 5BF d   1      61.757   1.189  28.006  0.00  0.00    -0.349 N 
ATOM     26  C26 5BF d   1      61.520   2.921  26.613  0.00  0.00    -0.051 A 
ATOM     27  C27 5BF d   1      60.650   3.122  27.663  0.00  0.00    -0.049 A 
ATOM     28  C28 5BF d   1      60.841   2.022  28.495  0.00  0.00     0.101 A 
ATOM     29  C29 5BF d   1      60.166   1.744  29.750  0.00  0.00     0.268 C 
ATOM     30  O30 5BF d   1      60.514   0.795  30.445  0.00  0.00    -0.266 OA
ATOM     31  N31 5BF d   1      59.149   2.588  30.049  0.00  0.00    -0.343 N 
ATOM     32  C32 5BF d   1      58.927   2.501  31.469  0.00  0.00     0.081 C 
ATOM     33  H1  5BF d   1      61.283   6.735  33.869  0.00  0.00     0.087 H 
ATOM     34  H2  5BF d   1      59.740   4.803  33.824  0.00  0.00     0.084 H 
ATOM     35  H3  5BF d   1      57.501   4.032  31.044  0.00  0.00     0.043 H 
ATOM     36  H4  5BF d   1      57.855   3.793  32.789  0.00  0.00     0.043 H 
ATOM     37  H5  5BF d   1      58.971   5.489  29.665  0.00  0.00     0.084 H 
ATOM     38  H6  5BF d   1      60.546   7.381  29.697  0.00  0.00     0.087 H 
ATOM     39  H7  5BF d   1      63.032   8.452  33.444  0.00  0.00     0.075 H 
ATOM     40  H8  5BF d   1      63.754   9.126  31.944  0.00  0.00     0.075 H 
ATOM     41  H9  5BF d   1      63.069   6.214  31.886  0.00  0.00     0.036 H 
ATOM     42  H10 5BF d   1      64.413   6.683  32.981  0.00  0.00     0.036 H 
ATOM     43  H11 5BF d   1      65.684   6.496  31.128  0.00  0.00     0.036 H 
ATOM     44  H12 5BF d   1      65.028   8.121  30.735  0.00  0.00     0.036 H 
ATOM     45  H13 5BF d   1      63.732   7.304  29.013  0.00  0.00     0.075 H 
ATOM     46  H14 5BF d   1      63.329   5.792  29.896  0.00  0.00     0.075 H 
ATOM     47  H15 5BF d   1      64.458   6.603  26.572  0.00  0.00     0.087 H 
ATOM     48  H16 5BF d   1      64.348   4.980  24.667  0.00  0.00     0.084 H 
ATOM     49  H17 5BF d   1      65.793   3.438  29.153  0.00  0.00     0.087 H 
ATOM     50  H18 5BF d   1      65.730   1.851  27.268  0.00  0.00     0.084 H 
ATOM     51  H19 5BF d   1      65.717   1.454  25.087  0.00  0.00     0.040 H 
ATOM     52  H20 5BF d   1      65.311   2.694  23.852  0.00  0.00     0.040 H 
ATOM     53  H21 5BF d   1      63.517   1.027  23.930  0.00  0.00     0.045 H 
ATOM     54  H22 5BF d   1      62.913   2.583  24.594  0.00  0.00     0.045 H 
ATOM     55  H23 5BF d   1      62.074   0.307  28.433  0.00  0.00     0.166 HD
ATOM     56  H24 5BF d   1      61.663   3.576  25.755  0.00  0.00     0.087 H 
ATOM     57  H25 5BF d   1      59.965   3.956  27.809  0.00  0.00     0.087 H 
ATOM     58  H26 5BF d   1      58.647   3.164  29.404  0.00  0.00     0.163 HD
ATOM     59  H27 5BF d   1      59.854   2.336  32.037  0.00  0.00     0.086 H 
ENDROOT
BRANCH  32  60
ATOM     60  C33 5BF d   1      57.944   1.388  31.699  0.00  0.00     0.175 C 
ATOM     61  O34 5BF d   1      57.204   0.986  30.674  0.00  0.00    -0.175 OA
ATOM     62  N35 5BF d   1      57.835   0.875  32.851  0.00  0.00    -0.359 N 
ATOM     63  H28 5BF d   1      58.446   1.170  33.585  0.00  0.00     0.162 HD
BRANCH  62  64
ATOM     64  C36 5BF d   1      56.827  -0.141  33.115  0.00  0.00     0.065 C 
ATOM     65  H29 5BF d   1      56.471  -0.586  32.174  0.00  0.00     0.084 H 
BRANCH  64  66
ATOM     66  C37 5BF d   1      55.714   0.536  33.879  0.00  0.00     0.110 C 
ATOM     67  O38 5BF d   1      54.729  -0.125  34.181  0.00  0.00    -0.305 OA
ATOM     68  H30 5BF d   1      55.786   1.587  34.155  0.00  0.00     0.146 H 
ENDBRANCH  64  66
BRANCH  64  69
ATOM     69  C39 5BF d   1      57.345  -1.209  34.061  0.00  0.00    -0.016 C 
ATOM     70  H31 5BF d   1      56.571  -1.973  34.226  0.00  0.00     0.043 H 
ATOM     71  H32 5BF d   1      57.624  -0.756  35.024  0.00  0.00     0.043 H 
BRANCH  69  72
ATOM     72  C40 5BF d   1      58.545  -1.827  33.421  0.00  0.00    -0.056 A 
ATOM     73  C41 5BF d   1      58.507  -2.183  32.075  0.00  0.00    -0.077 A 
ATOM     74  C42 5BF d   1      59.632  -2.733  31.483  0.00  0.00    -0.082 A 
ATOM     75  H33 5BF d   1      57.604  -2.031  31.495  0.00  0.00     0.084 H 
ATOM     76  C43 5BF d   1      60.780  -2.924  32.250  0.00  0.00    -0.083 A 
ATOM     77  H34 5BF d   1      59.620  -3.012  30.436  0.00  0.00     0.083 H 
ATOM     78  C44 5BF d   1      60.804  -2.562  33.598  0.00  0.00    -0.082 A 
ATOM     79  H35 5BF d   1      61.663  -3.358  31.795  0.00  0.00     0.083 H 
ATOM     80  C45 5BF d   1      59.682  -1.999  34.190  0.00  0.00    -0.077 A 
ATOM     81  H36 5BF d   1      61.702  -2.721  34.184  0.00  0.00     0.083 H 
ATOM     82  H37 5BF d   1      59.696  -1.701  35.232  0.00  0.00     0.084 H 
ENDBRANCH  69  72
ENDBRANCH  64  69
ENDBRANCH  62  64
ENDBRANCH  32  60
TORSDOF 5
