REMARK  10 active torsions:
REMARK  status: ('A' for Active; 'I' for Inactive)
REMARK    1  A    between atoms: N_1  and  CA_2 
REMARK    2  A    between atoms: CA_2  and  C_3 
REMARK    3  A    between atoms: CA_2  and  CB_6 
REMARK    4  A    between atoms: CB_6  and  CG_7 
REMARK    5  A    between atoms: CG_7  and  CD_8 
REMARK    6  A    between atoms: CD_8  and  CE_9 
REMARK    7  A    between atoms: CE_9  and  B_10 
REMARK    8  A    between atoms: B_10  and  O2_11 
REMARK    9  A    between atoms: B_10  and  O1_12 
REMARK   10  A    between atoms: O3_13  and  B_10 
ROOT
ATOM      1  CG  ABH d   1     -42.019 -18.985  49.527  0.00  0.00    -0.063 C 
ATOM      2  H7  ABH d   1     -41.078 -18.788  50.062  0.00  0.00     0.033 H 
ATOM      3  H8  ABH d   1     -42.364 -18.062  49.038  0.00  0.00     0.033 H 
ENDROOT
BRANCH   1   4
ATOM      4  CB  ABH d   1     -43.078 -19.433  50.539  0.00  0.00    -0.029 C 
ATOM      5  H5  ABH d   1     -43.923 -19.861  49.980  0.00  0.00     0.036 H 
ATOM      6  H6  ABH d   1     -42.631 -20.208  51.178  0.00  0.00     0.036 H 
BRANCH   4   7
ATOM      7  CA  ABH d   1     -43.626 -18.318  51.453  0.00  0.00     0.182 C 
ATOM      8  H4  ABH d   1     -44.250 -18.795  52.223  0.00  0.00     0.101 H 
BRANCH   7   9
ATOM      9  N   ABH d   1     -44.477 -17.397  50.698  0.00  0.00    -0.065 N 
ATOM     10  H1  ABH d   1     -45.208 -17.916  50.237  0.00  0.00     0.275 HD
ATOM     11  H2  ABH d   1     -43.922 -16.915  50.009  0.00  0.00     0.275 HD
ATOM     12  H3  ABH d   1     -44.888 -16.726  51.328  0.00  0.00     0.275 HD
ENDBRANCH   7   9
BRANCH   7  13
ATOM     13  C   ABH d   1     -42.510 -17.577  52.164  0.00  0.00     0.204 C 
ATOM     14  O   ABH d   1     -42.360 -16.347  51.955  0.00  0.00    -0.646 OA
ATOM     15  OT  ABH d   1     -41.765 -18.212  52.948  0.00  0.00    -0.646 OA
ENDBRANCH   7  13
ENDBRANCH   4   7
ENDBRANCH   1   4
BRANCH   1  16
ATOM     16  CD  ABH d   1     -41.762 -20.053  48.447  0.00  0.00    -0.065 C 
ATOM     17  H9  ABH d   1     -42.617 -20.088  47.756  0.00  0.00     0.032 H 
ATOM     18  H10 ABH d   1     -41.637 -21.035  48.926  0.00  0.00     0.032 H 
BRANCH  16  19
ATOM     19  CE  ABH d   1     -40.490 -19.699  47.668  0.00  0.00    -0.003 C 
ATOM     20  H11 ABH d   1     -39.848 -20.589  47.590  0.00  0.00     0.033 H 
ATOM     21  H12 ABH d   1     -39.947 -18.901  48.195  0.00  0.00     0.033 H 
BRANCH  19  22
ATOM     22  B   ABH d   1     -40.443 -20.240  46.169  0.00  0.00     0.604 B 
BRANCH  22  23
ATOM     23  O2  ABH d   1     -39.104 -20.078  45.471  0.00  0.00    -0.410 OA
ATOM     24  H14 ABH d   1     -38.403 -20.205  46.099  0.00  0.00     0.188 HD
ENDBRANCH  22  23
BRANCH  22  25
ATOM     25  O1  ABH d   1     -41.687 -20.073  45.330  0.00  0.00    -0.410 OA
ATOM     26  H17 ABH d   1     -41.701 -19.200  44.956  0.00  0.00     0.188 HD
ENDBRANCH  22  25
BRANCH  22  27
ATOM     27  O3  ABH d   1     -40.467 -21.769  46.340  0.00  0.00    -0.410 OA
ATOM     28  H18 ABH d   1     -40.423 -22.183  45.486  0.00  0.00     0.188 HD
ENDBRANCH  22  27
ENDBRANCH  19  22
ENDBRANCH  16  19
ENDBRANCH   1  16
TORSDOF 10
