REMARK  13 active torsions:
REMARK  status: ('A' for Active; 'I' for Inactive)
REMARK    1  A    between atoms: O01_1  and  B02_2 
REMARK    2  A    between atoms: B02_2  and  O03_3 
REMARK    3  A    between atoms: B02_2  and  O04_4 
REMARK    4  A    between atoms: B02_2  and  C05_5 
REMARK    5  A    between atoms: C05_5  and  C06_6 
REMARK    6  A    between atoms: C06_6  and  C07_7 
REMARK    7  A    between atoms: C07_7  and  C08_8 
REMARK    8  A    between atoms: C08_8  and  C09_9 
REMARK    9  A    between atoms: C09_9  and  N10_10 
REMARK   10  A    between atoms: C09_9  and  C11_11 
REMARK   11  A    between atoms: C09_9  and  C26_26 
REMARK   12  A    between atoms: N14_14  and  C15_15 
REMARK   13  A    between atoms: C15_15  and  C16_16 
ROOT
ATOM      1  C11 XA2 d   1     -63.522   0.100  -7.928  0.00  0.00    -0.009 C 
ATOM      2  C12 XA2 d   1     -62.579  -0.304  -8.991  0.00  0.00    -0.036 C 
ATOM      3  C13 XA2 d   1     -63.267  -1.221  -9.974  0.00  0.00     0.084 C 
ATOM      4  N14 XA2 d   1     -63.813  -2.405  -9.293  0.00  0.00    -0.067 N 
ATOM      5  C24 XA2 d   1     -64.819  -1.998  -8.273  0.00  0.00     0.084 C 
ATOM      6  C25 XA2 d   1     -64.189  -1.063  -7.270  0.00  0.00    -0.036 C 
ATOM      7  H19 XA2 d   1     -64.305   0.723  -8.385  0.00  0.00     0.044 H 
ATOM      8  H20 XA2 d   1     -61.725  -0.830  -8.539  0.00  0.00     0.036 H 
ATOM      9  H21 XA2 d   1     -62.220   0.592  -9.519  0.00  0.00     0.036 H 
ATOM     10  H22 XA2 d   1     -62.540  -1.545 -10.733  0.00  0.00     0.076 H 
ATOM     11  H23 XA2 d   1     -64.088  -0.675 -10.462  0.00  0.00     0.076 H 
ATOM     12  H24 XA2 d   1     -63.055  -2.852  -8.801  0.00  0.00     0.280 HD
ATOM     13  H30 XA2 d   1     -65.192  -2.892  -7.753  0.00  0.00     0.076 H 
ATOM     14  H31 XA2 d   1     -65.656  -1.487  -8.771  0.00  0.00     0.076 H 
ATOM     15  H32 XA2 d   1     -64.972  -0.688  -6.595  0.00  0.00     0.036 H 
ATOM     16  H33 XA2 d   1     -63.439  -1.619  -6.689  0.00  0.00     0.036 H 
ENDROOT
BRANCH   1  17
ATOM     17  C09 XA2 d   1     -62.772   0.942  -6.888  0.00  0.00     0.214 C 
BRANCH  17  18
ATOM     18  C08 XA2 d   1     -63.860   1.466  -5.895  0.00  0.00    -0.024 C 
ATOM     19  H14 XA2 d   1     -64.633   1.991  -6.475  0.00  0.00     0.037 H 
ATOM     20  H15 XA2 d   1     -64.308   0.601  -5.385  0.00  0.00     0.037 H 
BRANCH  18  21
ATOM     21  C07 XA2 d   1     -63.309   2.445  -4.810  0.00  0.00    -0.063 C 
ATOM     22  H12 XA2 d   1     -62.661   1.891  -4.114  0.00  0.00     0.033 H 
ATOM     23  H13 XA2 d   1     -62.727   3.241  -5.298  0.00  0.00     0.033 H 
BRANCH  21  24
ATOM     24  C06 XA2 d   1     -64.504   3.087  -4.012  0.00  0.00    -0.065 C 
ATOM     25  H10 XA2 d   1     -65.246   3.485  -4.719  0.00  0.00     0.032 H 
ATOM     26  H11 XA2 d   1     -64.975   2.322  -3.378  0.00  0.00     0.032 H 
BRANCH  24  27
ATOM     27  C05 XA2 d   1     -63.976   4.217  -3.139  0.00  0.00    -0.003 C 
ATOM     28  H7  XA2 d   1     -63.325   3.801  -2.355  0.00  0.00     0.033 H 
ATOM     29  H9  XA2 d   1     -63.400   4.921  -3.758  0.00  0.00     0.033 H 
BRANCH  27  30
ATOM     30  B02 XA2 d   1     -64.781   4.225  -1.626  0.00  0.00     0.604 B 
BRANCH  30  31
ATOM     31  O01 XA2 d   1     -64.355   5.586  -0.813  0.00  0.00    -0.410 OA
ATOM     32  H1  XA2 d   1     -64.582   6.348  -1.333  0.00  0.00     0.188 HD
ENDBRANCH  30  31
BRANCH  30  33
ATOM     33  O03 XA2 d   1     -64.385   2.949  -0.721  0.00  0.00    -0.410 OA
ATOM     34  H4  XA2 d   1     -63.449   2.954  -0.561  0.00  0.00     0.188 HD
ENDBRANCH  30  33
BRANCH  30  35
ATOM     35  O04 XA2 d   1     -66.437   4.288  -1.794  0.00  0.00    -0.410 OA
ATOM     36  H6  XA2 d   1     -66.675   5.068  -2.281  0.00  0.00     0.188 HD
ENDBRANCH  30  35
ENDBRANCH  27  30
ENDBRANCH  24  27
ENDBRANCH  21  24
ENDBRANCH  18  21
ENDBRANCH  17  18
BRANCH  17  37
ATOM     37  N10 XA2 d   1     -61.803   0.155  -6.209  0.00  0.00    -0.060 N 
ATOM     38  H16 XA2 d   1     -61.113  -0.171  -6.868  0.00  0.00     0.275 HD
ATOM     39  H17 XA2 d   1     -62.255  -0.636  -5.777  0.00  0.00     0.275 HD
ATOM     40  H18 XA2 d   1     -61.353   0.713  -5.501  0.00  0.00     0.275 HD
ENDBRANCH  17  37
BRANCH  17  41
ATOM     41  C26 XA2 d   1     -62.059   2.124  -7.548  0.00  0.00     0.210 C 
ATOM     42  O27 XA2 d   1     -62.681   2.983  -8.206  0.00  0.00    -0.646 OA
ATOM     43  O28 XA2 d   1     -60.817   2.216  -7.423  0.00  0.00    -0.646 OA
ENDBRANCH  17  41
ENDBRANCH   1  17
BRANCH   4  44
ATOM     44  C15 XA2 d   1     -64.323  -3.367 -10.254  0.00  0.00     0.107 C 
ATOM     45  H25 XA2 d   1     -65.191  -2.935 -10.774  0.00  0.00     0.083 H 
ATOM     46  H26 XA2 d   1     -64.631  -4.280  -9.724  0.00  0.00     0.083 H 
BRANCH  44  47
ATOM     47  C16 XA2 d   1     -63.239  -3.720 -11.284  0.00  0.00    -0.031 A 
ATOM     48  C17 XA2 d   1     -62.157  -4.493 -10.916  0.00  0.00    -0.073 A 
ATOM     49  C18 XA2 d   1     -61.177  -4.806 -11.851  0.00  0.00    -0.060 A 
ATOM     50  H27 XA2 d   1     -62.071  -4.856  -9.898  0.00  0.00     0.084 H 
ATOM     51  C19 XA2 d   1     -61.284  -4.353 -13.147  0.00  0.00     0.055 A 
ATOM     52  H28 XA2 d   1     -60.325  -5.409 -11.559  0.00  0.00     0.086 H 
ATOM     53 CL1  XA2 d   1     -60.062  -4.735 -14.350  0.00  0.00    -0.083 Cl
ATOM     54  C21 XA2 d   1     -62.368  -3.578 -13.522  0.00  0.00     0.056 A 
ATOM     55 CL2  XA2 d   1     -62.478  -3.013 -15.179  0.00  0.00    -0.083 Cl
ATOM     56  C23 XA2 d   1     -63.347  -3.266 -12.597  0.00  0.00    -0.053 A 
ATOM     57  H29 XA2 d   1     -64.200  -2.667 -12.894  0.00  0.00     0.087 H 
ENDBRANCH  44  47
ENDBRANCH   4  44
TORSDOF 13
