REMARK  13 active torsions:
REMARK  status: ('A' for Active; 'I' for Inactive)
REMARK    1  A    between atoms: C18_2  and  C1_4 
REMARK    2  A    between atoms: C1_4  and  N2_5 
REMARK    3  A    between atoms: C1_4  and  C3_6 
REMARK    4  A    between atoms: C1_4  and  C10_14 
REMARK    5  A    between atoms: C3_6  and  C4_7 
REMARK    6  A    between atoms: C4_7  and  C5_8 
REMARK    7  A    between atoms: C5_8  and  C6_9 
REMARK    8  A    between atoms: C6_9  and  B7_10 
REMARK    9  A    between atoms: B7_10  and  O8_11 
REMARK   10  A    between atoms: B7_10  and  O19_13 
REMARK   11  A    between atoms: B7_10  and  O9_12 
REMARK   12  A    between atoms: C10_14  and  C11_15 
REMARK   13  A    between atoms: C11_15  and  N12_16 
ROOT
ATOM      1  C1  X7A d   1     -43.815  18.337  37.746  0.00  0.00     0.211 C 
ENDROOT
BRANCH   1   2
ATOM      2  C18 X7A d   1     -42.635  17.620  37.024  0.00  0.00     0.210 C 
ATOM      3  O20 X7A d   1     -42.487  16.372  37.168  0.00  0.00    -0.646 OA
ATOM      4  O21 X7A d   1     -41.824  18.284  36.292  0.00  0.00    -0.646 OA
ENDBRANCH   1   2
BRANCH   1   5
ATOM      5  N2  X7A d   1     -44.492  17.407  38.557  0.00  0.00    -0.060 N 
ATOM      6  H1  X7A d   1     -45.257  17.865  39.027  0.00  0.00     0.275 HD
ATOM      7  H2  X7A d   1     -43.854  17.031  39.241  0.00  0.00     0.275 HD
ATOM      8  H3  X7A d   1     -44.850  16.659  37.984  0.00  0.00     0.275 HD
ENDBRANCH   1   5
BRANCH   1   9
ATOM      9  C3  X7A d   1     -43.269  19.451  38.622  0.00  0.00    -0.024 C 
ATOM     10  H4  X7A d   1     -44.060  19.767  39.318  0.00  0.00     0.037 H 
ATOM     11  H5  X7A d   1     -42.989  20.297  37.977  0.00  0.00     0.037 H 
BRANCH   9  12
ATOM     12  C4  X7A d   1     -42.031  19.031  39.445  0.00  0.00    -0.063 C 
ATOM     13  H6  X7A d   1     -41.176  18.915  38.763  0.00  0.00     0.033 H 
ATOM     14  H7  X7A d   1     -42.242  18.069  39.936  0.00  0.00     0.033 H 
BRANCH  12  15
ATOM     15  C5  X7A d   1     -41.660  20.085  40.542  0.00  0.00    -0.065 C 
ATOM     16  H8  X7A d   1     -42.569  20.357  41.099  0.00  0.00     0.032 H 
ATOM     17  H9  X7A d   1     -41.248  20.980  40.053  0.00  0.00     0.032 H 
BRANCH  15  18
ATOM     18  C6  X7A d   1     -40.593  19.515  41.551  0.00  0.00    -0.003 C 
ATOM     19  H10 X7A d   1     -40.811  18.456  41.756  0.00  0.00     0.033 H 
ATOM     20  H12 X7A d   1     -39.589  19.604  41.111  0.00  0.00     0.033 H 
BRANCH  18  21
ATOM     21  B7  X7A d   1     -40.571  20.400  42.969  0.00  0.00     0.604 B 
BRANCH  21  22
ATOM     22  O8  X7A d   1     -40.647  22.024  42.654  0.00  0.00    -0.410 OA
ATOM     23  H14 X7A d   1     -41.480  22.227  42.244  0.00  0.00     0.188 HD
ENDBRANCH  21  22
BRANCH  21  24
ATOM     24  O19 X7A d   1     -41.820  20.007  43.990  0.00  0.00    -0.410 OA
ATOM     25  H18 X7A d   1     -41.734  20.500  44.797  0.00  0.00     0.188 HD
ENDBRANCH  21  24
BRANCH  21  26
ATOM     26  O9  X7A d   1     -39.134  20.074  43.789  0.00  0.00    -0.410 OA
ATOM     27  H15 X7A d   1     -38.397  20.333  43.249  0.00  0.00     0.188 HD
ENDBRANCH  21  26
ENDBRANCH  18  21
ENDBRANCH  15  18
ENDBRANCH  12  15
ENDBRANCH   9  12
ENDBRANCH   1   9
BRANCH   1  28
ATOM     28  C10 X7A d   1     -44.779  18.910  36.674  0.00  0.00    -0.001 C 
ATOM     29  H19 X7A d   1     -45.043  18.100  35.978  0.00  0.00     0.040 H 
ATOM     30  H20 X7A d   1     -44.253  19.706  36.127  0.00  0.00     0.040 H 
BRANCH  28  31
ATOM     31  C11 X7A d   1     -46.117  19.513  37.265  0.00  0.00     0.086 C 
ATOM     32  H21 X7A d   1     -45.940  20.565  37.534  0.00  0.00     0.076 H 
ATOM     33  H22 X7A d   1     -46.391  18.945  38.166  0.00  0.00     0.076 H 
BRANCH  31  34
ATOM     34  N12 X7A d   1     -47.068  19.463  36.458  0.00  0.00    -0.071 N 
ATOM     35  C13 X7A d   1     -48.263  19.938  37.075  0.00  0.00     0.084 C 
ATOM     36  C14 X7A d   1     -49.474  19.993  36.132  0.00  0.00    -0.042 C 
ATOM     37  H24 X7A d   1     -48.075  20.953  37.457  0.00  0.00     0.076 H 
ATOM     38  H25 X7A d   1     -48.508  19.270  37.914  0.00  0.00     0.076 H 
ATOM     39  C15 X7A d   1     -49.230  20.602  34.877  0.00  0.00    -0.062 C 
ATOM     40  H26 X7A d   1     -50.273  20.558  36.635  0.00  0.00     0.035 H 
ATOM     41  H27 X7A d   1     -49.812  18.962  35.951  0.00  0.00     0.035 H 
ATOM     42  C16 X7A d   1     -47.929  20.374  34.283  0.00  0.00    -0.042 C 
ATOM     43  H28 X7A d   1     -49.352  21.688  35.005  0.00  0.00     0.033 H 
ATOM     44  H29 X7A d   1     -49.988  20.228  34.173  0.00  0.00     0.033 H 
ATOM     45  C17 X7A d   1     -46.756  20.113  35.228  0.00  0.00     0.084 C 
ATOM     46  H30 X7A d   1     -47.679  21.264  33.686  0.00  0.00     0.035 H 
ATOM     47  H31 X7A d   1     -48.018  19.501  33.620  0.00  0.00     0.035 H 
ATOM     48  H32 X7A d   1     -46.028  19.486  34.693  0.00  0.00     0.076 H 
ATOM     49  H33 X7A d   1     -46.297  21.083  35.469  0.00  0.00     0.076 H 
ATOM     50  H23 X7A d   1     -47.221  18.491  36.237  0.00  0.00     0.279 HD
ENDBRANCH  31  34
ENDBRANCH  28  31
ENDBRANCH   1  28
TORSDOF 13
