REMARK  16 active torsions:
REMARK  status: ('A' for Active; 'I' for Inactive)
REMARK    1  A    between atoms: C5_1  and  C3_2 
REMARK    2  A    between atoms: C5_1  and  C6_6 
REMARK       I    between atoms: C3_2  and  N1_4 
REMARK    3  A    between atoms: N1_4  and  O2_5 
REMARK    4  A    between atoms: C6_6  and  C12_7 
REMARK    5  A    between atoms: C6_6  and  C7_9 
REMARK       I    between atoms: C12_7  and  N14_14 
REMARK    6  A    between atoms: C7_9  and  C8_10 
REMARK    7  A    between atoms: C8_10  and  C9_11 
REMARK    8  A    between atoms: C9_11  and  C10_12 
REMARK    9  A    between atoms: C10_12  and  C11_13 
REMARK   10  A    between atoms: N14_14  and  C15_15 
REMARK   11  A    between atoms: C15_15  and  C16_16 
REMARK   12  A    between atoms: C15_15  and  C19_19 
REMARK   13  A    between atoms: C16_16  and  C18_17 
REMARK   14  A    between atoms: C16_16  and  C17_18 
REMARK       I    between atoms: C19_19  and  N21_21 
REMARK   15  A    between atoms: C22_22  and  C26_26 
REMARK   16  A    between atoms: C26_26  and  O27_27 
ROOT
ATOM      1  C12 BB2 d   1      40.510 -37.905 -34.337  0.00  0.00     0.223 C 
ATOM      2  O13 BB2 d   1      40.657 -36.688 -34.268  0.00  0.00    -0.273 OA
ATOM      3  N14 BB2 d   1      39.316 -38.472 -34.490  0.00  0.00    -0.347 N 
ATOM      4  H17 BB2 d   1      39.250 -39.469 -34.521  0.00  0.00     0.163 HD
ENDROOT
BRANCH   3   5
ATOM      5  C15 BB2 d   1      38.085 -37.665 -34.615  0.00  0.00     0.092 C 
ATOM      6  H18 BB2 d   1      38.237 -36.875 -35.365  0.00  0.00     0.088 H 
BRANCH   5   7
ATOM      7  C16 BB2 d   1      36.978 -38.578 -35.096  0.00  0.00    -0.033 C 
ATOM      8  H19 BB2 d   1      36.836 -39.377 -34.354  0.00  0.00     0.042 H 
BRANCH   7   9
ATOM      9  C18 BB2 d   1      35.667 -37.810 -35.219  0.00  0.00    -0.071 C 
ATOM     10  H20 BB2 d   1      34.876 -38.489 -35.569  0.00  0.00     0.028 H 
ATOM     11  H21 BB2 d   1      35.790 -36.988 -35.939  0.00  0.00     0.028 H 
ATOM     12  H22 BB2 d   1      35.389 -37.399 -34.237  0.00  0.00     0.028 H 
ENDBRANCH   7   9
BRANCH   7  13
ATOM     13  C17 BB2 d   1      37.396 -39.227 -36.432  0.00  0.00    -0.071 C 
ATOM     14  H23 BB2 d   1      38.344 -39.768 -36.296  0.00  0.00     0.028 H 
ATOM     15  H24 BB2 d   1      37.527 -38.445 -37.194  0.00  0.00     0.028 H 
ATOM     16  H25 BB2 d   1      36.616 -39.930 -36.758  0.00  0.00     0.028 H 
ENDBRANCH   7  13
ENDBRANCH   5   7
BRANCH   5  17
ATOM     17  C19 BB2 d   1      37.799 -37.013 -33.291  0.00  0.00     0.243 C 
ATOM     18  O20 BB2 d   1      37.934 -37.757 -32.288  0.00  0.00    -0.271 OA
ATOM     19  N21 BB2 d   1      37.657 -35.684 -33.165  0.00  0.00    -0.344 N 
ATOM     20  C22 BB2 d   1      37.704 -35.044 -31.821  0.00  0.00     0.035 C 
ATOM     21  C23 BB2 d   1      37.615 -34.688 -34.218  0.00  0.00    -0.002 C 
ATOM     22  C25 BB2 d   1      37.881 -33.552 -32.088  0.00  0.00    -0.043 C 
ATOM     23  H26 BB2 d   1      38.552 -35.438 -31.242  0.00  0.00     0.076 H 
ATOM     24  C24 BB2 d   1      37.376 -33.375 -33.493  0.00  0.00    -0.048 C 
ATOM     25  H31 BB2 d   1      38.940 -33.264 -32.013  0.00  0.00     0.036 H 
ATOM     26  H32 BB2 d   1      37.288 -32.954 -31.380  0.00  0.00     0.036 H 
ATOM     27  H29 BB2 d   1      36.302 -33.140 -33.482  0.00  0.00     0.035 H 
ATOM     28  H30 BB2 d   1      37.924 -32.562 -33.992  0.00  0.00     0.035 H 
ATOM     29  H27 BB2 d   1      36.795 -34.899 -34.920  0.00  0.00     0.064 H 
ATOM     30  H28 BB2 d   1      38.569 -34.661 -34.766  0.00  0.00     0.064 H 
BRANCH  20  31
ATOM     31  C26 BB2 d   1      36.399 -35.271 -31.035  0.00  0.00     0.036 C 
ATOM     32  H33 BB2 d   1      36.335 -34.555 -30.202  0.00  0.00     0.077 H 
ATOM     33  H34 BB2 d   1      36.375 -36.297 -30.639  0.00  0.00     0.077 H 
BRANCH  31  34
ATOM     34  O27 BB2 d   1      35.316 -35.073 -31.922  0.00  0.00    -0.399 OA
ATOM     35  H35 BB2 d   1      34.499 -35.208 -31.457  0.00  0.00     0.209 HD
ENDBRANCH  31  34
ENDBRANCH  20  31
ENDBRANCH   5  17
ENDBRANCH   3   5
BRANCH   1  36
ATOM     36  C6  BB2 d   1      41.702 -38.856 -34.323  0.00  0.00     0.032 C 
ATOM     37  H5  BB2 d   1      41.374 -39.874 -34.579  0.00  0.00     0.055 H 
BRANCH  36  38
ATOM     38  C5  BB2 d   1      42.760 -38.376 -35.341  0.00  0.00     0.022 C 
ATOM     39  H1  BB2 d   1      42.267 -38.201 -36.309  0.00  0.00     0.048 H 
ATOM     40  H2  BB2 d   1      43.200 -37.435 -34.978  0.00  0.00     0.048 H 
BRANCH  38  41
ATOM     41  C3  BB2 d   1      43.858 -39.382 -35.532  0.00  0.00     0.241 C 
ATOM     42  O4  BB2 d   1      43.613 -40.471 -36.021  0.00  0.00    -0.271 OA
ATOM     43  N1  BB2 d   1      45.082 -39.199 -35.066  0.00  0.00    -0.237 N 
ATOM     44  H3  BB2 d   1      45.360 -38.345 -34.627  0.00  0.00     0.197 HD
BRANCH  43  45
ATOM     45  O2  BB2 d   1      45.954 -40.262 -35.224  0.00  0.00    -0.287 OA
ATOM     46  H4  BB2 d   1      46.801 -40.032 -34.859  0.00  0.00     0.244 HD
ENDBRANCH  43  45
ENDBRANCH  38  41
ENDBRANCH  36  38
BRANCH  36  47
ATOM     47  C7  BB2 d   1      42.303 -38.836 -32.931  0.00  0.00    -0.053 C 
ATOM     48  H6  BB2 d   1      42.754 -37.840 -32.806  0.00  0.00     0.034 H 
ATOM     49  H7  BB2 d   1      43.094 -39.600 -32.928  0.00  0.00     0.034 H 
BRANCH  47  50
ATOM     50  C8  BB2 d   1      41.452 -39.089 -31.659  0.00  0.00    -0.064 C 
ATOM     51  H8  BB2 d   1      40.718 -38.280 -31.529  0.00  0.00     0.033 H 
ATOM     52  H9  BB2 d   1      42.103 -39.139 -30.774  0.00  0.00     0.033 H 
BRANCH  50  53
ATOM     53  C9  BB2 d   1      40.754 -40.382 -31.850  0.00  0.00    -0.065 C 
ATOM     54  H10 BB2 d   1      40.396 -40.436 -32.889  0.00  0.00     0.033 H 
ATOM     55  H11 BB2 d   1      39.895 -40.421 -31.163  0.00  0.00     0.033 H 
BRANCH  53  56
ATOM     56  C10 BB2 d   1      41.639 -41.583 -31.583  0.00  0.00    -0.069 C 
ATOM     57  H12 BB2 d   1      42.693 -41.272 -31.631  0.00  0.00     0.032 H 
ATOM     58  H13 BB2 d   1      41.448 -42.349 -32.348  0.00  0.00     0.032 H 
BRANCH  56  59
ATOM     59  C11 BB2 d   1      41.356 -42.162 -30.223  0.00  0.00    -0.077 C 
ATOM     60  H14 BB2 d   1      42.008 -43.031 -30.051  0.00  0.00     0.027 H 
ATOM     61  H15 BB2 d   1      40.304 -42.478 -30.171  0.00  0.00     0.027 H 
ATOM     62  H16 BB2 d   1      41.549 -41.401 -29.453  0.00  0.00     0.027 H 
ENDBRANCH  56  59
ENDBRANCH  53  56
ENDBRANCH  50  53
ENDBRANCH  47  50
ENDBRANCH  36  47
ENDBRANCH   1  36
TORSDOF 16
