REMARK  22 active torsions:
REMARK  status: ('A' for Active; 'I' for Inactive)
REMARK    1  A    between atoms: N_1  and  C1_2 
REMARK    2  A    between atoms: C1_2  and  C2_3 
REMARK    3  A    between atoms: C1_2  and  C6_7 
REMARK    4  A    between atoms: C2_3  and  C3_4 
REMARK    5  A    between atoms: C3_4  and  C4_5 
REMARK    6  A    between atoms: C3_4  and  C5_6 
REMARK    7  A    between atoms: C6_7  and  O1_8 
REMARK    8  A    between atoms: C6_7  and  C_9 
REMARK       I    between atoms: C_9  and  N_11 
REMARK    9  A    between atoms: N_11  and  CA_12 
REMARK   10  A    between atoms: CA_12  and  C_13 
REMARK   11  A    between atoms: CA_12  and  CB_15 
REMARK       I    between atoms: C_13  and  N_18 
REMARK   12  A    between atoms: CB_15  and  CG1_16 
REMARK   13  A    between atoms: CB_15  and  CG2_17 
REMARK   14  A    between atoms: N_18  and  CA_19 
REMARK   15  A    between atoms: CA_19  and  C_20 
REMARK   16  A    between atoms: CA_19  and  CB_22 
REMARK       I    between atoms: C_20  and  N_25 
REMARK   17  A    between atoms: CB_22  and  CG1_23 
REMARK   18  A    between atoms: CB_22  and  CG2_24 
REMARK   19  A    between atoms: N_25  and  CA_26 
REMARK   20  A    between atoms: CA_26  and  C_27 
REMARK   21  A    between atoms: CA_26  and  CB_29 
REMARK   22  A    between atoms: CB_29  and  CG_30 
ROOT
ATOM      1  CA  VAL d   1      53.457 -16.513  33.341  0.00  0.00     0.092 C 
ATOM      2  H17 VAL d   1      53.941 -15.600  33.717  0.00  0.00     0.088 H 
ENDROOT
BRANCH   1   3
ATOM      3  N   VAL d   1      54.034 -17.725  33.936  0.00  0.00    -0.345 N 
ATOM      4  C   L2O d   1      55.126 -17.708  34.698  0.00  0.00     0.249 C 
ATOM      5  O   L2O d   1      55.735 -16.680  34.961  0.00  0.00    -0.271 OA
ATOM      6  H16 VAL d   1      53.587 -18.602  33.761  0.00  0.00     0.163 HD
BRANCH   4   7
ATOM      7  C6  L2O d   1      55.573 -19.009  35.279  0.00  0.00     0.139 C 
ATOM      8  H14 L2O d   1      55.081 -19.848  34.765  0.00  0.00     0.101 H 
BRANCH   7   9
ATOM      9  C1  L2O d   1      55.223 -19.047  36.767  0.00  0.00     0.133 C 
ATOM     10  H4  L2O d   1      55.163 -18.005  37.114  0.00  0.00     0.088 H 
BRANCH   9  11
ATOM     11  N   L2O d   1      56.236 -19.712  37.556  0.00  0.00    -0.072 N 
ATOM     12  H1  L2O d   1      55.961 -19.711  38.526  0.00  0.00     0.274 HD
ATOM     13  H2  L2O d   1      57.113 -19.226  37.456  0.00  0.00     0.274 HD
ATOM     14  H3  L2O d   1      56.340 -20.663  37.237  0.00  0.00     0.274 HD
ENDBRANCH   9  11
BRANCH   9  15
ATOM     15  C2  L2O d   1      53.870 -19.693  37.009  0.00  0.00    -0.033 C 
ATOM     16  H5  L2O d   1      54.026 -20.757  37.242  0.00  0.00     0.036 H 
ATOM     17  H6  L2O d   1      53.269 -19.602  36.092  0.00  0.00     0.036 H 
BRANCH  15  18
ATOM     18  C3  L2O d   1      53.091 -19.042  38.176  0.00  0.00    -0.059 C 
ATOM     19  H7  L2O d   1      53.820 -18.773  38.955  0.00  0.00     0.038 H 
BRANCH  18  20
ATOM     20  C4  L2O d   1      52.096 -20.052  38.742  0.00  0.00    -0.073 C 
ATOM     21  H8  L2O d   1      51.540 -19.593  39.572  0.00  0.00     0.028 H 
ATOM     22  H9  L2O d   1      52.639 -20.936  39.109  0.00  0.00     0.028 H 
ATOM     23  H10 L2O d   1      51.392 -20.355  37.953  0.00  0.00     0.028 H 
ENDBRANCH  18  20
BRANCH  18  24
ATOM     24  C5  L2O d   1      52.282 -17.765  37.809  0.00  0.00    -0.073 C 
ATOM     25  H11 L2O d   1      52.962 -17.006  37.395  0.00  0.00     0.028 H 
ATOM     26  H12 L2O d   1      51.795 -17.367  38.712  0.00  0.00     0.028 H 
ATOM     27  H13 L2O d   1      51.517 -18.018  37.061  0.00  0.00     0.028 H 
ENDBRANCH  18  24
ENDBRANCH  15  18
ENDBRANCH   9  15
ENDBRANCH   7   9
BRANCH   7  28
ATOM     28  O1  L2O d   1      56.976 -19.073  35.081  0.00  0.00    -0.384 OA
ATOM     29  H15 L2O d   1      57.165 -19.048  34.150  0.00  0.00     0.210 HD
ENDBRANCH   7  28
ENDBRANCH   4   7
ENDBRANCH   1   3
BRANCH   1  30
ATOM     30  C   VAL d   1      52.038 -16.569  33.816  0.00  0.00     0.241 C 
ATOM     31  O   VAL d   1      51.408 -17.639  33.809  0.00  0.00    -0.271 OA
ATOM     32  N   VAL d   1      51.529 -15.446  34.316  0.00  0.00    -0.346 N 
ATOM     33  H25 VAL d   1      52.061 -14.600  34.301  0.00  0.00     0.163 HD
BRANCH  32  34
ATOM     34  CA  VAL d   1      50.182 -15.462  34.888  0.00  0.00     0.092 C 
ATOM     35  H26 VAL d   1      50.078 -16.419  35.421  0.00  0.00     0.088 H 
BRANCH  34  36
ATOM     36  C   VAL d   1      49.041 -15.359  33.936  0.00  0.00     0.241 C 
ATOM     37  O   VAL d   1      48.097 -16.115  34.088  0.00  0.00    -0.271 OA
ATOM     38  N   ASP d   1      49.098 -14.406  33.013  0.00  0.00    -0.344 N 
ATOM     39  H34 ASP d   1      49.902 -13.813  32.968  0.00  0.00     0.163 HD
BRANCH  38  40
ATOM     40  CA  ASP d   1      47.996 -14.208  32.053  0.00  0.00     0.105 C 
ATOM     41  H35 ASP d   1      47.147 -14.847  32.336  0.00  0.00     0.090 H 
BRANCH  40  42
ATOM     42  C   ASP d   1      48.340 -14.439  30.615  0.00  0.00     0.197 C 
ATOM     43  O   ASP d   1      47.391 -14.811  29.879  0.00  0.00    -0.646 OA
ATOM     44  OXT ASP d   1      49.536 -14.217  30.252  0.00  0.00    -0.646 OA
ENDBRANCH  40  42
BRANCH  40  45
ATOM     45  CB  ASP d   1      47.635 -12.724  32.132  0.00  0.00     0.044 C 
ATOM     46  H36 ASP d   1      47.166 -12.400  31.191  0.00  0.00     0.053 H 
ATOM     47  H37 ASP d   1      48.540 -12.126  32.315  0.00  0.00     0.053 H 
BRANCH  45  48
ATOM     48  CG  ASP d   1      46.667 -12.556  33.274  0.00  0.00     0.175 C 
ATOM     49  OD1 ASP d   1      46.755 -11.477  33.909  0.00  0.00    -0.648 OA
ATOM     50  OD2 ASP d   1      45.848 -13.487  33.549  0.00  0.00    -0.648 OA
ENDBRANCH  45  48
ENDBRANCH  40  45
ENDBRANCH  38  40
ENDBRANCH  34  36
BRANCH  34  51
ATOM     51  CB  VAL d   1      50.020 -14.311  35.902  0.00  0.00    -0.033 C 
ATOM     52  H27 VAL d   1      49.761 -13.411  35.325  0.00  0.00     0.042 H 
BRANCH  51  53
ATOM     53  CG1 VAL d   1      48.850 -14.660  36.812  0.00  0.00    -0.071 C 
ATOM     54  H28 VAL d   1      48.707 -13.857  37.550  0.00  0.00     0.028 H 
ATOM     55  H29 VAL d   1      49.061 -15.604  37.335  0.00  0.00     0.028 H 
ATOM     56  H30 VAL d   1      47.937 -14.771  36.209  0.00  0.00     0.028 H 
ENDBRANCH  51  53
BRANCH  51  57
ATOM     57  CG2 VAL d   1      51.223 -13.949  36.755  0.00  0.00    -0.071 C 
ATOM     58  H31 VAL d   1      52.072 -13.696  36.103  0.00  0.00     0.028 H 
ATOM     59  H32 VAL d   1      51.492 -14.805  37.392  0.00  0.00     0.028 H 
ATOM     60  H33 VAL d   1      50.977 -13.084  37.388  0.00  0.00     0.028 H 
ENDBRANCH  51  57
ENDBRANCH  34  51
ENDBRANCH  32  34
ENDBRANCH   1  30
BRANCH   1  61
ATOM     61  CB  VAL d   1      53.681 -16.611  31.836  0.00  0.00    -0.033 C 
ATOM     62  H18 VAL d   1      53.586 -17.670  31.555  0.00  0.00     0.042 H 
BRANCH  61  63
ATOM     63  CG1 VAL d   1      52.666 -15.827  31.020  0.00  0.00    -0.071 C 
ATOM     64  H19 VAL d   1      52.888 -15.943  29.949  0.00  0.00     0.028 H 
ATOM     65  H20 VAL d   1      52.720 -14.763  31.292  0.00  0.00     0.028 H 
ATOM     66  H21 VAL d   1      51.655 -16.208  31.228  0.00  0.00     0.028 H 
ENDBRANCH  61  63
BRANCH  61  67
ATOM     67  CG2 VAL d   1      55.107 -16.145  31.488  0.00  0.00    -0.071 C 
ATOM     68  H22 VAL d   1      55.835 -16.717  32.082  0.00  0.00     0.028 H 
ATOM     69  H23 VAL d   1      55.209 -15.074  31.716  0.00  0.00     0.028 H 
ATOM     70  H24 VAL d   1      55.296 -16.312  30.417  0.00  0.00     0.028 H 
ENDBRANCH  61  67
ENDBRANCH   1  61
TORSDOF 22
