REMARK  26 active torsions:
REMARK  status: ('A' for Active; 'I' for Inactive)
REMARK    1  A    between atoms: N_1  and  CA_2 
REMARK    2  A    between atoms: CA_2  and  C_3 
REMARK    3  A    between atoms: CA_2  and  CB_5 
REMARK       I    between atoms: C_3  and  N_6 
REMARK    4  A    between atoms: N_6  and  CA_7 
REMARK    5  A    between atoms: CA_7  and  C_8 
REMARK    6  A    between atoms: CA_7  and  CB_10 
REMARK       I    between atoms: C_8  and  N_17 
REMARK    7  A    between atoms: CB_10  and  CG_11 
REMARK    8  A    between atoms: CG_11  and  CD_12 
REMARK    9  A    between atoms: CD_12  and  NE_13 
REMARK       I    between atoms: NE_13  and  CZ_14 
REMARK       I    between atoms: CZ_14  and  NH1_15 
REMARK   10  A    between atoms: N_17  and  CA_18 
REMARK   11  A    between atoms: CA_18  and  C_19 
REMARK   12  A    between atoms: CA_18  and  CB_21 
REMARK       I    between atoms: C_19  and  N_24 
REMARK   13  A    between atoms: CB_21  and  OG1_22 
REMARK   14  A    between atoms: CB_21  and  CG2_23 
REMARK   15  A    between atoms: N_24  and  CA_25 
REMARK   16  A    between atoms: CA_25  and  C_26 
REMARK   17  A    between atoms: CA_25  and  CB_28 
REMARK       I    between atoms: C_26  and  N_33 
REMARK   18  A    between atoms: CB_28  and  CG_29 
REMARK   19  A    between atoms: CG_29  and  CD_30 
REMARK   20  A    between atoms: CD_30  and  CE_31 
REMARK   21  A    between atoms: CE_31  and  NZ_32 
REMARK   22  A    between atoms: N_33  and  CA_34 
REMARK   23  A    between atoms: CA_34  and  C_35 
REMARK   24  A    between atoms: CA_34  and  CB_37 
REMARK   25  A    between atoms: CB_37  and  CG_38 
REMARK   26  A    between atoms: CG_38  and  CD_39 
REMARK       I    between atoms: CD_39  and  NE2_41 
ROOT
ATOM      1  CA  THR d   1      -1.238 -19.289 -11.680  0.00  0.00     0.113 C 
ATOM      2  H22 THR d   1      -1.555 -19.777 -12.614  0.00  0.00     0.091 H 
ENDROOT
BRANCH   1   3
ATOM      3  N   THR d   1      -0.765 -17.958 -11.991  0.00  0.00    -0.344 N 
ATOM      4  C   ARG d   1      -0.855 -17.393 -13.194  0.00  0.00     0.241 C 
ATOM      5  O   ARG d   1      -1.341 -17.944 -14.184  0.00  0.00    -0.271 OA
ATOM      6  H21 THR d   1      -0.343 -17.428 -11.255  0.00  0.00     0.163 HD
BRANCH   4   7
ATOM      7  CA  ARG d   1      -0.237 -16.011 -13.279  0.00  0.00     0.089 C 
ATOM      8  H9  ARG d   1       0.789 -16.096 -12.893  0.00  0.00     0.087 H 
BRANCH   7   9
ATOM      9  N   ARG d   1      -0.138 -15.536 -14.652  0.00  0.00    -0.346 N 
ATOM     10  C   ALA d   1       1.035 -15.176 -15.141  0.00  0.00     0.248 C 
ATOM     11  O   ALA d   1       2.056 -15.184 -14.469  0.00  0.00    -0.271 OA
ATOM     12  H8  ARG d   1      -0.957 -15.482 -15.224  0.00  0.00     0.163 HD
BRANCH  10  13
ATOM     13  CA  ALA d   1       1.059 -14.718 -16.579  0.00  0.00     0.172 C 
ATOM     14  H4  ALA d   1       0.151 -14.129 -16.778  0.00  0.00     0.098 H 
BRANCH  13  15
ATOM     15  N   ALA d   1       2.252 -13.843 -16.800  0.00  0.00    -0.067 N 
ATOM     16  H1  ALA d   1       2.270 -13.536 -17.760  0.00  0.00     0.275 HD
ATOM     17  H2  ALA d   1       3.092 -14.362 -16.598  0.00  0.00     0.275 HD
ATOM     18  H3  ALA d   1       2.198 -13.041 -16.192  0.00  0.00     0.275 HD
ENDBRANCH  13  15
BRANCH  13  19
ATOM     19  CB  ALA d   1       1.068 -15.920 -17.518  0.00  0.00    -0.042 C 
ATOM     20  H5  ALA d   1       0.179 -16.540 -17.329  0.00  0.00     0.030 H 
ATOM     21  H6  ALA d   1       1.975 -16.516 -17.342  0.00  0.00     0.030 H 
ATOM     22  H7  ALA d   1       1.056 -15.571 -18.561  0.00  0.00     0.030 H 
ENDBRANCH  13  19
ENDBRANCH  10  13
ENDBRANCH   7   9
BRANCH   7  23
ATOM     23  CB  ARG d   1      -0.973 -14.995 -12.386  0.00  0.00    -0.036 C 
ATOM     24  H10 ARG d   1      -0.423 -14.044 -12.436  0.00  0.00     0.036 H 
ATOM     25  H11 ARG d   1      -0.952 -15.377 -11.355  0.00  0.00     0.036 H 
BRANCH  23  26
ATOM     26  CG  ARG d   1      -2.412 -14.714 -12.744  0.00  0.00    -0.048 C 
ATOM     27  H12 ARG d   1      -2.964 -14.499 -11.817  0.00  0.00     0.035 H 
ATOM     28  H13 ARG d   1      -2.832 -15.611 -13.222  0.00  0.00     0.035 H 
BRANCH  26  29
ATOM     29  CD  ARG d   1      -2.593 -13.532 -13.697  0.00  0.00     0.009 C 
ATOM     30  H14 ARG d   1      -2.146 -13.775 -14.672  0.00  0.00     0.064 H 
ATOM     31  H15 ARG d   1      -2.098 -12.644 -13.278  0.00  0.00     0.064 H 
BRANCH  29  32
ATOM     32  NE  ARG d   1      -4.032 -13.257 -13.870  0.00  0.00    -0.227 N 
ATOM     33  CZ  ARG d   1      -4.854 -13.885 -14.725  0.00  0.00     0.665 C 
ATOM     34  NH1 ARG d   1      -6.138 -13.569 -14.759  0.00  0.00    -0.235 N 
ATOM     35  NH2 ARG d   1      -4.417 -14.825 -15.556  0.00  0.00    -0.235 N 
ATOM     36  H17 ARG d   1      -6.770 -14.050 -15.415  0.00  0.00     0.174 HD
ATOM     37  H18 ARG d   1      -6.506 -12.841 -14.130  0.00  0.00     0.174 HD
ATOM     38  H19 ARG d   1      -3.422 -15.093 -15.553  0.00  0.00     0.174 HD
ATOM     39  H20 ARG d   1      -5.073 -15.286 -16.203  0.00  0.00     0.174 HD
ATOM     40  H16 ARG d   1      -4.442 -12.517 -13.282  0.00  0.00     0.177 HD
ENDBRANCH  29  32
ENDBRANCH  26  29
ENDBRANCH  23  26
ENDBRANCH   7  23
ENDBRANCH   4   7
ENDBRANCH   1   3
BRANCH   1  41
ATOM     41  C   THR d   1      -2.445 -19.192 -10.739  0.00  0.00     0.243 C 
ATOM     42  O   THR d   1      -2.737 -18.128 -10.159  0.00  0.00    -0.271 OA
ATOM     43  N   LYS d   1      -3.140 -20.313 -10.605  0.00  0.00    -0.346 N 
ATOM     44  H28 LYS d   1      -2.880 -21.106 -11.155  0.00  0.00     0.163 HD
BRANCH  43  45
ATOM     45  CA  LYS d   1      -4.264 -20.438  -9.692  0.00  0.00     0.089 C 
ATOM     46  H29 LYS d   1      -5.018 -19.680  -9.949  0.00  0.00     0.087 H 
BRANCH  45  47
ATOM     47  C   LYS d   1      -3.814 -20.218  -8.239  0.00  0.00     0.241 C 
ATOM     48  O   LYS d   1      -4.590 -19.753  -7.444  0.00  0.00    -0.271 OA
ATOM     49  N   GLN d   1      -2.561 -20.525  -7.905  0.00  0.00    -0.345 N 
ATOM     50  H41 GLN d   1      -1.962 -20.965  -8.574  0.00  0.00     0.163 HD
BRANCH  49  51
ATOM     51  CA  GLN d   1      -2.056 -20.222  -6.567  0.00  0.00     0.096 C 
ATOM     52  H42 GLN d   1      -2.719 -20.712  -5.839  0.00  0.00     0.089 H 
BRANCH  51  53
ATOM     53  C   GLN d   1      -2.042 -18.709  -6.248  0.00  0.00     0.196 C 
ATOM     54  O   GLN d   1      -1.436 -17.897  -6.977  0.00  0.00    -0.646 OA
ATOM     55  OXT GLN d   1      -2.636 -18.250  -5.251  0.00  0.00    -0.646 OA
ENDBRANCH  51  53
BRANCH  51  56
ATOM     56  CB  GLN d   1      -0.665 -20.795  -6.408  0.00  0.00    -0.029 C 
ATOM     57  H43 GLN d   1       0.026 -20.209  -7.032  0.00  0.00     0.037 H 
ATOM     58  H44 GLN d   1      -0.677 -21.839  -6.755  0.00  0.00     0.037 H 
BRANCH  56  59
ATOM     59  CG  GLN d   1      -0.157 -20.771  -4.977  0.00  0.00     0.011 C 
ATOM     60  H45 GLN d   1      -0.603 -21.611  -4.425  0.00  0.00     0.047 H 
ATOM     61  H46 GLN d   1      -0.457 -19.823  -4.507  0.00  0.00     0.047 H 
BRANCH  59  62
ATOM     62  CD  GLN d   1       1.351 -20.892  -4.924  0.00  0.00     0.215 C 
ATOM     63  OE1 GLN d   1       2.069 -20.255  -5.702  0.00  0.00    -0.274 OA
ATOM     64  NE2 GLN d   1       1.844 -21.712  -4.015  0.00  0.00    -0.370 N 
ATOM     65  H47 GLN d   1       2.833 -21.832  -3.934  0.00  0.00     0.159 HD
ATOM     66  H48 GLN d   1       1.228 -22.213  -3.407  0.00  0.00     0.159 HD
ENDBRANCH  59  62
ENDBRANCH  56  59
ENDBRANCH  51  56
ENDBRANCH  49  51
ENDBRANCH  45  47
BRANCH  45  67
ATOM     67  CB  LYS d   1      -4.880 -21.820  -9.834  0.00  0.00    -0.038 C 
ATOM     68  H30 LYS d   1      -4.090 -22.564  -9.654  0.00  0.00     0.036 H 
ATOM     69  H31 LYS d   1      -5.251 -21.922 -10.865  0.00  0.00     0.036 H 
BRANCH  67  70
ATOM     70  CG  LYS d   1      -6.031 -22.123  -8.891  0.00  0.00    -0.061 C 
ATOM     71  H32 LYS d   1      -6.848 -21.407  -9.059  0.00  0.00     0.033 H 
ATOM     72  H33 LYS d   1      -5.687 -22.049  -7.849  0.00  0.00     0.033 H 
BRANCH  70  73
ATOM     73  CD  LYS d   1      -6.517 -23.529  -9.171  0.00  0.00    -0.043 C 
ATOM     74  H34 LYS d   1      -5.735 -24.241  -8.868  0.00  0.00     0.035 H 
ATOM     75  H35 LYS d   1      -6.707 -23.630 -10.250  0.00  0.00     0.035 H 
BRANCH  73  76
ATOM     76  CE  LYS d   1      -7.791 -23.854  -8.418  0.00  0.00     0.080 C 
ATOM     77  H36 LYS d   1      -8.515 -23.034  -8.536  0.00  0.00     0.075 H 
ATOM     78  H37 LYS d   1      -7.568 -23.996  -7.350  0.00  0.00     0.075 H 
BRANCH  76  79
ATOM     79  NZ  LYS d   1      -8.350 -25.106  -8.988  0.00  0.00    -0.079 N 
ATOM     80  H38 LYS d   1      -9.201 -25.345  -8.503  0.00  0.00     0.274 HD
ATOM     81  H39 LYS d   1      -7.681 -25.852  -8.881  0.00  0.00     0.274 HD
ATOM     82  H40 LYS d   1      -8.548 -24.970  -9.967  0.00  0.00     0.274 HD
ENDBRANCH  76  79
ENDBRANCH  73  76
ENDBRANCH  70  73
ENDBRANCH  67  70
ENDBRANCH  45  67
ENDBRANCH  43  45
ENDBRANCH   1  41
BRANCH   1  83
ATOM     83  CB  THR d   1      -0.118 -20.146 -11.035  0.00  0.00     0.060 C 
ATOM     84  H23 THR d   1      -0.458 -21.190 -10.969  0.00  0.00     0.086 H 
BRANCH  83  85
ATOM     85  OG1 THR d   1       0.181 -19.657  -9.701  0.00  0.00    -0.393 OA
ATOM     86  H24 THR d   1       0.868 -20.189  -9.316  0.00  0.00     0.210 HD
ENDBRANCH  83  85
BRANCH  83  87
ATOM     87  CG2 THR d   1       1.133 -20.084 -11.884  0.00  0.00    -0.050 C 
ATOM     88  H25 THR d   1       1.922 -20.694 -11.420  0.00  0.00     0.031 H 
ATOM     89  H26 THR d   1       1.473 -19.041 -11.960  0.00  0.00     0.031 H 
ATOM     90  H27 THR d   1       0.913 -20.472 -12.889  0.00  0.00     0.031 H 
ENDBRANCH  83  87
ENDBRANCH   1  83
TORSDOF 26
