REMARK  5 active torsions:
REMARK  status: ('A' for Active; 'I' for Inactive)
REMARK    1  A    between atoms: N35_29  and  C42_3 
REMARK    2  A    between atoms: C33_28  and  C53_9 
REMARK    3  A    between atoms: C15_12  and  C18_13 
REMARK    4  A    between atoms: C9_25  and  C15_12 
REMARK    5  A    between atoms: N29_27  and  C6_22 
ROOT
ATOM      1  C42 30J d   1      31.634   9.169  24.387  0.00  0.00     0.125 A 
ATOM      2  C44 30J d   1      30.510   7.233  23.788  0.00  0.00     0.024 A 
ATOM      3  C46 30J d   1      30.948   6.597  24.935  0.00  0.00     0.062 A 
ATOM      4  C47 30J d   1      31.751   7.269  25.831  0.00  0.00    -0.058 A 
ATOM      5  C49 30J d   1      32.087   8.574  25.549  0.00  0.00    -0.037 A 
ATOM      6  C51 30J d   1      30.583   5.241  25.163  0.00  0.00     0.101 C 
ATOM      7  N43 30J d   1      30.863   8.492  23.550  0.00  0.00    -0.242 NA
ATOM      8  N52 30J d   1      30.323   4.138  25.324  0.00  0.00    -0.191 NA
ATOM      9  H   30J d   1      29.879   6.705  23.083  0.00  0.00     0.117 H 
ATOM     10  H   30J d   1      32.108   6.784  26.732  0.00  0.00     0.086 H 
ATOM     11  H   30J d   1      32.707   9.135  26.239  0.00  0.00     0.089 H 
ENDROOT
BRANCH   1  12
ATOM     12  N35 30J d   1      31.935  10.432  24.090  0.00  0.00    -0.358 N 
ATOM     13  C33 30J d   1      32.911  11.136  24.871  0.00  0.00     0.025 C 
ATOM     14  C30 30J d   1      33.779  12.037  23.987  0.00  0.00     0.015 C 
ATOM     15  H   30J d   1      33.559  10.412  25.387  0.00  0.00     0.074 H 
ATOM     16  N29 30J d   1      33.336  12.298  22.636  0.00  0.00    -0.360 N 
ATOM     17  H   30J d   1      33.865  13.008  24.496  0.00  0.00     0.067 H 
ATOM     18  H   30J d   1      34.772  11.569  23.920  0.00  0.00     0.067 H 
ATOM     19  C39 30J d   1      32.257  11.615  21.982  0.00  0.00     0.011 C 
ATOM     20  C36 30J d   1      31.254  11.098  23.005  0.00  0.00     0.012 C 
ATOM     21  H   30J d   1      32.660  10.767  21.410  0.00  0.00     0.066 H 
ATOM     22  H   30J d   1      31.750  12.311  21.298  0.00  0.00     0.066 H 
ATOM     23  H   30J d   1      30.677  11.944  23.405  0.00  0.00     0.066 H 
ATOM     24  H   30J d   1      30.572  10.387  22.516  0.00  0.00     0.066 H 
BRANCH  13  25
ATOM     25  C53 30J d   1      32.152  11.979  25.907  0.00  0.00    -0.056 C 
ATOM     26  H   30J d   1      32.872  12.535  26.526  0.00  0.00     0.030 H 
ATOM     27  H   30J d   1      31.551  11.318  26.548  0.00  0.00     0.030 H 
ATOM     28  H   30J d   1      31.490  12.688  25.389  0.00  0.00     0.030 H 
ENDBRANCH  13  25
BRANCH  16  29
ATOM     29  C6  30J d   1      34.084  13.153  21.948  0.00  0.00     0.159 A 
ATOM     30  C5  30J d   1      34.636  14.305  22.482  0.00  0.00     0.025 A 
ATOM     31  C3  30J d   1      34.402  14.701  23.777  0.00  0.00    -0.047 A 
ATOM     32  C10 30J d   1      35.445  15.083  21.668  0.00  0.00     0.005 A 
ATOM     33  C2  30J d   1      34.988  15.870  24.216  0.00  0.00     0.035 A 
ATOM     34  H   30J d   1      33.774  14.111  24.435  0.00  0.00     0.087 H 
ATOM     35  C13 30J d   1      35.786  16.638  23.406  0.00  0.00    -0.061 A 
ATOM     36 CL1  30J d   1      34.721  16.446  25.809  0.00  0.00    -0.084 Cl
ATOM     37  C11 30J d   1      36.029  16.245  22.122  0.00  0.00    -0.069 A 
ATOM     38  H   30J d   1      36.222  17.555  23.785  0.00  0.00     0.086 H 
ATOM     39  H   30J d   1      36.667  16.834  21.474  0.00  0.00     0.085 H 
ATOM     40  C9  30J d   1      35.678  14.680  20.382  0.00  0.00     0.072 A 
ATOM     41  N8  30J d   1      35.142  13.566  19.957  0.00  0.00    -0.152 NA
ATOM     42  N7  30J d   1      34.367  12.820  20.706  0.00  0.00    -0.131 NA
BRANCH  40  43
ATOM     43  C15 30J d   1      36.576  15.451  19.435  0.00  0.00     0.002 C 
ATOM     44  H   30J d   1      36.259  15.292  18.394  0.00  0.00     0.049 H 
ATOM     45  H   30J d   1      36.544  16.526  19.668  0.00  0.00     0.049 H 
BRANCH  43  46
ATOM     46  C18 30J d   1      37.983  14.903  19.650  0.00  0.00    -0.052 A 
ATOM     47  C19 30J d   1      39.075  15.744  19.660  0.00  0.00    -0.076 A 
ATOM     48  C21 30J d   1      40.346  15.242  19.869  0.00  0.00    -0.082 A 
ATOM     49  H   30J d   1      38.936  16.808  19.503  0.00  0.00     0.084 H 
ATOM     50  C23 30J d   1      40.537  13.884  20.071  0.00  0.00    -0.083 A 
ATOM     51  H   30J d   1      41.197  15.913  19.875  0.00  0.00     0.083 H 
ATOM     52  C25 30J d   1      39.452  13.035  20.077  0.00  0.00    -0.082 A 
ATOM     53  H   30J d   1      41.536  13.492  20.224  0.00  0.00     0.083 H 
ATOM     54  C27 30J d   1      38.186  13.549  19.867  0.00  0.00    -0.076 A 
ATOM     55  H   30J d   1      39.590  11.973  20.245  0.00  0.00     0.083 H 
ATOM     56  H   30J d   1      37.334  12.879  19.872  0.00  0.00     0.084 H 
ENDBRANCH  43  46
ENDBRANCH  40  43
ENDBRANCH  16  29
ENDBRANCH   1  12
TORSDOF 5
