REMARK  7 active torsions:
REMARK  status: ('A' for Active; 'I' for Inactive)
REMARK    1  A    between atoms: CP3_1  and  CP1_2 
REMARK    2  A    between atoms: CP1_2  and  CP2_3 
REMARK    3  A    between atoms: CP1_2  and  C44_4 
REMARK    4  A    between atoms: C41_9  and  N3_10 
REMARK       I    between atoms: N3_10  and  C3_11 
REMARK    5  A    between atoms: C3_11  and  C25_13 
REMARK    6  A    between atoms: C24_14  and  CM_15 
REMARK    7  A    between atoms: C21_18  and  C11_19 
ROOT
ATOM      1  N3  2ZW d   1      91.024  45.384  58.528  0.00  0.00    -0.323 N 
ATOM      2  C3  2ZW d   1      90.452  46.641  58.424  0.00  0.00     0.261 C 
ATOM      3  O3  2ZW d   1      89.288  46.833  58.075  0.00  0.00    -0.267 OA
ATOM      4  H   2ZW d   1      91.928  45.364  58.955  0.00  0.00     0.169 HD
ENDROOT
BRANCH   1   5
ATOM      5  C41 2ZW d   1      90.523  44.120  58.121  0.00  0.00     0.035 A 
ATOM      6  C46 2ZW d   1      89.592  43.948  57.100  0.00  0.00    -0.057 A 
ATOM      7  C45 2ZW d   1      89.178  42.674  56.742  0.00  0.00    -0.074 A 
ATOM      8  H   2ZW d   1      89.190  44.812  56.584  0.00  0.00     0.086 H 
ATOM      9  C44 2ZW d   1      89.699  41.543  57.367  0.00  0.00    -0.055 A 
ATOM     10  H   2ZW d   1      88.435  42.556  55.961  0.00  0.00     0.084 H 
ATOM     11  C43 2ZW d   1      90.623  41.725  58.392  0.00  0.00    -0.074 A 
ATOM     12  C42 2ZW d   1      91.031  42.994  58.771  0.00  0.00    -0.057 A 
ATOM     13  H   2ZW d   1      91.030  40.860  58.902  0.00  0.00     0.084 H 
ATOM     14  H   2ZW d   1      91.748  43.113  59.576  0.00  0.00     0.086 H 
BRANCH   9  15
ATOM     15  CP1 2ZW d   1      89.257  40.150  56.923  0.00  0.00    -0.036 C 
ATOM     16  H   2ZW d   1      88.938  40.234  55.873  0.00  0.00     0.046 H 
BRANCH  15  17
ATOM     17  CP3 2ZW d   1      88.055  39.663  57.734  0.00  0.00    -0.069 C 
ATOM     18  H   2ZW d   1      87.763  38.660  57.390  0.00  0.00     0.028 H 
ATOM     19  H   2ZW d   1      87.213  40.358  57.595  0.00  0.00     0.028 H 
ATOM     20  H   2ZW d   1      88.324  39.621  58.800  0.00  0.00     0.028 H 
ENDBRANCH  15  17
BRANCH  15  21
ATOM     21  CP2 2ZW d   1      90.379  39.110  56.973  0.00  0.00    -0.069 C 
ATOM     22  H   2ZW d   1      91.238  39.469  56.387  0.00  0.00     0.028 H 
ATOM     23  H   2ZW d   1      90.018  38.161  56.550  0.00  0.00     0.028 H 
ATOM     24  H   2ZW d   1      90.687  38.953  58.017  0.00  0.00     0.028 H 
ENDBRANCH  15  21
ENDBRANCH   9  15
ENDBRANCH   1   5
BRANCH   2  25
ATOM     25  C25 2ZW d   1      91.311  47.782  58.840  0.00  0.00     0.095 A 
ATOM     26  C24 2ZW d   1      90.876  49.041  59.084  0.00  0.00     0.093 A 
ATOM     27  O23 2ZW d   1      91.805  49.687  59.810  0.00  0.00    -0.217 OA
ATOM     28  N22 2ZW d   1      92.889  48.791  60.045  0.00  0.00    -0.127 NA
ATOM     29  C21 2ZW d   1      92.582  47.666  59.419  0.00  0.00     0.114 A 
BRANCH  26  30
ATOM     30  CM  2ZW d   1      89.636  49.796  58.777  0.00  0.00    -0.028 C 
ATOM     31  H   2ZW d   1      89.720  50.817  59.177  0.00  0.00     0.036 H 
ATOM     32  H   2ZW d   1      88.775  49.291  59.239  0.00  0.00     0.036 H 
ATOM     33  H   2ZW d   1      89.494  49.840  57.687  0.00  0.00     0.036 H 
ENDBRANCH  26  30
BRANCH  29  34
ATOM     34  C11 2ZW d   1      93.746  46.780  59.214  0.00  0.00     0.018 C 
ATOM     35  C12 2ZW d   1      94.288  46.457  57.969  0.00  0.00     0.046 C 
ATOM     36 CL   2ZW d   1      93.703  47.215  56.518  0.00  0.00    -0.083 Cl
ATOM     37  C13 2ZW d   1      95.382  45.609  57.858  0.00  0.00    -0.061 C 
ATOM     38  C14 2ZW d   1      95.940  45.064  59.002  0.00  0.00    -0.081 C 
ATOM     39  H   2ZW d   1      95.796  45.376  56.884  0.00  0.00     0.086 H 
ATOM     40  C15 2ZW d   1      95.444  45.407  60.245  0.00  0.00    -0.082 C 
ATOM     41  H   2ZW d   1      96.767  44.367  58.922  0.00  0.00     0.083 H 
ATOM     42  C16 2ZW d   1      94.401  46.314  60.354  0.00  0.00    -0.069 C 
ATOM     43  H   2ZW d   1      95.872  44.966  61.138  0.00  0.00     0.083 H 
ATOM     44  H   2ZW d   1      94.092  46.664  61.333  0.00  0.00     0.085 H 
ENDBRANCH  29  34
ENDBRANCH   2  25
TORSDOF 7
