REMARK  0 active torsions:
REMARK  status: ('A' for Active; 'I' for Inactive)
ROOT
ATOM      1  C9  30G d   1       8.980   2.543  26.291  0.00  0.00    -0.081 A 
ATOM      2  C13 30G d   1       8.743   1.269  26.760  0.00  0.00    -0.080 A 
ATOM      3  C4  30G d   1       7.961   3.287  25.722  0.00  0.00    -0.054 A 
ATOM      4  C8  30G d   1       7.482   0.731  26.650  0.00  0.00    -0.049 A 
ATOM      5  C1  30G d   1       6.679   2.765  25.609  0.00  0.00     0.070 A 
ATOM      6  C3  30G d   1       6.472   1.478  26.085  0.00  0.00     0.096 A 
ATOM      7  C5  30G d   1       4.388   3.013  25.295  0.00  0.00     0.152 C 
ATOM      8  C12 30G d   1       4.598   5.241  23.704  0.00  0.00     0.256 C 
ATOM      9  C10 30G d   1       4.194   1.813  26.108  0.00  0.00     0.082 C 
ATOM     10  C6  30G d   1       5.845   4.731  24.367  0.00  0.00     0.077 C 
ATOM     11  N14 30G d   1       3.439   4.554  23.942  0.00  0.00    -0.244 N 
ATOM     12  N2  30G d   1       5.622   3.461  25.058  0.00  0.00    -0.321 N 
ATOM     13  N11 30G d   1       3.356   3.462  24.735  0.00  0.00    -0.156 NA
ATOM     14  O15 30G d   1       4.621   6.229  22.988  0.00  0.00    -0.270 OA
ATOM     15  O7  30G d   1       5.238   0.852  25.996  0.00  0.00    -0.341 OA
ATOM     16  H   30G d   1       9.975   2.967  26.369  0.00  0.00     0.083 H 
ATOM     17  H   30G d   1       9.544   0.695  27.212  0.00  0.00     0.083 H 
ATOM     18  H   30G d   1       8.166   4.288  25.361  0.00  0.00     0.087 H 
ATOM     19  H   30G d   1       7.284  -0.274  27.005  0.00  0.00     0.087 H 
ATOM     20  H   30G d   1       3.253   1.336  25.798  0.00  0.00     0.087 H 
ATOM     21  H   30G d   1       4.120   2.120  27.162  0.00  0.00     0.087 H 
ATOM     22  H   30G d   1       6.188   5.477  25.099  0.00  0.00     0.079 H 
ATOM     23  H   30G d   1       6.620   4.586  23.600  0.00  0.00     0.079 H 
ATOM     24  H   30G d   1       2.602   4.880  23.503  0.00  0.00     0.192 HD
ENDROOT
TORSDOF 0
