REMARK  4 active torsions:
REMARK  status: ('A' for Active; 'I' for Inactive)
REMARK    1  A    between atoms: C1_1  and  C2_2 
REMARK    2  A    between atoms: C12_12  and  C13_13 
REMARK    3  A    between atoms: C17_17  and  N18_18 
REMARK    4  A    between atoms: N18_18  and  C19_19 
ROOT
ATOM      1  C2  PZW d   1      23.989  -7.107  -9.457  0.00  0.00    -0.033 A 
ATOM      2  C3  PZW d   1      24.266  -6.211  -8.436  0.00  0.00    -0.041 A 
ATOM      3  C4  PZW d   1      23.287  -5.890  -7.490  0.00  0.00     0.096 A 
ATOM      4  O5  PZW d   1      23.587  -5.039  -6.500  0.00  0.00    -0.341 OA
ATOM      5  C6  PZW d   1      22.940  -5.152  -5.235  0.00  0.00     0.082 C 
ATOM      6  C7  PZW d   1      21.468  -5.528  -5.402  0.00  0.00     0.152 C 
ATOM      7  N8  PZW d   1      20.626  -5.233  -4.477  0.00  0.00    -0.156 NA
ATOM      8  N9  PZW d   1      19.281  -5.579  -4.561  0.00  0.00    -0.244 N 
ATOM      9  C10 PZW d   1      18.749  -6.069  -5.704  0.00  0.00     0.260 C 
ATOM     10  O11 PZW d   1      17.575  -6.364  -5.744  0.00  0.00    -0.269 OA
ATOM     11  C12 PZW d   1      19.607  -6.211  -6.953  0.00  0.00     0.094 C 
ATOM     12  N14 PZW d   1      21.047  -6.142  -6.598  0.00  0.00    -0.316 N 
ATOM     13  C15 PZW d   1      22.042  -6.489  -7.560  0.00  0.00     0.072 A 
ATOM     14  C16 PZW d   1      21.748  -7.385  -8.597  0.00  0.00    -0.028 A 
ATOM     15  C17 PZW d   1      22.737  -7.706  -9.542  0.00  0.00     0.036 A 
ATOM     16  H   PZW d   1      25.248  -5.756  -8.370  0.00  0.00     0.088 H 
ATOM     17  H   PZW d   1      23.007  -4.188  -4.710  0.00  0.00     0.087 H 
ATOM     18  H   PZW d   1      23.444  -5.929  -4.642  0.00  0.00     0.087 H 
ATOM     19  H   PZW d   1      18.695  -5.463  -3.759  0.00  0.00     0.192 HD
ATOM     20  H   PZW d   1      19.397  -7.180  -7.428  0.00  0.00     0.087 H 
ATOM     21  H   PZW d   1      20.762  -7.829  -8.670  0.00  0.00     0.090 H 
ENDROOT
BRANCH  15  22
ATOM     22  N18 PZW d   1      22.454  -8.610 -10.595  0.00  0.00    -0.382 N 
ATOM     23  H   PZW d   1      23.031  -8.602 -11.448  0.00  0.00     0.160 HD
BRANCH  22  24
ATOM     24  C19 PZW d   1      21.354  -9.546 -10.475  0.00  0.00     0.056 C 
ATOM     25  C20 PZW d   1      21.401 -10.749 -11.535  0.00  0.00     0.102 C 
ATOM     26  N21 PZW d   1      21.317 -11.551 -10.410  0.00  0.00    -0.071 N 
ATOM     27  H   PZW d   1      22.336 -10.837 -12.108  0.00  0.00     0.079 H 
ATOM     28  H   PZW d   1      20.543 -10.807 -12.221  0.00  0.00     0.079 H 
ATOM     29  C22 PZW d   1      21.577 -10.682  -9.365  0.00  0.00     0.102 C 
ATOM     30  H   PZW d   1      22.003 -12.289 -10.443  0.00  0.00     0.277 HD
ATOM     31  H   PZW d   1      20.396 -11.952 -10.323  0.00  0.00     0.277 HD
ATOM     32  H   PZW d   1      20.841 -10.694  -8.547  0.00  0.00     0.079 H 
ATOM     33  H   PZW d   1      22.592 -10.739  -8.945  0.00  0.00     0.079 H 
ATOM     34  H   PZW d   1      20.399  -9.003 -10.414  0.00  0.00     0.077 H 
ENDBRANCH  22  24
ENDBRANCH  15  22
BRANCH   1  35
ATOM     35  C1  PZW d   1      25.054  -7.439 -10.473  0.00  0.00    -0.049 C 
ATOM     36  H   PZW d   1      25.969  -6.872 -10.244  0.00  0.00     0.033 H 
ATOM     37  H   PZW d   1      24.698  -7.170 -11.479  0.00  0.00     0.033 H 
ATOM     38  H   PZW d   1      25.272  -8.517 -10.437  0.00  0.00     0.033 H 
ENDBRANCH   1  35
BRANCH  11  39
ATOM     39  C13 PZW d   1      19.272  -5.083  -7.929  0.00  0.00    -0.049 C 
ATOM     40  H   PZW d   1      18.205  -5.132  -8.194  0.00  0.00     0.030 H 
ATOM     41  H   PZW d   1      19.881  -5.192  -8.839  0.00  0.00     0.030 H 
ATOM     42  H   PZW d   1      19.489  -4.113  -7.457  0.00  0.00     0.030 H 
ENDBRANCH  11  39
TORSDOF 4
