REMARK  13 active torsions:
REMARK  status: ('A' for Active; 'I' for Inactive)
REMARK    1  A    between atoms: C01_1  and  C02_2 
REMARK    2  A    between atoms: C02_2  and  C03_3 
REMARK    3  A    between atoms: C03_3  and  C04_4 
REMARK    4  A    between atoms: C04_4  and  C05_5 
REMARK    5  A    between atoms: C05_5  and  C06_6 
REMARK    6  A    between atoms: C06_6  and  C07_7 
REMARK    7  A    between atoms: C07_7  and  C08_8 
REMARK    8  A    between atoms: C08_8  and  N09_9 
REMARK    9  A    between atoms: N09_9  and  C10_10 
REMARK   10  A    between atoms: C12_12  and  C17_17 
REMARK   11  A    between atoms: C14_14  and  N15_15 
REMARK   12  A    between atoms: C20_20  and  O21_21 
REMARK   13  A    between atoms: O21_21  and  C22_22 
ROOT
ATOM      1  N09 KK1 d   1      -6.987 -11.550  53.779  0.00  0.00    -0.374 N 
ATOM      2  H   KK1 d   1      -7.330 -12.391  53.293  0.00  0.00     0.161 HD
ENDROOT
BRANCH   1   3
ATOM      3  C08 KK1 d   1      -7.449 -11.331  55.221  0.00  0.00    -0.006 C 
ATOM      4  H   KK1 d   1      -7.591 -10.250  55.364  0.00  0.00     0.064 H 
ATOM      5  H   KK1 d   1      -8.413 -11.847  55.343  0.00  0.00     0.064 H 
BRANCH   3   6
ATOM      6  C07 KK1 d   1      -6.463 -11.854  56.391  0.00  0.00    -0.050 C 
ATOM      7  H   KK1 d   1      -6.226 -12.910  56.193  0.00  0.00     0.035 H 
ATOM      8  H   KK1 d   1      -5.540 -11.257  56.353  0.00  0.00     0.035 H 
BRANCH   6   9
ATOM      9  C06 KK1 d   1      -7.069 -11.747  57.881  0.00  0.00    -0.064 C 
ATOM     10  H   KK1 d   1      -7.922 -11.054  57.839  0.00  0.00     0.033 H 
ATOM     11  H   KK1 d   1      -7.424 -12.749  58.163  0.00  0.00     0.033 H 
BRANCH   9  12
ATOM     12  C05 KK1 d   1      -6.108 -11.243  59.039  0.00  0.00    -0.065 C 
ATOM     13  H   KK1 d   1      -5.108 -11.669  58.869  0.00  0.00     0.033 H 
ATOM     14  H   KK1 d   1      -6.052 -10.146  58.990  0.00  0.00     0.033 H 
BRANCH  12  15
ATOM     15  C04 KK1 d   1      -6.586 -11.655  60.499  0.00  0.00    -0.065 C 
ATOM     16  H   KK1 d   1      -5.791 -11.392  61.212  0.00  0.00     0.033 H 
ATOM     17  H   KK1 d   1      -7.497 -11.088  60.739  0.00  0.00     0.033 H 
BRANCH  15  18
ATOM     18  C03 KK1 d   1      -6.899 -13.183  60.648  0.00  0.00    -0.065 C 
ATOM     19  H   KK1 d   1      -7.991 -13.315  60.673  0.00  0.00     0.033 H 
ATOM     20  H   KK1 d   1      -6.486 -13.710  59.775  0.00  0.00     0.033 H 
BRANCH  18  21
ATOM     21  C02 KK1 d   1      -6.297 -13.812  61.934  0.00  0.00    -0.069 C 
ATOM     22  H   KK1 d   1      -5.230 -13.549  61.986  0.00  0.00     0.032 H 
ATOM     23  H   KK1 d   1      -6.821 -13.394  62.806  0.00  0.00     0.032 H 
BRANCH  21  24
ATOM     24  C01 KK1 d   1      -6.426 -15.357  61.975  0.00  0.00    -0.077 C 
ATOM     25  H   KK1 d   1      -5.982 -15.737  62.907  0.00  0.00     0.027 H 
ATOM     26  H   KK1 d   1      -5.898 -15.792  61.114  0.00  0.00     0.027 H 
ATOM     27  H   KK1 d   1      -7.489 -15.637  61.934  0.00  0.00     0.027 H 
ENDBRANCH  21  24
ENDBRANCH  18  21
ENDBRANCH  15  18
ENDBRANCH  12  15
ENDBRANCH   9  12
ENDBRANCH   6   9
ENDBRANCH   3   6
ENDBRANCH   1   3
BRANCH   1  28
ATOM     28  C10 KK1 d   1      -6.103 -10.666  53.043  0.00  0.00     0.144 A 
ATOM     29  C11 KK1 d   1      -6.517 -10.097  51.747  0.00  0.00    -0.009 A 
ATOM     30  C12 KK1 d   1      -5.576  -9.242  51.055  0.00  0.00     0.089 A 
ATOM     31  H   KK1 d   1      -7.493 -10.312  51.327  0.00  0.00     0.093 H 
ATOM     32  N13 KK1 d   1      -4.360  -8.993  51.616  0.00  0.00    -0.062 NA
ATOM     33  C14 KK1 d   1      -4.024  -9.555  52.820  0.00  0.00     0.722 A 
ATOM     34  N16 KK1 d   1      -4.851 -10.387  53.575  0.00  0.00    -0.046 NA
BRANCH  30  35
ATOM     35  C17 KK1 d   1      -5.817  -8.509  49.642  0.00  0.00    -0.006 A 
ATOM     36  C18 KK1 d   1      -6.298  -9.185  48.494  0.00  0.00    -0.068 A 
ATOM     37  C19 KK1 d   1      -6.491  -8.547  47.191  0.00  0.00    -0.050 A 
ATOM     38  H   KK1 d   1      -6.538 -10.238  48.586  0.00  0.00     0.085 H 
ATOM     39  C20 KK1 d   1      -6.189  -7.181  47.002  0.00  0.00     0.068 A 
ATOM     40  H   KK1 d   1      -6.871  -9.131  46.360  0.00  0.00     0.087 H 
ATOM     41  C23 KK1 d   1      -5.689  -6.479  48.115  0.00  0.00    -0.050 A 
ATOM     42  C24 KK1 d   1      -5.515  -7.142  49.378  0.00  0.00    -0.068 A 
ATOM     43  H   KK1 d   1      -5.433  -5.430  48.019  0.00  0.00     0.087 H 
ATOM     44  H   KK1 d   1      -5.121  -6.553  50.198  0.00  0.00     0.085 H 
BRANCH  39  45
ATOM     45  O21 KK1 d   1      -6.374  -6.573  45.781  0.00  0.00    -0.356 OA
BRANCH  45  46
ATOM     46  C22 KK1 d   1      -5.752  -5.257  45.579  0.00  0.00     0.010 C 
ATOM     47  H   KK1 d   1      -5.982  -4.894  44.566  0.00  0.00     0.066 H 
ATOM     48  H   KK1 d   1      -4.662  -5.344  45.699  0.00  0.00     0.066 H 
ATOM     49  H   KK1 d   1      -6.147  -4.547  46.321  0.00  0.00     0.066 H 
ENDBRANCH  45  46
ENDBRANCH  39  45
ENDBRANCH  30  35
BRANCH  33  50
ATOM     50  N15 KK1 d   1      -2.736  -9.272  53.368  0.00  0.00    -0.231 N 
ATOM     51  H   KK1 d   1      -2.081  -8.664  52.856  0.00  0.00     0.174 HD
ATOM     52  H   KK1 d   1      -2.462  -9.676  54.275  0.00  0.00     0.174 HD
ENDBRANCH  33  50
ENDBRANCH   1  28
TORSDOF 13
