REMARK  4 active torsions:
REMARK  status: ('A' for Active; 'I' for Inactive)
REMARK    1  A    between atoms: N2_6  and  C6_7 
REMARK    2  A    between atoms: C7_10  and  N4_11 
REMARK    3  A    between atoms: C8_13  and  C9_14 
REMARK    4  A    between atoms: C12_17  and  C13_18 
ROOT
ATOM      1  C6  KK2 d   1     -33.035  -3.556 -10.943  0.00  0.00     0.147 A 
ATOM      2  C5  KK2 d   1     -34.141  -4.445 -10.780  0.00  0.00    -0.009 A 
ATOM      3  N1  KK2 d   1     -33.227  -2.197 -10.991  0.00  0.00    -0.045 NA
ATOM      4  C7  KK2 d   1     -34.541  -1.786 -10.869  0.00  0.00     0.722 A 
ATOM      5  N3  KK2 d   1     -35.619  -2.557 -10.725  0.00  0.00    -0.062 NA
ATOM      6  C8  KK2 d   1     -35.420  -3.887 -10.687  0.00  0.00     0.089 A 
ATOM      7  H   KK2 d   1     -33.994  -5.518 -10.730  0.00  0.00     0.093 H 
ENDROOT
BRANCH   1   8
ATOM      8  N2  KK2 d   1     -31.670  -3.996 -11.063  0.00  0.00    -0.361 N 
ATOM      9  C1  KK2 d   1     -31.443  -5.413 -11.171  0.00  0.00     0.016 C 
ATOM     10  C2  KK2 d   1     -30.689  -5.942  -9.959  0.00  0.00     0.034 C 
ATOM     11  H   KK2 d   1     -32.413  -5.928 -11.243  0.00  0.00     0.067 H 
ATOM     12  H   KK2 d   1     -30.853  -5.614 -12.077  0.00  0.00     0.067 H 
ATOM     13  O1  KK2 d   1     -29.452  -5.313  -9.886  0.00  0.00    -0.388 OA
ATOM     14  H   KK2 d   1     -30.545  -7.028 -10.059  0.00  0.00     0.076 H 
ATOM     15  H   KK2 d   1     -31.265  -5.731  -9.046  0.00  0.00     0.076 H 
ATOM     16  C3  KK2 d   1     -29.559  -3.938  -9.681  0.00  0.00     0.034 C 
ATOM     17  C4  KK2 d   1     -30.425  -3.267 -10.793  0.00  0.00     0.016 C 
ATOM     18  H   KK2 d   1     -28.553  -3.494  -9.693  0.00  0.00     0.076 H 
ATOM     19  H   KK2 d   1     -30.028  -3.756  -8.703  0.00  0.00     0.076 H 
ATOM     20  H   KK2 d   1     -29.835  -3.224 -11.720  0.00  0.00     0.067 H 
ATOM     21  H   KK2 d   1     -30.678  -2.246 -10.473  0.00  0.00     0.067 H 
ENDBRANCH   1   8
BRANCH   6  22
ATOM     22  C9  KK2 d   1     -36.665  -4.622 -10.506  0.00  0.00    -0.007 A 
ATOM     23  C10 KK2 d   1     -37.217  -4.851  -9.240  0.00  0.00    -0.070 A 
ATOM     24  C11 KK2 d   1     -38.437  -5.514  -9.069  0.00  0.00    -0.067 A 
ATOM     25  H   KK2 d   1     -36.682  -4.503  -8.364  0.00  0.00     0.084 H 
ATOM     26  C12 KK2 d   1     -39.158  -5.948 -10.173  0.00  0.00     0.048 A 
ATOM     27  H   KK2 d   1     -38.821  -5.689  -8.070  0.00  0.00     0.084 H 
ATOM     28  C14 KK2 d   1     -38.646  -5.713 -11.450  0.00  0.00    -0.067 A 
ATOM     29  C15 KK2 d   1     -37.427  -5.048 -11.612  0.00  0.00    -0.070 A 
ATOM     30  H   KK2 d   1     -39.197  -6.048 -12.321  0.00  0.00     0.084 H 
ATOM     31  H   KK2 d   1     -37.059  -4.855 -12.613  0.00  0.00     0.084 H 
BRANCH  26  32
ATOM     32  C13 KK2 d   1     -40.471  -6.657  -9.965  0.00  0.00     0.417 C 
ATOM     33  F1  KK2 d   1     -41.221  -6.117  -8.980  0.00  0.00    -0.166 F 
ATOM     34  F2  KK2 d   1     -40.357  -7.961  -9.628  0.00  0.00    -0.166 F 
ATOM     35  F3  KK2 d   1     -41.257  -6.702 -11.076  0.00  0.00    -0.166 F 
ENDBRANCH  26  32
ENDBRANCH   6  22
BRANCH   4  36
ATOM     36  N4  KK2 d   1     -34.759  -0.449 -10.895  0.00  0.00    -0.231 N 
ATOM     37  H   KK2 d   1     -33.967   0.200 -11.004  0.00  0.00     0.174 HD
ATOM     38  H   KK2 d   1     -35.717  -0.082 -10.806  0.00  0.00     0.174 HD
ENDBRANCH   4  36
TORSDOF 4
