REMARK  4 active torsions:
REMARK  status: ('A' for Active; 'I' for Inactive)
REMARK    1  A    between atoms: C3_3  and  O1_7 
REMARK    2  A    between atoms: C4_4  and  O2_8 
REMARK    3  A    between atoms: C9_12  and  C10_14 
REMARK    4  A    between atoms: C10_14  and  C11_15 
ROOT
ATOM      1  C1  F95 d   1       5.823  29.199   3.931  0.00  0.00     0.008 A 
ATOM      2  C2  F95 d   1       6.937  28.358   3.940  0.00  0.00     0.126 A 
ATOM      3  C3  F95 d   1       8.222  28.907   4.041  0.00  0.00     0.134 A 
ATOM      4  C4  F95 d   1       8.370  30.294   4.151  0.00  0.00     0.101 A 
ATOM      5  C5  F95 d   1       7.267  31.153   4.150  0.00  0.00    -0.047 A 
ATOM      6  C6  F95 d   1       5.980  30.609   4.038  0.00  0.00    -0.067 A 
ATOM      7  O3  F95 d   1       6.763  27.002   3.832  0.00  0.00    -0.272 OA
ATOM      8  C7  F95 d   1       5.556  26.345   3.716  0.00  0.00     0.288 A 
ATOM      9  C8  F95 d   1       4.351  27.267   3.720  0.00  0.00    -0.003 A 
ATOM     10  C9  F95 d   1       4.494  28.612   3.820  0.00  0.00    -0.029 A 
ATOM     11  O4  F95 d   1       5.445  25.129   3.619  0.00  0.00    -0.260 OA
ATOM     12  H   F95 d   1       7.405  32.225   4.235  0.00  0.00     0.087 H 
ATOM     13  H   F95 d   1       5.111  31.257   4.033  0.00  0.00     0.085 H 
ATOM     14  H   F95 d   1       3.352  26.841   3.641  0.00  0.00     0.093 H 
ENDROOT
BRANCH  10  15
ATOM     15  C10 F95 d   1       3.289  29.560   3.823  0.00  0.00     0.041 C 
ATOM     16  H   F95 d   1       2.377  28.952   3.731  0.00  0.00     0.056 H 
ATOM     17  H   F95 d   1       3.376  30.225   2.951  0.00  0.00     0.056 H 
BRANCH  15  18
ATOM     18  C11 F95 d   1       3.154  30.434   5.077  0.00  0.00     0.176 C 
ATOM     19  O5  F95 d   1       3.263  29.867   6.188  0.00  0.00    -0.648 OA
ATOM     20  O6  F95 d   1       2.955  31.656   4.894  0.00  0.00    -0.648 OA
ENDBRANCH  15  18
ENDBRANCH  10  15
BRANCH   3  21
ATOM     21  O1  F95 d   1       9.327  28.124   4.063  0.00  0.00    -0.356 OA
ATOM     22  H   F95 d   1       9.787  28.250   4.885  0.00  0.00     0.218 HD
ENDBRANCH   3  21
BRANCH   4  23
ATOM     23  O2  F95 d   1       9.602  30.820   4.245  0.00  0.00    -0.358 OA
ATOM     24  H   F95 d   1      10.245  30.121   4.233  0.00  0.00     0.217 HD
ENDBRANCH   4  23
TORSDOF 4
