REMARK WARNING: 32 MAX_TORS EXCEEDED!!!
REMARK  48 active torsions:
REMARK  status: ('A' for Active; 'I' for Inactive)
REMARK    1  A    between atoms: CA_2  and  N_1 
REMARK    2  A    between atoms: C_3  and  CA_2 
REMARK       I    between atoms: N_5  and  C_3 
REMARK    3  A    between atoms: CA_6  and  N_5 
REMARK    4  A    between atoms: C_7  and  CA_6 
REMARK    5  A    between atoms: CA_6  and  CB_9 
REMARK       I    between atoms: N_19  and  C_7 
REMARK    6  A    between atoms: CH_11  and  CH3_12 
REMARK       I    between atoms: NZ_13  and  CH_11 
REMARK    7  A    between atoms: CE_14  and  NZ_13 
REMARK    8  A    between atoms: CD_15  and  CE_14 
REMARK    9  A    between atoms: CG_16  and  CD_15 
REMARK   10  A    between atoms: CB_17  and  CG_16 
REMARK   11  A    between atoms: CA_18  and  CB_17 
REMARK   12  A    between atoms: CA_18  and  N_19 
REMARK   13  A    between atoms: C_20  and  CA_18 
REMARK       I    between atoms: N_22  and  C_20 
REMARK   14  A    between atoms: CA_23  and  N_22 
REMARK   15  A    between atoms: C_24  and  CA_23 
REMARK   16  A    between atoms: CA_23  and  CB_26 
REMARK       I    between atoms: N_33  and  C_24 
REMARK   17  A    between atoms: CB_26  and  CG_27 
REMARK   18  A    between atoms: CG_27  and  CD_28 
REMARK   19  A    between atoms: CD_28  and  NE_29 
REMARK       I    between atoms: NE_29  and  CZ_30 
REMARK       I    between atoms: CZ_30  and  NH1_31 
REMARK       I    between atoms: CZ_30  and  NH2_32 
REMARK   20  A    between atoms: CA_34  and  N_33 
REMARK   21  A    between atoms: C_35  and  CA_34 
REMARK   22  A    between atoms: CA_34  and  CB_37 
REMARK       I    between atoms: N_43  and  C_35 
REMARK   23  A    between atoms: CB_37  and  CG_38 
REMARK   24  A    between atoms: CA_44  and  N_43 
REMARK   25  A    between atoms: C_45  and  CA_44 
REMARK   26  A    between atoms: CA_44  and  CB_47 
REMARK       I    between atoms: N_63  and  C_45 
REMARK   27  A    between atoms: CB_47  and  CG_48 
REMARK   28  A    between atoms: CG_48  and  CD_49 
REMARK   29  A    between atoms: CD_49  and  NE_50 
REMARK       I    between atoms: NE_50  and  CZ_51 
REMARK       I    between atoms: CZ_51  and  NH1_52 
REMARK   30  A    between atoms: CH_55  and  CH3_56 
REMARK       I    between atoms: NZ_57  and  CH_55 
REMARK   31  A    between atoms: CE_58  and  NZ_57 
REMARK   32  A    between atoms: CD_59  and  CE_58 
REMARK   33  A    between atoms: CG_60  and  CD_59 
REMARK   34  A    between atoms: CB_61  and  CG_60 
REMARK   35  A    between atoms: CA_62  and  CB_61 
REMARK   36  A    between atoms: CA_62  and  N_63 
REMARK   37  A    between atoms: CA_62  and  C_64 
REMARK       I    between atoms: C_64  and  N_66 
REMARK   38  A    between atoms: N_66  and  CA_67 
REMARK   39  A    between atoms: CA_67  and  C_68 
REMARK   40  A    between atoms: CA_67  and  CB_70 
REMARK       I    between atoms: C_68  and  N_73 
REMARK   41  A    between atoms: CB_70  and  CG1_71 
REMARK   42  A    between atoms: CB_70  and  CG2_72 
REMARK   43  A    between atoms: N_73  and  CA_74 
REMARK   44  A    between atoms: CA_74  and  C_75 
REMARK   45  A    between atoms: CA_74  and  CB_77 
REMARK   46  A    between atoms: CB_77  and  CG_78 
REMARK   47  A    between atoms: CG_78  and  CD1_79 
REMARK   48  A    between atoms: CG_78  and  CD2_80 
ROOT
ATOM      1  N   ARG d   1      27.738  -4.658 -61.481  0.00  0.00    -0.346 N 
ATOM      2  H45 ARG d   1      26.874  -4.208 -61.709  0.00  0.00     0.163 HD
ATOM      3  C   HIS d   1      28.576  -4.081 -60.613  0.00  0.00     0.241 C 
ATOM      4  O   HIS d   1      29.533  -4.666 -60.107  0.00  0.00    -0.271 OA
ENDROOT
BRANCH   3   5
ATOM      5  CA  HIS d   1      28.255  -2.632 -60.272  0.00  0.00     0.094 C 
ATOM      6  H39 HIS d   1      27.161  -2.525 -60.301  0.00  0.00     0.088 H 
BRANCH   5   7
ATOM      7  N   HIS d   1      28.675  -2.285 -58.917  0.00  0.00    -0.346 N 
ATOM      8  C   ARG d   1      28.133  -2.871 -57.865  0.00  0.00     0.241 C 
ATOM      9  O   ARG d   1      27.223  -3.696 -57.924  0.00  0.00    -0.271 OA
ATOM     10  H38 HIS d   1      29.384  -1.593 -58.784  0.00  0.00     0.163 HD
BRANCH   8  11
ATOM     11  CA  ARG d   1      28.676  -2.437 -56.518  0.00  0.00     0.089 C 
ATOM     12  H26 ARG d   1      28.864  -1.353 -56.542  0.00  0.00     0.087 H 
BRANCH  11  13
ATOM     13  N   ARG d   1      27.715  -2.721 -55.467  0.00  0.00    -0.346 N 
ATOM     14  C   ALY d   1      27.723  -2.011 -54.333  0.00  0.00     0.241 C 
ATOM     15  O   ALY d   1      28.567  -1.134 -54.100  0.00  0.00    -0.271 OA
ATOM     16  H25 ARG d   1      27.043  -3.451 -55.592  0.00  0.00     0.163 HD
BRANCH  14  17
ATOM     17  CA  ALY d   1      26.657  -2.343 -53.333  0.00  0.00     0.089 C 
ATOM     18  H23 ALY d   1      26.146  -3.277 -53.612  0.00  0.00     0.087 H 
BRANCH  17  19
ATOM     19  CB  ALY d   1      25.650  -1.203 -53.216  0.00  0.00    -0.038 C 
ATOM     20  H21 ALY d   1      24.944  -1.426 -52.403  0.00  0.00     0.036 H 
ATOM     21  H22 ALY d   1      26.185  -0.269 -52.992  0.00  0.00     0.036 H 
BRANCH  19  22
ATOM     22  CG  ALY d   1      24.877  -1.038 -54.521  0.00  0.00    -0.061 C 
ATOM     23  H19 ALY d   1      25.578  -0.739 -55.314  0.00  0.00     0.033 H 
ATOM     24  H20 ALY d   1      24.415  -2.001 -54.784  0.00  0.00     0.033 H 
BRANCH  22  25
ATOM     25  CD  ALY d   1      23.787   0.015 -54.407  0.00  0.00    -0.050 C 
ATOM     26  H17 ALY d   1      22.993  -0.357 -53.743  0.00  0.00     0.035 H 
ATOM     27  H18 ALY d   1      24.217   0.935 -53.984  0.00  0.00     0.035 H 
BRANCH  25  28
ATOM     28  CE  ALY d   1      23.186   0.326 -55.787  0.00  0.00    -0.005 C 
ATOM     29  H15 ALY d   1      23.844   1.024 -56.326  0.00  0.00     0.064 H 
ATOM     30  H16 ALY d   1      23.088  -0.605 -56.364  0.00  0.00     0.064 H 
BRANCH  28  31
ATOM     31  NZ  ALY d   1      21.872   0.931 -55.613  0.00  0.00    -0.361 N 
ATOM     32  CH  ALY d   1      20.954   0.877 -56.572  0.00  0.00     0.213 C 
ATOM     33  OH  ALY d   1      21.197   0.324 -57.651  0.00  0.00    -0.274 OA
ATOM     34  H14 ALY d   1      21.657   1.396 -54.754  0.00  0.00     0.162 HD
BRANCH  32  35
ATOM     35  CH3 ALY d   1      19.672   1.530 -56.201  0.00  0.00    -0.003 C 
ATOM     36  H11 ALY d   1      19.748   1.935 -55.181  0.00  0.00     0.040 H 
ATOM     37  H12 ALY d   1      18.858   0.791 -56.242  0.00  0.00     0.040 H 
ATOM     38  H13 ALY d   1      19.460   2.348 -56.905  0.00  0.00     0.040 H 
ENDBRANCH  32  35
ENDBRANCH  28  31
ENDBRANCH  25  28
ENDBRANCH  22  25
ENDBRANCH  19  22
ENDBRANCH  17  19
BRANCH  17  39
ATOM     39  N   ALY d   1      27.316  -2.471 -52.045  0.00  0.00    -0.346 N 
ATOM     40  C   ALA d   1      28.238  -3.381 -51.815  0.00  0.00     0.240 C 
ATOM     41  O   ALA d   1      28.496  -4.290 -52.606  0.00  0.00    -0.271 OA
ATOM     42  H24 ALY d   1      27.060  -1.846 -51.308  0.00  0.00     0.163 HD
BRANCH  40  43
ATOM     43  CA  ALA d   1      28.926  -3.252 -50.443  0.00  0.00     0.086 C 
ATOM     44  H7  ALA d   1      28.200  -2.796 -49.753  0.00  0.00     0.086 H 
BRANCH  43  45
ATOM     45  N   ALA d   1      29.325  -4.524 -49.869  0.00  0.00    -0.347 N 
ATOM     46  C   GLY d   1      28.441  -5.443 -49.493  0.00  0.00     0.243 C 
ATOM     47  O   GLY d   1      27.243  -5.387 -49.771  0.00  0.00    -0.272 OA
ATOM     48  H6  ALA d   1      30.299  -4.716 -49.752  0.00  0.00     0.163 HD
BRANCH  46  49
ATOM     49  CA  GLY d   1      28.988  -6.606 -48.700  0.00  0.00     0.152 C 
ATOM     50  H4  GLY d   1      29.351  -7.378 -49.394  0.00  0.00     0.090 H 
ATOM     51  H5  GLY d   1      29.821  -6.256 -48.073  0.00  0.00     0.090 H 
BRANCH  49  52
ATOM     52  N   GLY d   1      27.929  -7.191 -47.826  0.00  0.00    -0.071 N 
ATOM     53  H1  GLY d   1      28.312  -7.965 -47.306  0.00  0.00     0.274 HD
ATOM     54  H2  GLY d   1      27.164  -7.516 -48.397  0.00  0.00     0.274 HD
ATOM     55  H3  GLY d   1      27.595  -6.488 -47.186  0.00  0.00     0.274 HD
ENDBRANCH  49  52
ENDBRANCH  46  49
ENDBRANCH  43  45
BRANCH  43  56
ATOM     56  CB  ALA d   1      30.116  -2.322 -50.551  0.00  0.00    -0.049 C 
ATOM     57  H8  ALA d   1      29.795  -1.365 -50.987  0.00  0.00     0.030 H 
ATOM     58  H9  ALA d   1      30.882  -2.780 -51.194  0.00  0.00     0.030 H 
ATOM     59  H10 ALA d   1      30.536  -2.146 -49.550  0.00  0.00     0.030 H 
ENDBRANCH  43  56
ENDBRANCH  40  43
ENDBRANCH  17  39
ENDBRANCH  14  17
ENDBRANCH  11  13
BRANCH  11  60
ATOM     60  CB  ARG d   1      29.994  -3.163 -56.237  0.00  0.00    -0.036 C 
ATOM     61  H27 ARG d   1      30.414  -2.771 -55.299  0.00  0.00     0.036 H 
ATOM     62  H28 ARG d   1      30.689  -2.956 -57.064  0.00  0.00     0.036 H 
BRANCH  60  63
ATOM     63  CG  ARG d   1      29.843  -4.648 -56.105  0.00  0.00    -0.048 C 
ATOM     64  H29 ARG d   1      29.506  -5.062 -57.067  0.00  0.00     0.035 H 
ATOM     65  H30 ARG d   1      29.093  -4.865 -55.330  0.00  0.00     0.035 H 
BRANCH  63  66
ATOM     66  CD  ARG d   1      31.166  -5.304 -55.716  0.00  0.00     0.009 C 
ATOM     67  H31 ARG d   1      31.503  -4.890 -54.754  0.00  0.00     0.064 H 
ATOM     68  H32 ARG d   1      31.916  -5.088 -56.491  0.00  0.00     0.064 H 
BRANCH  66  69
ATOM     69  NE  ARG d   1      31.016  -6.756 -55.586  0.00  0.00    -0.227 N 
ATOM     70  CZ  ARG d   1      32.015  -7.611 -55.365  0.00  0.00     0.665 C 
ATOM     71  NH1 ARG d   1      33.272  -7.179 -55.235  0.00  0.00    -0.235 N 
ATOM     72  NH2 ARG d   1      31.755  -8.914 -55.272  0.00  0.00    -0.235 N 
ATOM     73  H34 ARG d   1      34.033  -7.852 -55.065  0.00  0.00     0.174 HD
ATOM     74  H35 ARG d   1      33.481  -6.173 -55.305  0.00  0.00     0.174 HD
ATOM     75  H36 ARG d   1      30.788  -9.255 -55.371  0.00  0.00     0.174 HD
ATOM     76  H37 ARG d   1      32.521  -9.581 -55.101  0.00  0.00     0.174 HD
ATOM     77  H33 ARG d   1      30.067  -7.146 -55.672  0.00  0.00     0.177 HD
ENDBRANCH  66  69
ENDBRANCH  63  66
ENDBRANCH  60  63
ENDBRANCH  11  60
ENDBRANCH   8  11
ENDBRANCH   5   7
BRANCH   5  78
ATOM     78  CB  HIS d   1      28.827  -1.687 -61.345  0.00  0.00     0.004 C 
ATOM     79  H40 HIS d   1      28.448  -0.675 -61.141  0.00  0.00     0.046 H 
ATOM     80  H41 HIS d   1      28.459  -2.026 -62.325  0.00  0.00     0.046 H 
BRANCH  78  81
ATOM     81  CG  HIS d   1      30.324  -1.614 -61.415  0.00  0.00     0.053 A 
ATOM     82  ND1 HIS d   1      31.117  -2.642 -61.902  0.00  0.00    -0.247 NA
ATOM     83  CE1 HIS d   1      32.384  -2.260 -61.899  0.00  0.00     0.064 A 
ATOM     84  NE2 HIS d   1      32.445  -1.025 -61.420  0.00  0.00    -0.359 N 
ATOM     85  H43 HIS d   1      33.231  -2.857 -62.233  0.00  0.00     0.143 H 
ATOM     86  CD2 HIS d   1      31.171  -0.595 -61.133  0.00  0.00     0.002 A 
ATOM     87  H44 HIS d   1      33.307  -0.477 -61.285  0.00  0.00     0.166 HD
ATOM     88  H42 HIS d   1      30.893   0.386 -60.749  0.00  0.00     0.114 H 
ENDBRANCH  78  81
ENDBRANCH   5  78
ENDBRANCH   3   5
BRANCH   1  89
ATOM     89  CA  ARG d   1      28.074  -5.948 -62.104  0.00  0.00     0.089 C 
ATOM     90  H46 ARG d   1      27.905  -6.767 -61.390  0.00  0.00     0.087 H 
BRANCH  89  91
ATOM     91  C   ARG d   1      29.550  -5.925 -62.546  0.00  0.00     0.241 C 
ATOM     92  O   ARG d   1      30.046  -4.928 -63.140  0.00  0.00    -0.271 OA
ATOM     93  N   ALY d   1      30.249  -7.044 -62.345  0.00  0.00    -0.346 N 
ATOM     94  H71 ALY d   1      29.808  -7.843 -61.936  0.00  0.00     0.163 HD
BRANCH  93  95
ATOM     95  CA  ALY d   1      31.659  -7.101 -62.723  0.00  0.00     0.089 C 
ATOM     96  H70 ALY d   1      32.196  -6.355 -62.119  0.00  0.00     0.087 H 
BRANCH  95  97
ATOM     97  CB  ALY d   1      32.208  -8.487 -62.366  0.00  0.00    -0.038 C 
ATOM     98  H68 ALY d   1      32.022  -8.681 -61.299  0.00  0.00     0.036 H 
ATOM     99  H69 ALY d   1      31.688  -9.244 -62.972  0.00  0.00     0.036 H 
BRANCH  97 100
ATOM    100  CG  ALY d   1      33.702  -8.583 -62.632  0.00  0.00    -0.061 C 
ATOM    101  H66 ALY d   1      33.890  -8.459 -63.709  0.00  0.00     0.033 H 
ATOM    102  H67 ALY d   1      34.224  -7.791 -62.075  0.00  0.00     0.033 H 
BRANCH 100 103
ATOM    103  CD  ALY d   1      34.218  -9.940 -62.182  0.00  0.00    -0.050 C 
ATOM    104  H64 ALY d   1      33.939 -10.112 -61.132  0.00  0.00     0.035 H 
ATOM    105  H65 ALY d   1      33.781 -10.729 -62.812  0.00  0.00     0.035 H 
BRANCH 103 106
ATOM    106  CE  ALY d   1      35.735  -9.957 -62.318  0.00  0.00    -0.005 C 
ATOM    107  H62 ALY d   1      36.005  -9.685 -63.349  0.00  0.00     0.064 H 
ATOM    108  H63 ALY d   1      36.165  -9.223 -61.621  0.00  0.00     0.064 H 
BRANCH 106 109
ATOM    109  NZ  ALY d   1      36.282 -11.280 -62.015  0.00  0.00    -0.361 N 
ATOM    110  CH  ALY d   1      37.586 -11.563 -62.233  0.00  0.00     0.213 C 
ATOM    111  OH  ALY d   1      38.396 -10.771 -62.710  0.00  0.00    -0.274 OA
ATOM    112  H61 ALY d   1      35.681 -11.986 -61.641  0.00  0.00     0.162 HD
BRANCH 110 113
ATOM    113  CH3 ALY d   1      37.963 -12.961 -61.871  0.00  0.00    -0.003 C 
ATOM    114  H58 ALY d   1      37.085 -13.484 -61.465  0.00  0.00     0.040 H 
ATOM    115  H59 ALY d   1      38.761 -12.941 -61.114  0.00  0.00     0.040 H 
ATOM    116  H60 ALY d   1      38.321 -13.488 -62.768  0.00  0.00     0.040 H 
ENDBRANCH 110 113
ENDBRANCH 106 109
ENDBRANCH 103 106
ENDBRANCH 100 103
ENDBRANCH  97 100
ENDBRANCH  95  97
BRANCH  95 117
ATOM    117  C   ALY d   1      31.914  -6.766 -64.174  0.00  0.00     0.241 C 
ATOM    118  O   ALY d   1      32.870  -6.063 -64.504  0.00  0.00    -0.271 OA
ATOM    119  N   VAL d   1      31.052  -7.253 -65.084  0.00  0.00    -0.346 N 
ATOM    120  H72 VAL d   1      30.286  -7.818 -64.778  0.00  0.00     0.163 HD
BRANCH 119 121
ATOM    121  CA  VAL d   1      31.210  -6.975 -66.506  0.00  0.00     0.092 C 
ATOM    122  H73 VAL d   1      32.233  -7.280 -66.771  0.00  0.00     0.088 H 
BRANCH 121 123
ATOM    123  C   VAL d   1      31.078  -5.481 -66.885  0.00  0.00     0.241 C 
ATOM    124  O   VAL d   1      31.440  -5.095 -68.010  0.00  0.00    -0.271 OA
ATOM    125  N   LEU d   1      30.559  -4.633 -65.978  0.00  0.00    -0.345 N 
ATOM    126  H81 LEU d   1      30.271  -4.982 -65.086  0.00  0.00     0.163 HD
BRANCH 125 127
ATOM    127  CA  LEU d   1      30.410  -3.222 -66.273  0.00  0.00     0.096 C 
ATOM    128  H82 LEU d   1      30.355  -3.103 -67.365  0.00  0.00     0.089 H 
BRANCH 127 129
ATOM    129  C   LEU d   1      31.610  -2.425 -65.761  0.00  0.00     0.196 C 
ATOM    130  O   LEU d   1      32.551  -3.005 -65.213  0.00  0.00    -0.646 OA
ATOM    131  OXT LEU d   1      31.611  -1.190 -65.878  0.00  0.00    -0.646 OA
ENDBRANCH 127 129
BRANCH 127 132
ATOM    132  CB  LEU d   1      29.121  -2.675 -65.662  0.00  0.00    -0.034 C 
ATOM    133  H83 LEU d   1      29.072  -1.593 -65.852  0.00  0.00     0.037 H 
ATOM    134  H84 LEU d   1      29.140  -2.857 -64.577  0.00  0.00     0.037 H 
BRANCH 132 135
ATOM    135  CG  LEU d   1      27.875  -3.331 -66.247  0.00  0.00    -0.059 C 
ATOM    136  H85 LEU d   1      27.916  -4.407 -66.021  0.00  0.00     0.038 H 
BRANCH 135 137
ATOM    137  CD1 LEU d   1      26.646  -2.747 -65.559  0.00  0.00    -0.073 C 
ATOM    138  H86 LEU d   1      25.739  -3.212 -65.972  0.00  0.00     0.028 H 
ATOM    139  H87 LEU d   1      26.611  -1.661 -65.730  0.00  0.00     0.028 H 
ATOM    140  H88 LEU d   1      26.701  -2.947 -64.479  0.00  0.00     0.028 H 
ENDBRANCH 135 137
BRANCH 135 141
ATOM    141  CD2 LEU d   1      27.803  -3.185 -67.748  0.00  0.00    -0.073 C 
ATOM    142  H89 LEU d   1      28.706  -3.618 -68.202  0.00  0.00     0.028 H 
ATOM    143  H90 LEU d   1      27.736  -2.119 -68.010  0.00  0.00     0.028 H 
ATOM    144  H91 LEU d   1      26.914  -3.712 -68.126  0.00  0.00     0.028 H 
ENDBRANCH 135 141
ENDBRANCH 132 135
ENDBRANCH 127 132
ENDBRANCH 125 127
ENDBRANCH 121 123
BRANCH 121 145
ATOM    145  CB  VAL d   1      30.238  -7.826 -67.361  0.00  0.00    -0.033 C 
ATOM    146  H74 VAL d   1      30.409  -7.595 -68.423  0.00  0.00     0.042 H 
BRANCH 145 147
ATOM    147  CG1 VAL d   1      30.486  -9.312 -67.132  0.00  0.00    -0.071 C 
ATOM    148  H75 VAL d   1      29.788  -9.899 -67.746  0.00  0.00     0.028 H 
ATOM    149  H76 VAL d   1      30.329  -9.550 -66.070  0.00  0.00     0.028 H 
ATOM    150  H77 VAL d   1      31.520  -9.559 -67.415  0.00  0.00     0.028 H 
ENDBRANCH 145 147
BRANCH 145 151
ATOM    151  CG2 VAL d   1      28.788  -7.498 -67.009  0.00  0.00    -0.071 C 
ATOM    152  H78 VAL d   1      28.604  -6.426 -67.173  0.00  0.00     0.028 H 
ATOM    153  H79 VAL d   1      28.602  -7.745 -65.953  0.00  0.00     0.028 H 
ATOM    154  H80 VAL d   1      28.113  -8.087 -67.647  0.00  0.00     0.028 H 
ENDBRANCH 145 151
ENDBRANCH 121 145
ENDBRANCH 119 121
ENDBRANCH  95 117
ENDBRANCH  93  95
ENDBRANCH  89  91
BRANCH  89 155
ATOM    155  CB  ARG d   1      27.198  -6.142 -63.350  0.00  0.00    -0.036 C 
ATOM    156  H47 ARG d   1      27.623  -6.970 -63.937  0.00  0.00     0.036 H 
ATOM    157  H48 ARG d   1      27.240  -5.215 -63.940  0.00  0.00     0.036 H 
BRANCH 155 158
ATOM    158  CG  ARG d   1      25.744  -6.459 -63.085  0.00  0.00    -0.048 C 
ATOM    159  H49 ARG d   1      25.343  -5.743 -62.352  0.00  0.00     0.035 H 
ATOM    160  H50 ARG d   1      25.662  -7.480 -62.683  0.00  0.00     0.035 H 
BRANCH 158 161
ATOM    161  CD  ARG d   1      24.945  -6.360 -64.373  0.00  0.00     0.009 C 
ATOM    162  H51 ARG d   1      25.318  -7.115 -65.081  0.00  0.00     0.064 H 
ATOM    163  H52 ARG d   1      25.084  -5.356 -64.801  0.00  0.00     0.064 H 
BRANCH 161 164
ATOM    164  NE  ARG d   1      23.521  -6.584 -64.154  0.00  0.00    -0.227 N 
ATOM    165  CZ  ARG d   1      22.964  -7.775 -64.006  0.00  0.00     0.665 C 
ATOM    166  NH1 ARG d   1      23.730  -8.861 -64.006  0.00  0.00    -0.235 N 
ATOM    167  NH2 ARG d   1      21.673  -7.893 -63.806  0.00  0.00    -0.235 N 
ATOM    168  H54 ARG d   1      23.304  -9.792 -63.891  0.00  0.00     0.174 HD
ATOM    169  H55 ARG d   1      24.750  -8.772 -64.121  0.00  0.00     0.174 HD
ATOM    170  H56 ARG d   1      21.073  -7.056 -63.805  0.00  0.00     0.174 HD
ATOM    171  H57 ARG d   1      21.259  -8.823 -63.650  0.00  0.00     0.174 HD
ATOM    172  H53 ARG d   1      22.907  -5.758 -64.112  0.00  0.00     0.177 HD
ENDBRANCH 161 164
ENDBRANCH 158 161
ENDBRANCH 155 158
ENDBRANCH  89 155
ENDBRANCH   1  89
TORSDOF 48
