REMARK WARNING: 32 MAX_TORS EXCEEDED!!!
REMARK  34 active torsions:
REMARK  status: ('A' for Active; 'I' for Inactive)
REMARK    1  A    between atoms: CA_2  and  N_1 
REMARK    2  A    between atoms: C_3  and  CA_2 
REMARK       I    between atoms: N_5  and  C_3 
REMARK    3  A    between atoms: CA_6  and  N_5 
REMARK    4  A    between atoms: C_7  and  CA_6 
REMARK       I    between atoms: N_18  and  C_7 
REMARK    5  A    between atoms: CH_10  and  CH3_11 
REMARK       I    between atoms: NZ_12  and  CH_10 
REMARK    6  A    between atoms: CE_13  and  NZ_12 
REMARK    7  A    between atoms: CD_14  and  CE_13 
REMARK    8  A    between atoms: CG_15  and  CD_14 
REMARK    9  A    between atoms: CB_16  and  CG_15 
REMARK   10  A    between atoms: CA_17  and  CB_16 
REMARK   11  A    between atoms: CA_17  and  N_18 
REMARK   12  A    between atoms: CA_17  and  C_19 
REMARK       I    between atoms: C_19  and  N_21 
REMARK   13  A    between atoms: N_21  and  CA_22 
REMARK   14  A    between atoms: CA_22  and  C_23 
REMARK   15  A    between atoms: CA_22  and  CB_25 
REMARK       I    between atoms: C_23  and  N_26 
REMARK   16  A    between atoms: CA_27  and  C_28 
REMARK       I    between atoms: C_28  and  N_33 
REMARK   17  A    between atoms: N_33  and  CA_34 
REMARK   18  A    between atoms: CA_34  and  C_35 
REMARK   19  A    between atoms: CA_34  and  CB_37 
REMARK       I    between atoms: C_35  and  N_44 
REMARK   20  A    between atoms: CB_37  and  CG_38 
REMARK   21  A    between atoms: CG_38  and  CD_39 
REMARK   22  A    between atoms: CD_39  and  NE_40 
REMARK       I    between atoms: NE_40  and  CZ_41 
REMARK       I    between atoms: CZ_41  and  NH1_42 
REMARK   23  A    between atoms: N_44  and  CA_45 
REMARK   24  A    between atoms: CA_45  and  C_46 
REMARK   25  A    between atoms: CA_45  and  CB_48 
REMARK       I    between atoms: C_46  and  N_53 
REMARK   26  A    between atoms: CB_48  and  CG_49 
REMARK   27  A    between atoms: CG_49  and  CD_50 
REMARK   28  A    between atoms: CD_50  and  CE_51 
REMARK   29  A    between atoms: CE_51  and  NZ_52 
REMARK   30  A    between atoms: N_53  and  CA_54 
REMARK   31  A    between atoms: CA_54  and  C_55 
REMARK   32  A    between atoms: CA_54  and  CB_57 
REMARK   33  A    between atoms: CB_57  and  CG_58 
REMARK   34  A    between atoms: CG_58  and  CD_59 
REMARK       I    between atoms: CD_59  and  NE2_61 
ROOT
ATOM      1  C   PRO d   1       9.803   8.405 -17.616  0.00  0.00     0.241 C 
ATOM      2  O   PRO d   1      10.613   8.715 -18.526  0.00  0.00    -0.271 OA
ATOM      3  N   ARG d   1       9.151   7.252 -17.557  0.00  0.00    -0.346 N 
ATOM      4  H35 ARG d   1       8.593   7.029 -16.758  0.00  0.00     0.163 HD
ENDROOT
BRANCH   1   5
ATOM      5  CA  PRO d   1       9.494   9.357 -16.501  0.00  0.00     0.091 C 
ATOM      6  N   PRO d   1      10.686  10.058 -16.056  0.00  0.00    -0.337 N 
ATOM      7  C   ALA d   1      11.697   9.376 -15.555  0.00  0.00     0.243 C 
ATOM      8  CD  PRO d   1      10.616  11.513 -16.279  0.00  0.00    -0.001 C 
ATOM      9  O   ALA d   1      11.723   8.161 -15.570  0.00  0.00    -0.271 OA
ATOM     10  CG  PRO d   1       9.430  11.675 -17.180  0.00  0.00    -0.048 C 
ATOM     11  H33 PRO d   1      11.532  11.880 -16.765  0.00  0.00     0.064 H 
ATOM     12  H34 PRO d   1      10.464  12.049 -15.330  0.00  0.00     0.064 H 
ATOM     13  CB  PRO d   1       8.566  10.477 -17.040  0.00  0.00    -0.036 C 
ATOM     14  H31 PRO d   1       8.866  12.575 -16.893  0.00  0.00     0.035 H 
ATOM     15  H32 PRO d   1       9.767  11.770 -18.223  0.00  0.00     0.035 H 
ATOM     16  H29 PRO d   1       7.749  10.674 -16.331  0.00  0.00     0.036 H 
ATOM     17  H30 PRO d   1       8.145  10.191 -18.015  0.00  0.00     0.036 H 
ATOM     18  H28 PRO d   1       9.025   8.816 -15.666  0.00  0.00     0.087 H 
BRANCH   7  19
ATOM     19  CA  ALA d   1      12.795  10.193 -14.861  0.00  0.00     0.086 C 
ATOM     20  H24 ALA d   1      13.112  11.027 -15.505  0.00  0.00     0.086 H 
BRANCH  19  21
ATOM     21  N   ALA d   1      12.199  10.701 -13.624  0.00  0.00    -0.346 N 
ATOM     22  C   ALY d   1      12.398  11.939 -13.182  0.00  0.00     0.241 C 
ATOM     23  O   ALY d   1      13.102  12.740 -13.779  0.00  0.00    -0.271 OA
ATOM     24  H23 ALA d   1      11.617  10.090 -13.088  0.00  0.00     0.163 HD
BRANCH  22  25
ATOM     25  CA  ALY d   1      11.673  12.307 -11.913  0.00  0.00     0.089 C 
ATOM     26  H21 ALY d   1      11.563  11.392 -11.312  0.00  0.00     0.087 H 
BRANCH  25  27
ATOM     27  CB  ALY d   1      10.285  12.818 -12.276  0.00  0.00    -0.038 C 
ATOM     28  H19 ALY d   1      10.398  13.724 -12.890  0.00  0.00     0.036 H 
ATOM     29  H20 ALY d   1       9.770  12.041 -12.860  0.00  0.00     0.036 H 
BRANCH  27  30
ATOM     30  CG  ALY d   1       9.417  13.163 -11.055  0.00  0.00    -0.061 C 
ATOM     31  H17 ALY d   1       9.792  14.101 -10.619  0.00  0.00     0.033 H 
ATOM     32  H18 ALY d   1       8.382  13.307 -11.398  0.00  0.00     0.033 H 
BRANCH  30  33
ATOM     33  CD  ALY d   1       9.416  12.096  -9.965  0.00  0.00    -0.050 C 
ATOM     34  H15 ALY d   1       9.561  11.108 -10.427  0.00  0.00     0.035 H 
ATOM     35  H16 ALY d   1      10.238  12.297  -9.262  0.00  0.00     0.035 H 
BRANCH  33  36
ATOM     36  CE  ALY d   1       8.107  12.103  -9.211  0.00  0.00    -0.005 C 
ATOM     37  H13 ALY d   1       7.768  13.141  -9.080  0.00  0.00     0.064 H 
ATOM     38  H14 ALY d   1       7.354  11.541  -9.784  0.00  0.00     0.064 H 
BRANCH  36  39
ATOM     39  NZ  ALY d   1       8.276  11.490  -7.917  0.00  0.00    -0.361 N 
ATOM     40  CH  ALY d   1       8.074  10.181  -7.708  0.00  0.00     0.213 C 
ATOM     41  OH  ALY d   1       7.681   9.413  -8.600  0.00  0.00    -0.274 OA
ATOM     42  H12 ALY d   1       8.554  12.063  -7.146  0.00  0.00     0.162 HD
BRANCH  40  43
ATOM     43  CH3 ALY d   1       8.305   9.737  -6.296  0.00  0.00    -0.003 C 
ATOM     44  H9  ALY d   1       8.649  10.591  -5.695  0.00  0.00     0.040 H 
ATOM     45  H10 ALY d   1       9.069   8.946  -6.281  0.00  0.00     0.040 H 
ATOM     46  H11 ALY d   1       7.366   9.348  -5.876  0.00  0.00     0.040 H 
ENDBRANCH  40  43
ENDBRANCH  36  39
ENDBRANCH  33  36
ENDBRANCH  30  33
ENDBRANCH  27  30
ENDBRANCH  25  27
BRANCH  25  47
ATOM     47  N   ALY d   1      12.372  13.287 -11.093  0.00  0.00    -0.346 N 
ATOM     48  C   GLY d   1      13.494  13.005 -10.413  0.00  0.00     0.236 C 
ATOM     49  O   GLY d   1      14.070  11.916 -10.509  0.00  0.00    -0.272 OA
ATOM     50  H22 ALY d   1      11.999  14.213 -11.034  0.00  0.00     0.163 HD
BRANCH  48  51
ATOM     51  CA  GLY d   1      14.102  14.112  -9.520  0.00  0.00     0.069 C 
ATOM     52  H7  GLY d   1      13.969  13.816  -8.469  0.00  0.00     0.078 H 
ATOM     53  H8  GLY d   1      15.176  14.185  -9.748  0.00  0.00     0.078 H 
BRANCH  51  54
ATOM     54  N   GLY d   1      13.506  15.440  -9.699  0.00  0.00    -0.351 N 
ATOM     55  C   GLY d   1      12.352  15.768  -9.123  0.00  0.00     0.243 C 
ATOM     56  O   GLY d   1      11.882  15.132  -8.189  0.00  0.00    -0.272 OA
ATOM     57  H6  GLY d   1      13.978  16.115 -10.267  0.00  0.00     0.163 HD
BRANCH  55  58
ATOM     58  CA  GLY d   1      11.632  16.985  -9.676  0.00  0.00     0.152 C 
ATOM     59  H4  GLY d   1      11.066  17.454  -8.858  0.00  0.00     0.090 H 
ATOM     60  H5  GLY d   1      12.386  17.692 -10.053  0.00  0.00     0.090 H 
BRANCH  58  61
ATOM     61  N   GLY d   1      10.682  16.672 -10.788  0.00  0.00    -0.071 N 
ATOM     62  H1  GLY d   1      10.243  17.522 -11.104  0.00  0.00     0.274 HD
ATOM     63  H2  GLY d   1       9.977  16.032 -10.457  0.00  0.00     0.274 HD
ATOM     64  H3  GLY d   1      11.186  16.250 -11.552  0.00  0.00     0.274 HD
ENDBRANCH  58  61
ENDBRANCH  55  58
ENDBRANCH  51  54
ENDBRANCH  48  51
ENDBRANCH  25  47
ENDBRANCH  22  25
ENDBRANCH  19  21
BRANCH  19  65
ATOM     65  CB  ALA d   1      14.004   9.316 -14.532  0.00  0.00    -0.049 C 
ATOM     66  H25 ALA d   1      14.447   8.938 -15.465  0.00  0.00     0.030 H 
ATOM     67  H26 ALA d   1      13.683   8.469 -13.908  0.00  0.00     0.030 H 
ATOM     68  H27 ALA d   1      14.751   9.911 -13.986  0.00  0.00     0.030 H 
ENDBRANCH  19  65
ENDBRANCH   7  19
ENDBRANCH   1   5
BRANCH   3  69
ATOM     69  CA  ARG d   1       9.255   6.308 -18.671  0.00  0.00     0.089 C 
ATOM     70  H36 ARG d   1      10.320   6.151 -18.898  0.00  0.00     0.087 H 
BRANCH  69  71
ATOM     71  C   ARG d   1       8.554   6.878 -19.911  0.00  0.00     0.241 C 
ATOM     72  O   ARG d   1       8.963   6.613 -21.021  0.00  0.00    -0.271 OA
ATOM     73  N   LYS d   1       7.471   7.612 -19.695  0.00  0.00    -0.346 N 
ATOM     74  H48 LYS d   1       7.186   7.788 -18.753  0.00  0.00     0.163 HD
BRANCH  73  75
ATOM     75  CA  LYS d   1       6.676   8.175 -20.794  0.00  0.00     0.089 C 
ATOM     76  H49 LYS d   1       6.954   7.691 -21.742  0.00  0.00     0.087 H 
BRANCH  75  77
ATOM     77  C   LYS d   1       7.011   9.678 -20.872  0.00  0.00     0.241 C 
ATOM     78  O   LYS d   1       6.816  10.401 -19.913  0.00  0.00    -0.271 OA
ATOM     79  N   GLN d   1       7.552  10.139 -21.997  0.00  0.00    -0.345 N 
ATOM     80  H61 GLN d   1       7.745   9.501 -22.743  0.00  0.00     0.163 HD
BRANCH  79  81
ATOM     81  CA  GLN d   1       7.872  11.563 -22.170  0.00  0.00     0.096 C 
ATOM     82  H62 GLN d   1       7.988  11.760 -23.246  0.00  0.00     0.089 H 
BRANCH  81  83
ATOM     83  C   GLN d   1       9.184  11.920 -21.472  0.00  0.00     0.196 C 
ATOM     84  O   GLN d   1      10.142  11.151 -21.520  0.00  0.00    -0.646 OA
ATOM     85  OXT GLN d   1       9.292  12.979 -20.857  0.00  0.00    -0.646 OA
ENDBRANCH  81  83
BRANCH  81  86
ATOM     86  CB  GLN d   1       6.733  12.451 -21.634  0.00  0.00    -0.029 C 
ATOM     87  H63 GLN d   1       6.856  12.549 -20.545  0.00  0.00     0.037 H 
ATOM     88  H64 GLN d   1       5.777  11.954 -21.852  0.00  0.00     0.037 H 
BRANCH  86  89
ATOM     89  CG  GLN d   1       6.692  13.841 -22.233  0.00  0.00     0.011 C 
ATOM     90  H65 GLN d   1       7.664  14.327 -22.066  0.00  0.00     0.047 H 
ATOM     91  H66 GLN d   1       5.902  14.419 -21.732  0.00  0.00     0.047 H 
BRANCH  89  92
ATOM     92  CD  GLN d   1       6.408  13.816 -23.724  0.00  0.00     0.215 C 
ATOM     93  OE1 GLN d   1       6.114  12.762 -24.297  0.00  0.00    -0.274 OA
ATOM     94  NE2 GLN d   1       6.489  14.984 -24.362  0.00  0.00    -0.370 N 
ATOM     95  H67 GLN d   1       6.312  15.030 -25.345  0.00  0.00     0.159 HD
ATOM     96  H68 GLN d   1       6.726  15.814 -23.857  0.00  0.00     0.159 HD
ENDBRANCH  89  92
ENDBRANCH  86  89
ENDBRANCH  81  86
ENDBRANCH  79  81
ENDBRANCH  75  77
BRANCH  75  97
ATOM     97  CB  LYS d   1       5.177   7.925 -20.530  0.00  0.00    -0.038 C 
ATOM     98  H50 LYS d   1       4.871   8.545 -19.674  0.00  0.00     0.036 H 
ATOM     99  H51 LYS d   1       5.046   6.862 -20.278  0.00  0.00     0.036 H 
BRANCH  97 100
ATOM    100  CG  LYS d   1       4.258   8.253 -21.709  0.00  0.00    -0.061 C 
ATOM    101  H52 LYS d   1       4.267   7.409 -22.415  0.00  0.00     0.033 H 
ATOM    102  H53 LYS d   1       4.632   9.156 -22.213  0.00  0.00     0.033 H 
BRANCH 100 103
ATOM    103  CD  LYS d   1       2.826   8.499 -21.250  0.00  0.00    -0.043 C 
ATOM    104  H54 LYS d   1       2.841   9.230 -20.428  0.00  0.00     0.035 H 
ATOM    105  H55 LYS d   1       2.405   7.550 -20.888  0.00  0.00     0.035 H 
BRANCH 103 106
ATOM    106  CE  LYS d   1       1.932   9.036 -22.365  0.00  0.00     0.080 C 
ATOM    107  H56 LYS d   1       0.892   9.036 -22.006  0.00  0.00     0.075 H 
ATOM    108  H57 LYS d   1       2.020   8.366 -23.233  0.00  0.00     0.075 H 
BRANCH 106 109
ATOM    109  NZ  LYS d   1       2.278  10.418 -22.802  0.00  0.00    -0.079 N 
ATOM    110  H58 LYS d   1       1.650  10.705 -23.536  0.00  0.00     0.274 HD
ATOM    111  H59 LYS d   1       3.226  10.435 -23.145  0.00  0.00     0.274 HD
ATOM    112  H60 LYS d   1       2.192  11.049 -22.020  0.00  0.00     0.274 HD
ENDBRANCH 106 109
ENDBRANCH 103 106
ENDBRANCH 100 103
ENDBRANCH  97 100
ENDBRANCH  75  97
ENDBRANCH  73  75
ENDBRANCH  69  71
BRANCH  69 113
ATOM    113  CB  ARG d   1       8.619   4.964 -18.334  0.00  0.00    -0.036 C 
ATOM    114  H37 ARG d   1       8.784   4.293 -19.190  0.00  0.00     0.036 H 
ATOM    115  H38 ARG d   1       7.540   5.129 -18.200  0.00  0.00     0.036 H 
BRANCH 113 116
ATOM    116  CG  ARG d   1       9.133   4.267 -17.099  0.00  0.00    -0.048 C 
ATOM    117  H39 ARG d   1       8.933   4.897 -16.220  0.00  0.00     0.035 H 
ATOM    118  H40 ARG d   1      10.217   4.109 -17.198  0.00  0.00     0.035 H 
BRANCH 116 119
ATOM    119  CD  ARG d   1       8.442   2.911 -16.914  0.00  0.00     0.009 C 
ATOM    120  H41 ARG d   1       8.690   2.256 -17.762  0.00  0.00     0.064 H 
ATOM    121  H42 ARG d   1       7.353   3.059 -16.871  0.00  0.00     0.064 H 
BRANCH 119 122
ATOM    122  NE  ARG d   1       8.895   2.291 -15.677  0.00  0.00    -0.227 N 
ATOM    123  CZ  ARG d   1      10.062   1.658 -15.528  0.00  0.00     0.665 C 
ATOM    124  NH1 ARG d   1      10.896   1.520 -16.590  0.00  0.00    -0.235 N 
ATOM    125  NH2 ARG d   1      10.369   1.108 -14.318  0.00  0.00    -0.235 N 
ATOM    126  H44 ARG d   1      11.796   1.032 -16.478  0.00  0.00     0.174 HD
ATOM    127  H45 ARG d   1      10.629   1.903 -17.508  0.00  0.00     0.174 HD
ATOM    128  H46 ARG d   1       9.725   1.222 -13.522  0.00  0.00     0.174 HD
ATOM    129  H47 ARG d   1      11.245   0.579 -14.200  0.00  0.00     0.174 HD
ATOM    130  H43 ARG d   1       8.272   2.344 -14.859  0.00  0.00     0.177 HD
ENDBRANCH 119 122
ENDBRANCH 116 119
ENDBRANCH 113 116
ENDBRANCH  69 113
ENDBRANCH   3  69
TORSDOF 34
