REMARK  7 active torsions:
REMARK  status: ('A' for Active; 'I' for Inactive)
REMARK    1  A    between atoms: P_1  and  O5'_5 
REMARK    2  A    between atoms: O5'_5  and  C5'_6 
REMARK    3  A    between atoms: C5'_6  and  C4'_7 
REMARK    4  A    between atoms: C3'_9  and  O3'_10 
REMARK    5  A    between atoms: C2'_11  and  O2'_12 
REMARK    6  A    between atoms: C1'_13  and  N9_14 
REMARK    7  A    between atoms: C6_18  and  N6_19 
ROOT
ATOM      1  C4' AMP d   1      30.817 -32.777  21.139  0.00  0.00     0.089 C 
ATOM      2  O4' AMP d   1      29.768 -32.726  22.137  0.00  0.00    -0.353 OA
ATOM      3  C3' AMP d   1      32.119 -33.079  21.886  0.00  0.00     0.091 C 
ATOM      4  C2' AMP d   1      31.628 -33.611  23.238  0.00  0.00     0.105 C 
ATOM      5  C1' AMP d   1      30.356 -32.788  23.420  0.00  0.00     0.139 C 
ATOM      6  H   AMP d   1      30.919 -31.784  20.677  0.00  0.00     0.090 H 
ATOM      7  H   AMP d   1      32.682 -33.865  21.362  0.00  0.00     0.091 H 
ATOM      8  H   AMP d   1      31.392 -34.683  23.171  0.00  0.00     0.093 H 
ATOM      9  H   AMP d   1      30.639 -31.778  23.752  0.00  0.00     0.122 H 
ENDROOT
BRANCH   5  10
ATOM     10  N9  AMP d   1      29.377 -33.311  24.374  0.00  0.00    -0.294 N 
ATOM     11  C8  AMP d   1      28.870 -34.583  24.453  0.00  0.00     0.071 A 
ATOM     12  N7  AMP d   1      28.043 -34.768  25.453  0.00  0.00    -0.236 NA
ATOM     13  H   AMP d   1      29.131 -35.370  23.747  0.00  0.00     0.144 H 
ATOM     14  C5  AMP d   1      28.000 -33.530  26.078  0.00  0.00     0.149 A 
ATOM     15  C6  AMP d   1      27.311 -33.059  27.218  0.00  0.00     0.155 A 
ATOM     16  C4  AMP d   1      28.805 -32.618  25.414  0.00  0.00     0.167 A 
ATOM     17  N1  AMP d   1      27.466 -31.757  27.555  0.00  0.00    -0.222 NA
ATOM     18  C2  AMP d   1      28.266 -30.987  26.807  0.00  0.00     0.091 A 
ATOM     19  N3  AMP d   1      28.978 -31.322  25.727  0.00  0.00    -0.222 NA
ATOM     20  H   AMP d   1      28.347 -29.952  27.120  0.00  0.00     0.146 H 
BRANCH  15  21
ATOM     21  N6  AMP d   1      26.549 -33.831  27.999  0.00  0.00    -0.382 N 
ATOM     22  H   AMP d   1      26.073 -33.425  28.817  0.00  0.00     0.157 HD
ATOM     23  H   AMP d   1      26.438 -34.832  27.783  0.00  0.00     0.157 HD
ENDBRANCH  15  21
ENDBRANCH   5  10
BRANCH   4  24
ATOM     24  O2' AMP d   1      32.566 -33.427  24.291  0.00  0.00    -0.388 OA
ATOM     25  H   AMP d   1      32.745 -32.500  24.396  0.00  0.00     0.210 HD
ENDBRANCH   4  24
BRANCH   1  26
ATOM     26  C5' AMP d   1      30.441 -33.742  20.039  0.00  0.00     0.059 C 
ATOM     27  H   AMP d   1      29.562 -33.357  19.502  0.00  0.00     0.079 H 
ATOM     28  H   AMP d   1      31.284 -33.842  19.339  0.00  0.00     0.079 H 
BRANCH  26  29
ATOM     29  O5' AMP d   1      30.130 -35.035  20.600  0.00  0.00    -0.280 OA
BRANCH  29  30
ATOM     30  P   AMP d   1      28.923 -36.016  20.327  0.00  0.00     0.422 P 
ATOM     31  O1P AMP d   1      28.680 -36.703  21.666  0.00  0.00    -0.617 OA
ATOM     32  O2P AMP d   1      27.698 -35.133  19.995  0.00  0.00    -0.617 OA
ATOM     33  O3P AMP d   1      29.274 -36.973  19.241  0.00  0.00    -0.617 OA
ENDBRANCH  29  30
ENDBRANCH  26  29
ENDBRANCH   1  26
BRANCH   3  34
ATOM     34  O3' AMP d   1      32.956 -31.928  21.983  0.00  0.00    -0.390 OA
ATOM     35  H   AMP d   1      33.751 -32.154  22.451  0.00  0.00     0.210 HD
ENDBRANCH   3  34
TORSDOF 7
