REMARK  4 active torsions:
REMARK  status: ('A' for Active; 'I' for Inactive)
REMARK    1  A    between atoms: C8_8  and  C6_4 
REMARK    2  A    between atoms: C19_11  and  O1_24 
REMARK    3  A    between atoms: C5_16  and  O2_25 
REMARK    4  A    between atoms: C11_19  and  C14_21 
ROOT
ATOM      1  C4  32J d   1      42.176 -80.812 -39.331  0.00  0.00     0.146 A 
ATOM      2  N2  32J d   1      40.572 -82.804 -39.015  0.00  0.00    -0.191 NA
ATOM      3  C7  32J d   1      46.207 -78.514 -39.477  0.00  0.00     0.088 A 
ATOM      4  C6  32J d   1      45.890 -79.784 -39.346  0.00  0.00     0.019 A 
ATOM      5  C20 32J d   1      41.260 -81.900 -39.159  0.00  0.00     0.108 C 
ATOM      6  C1  32J d   1      44.442 -79.921 -39.359  0.00  0.00     0.046 A 
ATOM      7  C2  32J d   1      43.836 -78.684 -39.532  0.00  0.00     0.092 A 
ATOM      8  N1  32J d   1      42.493 -78.468 -39.633  0.00  0.00    -0.316 N 
ATOM      9  C3  32J d   1      41.589 -79.500 -39.556  0.00  0.00     0.270 A 
ATOM     10  C5  32J d   1      43.550 -81.063 -39.239  0.00  0.00     0.105 A 
ATOM     11  S1  32J d   1      44.937 -77.378 -39.641  0.00  0.00    -0.058 SA
ATOM     12  O3  32J d   1      40.395 -79.269 -39.704  0.00  0.00    -0.266 OA
ATOM     13 CL1  32J d   1      47.754 -77.827 -39.509  0.00  0.00    -0.075 Cl
ATOM     14  H   32J d   1      42.158 -77.535 -39.766  0.00  0.00     0.170 HD
ENDROOT
BRANCH  10  15
ATOM     15  O2  32J d   1      44.077 -82.301 -39.045  0.00  0.00    -0.358 OA
ATOM     16  H   32J d   1      43.374 -82.938 -38.987  0.00  0.00     0.217 HD
ENDBRANCH  10  15
BRANCH   4  17
ATOM     17  C8  32J d   1      46.935 -80.841 -39.324  0.00  0.00    -0.023 A 
ATOM     18  C9  32J d   1      46.815 -81.963 -40.132  0.00  0.00    -0.071 A 
ATOM     19  C10 32J d   1      47.814 -82.916 -40.168  0.00  0.00    -0.071 A 
ATOM     20  H   32J d   1      45.928 -82.093 -40.741  0.00  0.00     0.084 H 
ATOM     21  C11 32J d   1      48.974 -82.778 -39.415  0.00  0.00    -0.023 A 
ATOM     22  H   32J d   1      47.691 -83.790 -40.797  0.00  0.00     0.084 H 
ATOM     23  C12 32J d   1      49.095 -81.646 -38.612  0.00  0.00    -0.071 A 
ATOM     24  C13 32J d   1      48.087 -80.700 -38.551  0.00  0.00    -0.071 A 
ATOM     25  H   32J d   1      49.995 -81.504 -38.025  0.00  0.00     0.084 H 
ATOM     26  H   32J d   1      48.194 -79.842 -37.897  0.00  0.00     0.084 H 
BRANCH  21  27
ATOM     27  C14 32J d   1      50.032 -83.825 -39.458  0.00  0.00     0.007 A 
ATOM     28  C19 32J d   1      50.439 -84.544 -38.325  0.00  0.00     0.076 A 
ATOM     29  C18 32J d   1      51.276 -85.648 -38.448  0.00  0.00    -0.050 A 
ATOM     30  C17 32J d   1      51.705 -86.055 -39.697  0.00  0.00    -0.080 A 
ATOM     31  H   32J d   1      51.592 -86.189 -37.564  0.00  0.00     0.087 H 
ATOM     32  C16 32J d   1      51.328 -85.353 -40.819  0.00  0.00    -0.082 A 
ATOM     33  H   32J d   1      52.340 -86.929 -39.793  0.00  0.00     0.083 H 
ATOM     34  C15 32J d   1      50.515 -84.238 -40.702  0.00  0.00    -0.070 A 
ATOM     35  H   32J d   1      51.668 -85.674 -41.797  0.00  0.00     0.083 H 
ATOM     36  H   32J d   1      50.249 -83.677 -41.590  0.00  0.00     0.085 H 
BRANCH  28  37
ATOM     37  O1  32J d   1      50.018 -84.215 -37.082  0.00  0.00    -0.360 OA
ATOM     38  H   32J d   1      50.399 -84.814 -36.451  0.00  0.00     0.217 HD
ENDBRANCH  28  37
ENDBRANCH  21  27
ENDBRANCH   4  17
TORSDOF 4
