REMARK  2 active torsions:
REMARK  status: ('A' for Active; 'I' for Inactive)
REMARK    1  A    between atoms: C7_3  and  C6_4 
REMARK    2  A    between atoms: C9_5  and  O2_20 
ROOT
ATOM      1  N2  32H d   1      40.041 -82.332 -39.297  0.00  0.00    -0.191 NA
ATOM      2  C7  32H d   1      45.245 -79.220 -39.519  0.00  0.00     0.014 A 
ATOM      3  C9  32H d   1      42.920 -80.481 -39.461  0.00  0.00     0.105 A 
ATOM      4  C13 32H d   1      45.607 -77.936 -39.589  0.00  0.00     0.065 A 
ATOM      5  C8  32H d   1      43.799 -79.336 -39.511  0.00  0.00     0.046 A 
ATOM      6  C10 32H d   1      41.556 -80.254 -39.459  0.00  0.00     0.146 A 
ATOM      7  C11 32H d   1      40.944 -78.933 -39.518  0.00  0.00     0.270 A 
ATOM      8  O1  32H d   1      39.740 -78.694 -39.488  0.00  0.00    -0.266 OA
ATOM      9  N1  32H d   1      41.840 -77.888 -39.582  0.00  0.00    -0.316 N 
ATOM     10  C12 32H d   1      43.192 -78.091 -39.575  0.00  0.00     0.092 A 
ATOM     11  S1  32H d   1      44.324 -76.808 -39.655  0.00  0.00    -0.063 SA
ATOM     12 BR1  32H d   1      47.328 -77.225 -39.623  0.00  0.00    -0.042 Br
ATOM     13  C14 32H d   1      40.682 -81.385 -39.371  0.00  0.00     0.108 C 
ATOM     14  H   32H d   1      41.491 -76.953 -39.635  0.00  0.00     0.170 HD
ENDROOT
BRANCH   3  15
ATOM     15  O2  32H d   1      43.470 -81.709 -39.431  0.00  0.00    -0.358 OA
ATOM     16  H   32H d   1      44.417 -81.631 -39.439  0.00  0.00     0.217 HD
ENDBRANCH   3  15
BRANCH   2  17
ATOM     17  C6  32H d   1      46.257 -80.304 -39.504  0.00  0.00    -0.023 A 
ATOM     18  C1  32H d   1      47.309 -80.282 -38.593  0.00  0.00    -0.071 A 
ATOM     19  C2  32H d   1      48.308 -81.237 -38.640  0.00  0.00    -0.065 A 
ATOM     20  H   32H d   1      47.346 -79.506 -37.837  0.00  0.00     0.084 H 
ATOM     21  C3  32H d   1      48.245 -82.224 -39.595  0.00  0.00     0.011 A 
ATOM     22  H   32H d   1      49.130 -81.208 -37.934  0.00  0.00     0.085 H 
ATOM     23  C4  32H d   1      47.202 -82.291 -40.489  0.00  0.00    -0.065 A 
ATOM     24 BR2  32H d   1      49.639 -83.502 -39.702  0.00  0.00    -0.051 Br
ATOM     25  C5  32H d   1      46.209 -81.330 -40.440  0.00  0.00    -0.071 A 
ATOM     26  H   32H d   1      47.159 -83.088 -41.223  0.00  0.00     0.085 H 
ATOM     27  H   32H d   1      45.383 -81.378 -41.140  0.00  0.00     0.084 H 
ENDBRANCH   2  17
TORSDOF 2
