REMARK  9 active torsions:
REMARK  status: ('A' for Active; 'I' for Inactive)
REMARK    1  A    between atoms: C1_1  and  C2_2 
REMARK    2  A    between atoms: N4_4  and  C10_10 
REMARK    3  A    between atoms: N14_14  and  C16_16 
REMARK    4  A    between atoms: C16_16  and  C17_17 
REMARK    5  A    between atoms: C20_20  and  C33_33 
REMARK    6  A    between atoms: C21_21  and  O25_25 
REMARK    7  A    between atoms: C22_22  and  O23_23 
REMARK    8  A    between atoms: O23_23  and  C24_24 
REMARK    9  A    between atoms: O25_25  and  C26_26 
ROOT
ATOM      1  C16 32K d   1      11.924   3.213   5.459  0.00  0.00     0.110 C 
ATOM      2  H   32K d   1      11.425   3.767   6.268  0.00  0.00     0.083 H 
ATOM      3  H   32K d   1      12.255   3.917   4.681  0.00  0.00     0.083 H 
ENDROOT
BRANCH   1   4
ATOM      4  N14 32K d   1      10.932   2.280   4.852  0.00  0.00    -0.065 N 
ATOM      5  C13 32K d   1      10.160   1.397   5.779  0.00  0.00     0.084 C 
ATOM      6  C12 32K d   1       9.006   0.787   4.994  0.00  0.00    -0.040 C 
ATOM      7  H   32K d   1      10.812   0.600   6.165  0.00  0.00     0.076 H 
ATOM      8  H   32K d   1       9.768   1.989   6.619  0.00  0.00     0.076 H 
ATOM      9  C11 32K d   1       9.578  -0.017   3.839  0.00  0.00    -0.043 C 
ATOM     10  H   32K d   1       8.419   0.127   5.650  0.00  0.00     0.035 H 
ATOM     11  H   32K d   1       8.359   1.587   4.604  0.00  0.00     0.035 H 
ATOM     12  C10 32K d   1      10.435   0.874   2.941  0.00  0.00     0.044 C 
ATOM     13  H   32K d   1      10.198  -0.833   4.238  0.00  0.00     0.036 H 
ATOM     14  H   32K d   1       8.752  -0.440   3.248  0.00  0.00     0.036 H 
ATOM     15  C15 32K d   1      11.537   1.537   3.715  0.00  0.00     0.103 C 
ATOM     16  H   32K d   1       9.774   1.667   2.563  0.00  0.00     0.076 H 
ATOM     17  H   32K d   1      12.081   2.236   3.062  0.00  0.00     0.079 H 
ATOM     18  H   32K d   1      12.232   0.775   4.097  0.00  0.00     0.079 H 
ATOM     19  H   32K d   1      10.234   2.881   4.442  0.00  0.00     0.280 HD
BRANCH  12  20
ATOM     20  N4  32K d   1      10.987   0.196   1.783  0.00  0.00    -0.303 N 
ATOM     21  C3  32K d   1      11.545  -1.062   1.889  0.00  0.00    -0.004 A 
ATOM     22  C2  32K d   1      11.998  -1.776   0.843  0.00  0.00     0.022 A 
ATOM     23  H   32K d   1      11.623  -1.504   2.881  0.00  0.00     0.112 H 
ATOM     24  C8  32K d   1      11.894  -1.158  -0.495  0.00  0.00     0.256 A 
ATOM     25  N7  32K d   1      11.350   0.107  -0.508  0.00  0.00    -0.275 N 
ATOM     26  O9  32K d   1      12.277  -1.740  -1.511  0.00  0.00    -0.267 OA
ATOM     27  C5  32K d   1      10.906   0.845   0.571  0.00  0.00     0.329 A 
ATOM     28  H   32K d   1      11.267   0.542  -1.405  0.00  0.00     0.173 HD
ATOM     29  O6  32K d   1      10.483   1.988   0.440  0.00  0.00    -0.246 OA
BRANCH  22  30
ATOM     30  C1  32K d   1      12.583  -3.146   0.945  0.00  0.00    -0.045 C 
ATOM     31  H   32K d   1      12.591  -3.464   1.998  0.00  0.00     0.033 H 
ATOM     32  H   32K d   1      13.612  -3.135   0.557  0.00  0.00     0.033 H 
ATOM     33  H   32K d   1      11.976  -3.849   0.355  0.00  0.00     0.033 H 
ENDBRANCH  22  30
ENDBRANCH  12  20
ENDBRANCH   1   4
BRANCH   1  34
ATOM     34  C17 32K d   1      13.139   2.540   6.031  0.00  0.00     0.004 A 
ATOM     35  C18 32K d   1      13.084   2.140   7.353  0.00  0.00    -0.071 A 
ATOM     36  C19 32K d   1      14.156   1.502   7.927  0.00  0.00    -0.063 A 
ATOM     37  H   32K d   1      12.192   2.331   7.939  0.00  0.00     0.084 H 
ATOM     38  C20 32K d   1      15.309   1.272   7.202  0.00  0.00     0.077 A 
ATOM     39  H   32K d   1      14.097   1.176   8.959  0.00  0.00     0.085 H 
ATOM     40  C21 32K d   1      15.385   1.694   5.883  0.00  0.00     0.127 A 
ATOM     41  C22 32K d   1      14.304   2.337   5.297  0.00  0.00     0.111 A 
BRANCH  38  42
ATOM     42  C33 32K d   1      16.425   0.590   7.869  0.00  0.00     0.212 C 
ATOM     43  O34 32K d   1      16.893   1.127   8.904  0.00  0.00    -0.644 OA
ATOM     44  O35 32K d   1      16.828  -0.482   7.364  0.00  0.00    -0.644 OA
ENDBRANCH  38  42
BRANCH  40  45
ATOM     45  O25 32K d   1      16.559   1.520   5.167  0.00  0.00    -0.307 OA
BRANCH  45  46
ATOM     46  C26 32K d   1      16.654   0.467   4.276  0.00  0.00     0.077 A 
ATOM     47  C27 32K d   1      15.877  -0.679   4.348  0.00  0.00    -0.050 A 
ATOM     48  C28 32K d   1      16.058  -1.699   3.427  0.00  0.00    -0.079 A 
ATOM     49  H   32K d   1      15.127  -0.777   5.125  0.00  0.00     0.087 H 
ATOM     50  C29 32K d   1      17.009  -1.553   2.436  0.00  0.00    -0.062 A 
ATOM     51  H   32K d   1      15.460  -2.601   3.484  0.00  0.00     0.083 H 
ATOM     52  C30 32K d   1      17.783  -0.409   2.383  0.00  0.00     0.036 A 
ATOM     53  H   32K d   1      17.148  -2.336   1.699  0.00  0.00     0.086 H 
ATOM     54  C31 32K d   1      17.622   0.606   3.304  0.00  0.00    -0.029 A 
ATOM     55 CL   32K d   1      18.966  -0.198   1.147  0.00  0.00    -0.084 Cl
ATOM     56  H   32K d   1      18.243   1.494   3.264  0.00  0.00     0.090 H 
ENDBRANCH  45  46
ENDBRANCH  40  45
BRANCH  41  57
ATOM     57  O23 32K d   1      14.386   2.770   3.968  0.00  0.00    -0.352 OA
BRANCH  57  58
ATOM     58  C24 32K d   1      15.084   4.031   3.947  0.00  0.00     0.011 C 
ATOM     59  H   32K d   1      15.160   4.391   2.910  0.00  0.00     0.067 H 
ATOM     60  H   32K d   1      16.093   3.898   4.364  0.00  0.00     0.067 H 
ATOM     61  H   32K d   1      14.531   4.766   4.551  0.00  0.00     0.067 H 
ENDBRANCH  57  58
ENDBRANCH  41  57
ENDBRANCH   1  34
TORSDOF 9
