REMARK  7 active torsions:
REMARK  status: ('A' for Active; 'I' for Inactive)
REMARK    1  A    between atoms: C1_1  and  C2_2 
REMARK    2  A    between atoms: N4_4  and  C10_10 
REMARK    3  A    between atoms: N14_14  and  C16_16 
REMARK    4  A    between atoms: C16_16  and  C17_17 
REMARK    5  A    between atoms: C20_20  and  C32_32 
REMARK    6  A    between atoms: C21_21  and  O24_24 
REMARK    7  A    between atoms: O24_24  and  C25_25 
ROOT
ATOM      1  C10 31Z d   1      10.660   0.988   2.942  0.00  0.00     0.044 C 
ATOM      2  C11 31Z d   1       9.772   0.105   3.831  0.00  0.00    -0.043 C 
ATOM      3  C12 31Z d   1       9.193   0.857   5.020  0.00  0.00    -0.040 C 
ATOM      4  C13 31Z d   1      10.275   1.597   5.781  0.00  0.00     0.084 C 
ATOM      5  N14 31Z d   1      11.069   2.449   4.836  0.00  0.00    -0.065 N 
ATOM      6  C15 31Z d   1      11.717   1.663   3.749  0.00  0.00     0.103 C 
ATOM      7  H   31Z d   1      10.010   1.782   2.546  0.00  0.00     0.076 H 
ATOM      8  H   31Z d   1      10.375  -0.735   4.207  0.00  0.00     0.036 H 
ATOM      9  H   31Z d   1       8.942  -0.283   3.223  0.00  0.00     0.036 H 
ATOM     10  H   31Z d   1       8.706   0.139   5.696  0.00  0.00     0.035 H 
ATOM     11  H   31Z d   1       8.449   1.582   4.658  0.00  0.00     0.035 H 
ATOM     12  H   31Z d   1      10.943   0.870   6.266  0.00  0.00     0.076 H 
ATOM     13  H   31Z d   1       9.811   2.236   6.547  0.00  0.00     0.076 H 
ATOM     14  H   31Z d   1      10.410   3.069   4.392  0.00  0.00     0.280 HD
ATOM     15  H   31Z d   1      12.300   2.337   3.104  0.00  0.00     0.079 H 
ATOM     16  H   31Z d   1      12.385   0.907   4.188  0.00  0.00     0.079 H 
ENDROOT
BRANCH   5  17
ATOM     17  C16 31Z d   1      12.070   3.314   5.536  0.00  0.00     0.110 C 
ATOM     18  H   31Z d   1      11.558   3.820   6.368  0.00  0.00     0.083 H 
ATOM     19  H   31Z d   1      12.432   4.064   4.817  0.00  0.00     0.083 H 
BRANCH  17  20
ATOM     20  C17 31Z d   1      13.269   2.592   6.098  0.00  0.00     0.009 A 
ATOM     21  C18 31Z d   1      13.212   2.179   7.414  0.00  0.00    -0.071 A 
ATOM     22  C19 31Z d   1      14.265   1.507   7.986  0.00  0.00    -0.063 A 
ATOM     23  H   31Z d   1      12.326   2.387   8.003  0.00  0.00     0.084 H 
ATOM     24  C20 31Z d   1      15.407   1.253   7.256  0.00  0.00     0.077 A 
ATOM     25  H   31Z d   1      14.198   1.175   9.016  0.00  0.00     0.085 H 
ATOM     26  C21 31Z d   1      15.478   1.675   5.941  0.00  0.00     0.132 A 
ATOM     27  C22 31Z d   1      14.424   2.352   5.366  0.00  0.00     0.159 A 
ATOM     28  F23 31Z d   1      14.553   2.766   4.083  0.00  0.00    -0.203 F 
BRANCH  24  29
ATOM     29  C32 31Z d   1      16.509   0.531   7.924  0.00  0.00     0.212 C 
ATOM     30  O33 31Z d   1      16.961   1.027   8.991  0.00  0.00    -0.644 OA
ATOM     31  O34 31Z d   1      16.897  -0.536   7.389  0.00  0.00    -0.644 OA
ENDBRANCH  24  29
BRANCH  26  32
ATOM     32  O24 31Z d   1      16.626   1.491   5.186  0.00  0.00    -0.306 OA
BRANCH  32  33
ATOM     33  C25 31Z d   1      16.715   0.454   4.266  0.00  0.00     0.077 A 
ATOM     34  C26 31Z d   1      15.888  -0.659   4.259  0.00  0.00    -0.050 A 
ATOM     35  C27 31Z d   1      16.077  -1.648   3.307  0.00  0.00    -0.079 A 
ATOM     36  H   31Z d   1      15.098  -0.755   4.995  0.00  0.00     0.087 H 
ATOM     37  C28 31Z d   1      17.082  -1.523   2.369  0.00  0.00    -0.062 A 
ATOM     38  H   31Z d   1      15.435  -2.521   3.299  0.00  0.00     0.083 H 
ATOM     39  C29 31Z d   1      17.898  -0.412   2.373  0.00  0.00     0.036 A 
ATOM     40  H   31Z d   1      17.230  -2.300   1.628  0.00  0.00     0.086 H 
ATOM     41  C30 31Z d   1      17.720   0.573   3.325  0.00  0.00    -0.029 A 
ATOM     42 CL   31Z d   1      19.154  -0.227   1.197  0.00  0.00    -0.084 Cl
ATOM     43  H   31Z d   1      18.370   1.441   3.334  0.00  0.00     0.090 H 
ENDBRANCH  32  33
ENDBRANCH  26  32
ENDBRANCH  17  20
ENDBRANCH   5  17
BRANCH   1  44
ATOM     44  N4  31Z d   1      11.205   0.302   1.789  0.00  0.00    -0.303 N 
ATOM     45  C3  31Z d   1      11.768  -0.953   1.898  0.00  0.00    -0.004 A 
ATOM     46  C2  31Z d   1      12.180  -1.685   0.848  0.00  0.00     0.022 A 
ATOM     47  H   31Z d   1      11.886  -1.376   2.894  0.00  0.00     0.112 H 
ATOM     48  C8  31Z d   1      12.004  -1.099  -0.504  0.00  0.00     0.256 A 
ATOM     49  N7  31Z d   1      11.434   0.155  -0.524  0.00  0.00    -0.275 N 
ATOM     50  O9  31Z d   1      12.327  -1.686  -1.532  0.00  0.00    -0.267 OA
ATOM     51  C5  31Z d   1      11.045   0.909   0.562  0.00  0.00     0.329 A 
ATOM     52  H   31Z d   1      11.286   0.563  -1.425  0.00  0.00     0.173 HD
ATOM     53  O6  31Z d   1      10.588   2.037   0.423  0.00  0.00    -0.246 OA
BRANCH  46  54
ATOM     54  C1  31Z d   1      12.784  -3.032   1.002  0.00  0.00    -0.045 C 
ATOM     55  H   31Z d   1      12.831  -3.293   2.070  0.00  0.00     0.033 H 
ATOM     56  H   31Z d   1      13.800  -3.029   0.580  0.00  0.00     0.033 H 
ATOM     57  H   31Z d   1      12.169  -3.773   0.470  0.00  0.00     0.033 H 
ENDBRANCH  46  54
ENDBRANCH   1  44
TORSDOF 7
