REMARK  11 active torsions:
REMARK  status: ('A' for Active; 'I' for Inactive)
REMARK    1  A    between atoms: C1_1  and  C2_2 
REMARK    2  A    between atoms: C2_2  and  C3_3 
REMARK    3  A    between atoms: C3_3  and  C4_4 
REMARK    4  A    between atoms: C3_3  and  N23_23 
REMARK    5  A    between atoms: C7_7  and  C20_20 
REMARK    6  A    between atoms: C8_8  and  O12_12 
REMARK    7  A    between atoms: C9_9  and  O10_10 
REMARK    8  A    between atoms: O10_10  and  C11_11 
REMARK    9  A    between atoms: O12_12  and  C13_13 
REMARK   10  A    between atoms: C27_27  and  N29_29 
REMARK   11  A    between atoms: C31_31  and  C37_37 
ROOT
ATOM      1  C3  32B d   1      11.908   3.191   5.672  0.00  0.00     0.131 C 
ATOM      2  H   32B d   1      11.395   3.469   6.604  0.00  0.00     0.092 H 
ENDROOT
BRANCH   1   3
ATOM      3  C2  32B d   1      12.098   4.495   4.896  0.00  0.00    -0.037 C 
ATOM      4  H   32B d   1      12.504   4.256   3.902  0.00  0.00     0.035 H 
ATOM      5  H   32B d   1      11.118   4.983   4.784  0.00  0.00     0.035 H 
BRANCH   3   6
ATOM      6  C1  32B d   1      13.044   5.461   5.586  0.00  0.00    -0.074 C 
ATOM      7  H   32B d   1      13.139   6.375   4.982  0.00  0.00     0.027 H 
ATOM      8  H   32B d   1      14.032   4.990   5.697  0.00  0.00     0.027 H 
ATOM      9  H   32B d   1      12.646   5.717   6.579  0.00  0.00     0.027 H 
ENDBRANCH   3   6
ENDBRANCH   1   3
BRANCH   1  10
ATOM     10  C4  32B d   1      13.172   2.493   6.125  0.00  0.00     0.009 A 
ATOM     11  C5  32B d   1      13.143   2.129   7.459  0.00  0.00    -0.071 A 
ATOM     12  C6  32B d   1      14.197   1.466   8.042  0.00  0.00    -0.063 A 
ATOM     13  H   32B d   1      12.272   2.371   8.057  0.00  0.00     0.084 H 
ATOM     14  C7  32B d   1      15.323   1.184   7.294  0.00  0.00     0.077 A 
ATOM     15  H   32B d   1      14.144   1.167   9.082  0.00  0.00     0.085 H 
ATOM     16  C8  32B d   1      15.370   1.555   5.959  0.00  0.00     0.127 A 
ATOM     17  C9  32B d   1      14.312   2.224   5.363  0.00  0.00     0.111 A 
BRANCH  14  18
ATOM     18  C20 32B d   1      16.443   0.485   7.957  0.00  0.00     0.212 C 
ATOM     19  O21 32B d   1      16.833  -0.607   7.463  0.00  0.00    -0.644 OA
ATOM     20  O22 32B d   1      16.899   1.021   8.998  0.00  0.00    -0.644 OA
ENDBRANCH  14  18
BRANCH  16  21
ATOM     21  O12 32B d   1      16.531   1.312   5.258  0.00  0.00    -0.307 OA
BRANCH  21  22
ATOM     22  C13 32B d   1      16.584   0.322   4.292  0.00  0.00     0.077 A 
ATOM     23  C14 32B d   1      15.764  -0.793   4.292  0.00  0.00    -0.050 A 
ATOM     24  C15 32B d   1      15.907  -1.741   3.297  0.00  0.00    -0.079 A 
ATOM     25  H   32B d   1      15.016  -0.921   5.066  0.00  0.00     0.087 H 
ATOM     26  C16 32B d   1      16.867  -1.583   2.323  0.00  0.00    -0.062 A 
ATOM     27  H   32B d   1      15.261  -2.612   3.283  0.00  0.00     0.083 H 
ATOM     28  C17 32B d   1      17.687  -0.472   2.348  0.00  0.00     0.036 A 
ATOM     29  H   32B d   1      16.979  -2.326   1.542  0.00  0.00     0.086 H 
ATOM     30  C18 32B d   1      17.563   0.487   3.336  0.00  0.00    -0.029 A 
ATOM     31 CL   32B d   1      18.883  -0.261   1.133  0.00  0.00    -0.084 Cl
ATOM     32  H   32B d   1      18.220   1.349   3.358  0.00  0.00     0.090 H 
ENDBRANCH  21  22
ENDBRANCH  16  21
BRANCH  17  33
ATOM     33  O10 32B d   1      14.389   2.593   4.003  0.00  0.00    -0.352 OA
BRANCH  33  34
ATOM     34  C11 32B d   1      15.438   3.542   3.740  0.00  0.00     0.011 C 
ATOM     35  H   32B d   1      15.448   3.790   2.668  0.00  0.00     0.067 H 
ATOM     36  H   32B d   1      16.407   3.106   4.024  0.00  0.00     0.067 H 
ATOM     37  H   32B d   1      15.261   4.456   4.326  0.00  0.00     0.067 H 
ENDBRANCH  33  34
ENDBRANCH  17  33
ENDBRANCH   1  10
BRANCH   1  38
ATOM     38  N23 32B d   1      10.946   2.315   4.909  0.00  0.00    -0.061 N 
ATOM     39  C24 32B d   1      10.206   1.349   5.801  0.00  0.00     0.084 C 
ATOM     40  C25 32B d   1       9.064   0.736   5.010  0.00  0.00    -0.040 C 
ATOM     41  H   32B d   1       9.806   1.884   6.675  0.00  0.00     0.076 H 
ATOM     42  H   32B d   1      10.891   0.557   6.138  0.00  0.00     0.076 H 
ATOM     43  C26 32B d   1       9.596   0.035   3.761  0.00  0.00    -0.043 C 
ATOM     44  H   32B d   1       8.364   1.530   4.710  0.00  0.00     0.035 H 
ATOM     45  H   32B d   1       8.539   0.004   5.641  0.00  0.00     0.035 H 
ATOM     46  C27 32B d   1      10.474   0.956   2.902  0.00  0.00     0.044 C 
ATOM     47  H   32B d   1       8.742  -0.304   3.156  0.00  0.00     0.036 H 
ATOM     48  H   32B d   1      10.194  -0.834   4.072  0.00  0.00     0.036 H 
ATOM     49  C28 32B d   1      11.545   1.619   3.733  0.00  0.00     0.103 C 
ATOM     50  H   32B d   1       9.820   1.752   2.517  0.00  0.00     0.076 H 
ATOM     51  H   32B d   1      12.252   0.854   4.088  0.00  0.00     0.079 H 
ATOM     52  H   32B d   1      12.080   2.353   3.113  0.00  0.00     0.079 H 
ATOM     53  H   32B d   1      10.250   2.940   4.534  0.00  0.00     0.280 HD
BRANCH  46  54
ATOM     54  N29 32B d   1      11.050   0.286   1.744  0.00  0.00    -0.303 N 
ATOM     55  C30 32B d   1      11.611  -0.979   1.866  0.00  0.00    -0.004 A 
ATOM     56  C31 32B d   1      12.050  -1.715   0.827  0.00  0.00     0.022 A 
ATOM     57  H   32B d   1      11.702  -1.402   2.865  0.00  0.00     0.112 H 
ATOM     58  C32 32B d   1      11.911  -1.126  -0.529  0.00  0.00     0.256 A 
ATOM     59  O33 32B d   1      12.264  -1.738  -1.536  0.00  0.00    -0.267 OA
ATOM     60  N34 32B d   1      11.335   0.125  -0.564  0.00  0.00    -0.275 N 
ATOM     61  C35 32B d   1      10.923   0.895   0.515  0.00  0.00     0.329 A 
ATOM     62  H   32B d   1      11.198   0.524  -1.471  0.00  0.00     0.173 HD
ATOM     63  O36 32B d   1      10.483   2.034   0.365  0.00  0.00    -0.246 OA
BRANCH  56  64
ATOM     64  C37 32B d   1      12.650  -3.076   0.945  0.00  0.00    -0.045 C 
ATOM     65  H   32B d   1      12.684  -3.371   2.004  0.00  0.00     0.033 H 
ATOM     66  H   32B d   1      13.670  -3.064   0.534  0.00  0.00     0.033 H 
ATOM     67  H   32B d   1      12.037  -3.797   0.384  0.00  0.00     0.033 H 
ENDBRANCH  56  64
ENDBRANCH  46  54
ENDBRANCH   1  38
TORSDOF 11
