REMARK  11 active torsions:
REMARK  status: ('A' for Active; 'I' for Inactive)
REMARK    1  A    between atoms: C1_1  and  C2_2 
REMARK    2  A    between atoms: N4_4  and  C10_10 
REMARK    3  A    between atoms: N14_14  and  C16_16 
REMARK    4  A    between atoms: C16_16  and  C17_17 
REMARK    5  A    between atoms: C16_16  and  C21_21 
REMARK    6  A    between atoms: C17_17  and  C18_18 
REMARK    7  A    between atoms: C18_18  and  C19_19 
REMARK    8  A    between atoms: C18_18  and  C20_20 
REMARK    9  A    between atoms: C24_24  and  C36_35 
REMARK   10  A    between atoms: C25_25  and  O28_28 
REMARK   11  A    between atoms: O28_28  and  C29_29 
ROOT
ATOM      1  C16 32C d   1      13.337   3.147   5.655  0.00  0.00     0.132 C 
ATOM      2  H   32C d   1      12.871   3.611   6.537  0.00  0.00     0.092 H 
ENDROOT
BRANCH   1   3
ATOM      3  N14 32C d   1      12.258   2.307   5.005  0.00  0.00    -0.061 N 
ATOM      4  C13 32C d   1      11.490   1.492   6.007  0.00  0.00     0.084 C 
ATOM      5  C12 32C d   1      10.213   1.027   5.315  0.00  0.00    -0.040 C 
ATOM      6  H   32C d   1      12.086   0.624   6.324  0.00  0.00     0.076 H 
ATOM      7  H   32C d   1      11.242   2.107   6.885  0.00  0.00     0.076 H 
ATOM      8  C11 32C d   1      10.556   0.175   4.098  0.00  0.00    -0.043 C 
ATOM      9  H   32C d   1       9.614   0.431   6.019  0.00  0.00     0.035 H 
ATOM     10  H   32C d   1       9.634   1.905   4.993  0.00  0.00     0.035 H 
ATOM     11  C10 32C d   1      11.459   0.971   3.145  0.00  0.00     0.044 C 
ATOM     12  H   32C d   1      11.082  -0.734   4.425  0.00  0.00     0.036 H 
ATOM     13  H   32C d   1       9.630  -0.105   3.575  0.00  0.00     0.036 H 
ATOM     14  C15 32C d   1      12.717   1.434   3.878  0.00  0.00     0.103 C 
ATOM     15  H   32C d   1      10.901   1.859   2.813  0.00  0.00     0.076 H 
ATOM     16  H   32C d   1      13.366   2.004   3.196  0.00  0.00     0.079 H 
ATOM     17  H   32C d   1      13.269   0.567   4.270  0.00  0.00     0.079 H 
ATOM     18  H   32C d   1      11.606   2.963   4.604  0.00  0.00     0.280 HD
BRANCH  11  19
ATOM     19  N4  32C d   1      11.842   0.207   1.956  0.00  0.00    -0.303 N 
ATOM     20  C3  32C d   1      12.346  -1.072   2.086  0.00  0.00    -0.004 A 
ATOM     21  C2  32C d   1      12.776  -1.834   1.068  0.00  0.00     0.022 A 
ATOM     22  H   32C d   1      12.399  -1.494   3.089  0.00  0.00     0.112 H 
ATOM     23  C8  32C d   1      12.674  -1.270  -0.289  0.00  0.00     0.256 A 
ATOM     24  N7  32C d   1      12.175   0.029  -0.362  0.00  0.00    -0.275 N 
ATOM     25  O9  32C d   1      13.048  -1.902  -1.264  0.00  0.00    -0.267 OA
ATOM     26  C5  32C d   1      11.759   0.812   0.706  0.00  0.00     0.329 A 
ATOM     27  H   32C d   1      12.110   0.437  -1.273  0.00  0.00     0.173 HD
ATOM     28  O6  32C d   1      11.371   1.967   0.552  0.00  0.00    -0.246 OA
BRANCH  21  29
ATOM     29  C1  32C d   1      13.322  -3.213   1.254  0.00  0.00    -0.045 C 
ATOM     30  H   32C d   1      13.324  -3.465   2.325  0.00  0.00     0.033 H 
ATOM     31  H   32C d   1      14.350  -3.256   0.866  0.00  0.00     0.033 H 
ATOM     32  H   32C d   1      12.694  -3.933   0.709  0.00  0.00     0.033 H 
ENDBRANCH  21  29
ENDBRANCH  11  19
ENDBRANCH   1   3
BRANCH   1  33
ATOM     33  C17 32C d   1      13.758   4.301   4.724  0.00  0.00    -0.031 C 
ATOM     34  H   32C d   1      12.874   4.941   4.585  0.00  0.00     0.037 H 
ATOM     35  H   32C d   1      14.039   3.850   3.761  0.00  0.00     0.037 H 
BRANCH  33  36
ATOM     36  C18 32C d   1      14.907   5.213   5.142  0.00  0.00    -0.059 C 
ATOM     37  H   32C d   1      15.767   4.560   5.350  0.00  0.00     0.038 H 
BRANCH  36  38
ATOM     38  C19 32C d   1      14.642   6.000   6.412  0.00  0.00    -0.073 C 
ATOM     39  H   32C d   1      15.514   6.629   6.642  0.00  0.00     0.028 H 
ATOM     40  H   32C d   1      14.462   5.303   7.244  0.00  0.00     0.028 H 
ATOM     41  H   32C d   1      13.757   6.638   6.270  0.00  0.00     0.028 H 
ENDBRANCH  36  38
BRANCH  36  42
ATOM     42  C20 32C d   1      15.308   6.137   4.007  0.00  0.00    -0.073 C 
ATOM     43  H   32C d   1      15.494   5.544   3.100  0.00  0.00     0.028 H 
ATOM     44  H   32C d   1      16.223   6.681   4.283  0.00  0.00     0.028 H 
ATOM     45  H   32C d   1      14.498   6.856   3.815  0.00  0.00     0.028 H 
ENDBRANCH  36  42
ENDBRANCH  33  36
ENDBRANCH   1  33
BRANCH   1  46
ATOM     46  C21 32C d   1      14.520   2.367   6.182  0.00  0.00     0.014 A 
ATOM     47  C22 32C d   1      14.427   2.078   7.530  0.00  0.00    -0.071 A 
ATOM     48  C23 32C d   1      15.421   1.395   8.186  0.00  0.00    -0.063 A 
ATOM     49  H   32C d   1      13.550   2.397   8.082  0.00  0.00     0.084 H 
ATOM     50  C24 32C d   1      16.537   0.984   7.498  0.00  0.00     0.077 A 
ATOM     51  H   32C d   1      15.326   1.181   9.244  0.00  0.00     0.085 H 
ATOM     52  C25 32C d   1      16.663   1.287   6.150  0.00  0.00     0.132 A 
ATOM     53  C26 32C d   1      15.667   1.973   5.496  0.00  0.00     0.159 A 
ATOM     54  F27 32C d   1      15.855   2.262   4.196  0.00  0.00    -0.203 F 
BRANCH  50  55
ATOM     55  C36 32C d   1      17.561   0.247   8.234  0.00  0.00     0.212 C 
ATOM     56  O37 32C d   1      17.909  -0.856   7.727  0.00  0.00    -0.644 OA
ATOM     57  O38 32C d   1      17.990   0.775   9.301  0.00  0.00    -0.644 OA
ENDBRANCH  50  55
BRANCH  52  58
ATOM     58  O28 32C d   1      17.833   0.953   5.496  0.00  0.00    -0.306 OA
BRANCH  58  59
ATOM     59  C29 32C d   1      17.799   0.047   4.438  0.00  0.00     0.077 A 
ATOM     60  C30 32C d   1      16.924  -1.020   4.405  0.00  0.00    -0.050 A 
ATOM     61  C31 32C d   1      16.942  -1.902   3.336  0.00  0.00    -0.079 A 
ATOM     62  H   32C d   1      16.221  -1.169   5.217  0.00  0.00     0.087 H 
ATOM     63  C32 32C d   1      17.854  -1.710   2.316  0.00  0.00    -0.062 A 
ATOM     64  H   32C d   1      16.248  -2.734   3.300  0.00  0.00     0.083 H 
ATOM     65  C33 32C d   1      18.718  -0.627   2.352  0.00  0.00     0.036 A 
ATOM     66  H   32C d   1      17.894  -2.407   1.487  0.00  0.00     0.086 H 
ATOM     67  C34 32C d   1      18.699   0.263   3.415  0.00  0.00    -0.029 A 
ATOM     68 CL   32C d   1      19.839  -0.365   1.066  0.00  0.00    -0.084 Cl
ATOM     69  H   32C d   1      19.376   1.109   3.442  0.00  0.00     0.090 H 
ENDBRANCH  58  59
ENDBRANCH  52  58
ENDBRANCH   1  46
TORSDOF 11
