REMARK  11 active torsions:
REMARK  status: ('A' for Active; 'I' for Inactive)
REMARK    1  A    between atoms: C24_7  and  C36_17 
REMARK    2  A    between atoms: C16_27  and  C21_8 
REMARK    3  A    between atoms: O28_36  and  C29_9 
REMARK    4  A    between atoms: C25_10  and  O28_36 
REMARK    5  A    between atoms: C2_14  and  C1_23 
REMARK    6  A    between atoms: C10_22  and  N4_30 
REMARK    7  A    between atoms: C18_28  and  C19_24 
REMARK    8  A    between atoms: C18_28  and  C20_25 
REMARK    9  A    between atoms: C16_27  and  C17_26 
REMARK   10  A    between atoms: C17_26  and  C18_28 
REMARK   11  A    between atoms: C16_27  and  N14_31 
ROOT
ATOM      1  C16 32E d   1      12.448   3.018   5.596  0.00  0.00     0.132 C 
ATOM      2  H   32E d   1      12.930   3.475   4.719  0.00  0.00     0.092 H 
ENDROOT
BRANCH   1   3
ATOM      3  C21 32E d   1      13.518   2.153   6.254  0.00  0.00     0.014 A 
ATOM      4  C22 32E d   1      13.440   1.681   7.564  0.00  0.00    -0.071 A 
ATOM      5  C23 32E d   1      14.452   0.913   8.121  0.00  0.00    -0.063 A 
ATOM      6  H   32E d   1      12.568   1.920   8.161  0.00  0.00     0.084 H 
ATOM      7  C24 32E d   1      15.581   0.634   7.374  0.00  0.00     0.077 A 
ATOM      8  H   32E d   1      14.358   0.535   9.133  0.00  0.00     0.085 H 
ATOM      9  C25 32E d   1      15.662   1.074   6.064  0.00  0.00     0.132 A 
ATOM     10  C26 32E d   1      14.648   1.839   5.522  0.00  0.00     0.159 A 
ATOM     11  F27 32E d   1      14.802   2.276   4.248  0.00  0.00    -0.203 F 
BRANCH   7  12
ATOM     12  C36 32E d   1      16.670  -0.179   7.952  0.00  0.00     0.212 C 
ATOM     13  O37 32E d   1      17.164  -1.155   7.410  0.00  0.00    -0.644 OA
ATOM     14  O38 32E d   1      17.035   0.317   9.162  0.00  0.00    -0.644 OA
ENDBRANCH   7  12
BRANCH   9  15
ATOM     15  O28 32E d   1      16.790   0.866   5.303  0.00  0.00    -0.306 OA
BRANCH  15  16
ATOM     16  C29 32E d   1      16.782  -0.075   4.268  0.00  0.00     0.077 A 
ATOM     17  C30 32E d   1      15.924  -1.154   4.212  0.00  0.00    -0.050 A 
ATOM     18  C31 32E d   1      15.988  -2.065   3.170  0.00  0.00    -0.079 A 
ATOM     19  H   32E d   1      15.188  -1.291   4.996  0.00  0.00     0.087 H 
ATOM     20  C32 32E d   1      16.930  -1.883   2.168  0.00  0.00    -0.062 A 
ATOM     21  H   32E d   1      15.310  -2.910   3.138  0.00  0.00     0.083 H 
ATOM     22  C33 32E d   1      17.752  -0.773   2.223  0.00  0.00     0.036 A 
ATOM     23  H   32E d   1      17.020  -2.597   1.358  0.00  0.00     0.086 H 
ATOM     24  C34 32E d   1      17.705   0.135   3.264  0.00  0.00    -0.029 A 
ATOM     25 CL   32E d   1      18.898  -0.494   0.979  0.00  0.00    -0.084 Cl
ATOM     26  H   32E d   1      18.374   0.988   3.291  0.00  0.00     0.090 H 
ENDBRANCH  15  16
ENDBRANCH   9  15
ENDBRANCH   1   3
BRANCH   1  27
ATOM     27  C17 32E d   1      12.018   4.174   6.516  0.00  0.00    -0.031 C 
ATOM     28  H   32E d   1      11.664   3.741   7.463  0.00  0.00     0.037 H 
ATOM     29  H   32E d   1      11.191   4.709   6.026  0.00  0.00     0.037 H 
BRANCH  27  30
ATOM     30  C18 32E d   1      13.107   5.185   6.839  0.00  0.00    -0.059 C 
ATOM     31  H   32E d   1      13.885   4.667   7.418  0.00  0.00     0.038 H 
BRANCH  30  32
ATOM     32  C19 32E d   1      13.767   5.786   5.612  0.00  0.00    -0.073 C 
ATOM     33  H   32E d   1      14.539   6.504   5.926  0.00  0.00     0.028 H 
ATOM     34  H   32E d   1      13.010   6.304   5.005  0.00  0.00     0.028 H 
ATOM     35  H   32E d   1      14.230   4.986   5.016  0.00  0.00     0.028 H 
ENDBRANCH  30  32
BRANCH  30  36
ATOM     36  C20 32E d   1      12.523   6.293   7.695  0.00  0.00    -0.073 C 
ATOM     37  H   32E d   1      12.045   5.856   8.584  0.00  0.00     0.028 H 
ATOM     38  H   32E d   1      11.774   6.850   7.113  0.00  0.00     0.028 H 
ATOM     39  H   32E d   1      13.326   6.976   8.009  0.00  0.00     0.028 H 
ENDBRANCH  30  36
ENDBRANCH  27  30
ENDBRANCH   1  27
BRANCH   1  40
ATOM     40  N14 32E d   1      11.267   2.282   5.073  0.00  0.00    -0.061 N 
ATOM     41  C13 32E d   1      10.561   1.420   6.044  0.00  0.00     0.084 C 
ATOM     42  C12 32E d   1       9.276   0.888   5.435  0.00  0.00    -0.040 C 
ATOM     43  H   32E d   1      11.210   0.575   6.319  0.00  0.00     0.076 H 
ATOM     44  H   32E d   1      10.321   2.006   6.943  0.00  0.00     0.076 H 
ATOM     45  C11 32E d   1       9.652   0.057   4.216  0.00  0.00    -0.043 C 
ATOM     46  H   32E d   1       8.746   0.261   6.167  0.00  0.00     0.035 H 
ATOM     47  H   32E d   1       8.630   1.725   5.133  0.00  0.00     0.035 H 
ATOM     48  C10 32E d   1      10.482   0.887   3.230  0.00  0.00     0.044 C 
ATOM     49  H   32E d   1       8.734  -0.286   3.716  0.00  0.00     0.036 H 
ATOM     50  H   32E d   1      10.241  -0.814   4.540  0.00  0.00     0.036 H 
ATOM     51  C15 32E d   1      11.701   1.490   3.919  0.00  0.00     0.103 C 
ATOM     52  H   32E d   1       9.845   1.716   2.888  0.00  0.00     0.076 H 
ATOM     53  H   32E d   1      12.239   2.138   3.211  0.00  0.00     0.079 H 
ATOM     54  H   32E d   1      12.367   0.683   4.258  0.00  0.00     0.079 H 
ATOM     55  H   32E d   1      10.602   2.970   4.755  0.00  0.00     0.280 HD
BRANCH  48  56
ATOM     56  N4  32E d   1      10.891   0.136   2.044  0.00  0.00    -0.303 N 
ATOM     57  C3  32E d   1      11.453  -1.125   2.147  0.00  0.00    -0.004 A 
ATOM     58  C2  32E d   1      11.838  -1.875   1.097  0.00  0.00     0.022 A 
ATOM     59  H   32E d   1      11.593  -1.538   3.145  0.00  0.00     0.112 H 
ATOM     60  C8  32E d   1      11.620  -1.291  -0.249  0.00  0.00     0.256 A 
ATOM     61  N7  32E d   1      11.088  -0.003  -0.268  0.00  0.00    -0.275 N 
ATOM     62  O9  32E d   1      11.899  -1.899  -1.282  0.00  0.00    -0.267 OA
ATOM     63  C5  32E d   1      10.732   0.763   0.824  0.00  0.00     0.329 A 
ATOM     64  H   32E d   1      10.949   0.410  -1.168  0.00  0.00     0.173 HD
ATOM     65  O6  32E d   1      10.332   1.920   0.708  0.00  0.00    -0.246 OA
BRANCH  58  66
ATOM     66  C1  32E d   1      12.441  -3.243   1.231  0.00  0.00    -0.045 C 
ATOM     67  H   32E d   1      12.524  -3.504   2.296  0.00  0.00     0.033 H 
ATOM     68  H   32E d   1      13.441  -3.249   0.773  0.00  0.00     0.033 H 
ATOM     69  H   32E d   1      11.800  -3.978   0.722  0.00  0.00     0.033 H 
ENDBRANCH  58  66
ENDBRANCH  48  56
ENDBRANCH   1  40
TORSDOF 11
