REMARK WARNING: 32 MAX_TORS EXCEEDED!!!
REMARK  48 active torsions:
REMARK  status: ('A' for Active; 'I' for Inactive)
REMARK    1  A    between atoms: N_1  and  CA_2 
REMARK    2  A    between atoms: CA_2  and  C_3 
REMARK    3  A    between atoms: CA_2  and  CB_5 
REMARK       I    between atoms: C_3  and  N_6 
REMARK    4  A    between atoms: N_6  and  CA_7 
REMARK    5  A    between atoms: CA_7  and  C_8 
REMARK    6  A    between atoms: CA_7  and  CB_10 
REMARK       I    between atoms: C_8  and  N_18 
REMARK    7  A    between atoms: CB_10  and  CG_11 
REMARK    8  A    between atoms: CZ_16  and  OH_17 
REMARK    9  A    between atoms: N_18  and  CA_19 
REMARK   10  A    between atoms: CA_19  and  C_20 
REMARK   11  A    between atoms: CA_19  and  CB_22 
REMARK       I    between atoms: C_20  and  N_25 
REMARK   12  A    between atoms: CB_22  and  OG1_23 
REMARK   13  A    between atoms: CB_22  and  CG2_24 
REMARK   14  A    between atoms: N_25  and  CA_26 
REMARK   15  A    between atoms: CA_26  and  C_27 
REMARK   16  A    between atoms: CA_26  and  CB_29 
REMARK       I    between atoms: C_27  and  N_33 
REMARK   17  A    between atoms: CB_29  and  CG1_30 
REMARK   18  A    between atoms: CB_29  and  CG2_31 
REMARK   19  A    between atoms: CG1_30  and  CD1_32 
REMARK   20  A    between atoms: N_33  and  CA_34 
REMARK   21  A    between atoms: CA_34  and  C_35 
REMARK   22  A    between atoms: CA_34  and  CB_37 
REMARK       I    between atoms: C_35  and  N_39 
REMARK   23  A    between atoms: CB_37  and  SG_38 
REMARK   24  A    between atoms: N_39  and  CA_40 
REMARK   25  A    between atoms: CA_40  and  C_41 
REMARK   26  A    between atoms: CA_40  and  CB_43 
REMARK       I    between atoms: C_41  and  N_44 
REMARK   27  A    between atoms: N_44  and  CA_45 
REMARK   28  A    between atoms: CA_45  and  C_46 
REMARK       I    between atoms: C_46  and  N_48 
REMARK   29  A    between atoms: N_48  and  CA_49 
REMARK   30  A    between atoms: CA_49  and  C_50 
REMARK   31  A    between atoms: CA_49  and  CB_52 
REMARK       I    between atoms: C_50  and  N_55 
REMARK   32  A    between atoms: CB_52  and  OG1_53 
REMARK   33  A    between atoms: CB_52  and  CG2_54 
REMARK   34  A    between atoms: N_55  and  CA_56 
REMARK   35  A    between atoms: CA_56  and  C_57 
REMARK   36  A    between atoms: CA_56  and  CB_59 
REMARK       I    between atoms: C_57  and  N_64 
REMARK   37  A    between atoms: CB_59  and  CG_60 
REMARK   38  A    between atoms: CG_60  and  CD_61 
REMARK       I    between atoms: CD_61  and  NE2_63 
REMARK   39  A    between atoms: N_64  and  CA_65 
REMARK   40  A    between atoms: CA_65  and  C_66 
REMARK   41  A    between atoms: CA_65  and  CB_68 
REMARK       I    between atoms: C_66  and  N_71 
REMARK   42  A    between atoms: CB_68  and  OG1_69 
REMARK   43  A    between atoms: CB_68  and  CG2_70 
REMARK   44  A    between atoms: N_71  and  CA_72 
REMARK   45  A    between atoms: CA_72  and  C_73 
REMARK   46  A    between atoms: CA_72  and  CB_75 
REMARK       I    between atoms: C_73  and  N_79 
REMARK   47  A    between atoms: CB_75  and  CG_76 
REMARK   48  A    between atoms: CA_80  and  C_81 
ROOT
ATOM      1  CA  ALA d   1     -29.887  -9.096  13.821  0.00  0.00     0.086 C 
ATOM      2  H   ALA d   1     -29.877  -9.154  14.919  0.00  0.00     0.086 H 
ENDROOT
BRANCH   1   3
ATOM      3  N   ALA d   1     -30.400 -10.363  13.290  0.00  0.00    -0.346 N 
ATOM      4  C   CYS d   1     -30.254 -11.507  13.951  0.00  0.00     0.241 C 
ATOM      5  O   CYS d   1     -29.592 -11.601  14.988  0.00  0.00    -0.271 OA
ATOM      6  H   ALA d   1     -30.872 -10.367  12.408  0.00  0.00     0.163 HD
BRANCH   4   7
ATOM      7  CA  CYS d   1     -30.944 -12.730  13.353  0.00  0.00     0.097 C 
ATOM      8  H   CYS d   1     -31.012 -12.602  12.263  0.00  0.00     0.088 H 
BRANCH   7   9
ATOM      9  N   CYS d   1     -30.188 -13.943  13.637  0.00  0.00    -0.345 N 
ATOM     10  C   ILE d   1     -29.303 -14.418  12.770  0.00  0.00     0.241 C 
ATOM     11  O   ILE d   1     -29.117 -13.907  11.673  0.00  0.00    -0.271 OA
ATOM     12  H   CYS d   1     -30.339 -14.425  14.500  0.00  0.00     0.163 HD
BRANCH  10  13
ATOM     13  CA  ILE d   1     -28.527 -15.664  13.178  0.00  0.00     0.092 C 
ATOM     14  H   ILE d   1     -29.200 -16.352  13.711  0.00  0.00     0.088 H 
BRANCH  13  15
ATOM     15  N   ILE d   1     -28.057 -16.309  11.948  0.00  0.00    -0.346 N 
ATOM     16  C   THR d   1     -27.880 -17.623  11.848  0.00  0.00     0.243 C 
ATOM     17  O   THR d   1     -28.049 -18.401  12.787  0.00  0.00    -0.271 OA
ATOM     18  H   ILE d   1     -27.861 -15.737  11.151  0.00  0.00     0.163 HD
BRANCH  16  19
ATOM     19  CA  THR d   1     -27.434 -18.119  10.473  0.00  0.00     0.113 C 
ATOM     20  H   THR d   1     -26.743 -17.360  10.078  0.00  0.00     0.091 H 
BRANCH  19  21
ATOM     21  N   THR d   1     -26.684 -19.378  10.497  0.00  0.00    -0.344 N 
ATOM     22  C   TYR d   1     -25.427 -19.405  10.064  0.00  0.00     0.241 C 
ATOM     23  O   TYR d   1     -24.811 -18.384   9.735  0.00  0.00    -0.271 OA
ATOM     24  H   THR d   1     -27.116 -20.213  10.838  0.00  0.00     0.163 HD
BRANCH  22  25
ATOM     25  CA  TYR d   1     -24.743 -20.760   9.986  0.00  0.00     0.093 C 
ATOM     26  H   TYR d   1     -24.193 -20.937  10.922  0.00  0.00     0.088 H 
BRANCH  25  27
ATOM     27  N   TYR d   1     -25.700 -21.848   9.804  0.00  0.00    -0.346 N 
ATOM     28  C   ASN d   1     -25.811 -22.850  10.679  0.00  0.00     0.248 C 
ATOM     29  O   ASN d   1     -25.152 -22.913  11.720  0.00  0.00    -0.271 OA
ATOM     30  H   TYR d   1     -26.291 -21.842   8.998  0.00  0.00     0.163 HD
BRANCH  28  31
ATOM     31  CA  ASN d   1     -26.809 -23.955  10.325  0.00  0.00     0.172 C 
ATOM     32  H   ASN d   1     -27.355 -23.649   9.421  0.00  0.00     0.098 H 
BRANCH  31  33
ATOM     33  N   ASN d   1     -26.120 -25.211  10.041  0.00  0.00    -0.067 N 
ATOM     34  H   ASN d   1     -26.797 -25.921   9.811  0.00  0.00     0.275 HD
ATOM     35  H   ASN d   1     -25.595 -25.497  10.853  0.00  0.00     0.275 HD
ATOM     36  H   ASN d   1     -25.492 -25.081   9.263  0.00  0.00     0.275 HD
ENDBRANCH  31  33
BRANCH  31  37
ATOM     37  CB  ASN d   1     -27.818 -24.149  11.455  0.00  0.00    -0.042 C 
ATOM     38  H   ASN d   1     -28.329 -23.196  11.658  0.00  0.00     0.030 H 
ATOM     39  H   ASN d   1     -27.293 -24.484  12.362  0.00  0.00     0.030 H 
ATOM     40  H   ASN d   1     -28.559 -24.906  11.159  0.00  0.00     0.030 H 
ENDBRANCH  31  37
ENDBRANCH  28  31
ENDBRANCH  25  27
BRANCH  25  41
ATOM     41  CB  TYR d   1     -23.751 -20.705   8.822  0.00  0.00    -0.014 C 
ATOM     42  H   TYR d   1     -22.980 -19.959   9.065  0.00  0.00     0.043 H 
ATOM     43  H   TYR d   1     -24.297 -20.388   7.921  0.00  0.00     0.043 H 
BRANCH  41  44
ATOM     44  CG  TYR d   1     -23.064 -22.006   8.518  0.00  0.00    -0.056 A 
ATOM     45  CD1 TYR d   1     -22.316 -22.654   9.486  0.00  0.00    -0.074 A 
ATOM     46  CE1 TYR d   1     -21.675 -23.837   9.214  0.00  0.00    -0.051 A 
ATOM     47  H   TYR d   1     -22.235 -22.220  10.476  0.00  0.00     0.084 H 
ATOM     48  CZ  TYR d   1     -21.767 -24.388   7.950  0.00  0.00     0.065 A 
ATOM     49  H   TYR d   1     -21.100 -24.336   9.986  0.00  0.00     0.087 H 
ATOM     50  CE2 TYR d   1     -22.496 -23.761   6.960  0.00  0.00    -0.051 A 
ATOM     51  CD2 TYR d   1     -23.138 -22.574   7.246  0.00  0.00    -0.074 A 
ATOM     52  H   TYR d   1     -22.563 -24.196   5.969  0.00  0.00     0.087 H 
ATOM     53  H   TYR d   1     -23.708 -22.075   6.471  0.00  0.00     0.084 H 
BRANCH  48  54
ATOM     54  OH  TYR d   1     -21.118 -25.575   7.697  0.00  0.00    -0.361 OA
ATOM     55  H   TYR d   1     -20.669 -25.863   8.483  0.00  0.00     0.217 HD
ENDBRANCH  48  54
ENDBRANCH  41  44
ENDBRANCH  25  41
ENDBRANCH  22  25
ENDBRANCH  19  21
BRANCH  19  56
ATOM     56  CB  THR d   1     -28.641 -18.176   9.503  0.00  0.00     0.060 C 
ATOM     57  H   THR d   1     -29.128 -17.190   9.487  0.00  0.00     0.086 H 
BRANCH  56  58
ATOM     58  OG1 THR d   1     -29.585 -19.152   9.950  0.00  0.00    -0.393 OA
ATOM     59  H   THR d   1     -29.893 -18.919  10.818  0.00  0.00     0.210 HD
ENDBRANCH  56  58
BRANCH  56  60
ATOM     60  CG2 THR d   1     -28.176 -18.522   8.081  0.00  0.00    -0.050 C 
ATOM     61  H   THR d   1     -29.046 -18.558   7.409  0.00  0.00     0.031 H 
ATOM     62  H   THR d   1     -27.677 -19.502   8.087  0.00  0.00     0.031 H 
ATOM     63  H   THR d   1     -27.472 -17.754   7.729  0.00  0.00     0.031 H 
ENDBRANCH  56  60
ENDBRANCH  19  56
ENDBRANCH  16  19
ENDBRANCH  13  15
BRANCH  13  64
ATOM     64  CB  ILE d   1     -27.346 -15.300  14.123  0.00  0.00    -0.030 C 
ATOM     65  H   ILE d   1     -26.714 -16.195  14.220  0.00  0.00     0.043 H 
BRANCH  64  66
ATOM     66  CG1 ILE d   1     -27.839 -14.922  15.525  0.00  0.00    -0.063 C 
ATOM     67  H   ILE d   1     -28.596 -14.130  15.429  0.00  0.00     0.033 H 
ATOM     68  H   ILE d   1     -26.985 -14.545  16.108  0.00  0.00     0.033 H 
BRANCH  66  69
ATOM     69  CD1 ILE d   1     -28.453 -16.089  16.267  0.00  0.00    -0.076 C 
ATOM     70  H   ILE d   1     -28.786 -15.757  17.261  0.00  0.00     0.027 H 
ATOM     71  H   ILE d   1     -27.704 -16.887  16.379  0.00  0.00     0.027 H 
ATOM     72  H   ILE d   1     -29.315 -16.471  15.700  0.00  0.00     0.027 H 
ENDBRANCH  66  69
ENDBRANCH  64  66
BRANCH  64  73
ATOM     73  CG2 ILE d   1     -26.481 -14.180  13.544  0.00  0.00    -0.071 C 
ATOM     74  H   ILE d   1     -26.136 -14.466  12.540  0.00  0.00     0.028 H 
ATOM     75  H   ILE d   1     -25.612 -14.013  14.197  0.00  0.00     0.028 H 
ATOM     76  H   ILE d   1     -27.073 -13.255  13.479  0.00  0.00     0.028 H 
ENDBRANCH  64  73
ENDBRANCH  13  64
ENDBRANCH  10  13
ENDBRANCH   7   9
BRANCH   7  77
ATOM     77  CB  CYS d   1     -32.354 -12.852  13.930  0.00  0.00     0.001 C 
ATOM     78  H   CYS d   1     -32.877 -11.897  13.771  0.00  0.00     0.052 H 
ATOM     79  H   CYS d   1     -32.271 -13.050  15.009  0.00  0.00     0.052 H 
BRANCH  77  80
ATOM     80  SG  CYS d   1     -33.332 -14.161  13.190  0.00  0.00    -0.180 SA
ATOM     81  H   CYS d   1     -34.244 -14.181  13.619  0.00  0.00     0.101 HD
ENDBRANCH  77  80
ENDBRANCH   7  77
ENDBRANCH   4   7
ENDBRANCH   1   3
BRANCH   1  82
ATOM     82  C   ALA d   1     -30.799  -7.966  13.397  0.00  0.00     0.240 C 
ATOM     83  O   ALA d   1     -31.444  -8.050  12.352  0.00  0.00    -0.271 OA
ATOM     84  N   GLY d   1     -30.838  -6.908  14.202  0.00  0.00    -0.351 N 
ATOM     85  H   GLY d   1     -30.324  -6.926  15.059  0.00  0.00     0.163 HD
BRANCH  84  86
ATOM     86  CA  GLY d   1     -31.613  -5.726  13.861  0.00  0.00     0.069 C 
ATOM     87  H   GLY d   1     -32.397  -5.588  14.620  0.00  0.00     0.078 H 
ATOM     88  H   GLY d   1     -32.079  -5.883  12.877  0.00  0.00     0.078 H 
BRANCH  86  89
ATOM     89  C   GLY d   1     -30.767  -4.467  13.802  0.00  0.00     0.236 C 
ATOM     90  O   GLY d   1     -29.726  -4.399  14.452  0.00  0.00    -0.272 OA
ATOM     91  N   THR d   1     -31.197  -3.471  13.024  0.00  0.00    -0.344 N 
ATOM     92  H   THR d   1     -32.017  -3.604  12.467  0.00  0.00     0.163 HD
BRANCH  91  93
ATOM     93  CA  THR d   1     -30.491  -2.185  12.970  0.00  0.00     0.113 C 
ATOM     94  H   THR d   1     -29.796  -2.151  13.822  0.00  0.00     0.091 H 
BRANCH  93  95
ATOM     95  C   THR d   1     -31.471  -1.029  13.097  0.00  0.00     0.243 C 
ATOM     96  O   THR d   1     -32.654  -1.174  12.777  0.00  0.00    -0.271 OA
ATOM     97  N   GLN d   1     -30.972   0.115  13.559  0.00  0.00    -0.346 N 
ATOM     98  H   GLN d   1     -30.014   0.144  13.843  0.00  0.00     0.163 HD
BRANCH  97  99
ATOM     99  CA  GLN d   1     -31.772   1.325  13.665  0.00  0.00     0.090 C 
ATOM    100  H   GLN d   1     -32.620   1.281  12.965  0.00  0.00     0.087 H 
BRANCH  99 101
ATOM    101  C   GLN d   1     -30.868   2.501  13.314  0.00  0.00     0.241 C 
ATOM    102  O   GLN d   1     -29.739   2.570  13.802  0.00  0.00    -0.271 OA
ATOM    103  N   THR d   1     -31.340   3.414  12.466  0.00  0.00    -0.344 N 
ATOM    104  H   THR d   1     -32.235   3.275  12.042  0.00  0.00     0.163 HD
BRANCH 103 105
ATOM    105  CA  THR d   1     -30.570   4.618  12.145  0.00  0.00     0.113 C 
ATOM    106  H   THR d   1     -29.526   4.318  11.972  0.00  0.00     0.091 H 
BRANCH 105 107
ATOM    107  C   THR d   1     -30.610   5.589  13.325  0.00  0.00     0.243 C 
ATOM    108  O   THR d   1     -31.548   5.556  14.127  0.00  0.00    -0.271 OA
ATOM    109  N   ASP d   1     -29.585   6.433  13.427  0.00  0.00    -0.345 N 
ATOM    110  H   ASP d   1     -28.850   6.383  12.751  0.00  0.00     0.163 HD
BRANCH 109 111
ATOM    111  CA  ASP d   1     -29.495   7.430  14.492  0.00  0.00     0.099 C 
ATOM    112  H   ASP d   1     -29.637   6.935  15.464  0.00  0.00     0.088 H 
BRANCH 111 113
ATOM    113  C   ASP d   1     -30.579   8.488  14.307  0.00  0.00     0.244 C 
ATOM    114  O   ASP d   1     -31.060   8.686  13.190  0.00  0.00    -0.271 OA
ATOM    115  N   PRO d   1     -30.967   9.172  15.403  0.00  0.00    -0.336 N 
ATOM    116  CA  PRO d   1     -32.055  10.162  15.374  0.00  0.00     0.098 C 
ATOM    117  CD  PRO d   1     -30.421   8.986  16.760  0.00  0.00    -0.001 C 
ATOM    118  CB  PRO d   1     -32.038  10.754  16.790  0.00  0.00    -0.035 C 
ATOM    119  H   PRO d   1     -33.016   9.670  15.161  0.00  0.00     0.089 H 
ATOM    120  CG  PRO d   1     -31.403   9.730  17.640  0.00  0.00    -0.048 C 
ATOM    121  H   PRO d   1     -33.063  10.957  17.134  0.00  0.00     0.036 H 
ATOM    122  H   PRO d   1     -31.454  11.686  16.810  0.00  0.00     0.036 H 
ATOM    123  H   PRO d   1     -32.163   9.037  18.031  0.00  0.00     0.035 H 
ATOM    124  H   PRO d   1     -30.875  10.207  18.479  0.00  0.00     0.035 H 
ATOM    125  H   PRO d   1     -29.413   9.419  16.841  0.00  0.00     0.064 H 
ATOM    126  H   PRO d   1     -30.384   7.919  17.026  0.00  0.00     0.064 H 
BRANCH 116 127
ATOM    127  C   PRO d   1     -31.822  11.277  14.355  0.00  0.00     0.196 C 
ATOM    128  O   PRO d   1     -30.684  11.692  14.114  0.00  0.00    -0.646 OA
ATOM    129  OXT PRO d   1     -32.768  11.788  13.746  0.00  0.00    -0.646 OA
ENDBRANCH 116 127
ENDBRANCH 111 113
BRANCH 111 130
ATOM    130  CB  ASP d   1     -28.109   8.087  14.458  0.00  0.00     0.043 C 
ATOM    131  H   ASP d   1     -28.125   8.979  15.102  0.00  0.00     0.052 H 
ATOM    132  H   ASP d   1     -27.886   8.386  13.423  0.00  0.00     0.052 H 
BRANCH 130 133
ATOM    133  CG  ASP d   1     -27.018   7.162  14.940  0.00  0.00     0.175 C 
ATOM    134  OD1 ASP d   1     -27.349   6.175  15.625  0.00  0.00    -0.648 OA
ATOM    135  OD2 ASP d   1     -25.835   7.435  14.643  0.00  0.00    -0.648 OA
ENDBRANCH 130 133
ENDBRANCH 111 130
ENDBRANCH 109 111
ENDBRANCH 105 107
BRANCH 105 136
ATOM    136  CB  THR d   1     -31.086   5.332  10.861  0.00  0.00     0.060 C 
ATOM    137  H   THR d   1     -30.693   6.359  10.845  0.00  0.00     0.086 H 
BRANCH 136 138
ATOM    138  OG1 THR d   1     -32.520   5.375  10.879  0.00  0.00    -0.393 OA
ATOM    139  H   THR d   1     -32.812   5.853  11.646  0.00  0.00     0.210 HD
ENDBRANCH 136 138
BRANCH 136 140
ATOM    140  CG2 THR d   1     -30.615   4.594   9.573  0.00  0.00    -0.050 C 
ATOM    141  H   THR d   1     -30.996   5.123   8.687  0.00  0.00     0.031 H 
ATOM    142  H   THR d   1     -31.001   3.564   9.579  0.00  0.00     0.031 H 
ATOM    143  H   THR d   1     -29.516   4.574   9.543  0.00  0.00     0.031 H 
ENDBRANCH 136 140
ENDBRANCH 105 136
ENDBRANCH 103 105
ENDBRANCH  99 101
BRANCH  99 144
ATOM    144  CB  GLN d   1     -32.299   1.465  15.103  0.00  0.00    -0.030 C 
ATOM    145  H   GLN d   1     -31.436   1.454  15.785  0.00  0.00     0.037 H 
ATOM    146  H   GLN d   1     -32.945   0.600  15.315  0.00  0.00     0.037 H 
BRANCH 144 147
ATOM    147  CG  GLN d   1     -33.104   2.736  15.378  0.00  0.00     0.011 C 
ATOM    148  H   GLN d   1     -32.516   3.600  15.037  0.00  0.00     0.047 H 
ATOM    149  H   GLN d   1     -33.273   2.812  16.462  0.00  0.00     0.047 H 
BRANCH 147 150
ATOM    150  CD  GLN d   1     -34.454   2.768  14.679  0.00  0.00     0.215 C 
ATOM    151  OE1 GLN d   1     -34.992   1.734  14.269  0.00  0.00    -0.274 OA
ATOM    152  NE2 GLN d   1     -35.015   3.970  14.542  0.00  0.00    -0.370 N 
ATOM    153  H   GLN d   1     -35.903   4.059  14.091  0.00  0.00     0.159 HD
ATOM    154  H   GLN d   1     -34.548   4.782  14.890  0.00  0.00     0.159 HD
ENDBRANCH 147 150
ENDBRANCH 144 147
ENDBRANCH  99 144
ENDBRANCH  97  99
ENDBRANCH  93  95
BRANCH  93 155
ATOM    155  CB  THR d   1     -29.671  -1.988  11.674  0.00  0.00     0.060 C 
ATOM    156  H   THR d   1     -29.082  -1.064  11.772  0.00  0.00     0.086 H 
BRANCH 155 157
ATOM    157  OG1 THR d   1     -30.552  -1.857  10.552  0.00  0.00    -0.393 OA
ATOM    158  H   THR d   1     -31.080  -2.643  10.472  0.00  0.00     0.210 HD
ENDBRANCH 155 157
BRANCH 155 159
ATOM    159  CG2 THR d   1     -28.713  -3.151  11.438  0.00  0.00    -0.050 C 
ATOM    160  H   THR d   1     -28.148  -2.978  10.510  0.00  0.00     0.031 H 
ATOM    161  H   THR d   1     -29.286  -4.086  11.349  0.00  0.00     0.031 H 
ATOM    162  H   THR d   1     -28.014  -3.228  12.284  0.00  0.00     0.031 H 
ENDBRANCH 155 159
ENDBRANCH  93 155
ENDBRANCH  91  93
ENDBRANCH  86  89
ENDBRANCH  84  86
ENDBRANCH   1  82
BRANCH   1 163
ATOM    163  CB  ALA d   1     -28.464  -8.823  13.335  0.00  0.00    -0.049 C 
ATOM    164  H   ALA d   1     -28.111  -7.868  13.751  0.00  0.00     0.030 H 
ATOM    165  H   ALA d   1     -28.456  -8.770  12.236  0.00  0.00     0.030 H 
ATOM    166  H   ALA d   1     -27.801  -9.635  13.668  0.00  0.00     0.030 H 
ENDBRANCH   1 163
TORSDOF 48
