REMARK WARNING: 32 MAX_TORS EXCEEDED!!!
REMARK  47 active torsions:
REMARK  status: ('A' for Active; 'I' for Inactive)
REMARK    1  A    between atoms: N_1  and  CA_2 
REMARK    2  A    between atoms: CA_2  and  C_3 
REMARK    3  A    between atoms: CA_2  and  CB_5 
REMARK       I    between atoms: C_3  and  N_6 
REMARK    4  A    between atoms: N_6  and  CA_7 
REMARK    5  A    between atoms: CA_7  and  C_8 
REMARK    6  A    between atoms: CA_7  and  CB_10 
REMARK       I    between atoms: C_8  and  N_12 
REMARK    7  A    between atoms: CB_10  and  OG_11 
REMARK    8  A    between atoms: N_12  and  CA_13 
REMARK    9  A    between atoms: CA_13  and  C_14 
REMARK   10  A    between atoms: CA_13  and  CB_16 
REMARK       I    between atoms: C_14  and  N_18 
REMARK   11  A    between atoms: CB_16  and  OG_17 
REMARK   12  A    between atoms: N_18  and  CA_19 
REMARK   13  A    between atoms: CA_19  and  C_20 
REMARK   14  A    between atoms: CA_19  and  CB_22 
REMARK       I    between atoms: C_20  and  N_25 
REMARK   15  A    between atoms: CB_22  and  OG1_23 
REMARK   16  A    between atoms: CB_22  and  CG2_24 
REMARK   17  A    between atoms: N_25  and  CA_26 
REMARK   18  A    between atoms: CA_26  and  C_27 
REMARK   19  A    between atoms: CA_26  and  CB_29 
REMARK       I    between atoms: C_27  and  N_32 
REMARK   20  A    between atoms: CB_29  and  OG1_30 
REMARK   21  A    between atoms: CB_29  and  CG2_31 
REMARK   22  A    between atoms: N_32  and  CA_33 
REMARK   23  A    between atoms: CA_33  and  C_34 
REMARK       I    between atoms: C_34  and  N_36 
REMARK   24  A    between atoms: N_36  and  CA_37 
REMARK   25  A    between atoms: CA_37  and  C_38 
REMARK   26  A    between atoms: CA_37  and  CB_40 
REMARK       I    between atoms: C_38  and  N_43 
REMARK   27  A    between atoms: CB_40  and  OG1_41 
REMARK   28  A    between atoms: CB_40  and  CG2_42 
REMARK   29  A    between atoms: N_43  and  CA_44 
REMARK   30  A    between atoms: CA_44  and  C_45 
REMARK   31  A    between atoms: CA_44  and  CB_47 
REMARK       I    between atoms: C_45  and  N_52 
REMARK   32  A    between atoms: CB_47  and  CG_48 
REMARK   33  A    between atoms: CG_48  and  CD_49 
REMARK       I    between atoms: CD_49  and  NE2_51 
REMARK   34  A    between atoms: N_52  and  CA_53 
REMARK   35  A    between atoms: CA_53  and  C_54 
REMARK   36  A    between atoms: CA_53  and  CB_56 
REMARK       I    between atoms: C_54  and  N_58 
REMARK   37  A    between atoms: CB_56  and  SG_57 
REMARK   38  A    between atoms: N_58  and  CA_59 
REMARK   39  A    between atoms: CA_59  and  C_60 
REMARK   40  A    between atoms: CA_59  and  CB_62 
REMARK       I    between atoms: C_60  and  N_66 
REMARK   41  A    between atoms: CB_62  and  CG_63 
REMARK   42  A    between atoms: N_66  and  CA_67 
REMARK   43  A    between atoms: CA_67  and  C_68 
REMARK   44  A    between atoms: CA_67  and  CB_70 
REMARK       I    between atoms: C_68  and  N_74 
REMARK   45  A    between atoms: CB_70  and  CG1_71 
REMARK   46  A    between atoms: CB_70  and  CG2_72 
REMARK   47  A    between atoms: CG1_71  and  CD1_73 
ROOT
ATOM      1  CA  THR d   1      -7.914  39.118  63.699  0.00  0.00     0.113 C 
ATOM      2  H   THR d   1      -7.814  40.200  63.867  0.00  0.00     0.091 H 
ENDROOT
BRANCH   1   3
ATOM      3  N   THR d   1      -8.979  38.889  62.727  0.00  0.00    -0.344 N 
ATOM      4  C   GLY d   1      -9.801  39.864  62.353  0.00  0.00     0.236 C 
ATOM      5  O   GLY d   1      -9.763  40.994  62.838  0.00  0.00    -0.272 OA
ATOM      6  H   THR d   1      -9.093  37.977  62.333  0.00  0.00     0.163 HD
BRANCH   4   7
ATOM      7  CA  GLY d   1     -10.823  39.517  61.285  0.00  0.00     0.069 C 
ATOM      8  H   GLY d   1     -10.377  39.698  60.296  0.00  0.00     0.078 H 
ATOM      9  H   GLY d   1     -11.087  38.453  61.379  0.00  0.00     0.078 H 
BRANCH   7  10
ATOM     10  N   GLY d   1     -12.031  40.311  61.406  0.00  0.00    -0.350 N 
ATOM     11  C   THR d   1     -13.166  39.794  61.864  0.00  0.00     0.243 C 
ATOM     12  O   THR d   1     -13.277  38.605  62.209  0.00  0.00    -0.271 OA
ATOM     13  H   GLY d   1     -12.009  41.274  61.137  0.00  0.00     0.163 HD
BRANCH  11  14
ATOM     14  CA  THR d   1     -14.352  40.771  61.935  0.00  0.00     0.113 C 
ATOM     15  H   THR d   1     -14.207  41.511  61.134  0.00  0.00     0.091 H 
BRANCH  14  16
ATOM     16  N   THR d   1     -15.649  40.140  61.696  0.00  0.00    -0.344 N 
ATOM     17  C   THR d   1     -16.632  40.802  61.089  0.00  0.00     0.243 C 
ATOM     18  O   THR d   1     -16.483  41.936  60.638  0.00  0.00    -0.271 OA
ATOM     19  H   THR d   1     -15.800  39.197  61.993  0.00  0.00     0.163 HD
BRANCH  17  20
ATOM     20  CA  THR d   1     -17.979  40.082  60.958  0.00  0.00     0.113 C 
ATOM     21  H   THR d   1     -17.913  39.132  61.508  0.00  0.00     0.091 H 
BRANCH  20  22
ATOM     22  N   THR d   1     -19.080  40.856  61.527  0.00  0.00    -0.344 N 
ATOM     23  C   SER d   1     -19.821  40.397  62.529  0.00  0.00     0.243 C 
ATOM     24  O   SER d   1     -19.585  39.332  63.103  0.00  0.00    -0.271 OA
ATOM     25  H   THR d   1     -19.282  41.760  61.150  0.00  0.00     0.163 HD
BRANCH  23  26
ATOM     26  CA  SER d   1     -21.004  41.275  62.945  0.00  0.00     0.109 C 
ATOM     27  H   SER d   1     -21.424  41.734  62.038  0.00  0.00     0.090 H 
BRANCH  26  28
ATOM     28  N   SER d   1     -22.054  40.484  63.578  0.00  0.00    -0.344 N 
ATOM     29  C   SER d   1     -23.318  40.539  63.168  0.00  0.00     0.243 C 
ATOM     30  O   SER d   1     -23.704  41.285  62.266  0.00  0.00    -0.271 OA
ATOM     31  H   SER d   1     -21.817  39.884  64.342  0.00  0.00     0.163 HD
BRANCH  29  32
ATOM     32  CA  SER d   1     -24.291  39.605  63.881  0.00  0.00     0.109 C 
ATOM     33  H   SER d   1     -23.916  39.437  64.901  0.00  0.00     0.090 H 
BRANCH  32  34
ATOM     34  N   SER d   1     -25.630  40.179  63.984  0.00  0.00    -0.344 N 
ATOM     35  C   TYR d   1     -26.162  40.528  65.154  0.00  0.00     0.248 C 
ATOM     36  O   TYR d   1     -25.549  40.457  66.220  0.00  0.00    -0.271 OA
ATOM     37  H   SER d   1     -26.164  40.314  63.150  0.00  0.00     0.163 HD
BRANCH  35  38
ATOM     38  CA  TYR d   1     -27.600  41.042  65.115  0.00  0.00     0.172 C 
ATOM     39  H   TYR d   1     -27.850  41.277  64.070  0.00  0.00     0.098 H 
BRANCH  38  40
ATOM     40  N   TYR d   1     -28.541  40.028  65.588  0.00  0.00    -0.067 N 
ATOM     41  H   TYR d   1     -29.479  40.396  65.550  0.00  0.00     0.275 HD
ATOM     42  H   TYR d   1     -28.316  39.778  66.538  0.00  0.00     0.275 HD
ATOM     43  H   TYR d   1     -28.477  39.211  65.001  0.00  0.00     0.275 HD
ENDBRANCH  38  40
BRANCH  38  44
ATOM     44  CB  TYR d   1     -27.730  42.323  65.935  0.00  0.00    -0.042 C 
ATOM     45  H   TYR d   1     -27.014  43.071  65.563  0.00  0.00     0.030 H 
ATOM     46  H   TYR d   1     -27.516  42.105  66.992  0.00  0.00     0.030 H 
ATOM     47  H   TYR d   1     -28.753  42.716  65.841  0.00  0.00     0.030 H 
ENDBRANCH  38  44
ENDBRANCH  35  38
ENDBRANCH  32  34
BRANCH  32  48
ATOM     48  CB  SER d   1     -24.338  38.255  63.156  0.00  0.00     0.044 C 
ATOM     49  H   SER d   1     -25.094  37.616  63.636  0.00  0.00     0.077 H 
ATOM     50  H   SER d   1     -23.352  37.774  63.230  0.00  0.00     0.077 H 
BRANCH  48  51
ATOM     51  OG  SER d   1     -24.672  38.417  61.787  0.00  0.00    -0.398 OA
ATOM     52  H   SER d   1     -24.020  38.965  61.366  0.00  0.00     0.209 HD
ENDBRANCH  48  51
ENDBRANCH  32  48
ENDBRANCH  29  32
ENDBRANCH  26  28
BRANCH  26  53
ATOM     53  CB  SER d   1     -20.537  42.396  63.876  0.00  0.00     0.044 C 
ATOM     54  H   SER d   1     -19.995  41.955  64.725  0.00  0.00     0.077 H 
ATOM     55  H   SER d   1     -21.416  42.944  64.246  0.00  0.00     0.077 H 
BRANCH  53  56
ATOM     56  OG  SER d   1     -19.679  43.300  63.199  0.00  0.00    -0.398 OA
ATOM     57  H   SER d   1     -19.405  43.984  63.799  0.00  0.00     0.209 HD
ENDBRANCH  53  56
ENDBRANCH  26  53
ENDBRANCH  23  26
ENDBRANCH  20  22
BRANCH  20  58
ATOM     58  CB  THR d   1     -18.256  39.770  59.478  0.00  0.00     0.060 C 
ATOM     59  H   THR d   1     -18.696  40.657  58.999  0.00  0.00     0.086 H 
BRANCH  58  60
ATOM     60  OG1 THR d   1     -19.172  38.672  59.381  0.00  0.00    -0.393 OA
ATOM     61  H   THR d   1     -18.794  37.908  59.800  0.00  0.00     0.210 HD
ENDBRANCH  58  60
BRANCH  58  62
ATOM     62  CG2 THR d   1     -16.980  39.408  58.773  0.00  0.00    -0.050 C 
ATOM     63  H   THR d   1     -17.194  39.188  57.717  0.00  0.00     0.031 H 
ATOM     64  H   THR d   1     -16.537  38.521  59.250  0.00  0.00     0.031 H 
ATOM     65  H   THR d   1     -16.275  40.250  58.836  0.00  0.00     0.031 H 
ENDBRANCH  58  62
ENDBRANCH  20  58
ENDBRANCH  17  20
ENDBRANCH  14  16
BRANCH  14  66
ATOM     66  CB  THR d   1     -14.332  41.537  63.288  0.00  0.00     0.060 C 
ATOM     67  H   THR d   1     -15.136  42.287  63.285  0.00  0.00     0.086 H 
BRANCH  66  68
ATOM     68  OG1 THR d   1     -13.071  42.198  63.456  0.00  0.00    -0.393 OA
ATOM     69  H   THR d   1     -13.066  42.663  64.284  0.00  0.00     0.210 HD
ENDBRANCH  66  68
BRANCH  66  70
ATOM     70  CG2 THR d   1     -14.549  40.584  64.442  0.00  0.00    -0.050 C 
ATOM     71  H   THR d   1     -14.531  41.144  65.388  0.00  0.00     0.031 H 
ATOM     72  H   THR d   1     -13.750  39.828  64.449  0.00  0.00     0.031 H 
ATOM     73  H   THR d   1     -15.524  40.087  64.329  0.00  0.00     0.031 H 
ENDBRANCH  66  70
ENDBRANCH  14  66
ENDBRANCH  11  14
ENDBRANCH   7  10
ENDBRANCH   4   7
ENDBRANCH   1   3
BRANCH   1  74
ATOM     74  C   THR d   1      -6.621  38.572  63.130  0.00  0.00     0.243 C 
ATOM     75  O   THR d   1      -6.644  37.642  62.334  0.00  0.00    -0.271 OA
ATOM     76  N   GLN d   1      -5.498  39.157  63.523  0.00  0.00    -0.346 N 
ATOM     77  H   GLN d   1      -5.546  39.953  64.126  0.00  0.00     0.163 HD
BRANCH  76  78
ATOM     78  CA  GLN d   1      -4.195  38.664  63.095  0.00  0.00     0.090 C 
ATOM     79  H   GLN d   1      -4.288  37.602  62.822  0.00  0.00     0.087 H 
BRANCH  78  80
ATOM     80  C   GLN d   1      -3.197  38.798  64.232  0.00  0.00     0.241 C 
ATOM     81  O   GLN d   1      -3.136  39.839  64.871  0.00  0.00    -0.271 OA
ATOM     82  N   CYS d   1      -2.432  37.739  64.502  0.00  0.00    -0.345 N 
ATOM     83  H   CYS d   1      -2.591  36.879  64.018  0.00  0.00     0.163 HD
BRANCH  82  84
ATOM     84  CA  CYS d   1      -1.362  37.820  65.498  0.00  0.00     0.097 C 
ATOM     85  H   CYS d   1      -1.098  38.882  65.611  0.00  0.00     0.088 H 
BRANCH  84  86
ATOM     86  C   CYS d   1      -0.118  37.080  65.034  0.00  0.00     0.241 C 
ATOM     87  O   CYS d   1      -0.205  36.121  64.268  0.00  0.00    -0.271 OA
ATOM     88  N   ASP d   1       1.037  37.549  65.493  0.00  0.00    -0.345 N 
ATOM     89  H   ASP d   1       1.037  38.397  66.023  0.00  0.00     0.163 HD
BRANCH  88  90
ATOM     90  CA  ASP d   1       2.301  36.873  65.251  0.00  0.00     0.098 C 
ATOM     91  H   ASP d   1       2.141  35.787  65.318  0.00  0.00     0.088 H 
BRANCH  90  92
ATOM     92  C   ASP d   1       3.277  37.296  66.338  0.00  0.00     0.241 C 
ATOM     93  O   ASP d   1       4.220  38.065  66.115  0.00  0.00    -0.271 OA
ATOM     94  N   ILE d   1       3.020  36.788  67.533  0.00  0.00    -0.346 N 
ATOM     95  H   ILE d   1       2.278  36.125  67.630  0.00  0.00     0.163 HD
BRANCH  94  96
ATOM     96  CA  ILE d   1       3.781  37.164  68.699  0.00  0.00     0.092 C 
ATOM     97  H   ILE d   1       4.841  37.241  68.414  0.00  0.00     0.088 H 
BRANCH  96  98
ATOM     98  C   ILE d   1       3.650  36.037  69.718  0.00  0.00     0.238 C 
ATOM     99  O   ILE d   1       2.587  35.825  70.316  0.00  0.00    -0.271 OA
ATOM    100  N   ALA d   1       4.728  35.272  69.857  0.00  0.00    -0.368 N 
ATOM    101  H   ALA d   1       4.721  34.511  70.506  0.00  0.00     0.159 HD
ATOM    102  H   ALA d   1       5.546  35.457  69.312  0.00  0.00     0.159 HD
ENDBRANCH  96  98
BRANCH  96 103
ATOM    103  CB  ILE d   1       3.341  38.574  69.239  0.00  0.00    -0.030 C 
ATOM    104  H   ILE d   1       3.387  39.261  68.381  0.00  0.00     0.043 H 
BRANCH 103 105
ATOM    105  CG1 ILE d   1       4.346  39.120  70.269  0.00  0.00    -0.063 C 
ATOM    106  H   ILE d   1       4.641  38.297  70.937  0.00  0.00     0.033 H 
ATOM    107  H   ILE d   1       3.850  39.908  70.855  0.00  0.00     0.033 H 
BRANCH 105 108
ATOM    108  CD1 ILE d   1       5.612  39.709  69.639  0.00  0.00    -0.076 C 
ATOM    109  H   ILE d   1       6.279  40.077  70.432  0.00  0.00     0.027 H 
ATOM    110  H   ILE d   1       5.338  40.542  68.975  0.00  0.00     0.027 H 
ATOM    111  H   ILE d   1       6.128  38.931  69.058  0.00  0.00     0.027 H 
ENDBRANCH 105 108
ENDBRANCH 103 105
BRANCH 103 112
ATOM    112  CG2 ILE d   1       1.864  38.592  69.712  0.00  0.00    -0.071 C 
ATOM    113  H   ILE d   1       1.220  38.187  68.918  0.00  0.00     0.028 H 
ATOM    114  H   ILE d   1       1.563  39.626  69.936  0.00  0.00     0.028 H 
ATOM    115  H   ILE d   1       1.761  37.976  70.618  0.00  0.00     0.028 H 
ENDBRANCH 103 112
ENDBRANCH  96 103
ENDBRANCH  94  96
ENDBRANCH  90  92
BRANCH  90 116
ATOM    116  CB  ASP d   1       2.854  37.189  63.861  0.00  0.00     0.043 C 
ATOM    117  H   ASP d   1       3.206  38.231  63.849  0.00  0.00     0.052 H 
ATOM    118  H   ASP d   1       2.047  37.066  63.123  0.00  0.00     0.052 H 
BRANCH 116 119
ATOM    119  CG  ASP d   1       4.006  36.281  63.479  0.00  0.00     0.175 C 
ATOM    120  OD1 ASP d   1       4.233  35.268  64.188  0.00  0.00    -0.648 OA
ATOM    121  OD2 ASP d   1       4.684  36.580  62.473  0.00  0.00    -0.648 OA
ENDBRANCH 116 119
ENDBRANCH  90 116
ENDBRANCH  88  90
ENDBRANCH  84  86
BRANCH  84 122
ATOM    122  CB  CYS d   1      -1.808  37.304  66.878  0.00  0.00     0.001 C 
ATOM    123  H   CYS d   1      -2.764  37.790  67.122  0.00  0.00     0.052 H 
ATOM    124  H   CYS d   1      -1.045  37.608  67.610  0.00  0.00     0.052 H 
BRANCH 122 125
ATOM    125  SG  CYS d   1      -2.045  35.509  67.045  0.00  0.00    -0.180 SA
ATOM    126  H   CYS d   1      -1.178  35.037  66.844  0.00  0.00     0.101 HD
ENDBRANCH 122 125
ENDBRANCH  84 122
ENDBRANCH  82  84
ENDBRANCH  78  80
BRANCH  78 127
ATOM    127  CB  GLN d   1      -3.700  39.449  61.874  0.00  0.00    -0.030 C 
ATOM    128  H   GLN d   1      -3.672  40.517  62.137  0.00  0.00     0.037 H 
ATOM    129  H   GLN d   1      -4.412  39.293  61.050  0.00  0.00     0.037 H 
BRANCH 127 130
ATOM    130  CG  GLN d   1      -2.309  39.036  61.391  0.00  0.00     0.011 C 
ATOM    131  H   GLN d   1      -1.612  39.077  62.241  0.00  0.00     0.047 H 
ATOM    132  H   GLN d   1      -1.980  39.741  60.613  0.00  0.00     0.047 H 
BRANCH 130 133
ATOM    133  CD  GLN d   1      -2.294  37.630  60.814  0.00  0.00     0.215 C 
ATOM    134  OE1 GLN d   1      -3.193  37.250  60.070  0.00  0.00    -0.274 OA
ATOM    135  NE2 GLN d   1      -1.280  36.851  61.167  0.00  0.00    -0.370 N 
ATOM    136  H   GLN d   1      -1.222  35.916  60.816  0.00  0.00     0.159 HD
ATOM    137  H   GLN d   1      -0.574  37.198  61.784  0.00  0.00     0.159 HD
ENDBRANCH 130 133
ENDBRANCH 127 130
ENDBRANCH  78 127
ENDBRANCH  76  78
ENDBRANCH   1  74
BRANCH   1 138
ATOM    138  CB  THR d   1      -8.197  38.424  65.064  0.00  0.00     0.060 C 
ATOM    139  H   THR d   1      -7.398  38.700  65.768  0.00  0.00     0.086 H 
BRANCH 138 140
ATOM    140  OG1 THR d   1      -8.198  36.999  64.902  0.00  0.00    -0.393 OA
ATOM    141  H   THR d   1      -8.873  36.752  64.281  0.00  0.00     0.210 HD
ENDBRANCH 138 140
BRANCH 138 142
ATOM    142  CG2 THR d   1      -9.538  38.880  65.646  0.00  0.00    -0.050 C 
ATOM    143  H   THR d   1      -9.711  38.375  66.608  0.00  0.00     0.031 H 
ATOM    144  H   THR d   1     -10.347  38.624  64.947  0.00  0.00     0.031 H 
ATOM    145  H   THR d   1      -9.519  39.969  65.802  0.00  0.00     0.031 H 
ENDBRANCH 138 142
ENDBRANCH   1 138
TORSDOF 47
