REMARK  4 active torsions:
REMARK  status: ('A' for Active; 'I' for Inactive)
REMARK    1  A    between atoms: C3_3  and  C31_9 
REMARK    2  A    between atoms: C6_6  and  C7_7 
REMARK    3  A    between atoms: C7_7  and  O8_8 
REMARK    4  A    between atoms: C61_12  and  C62_13 
ROOT
ATOM      1  S1  33V d   1     -10.688  13.561  -1.173  0.00  0.00    -0.159 SA
ATOM      2  C2  33V d   1      -9.437  14.763  -1.574  0.00  0.00     0.013 C 
ATOM      3  C3  33V d   1      -9.305  15.227  -3.034  0.00  0.00     0.192 C 
ATOM      4  N4  33V d   1      -9.425  14.280  -4.115  0.00  0.00    -0.060 N 
ATOM      5  C5  33V d   1     -10.641  13.560  -4.177  0.00  0.00     0.089 C 
ATOM      6  C6  33V d   1     -10.496  12.181  -3.553  0.00  0.00     0.003 C 
ATOM      7  C61 33V d   1     -10.292  12.044  -2.036  0.00  0.00     0.027 C 
ATOM      8  H1  33V d   1      -8.468  14.333  -1.281  0.00  0.00     0.052 H 
ATOM      9  H2  33V d   1      -9.640  15.657  -0.966  0.00  0.00     0.052 H 
ATOM     10  H3  33V d   1     -10.101  15.969  -3.193  0.00  0.00     0.102 H 
ATOM     11  H4  33V d   1      -8.675  13.612  -4.024  0.00  0.00     0.278 HD
ATOM     12  H5  33V d   1      -9.322  14.786  -4.981  0.00  0.00     0.278 HD
ATOM     13  H6  33V d   1     -10.938  13.448  -5.230  0.00  0.00     0.076 H 
ATOM     14  H7  33V d   1     -11.417  14.119  -3.635  0.00  0.00     0.076 H 
ATOM     15  H8  33V d   1      -9.589  11.741  -3.992  0.00  0.00     0.047 H 
ATOM     16  H12 33V d   1     -10.939  11.242  -1.651  0.00  0.00     0.060 H 
ENDROOT
BRANCH   7  17
ATOM     17  C62 33V d   1      -8.810  11.663  -1.821  0.00  0.00     0.145 C 
ATOM     18  N63 33V d   1      -8.262  10.494  -2.793  0.00  0.00     0.086 N 
ATOM     19  N64 33V d   1      -7.185  10.451  -2.183  0.00  0.00     0.095 N 
ATOM     20  H14 33V d   1      -8.172  10.775  -3.757  0.00  0.00     0.313 HD
ATOM     21  H15 33V d   1      -8.793   9.639  -2.740  0.00  0.00     0.313 HD
ATOM     22  C65 33V d   1      -7.686  10.109  -0.767  0.00  0.00     0.136 C 
ATOM     23  C67 33V d   1      -6.598   9.250  -2.839  0.00  0.00     0.152 C 
ATOM     24  H16 33V d   1      -6.606  11.275  -2.228  0.00  0.00     0.317 HD
ATOM     25  C66 33V d   1      -8.547  11.278  -0.567  0.00  0.00    -0.006 C 
ATOM     26  C70 33V d   1      -6.422   9.852   0.205  0.00  0.00    -0.028 C 
ATOM     27  H17 33V d   1      -8.299   9.195  -0.759  0.00  0.00     0.088 H 
ATOM     28  H18 33V d   1      -9.469  11.005  -0.033  0.00  0.00     0.039 H 
ATOM     29  H19 33V d   1      -8.021  12.068  -0.011  0.00  0.00     0.039 H 
ATOM     30  C69 33V d   1      -5.217   9.256  -0.468  0.00  0.00    -0.020 C 
ATOM     31  H24 33V d   1      -6.740   9.168   1.005  0.00  0.00     0.037 H 
ATOM     32  H25 33V d   1      -6.126  10.817   0.643  0.00  0.00     0.037 H 
ATOM     33  S68 33V d   1      -5.150   9.081  -2.070  0.00  0.00    -0.140 SA
ATOM     34  H22 33V d   1      -4.361   9.887  -0.188  0.00  0.00     0.049 H 
ATOM     35  H23 33V d   1      -5.087   8.251  -0.040  0.00  0.00     0.049 H 
ATOM     36  H20 33V d   1      -6.456   9.417  -3.917  0.00  0.00     0.096 H 
ATOM     37  H21 33V d   1      -7.233   8.365  -2.686  0.00  0.00     0.096 H 
ATOM     38  H13 33V d   1      -8.223  12.570  -2.028  0.00  0.00     0.089 H 
ENDBRANCH   7  17
BRANCH   6  39
ATOM     39  C7  33V d   1     -11.684  11.396  -4.082  0.00  0.00     0.023 C 
ATOM     40  H9  33V d   1     -11.330  10.898  -4.996  0.00  0.00     0.074 H 
ATOM     41  H10 33V d   1     -12.445  12.146  -4.344  0.00  0.00     0.074 H 
BRANCH  39  42
ATOM     42  O8  33V d   1     -12.348  10.425  -3.359  0.00  0.00    -0.400 OA
ATOM     43  H11 33V d   1     -12.704  10.810  -2.567  0.00  0.00     0.209 HD
ENDBRANCH  39  42
ENDBRANCH   6  39
BRANCH   3  44
ATOM     44  C31 33V d   1      -7.931  15.939  -3.159  0.00  0.00     0.205 C 
ATOM     45  O32 33V d   1      -7.359  15.934  -4.279  0.00  0.00    -0.646 OA
ATOM     46  O33 33V d   1      -7.437  16.502  -2.142  0.00  0.00    -0.646 OA
ENDBRANCH   3  44
TORSDOF 4
