REMARK  12 active torsions:
REMARK  status: ('A' for Active; 'I' for Inactive)
REMARK    1  A    between atoms: P11_1  and  C3_3 
REMARK    2  A    between atoms: C11_7  and  P11_1 
REMARK    3  A    between atoms: C3_3  and  C1_2 
REMARK    4  A    between atoms: C1_2  and  C6_4 
REMARK    5  A    between atoms: C3_3  and  N10_6 
REMARK    6  A    between atoms: C6_4  and  C8_5 
REMARK    7  A    between atoms: C13_9  and  C11_7 
REMARK    8  A    between atoms: C13_9  and  C15_11 
REMARK    9  A    between atoms: C16_12  and  C13_9 
REMARK   10  A    between atoms: C18_14  and  C16_12 
REMARK   11  A    between atoms: C23_19  and  N24_22 
REMARK   12  A    between atoms: C38_25  and  C23_19 
ROOT
ATOM      1  C11 32Q d   1       9.258  42.318  -4.373  0.00  0.00     0.022 C 
ATOM      2  H   32Q d   1      10.153  41.815  -3.978  0.00  0.00     0.050 H 
ATOM      3  H   32Q d   1       9.151  42.089  -5.444  0.00  0.00     0.050 H 
ENDROOT
BRANCH   1   4
ATOM      4  P11 32Q d   1       9.513  44.083  -4.218  0.00  0.00     0.138 P 
ATOM      5  O12 32Q d   1       8.903  44.929  -5.316  0.00  0.00    -0.666 OA
ATOM      6  O13 32Q d   1       8.963  44.533  -2.918  0.00  0.00    -0.666 OA
BRANCH   4   7
ATOM      7  C3  32Q d   1      11.255  44.426  -4.215  0.00  0.00     0.173 C 
ATOM      8  H   32Q d   1      11.675  44.081  -5.171  0.00  0.00     0.100 H 
BRANCH   7   9
ATOM      9  C1  32Q d   1      12.015  43.711  -3.107  0.00  0.00    -0.026 C 
ATOM     10  H   32Q d   1      11.836  42.631  -3.213  0.00  0.00     0.037 H 
ATOM     11  H   32Q d   1      11.615  44.056  -2.142  0.00  0.00     0.037 H 
BRANCH   9  12
ATOM     12  C6  32Q d   1      13.540  43.944  -3.102  0.00  0.00    -0.039 C 
ATOM     13  H   32Q d   1      13.764  44.571  -2.226  0.00  0.00     0.040 H 
ATOM     14  H   32Q d   1      13.781  44.498  -4.021  0.00  0.00     0.040 H 
BRANCH  12  15
ATOM     15  C8  32Q d   1      14.469  42.769  -3.046  0.00  0.00    -0.058 A 
ATOM     16  C17 32Q d   1      14.461  41.751  -4.015  0.00  0.00    -0.077 A 
ATOM     17  C19 32Q d   1      15.367  40.645  -3.989  0.00  0.00    -0.082 A 
ATOM     18  H   32Q d   1      13.735  41.807  -4.818  0.00  0.00     0.084 H 
ATOM     19  C20 32Q d   1      16.308  40.558  -2.962  0.00  0.00    -0.083 A 
ATOM     20  H   32Q d   1      15.323  39.883  -4.758  0.00  0.00     0.083 H 
ATOM     21  C21 32Q d   1      16.344  41.569  -1.986  0.00  0.00    -0.082 A 
ATOM     22  H   32Q d   1      17.000  39.725  -2.918  0.00  0.00     0.083 H 
ATOM     23  C22 32Q d   1      15.434  42.653  -2.029  0.00  0.00    -0.077 A 
ATOM     24  H   32Q d   1      17.078  41.518  -1.190  0.00  0.00     0.083 H 
ATOM     25  H   32Q d   1      15.482  43.413  -1.258  0.00  0.00     0.084 H 
ENDBRANCH  12  15
ENDBRANCH   9  12
ENDBRANCH   7   9
BRANCH   7  26
ATOM     26  N10 32Q d   1      11.410  45.955  -4.139  0.00  0.00    -0.066 N 
ATOM     27  H   32Q d   1      12.389  46.194  -4.135  0.00  0.00     0.275 HD
ATOM     28  H   32Q d   1      10.978  46.295  -3.294  0.00  0.00     0.275 HD
ATOM     29  H   32Q d   1      10.964  46.378  -4.938  0.00  0.00     0.275 HD
ENDBRANCH   7  26
ENDBRANCH   4   7
ENDBRANCH   1   4
BRANCH   1  30
ATOM     30  C13 32Q d   1       8.032  41.731  -3.644  0.00  0.00     0.043 C 
ATOM     31  H   32Q d   1       7.941  42.221  -2.663  0.00  0.00     0.058 H 
BRANCH  30  32
ATOM     32  C15 32Q d   1       8.152  40.168  -3.445  0.00  0.00     0.177 C 
ATOM     33  O23 32Q d   1       7.179  39.431  -3.755  0.00  0.00    -0.648 OA
ATOM     34  O24 32Q d   1       9.256  39.787  -2.999  0.00  0.00    -0.648 OA
ENDBRANCH  30  32
BRANCH  30  35
ATOM     35  C16 32Q d   1       6.791  41.944  -4.428  0.00  0.00    -0.028 C 
ATOM     36  H   32Q d   1       6.776  41.182  -5.221  0.00  0.00     0.041 H 
ATOM     37  H   32Q d   1       6.864  42.944  -4.881  0.00  0.00     0.041 H 
BRANCH  35  38
ATOM     38  C18 32Q d   1       5.463  41.874  -3.726  0.00  0.00    -0.057 A 
ATOM     39  C36 32Q d   1       5.340  42.004  -2.337  0.00  0.00    -0.076 A 
ATOM     40  C37 32Q d   1       4.088  41.965  -1.708  0.00  0.00    -0.075 A 
ATOM     41  H   32Q d   1       6.232  42.138  -1.736  0.00  0.00     0.084 H 
ATOM     42  C38 32Q d   1       2.894  41.792  -2.435  0.00  0.00    -0.033 A 
ATOM     43  H   32Q d   1       4.037  42.071  -0.630  0.00  0.00     0.084 H 
ATOM     44  C39 32Q d   1       3.022  41.663  -3.809  0.00  0.00    -0.075 A 
ATOM     45  C40 32Q d   1       4.274  41.704  -4.424  0.00  0.00    -0.076 A 
ATOM     46  H   32Q d   1       2.134  41.528  -4.416  0.00  0.00     0.084 H 
ATOM     47  H   32Q d   1       4.321  41.598  -5.502  0.00  0.00     0.084 H 
BRANCH  42  48
ATOM     48  C23 32Q d   1       1.557  41.757  -1.665  0.00  0.00     0.103 C 
ATOM     49  H   32Q d   1       1.580  40.898  -0.979  0.00  0.00     0.082 H 
ATOM     50  H   32Q d   1       1.472  42.688  -1.085  0.00  0.00     0.082 H 
BRANCH  48  51
ATOM     51  N24 32Q d   1       0.378  41.637  -2.497  0.00  0.00    -0.075 N 
ATOM     52  H   32Q d   1      -0.444  41.622  -1.914  0.00  0.00     0.274 HD
ATOM     53  H   32Q d   1       0.428  40.783  -3.030  0.00  0.00     0.274 HD
ATOM     54  H   32Q d   1       0.329  42.423  -3.126  0.00  0.00     0.274 HD
ENDBRANCH  48  51
ENDBRANCH  42  48
ENDBRANCH  35  38
ENDBRANCH  30  35
ENDBRANCH   1  30
TORSDOF 12
