REMARK  11 active torsions:
REMARK  status: ('A' for Active; 'I' for Inactive)
REMARK    1  A    between atoms: N3B_8  and  PG_1 
REMARK    2  A    between atoms: PB_5  and  N3B_8 
REMARK    3  A    between atoms: O3A_12  and  PB_5 
REMARK    4  A    between atoms: PA_9  and  O3A_12 
REMARK    5  A    between atoms: PA_9  and  O5'_13 
REMARK    6  A    between atoms: O5'_13  and  C5'_14 
REMARK    7  A    between atoms: C5'_14  and  C4'_15 
REMARK    8  A    between atoms: C3'_17  and  O3'_18 
REMARK    9  A    between atoms: C2'_19  and  O2'_20 
REMARK   10  A    between atoms: C1'_21  and  N9_22 
REMARK   11  A    between atoms: C6_26  and  N6_27 
ROOT
ATOM      1  C4' ANP d   1     -23.713  48.315  42.198  0.00  0.00     0.089 C 
ATOM      2  O4' ANP d   1     -24.432  48.157  43.441  0.00  0.00    -0.353 OA
ATOM      3  C3' ANP d   1     -22.240  48.252  42.568  0.00  0.00     0.091 C 
ATOM      4  C2' ANP d   1     -22.245  47.375  43.819  0.00  0.00     0.105 C 
ATOM      5  C1' ANP d   1     -23.542  47.814  44.489  0.00  0.00     0.139 C 
ATOM      6  H4  ANP d   1     -23.926  49.308  41.775  0.00  0.00     0.090 H 
ATOM      7  H5  ANP d   1     -21.631  47.803  41.770  0.00  0.00     0.091 H 
ATOM      8  H7  ANP d   1     -22.276  46.306  43.560  0.00  0.00     0.093 H 
ATOM      9  H9  ANP d   1     -23.342  48.685  45.131  0.00  0.00     0.122 H 
ENDROOT
BRANCH   1  10
ATOM     10  C5' ANP d   1     -24.161  47.284  41.190  0.00  0.00     0.058 C 
ATOM     11  H2  ANP d   1     -25.253  47.333  41.066  0.00  0.00     0.079 H 
ATOM     12  H3  ANP d   1     -23.673  47.471  40.222  0.00  0.00     0.079 H 
BRANCH  10  13
ATOM     13  O5' ANP d   1     -23.785  45.996  41.682  0.00  0.00    -0.287 OA
BRANCH  13  14
ATOM     14  PA  ANP d   1     -23.201  44.855  40.791  0.00  0.00     0.417 P 
ATOM     15  O1A ANP d   1     -22.305  45.483  39.796  0.00  0.00    -0.624 OA
ATOM     16  O2A ANP d   1     -22.577  43.740  41.656  0.00  0.00    -0.624 OA
BRANCH  14  17
ATOM     17  O3A ANP d   1     -24.504  44.250  40.157  0.00  0.00    -0.186 OA
BRANCH  17  18
ATOM     18  PB  ANP d   1     -24.544  43.428  38.841  0.00  0.00     0.379 P 
ATOM     19  O1B ANP d   1     -23.455  42.408  38.804  0.00  0.00    -0.629 OA
ATOM     20  O2B ANP d   1     -25.901  42.696  38.890  0.00  0.00    -0.629 OA
BRANCH  18  21
ATOM     21  N3B ANP d   1     -24.478  44.494  37.542  0.00  0.00    -0.218 N 
ATOM     22  H1  ANP d   1     -24.336  45.477  37.658  0.00  0.00     0.179 HD
BRANCH  21  23
ATOM     23  PG  ANP d   1     -24.671  43.771  36.021  0.00  0.00     0.381 P 
ATOM     24  O1G ANP d   1     -23.839  42.531  35.883  0.00  0.00    -0.622 OA
ATOM     25  O2G ANP d   1     -24.184  44.794  34.926  0.00  0.00    -0.622 OA
ATOM     26  O3G ANP d   1     -26.190  43.430  35.753  0.00  0.00    -0.622 OA
ENDBRANCH  21  23
ENDBRANCH  18  21
ENDBRANCH  17  18
ENDBRANCH  14  17
ENDBRANCH  13  14
ENDBRANCH  10  13
ENDBRANCH   1  10
BRANCH   3  27
ATOM     27  O3' ANP d   1     -21.799  49.574  42.837  0.00  0.00    -0.390 OA
ATOM     28  H6  ANP d   1     -21.921  50.111  42.063  0.00  0.00     0.210 HD
ENDBRANCH   3  27
BRANCH   5  29
ATOM     29  N9  ANP d   1     -24.191  46.773  45.284  0.00  0.00    -0.294 N 
ATOM     30  C8  ANP d   1     -25.126  45.895  44.819  0.00  0.00     0.071 A 
ATOM     31  N7  ANP d   1     -25.569  45.059  45.727  0.00  0.00    -0.236 NA
ATOM     32  H10 ANP d   1     -25.473  45.889  43.787  0.00  0.00     0.144 H 
ATOM     33  C5  ANP d   1     -24.887  45.424  46.869  0.00  0.00     0.149 A 
ATOM     34  C6  ANP d   1     -24.907  44.920  48.181  0.00  0.00     0.155 A 
ATOM     35  C4  ANP d   1     -24.031  46.484  46.619  0.00  0.00     0.167 A 
ATOM     36  N1  ANP d   1     -24.093  45.500  49.087  0.00  0.00    -0.222 NA
ATOM     37  C2  ANP d   1     -23.322  46.519  48.700  0.00  0.00     0.091 A 
ATOM     38  N3  ANP d   1     -23.218  47.079  47.494  0.00  0.00    -0.222 NA
ATOM     39  H13 ANP d   1     -22.695  46.950  49.472  0.00  0.00     0.146 H 
BRANCH  34  40
ATOM     40  N6  ANP d   1     -25.685  43.908  48.569  0.00  0.00    -0.382 N 
ATOM     41  H11 ANP d   1     -25.656  43.581  49.545  0.00  0.00     0.157 HD
ATOM     42  H12 ANP d   1     -26.314  43.453  47.892  0.00  0.00     0.157 HD
ENDBRANCH  34  40
ENDBRANCH   5  29
BRANCH   4  43
ATOM     43  O2' ANP d   1     -21.101  47.627  44.620  0.00  0.00    -0.388 OA
ATOM     44  H8  ANP d   1     -21.097  48.539  44.886  0.00  0.00     0.210 HD
ENDBRANCH   4  43
TORSDOF 11
