REMARK  13 active torsions:
REMARK  status: ('A' for Active; 'I' for Inactive)
REMARK    1  A    between atoms: O2S_3  and  S_1 
REMARK    2  A    between atoms: C1_6  and  O2S_3 
REMARK    3  A    between atoms: C12_17  and  C1_6 
REMARK    4  A    between atoms: C3_8  and  C2_7 
REMARK    5  A    between atoms: C4_9  and  C3_8 
REMARK    6  A    between atoms: C5_10  and  C4_9 
REMARK    7  A    between atoms: C6_11  and  C5_10 
REMARK    8  A    between atoms: C7_12  and  C6_11 
REMARK    9  A    between atoms: C8_13  and  C7_12 
REMARK   10  A    between atoms: C9_14  and  C8_13 
REMARK   11  A    between atoms: C10_15  and  C9_14 
REMARK   12  A    between atoms: C11_16  and  C10_15 
REMARK   13  A    between atoms: C11_16  and  C12_17 
ROOT
ATOM      1  C8  SDS d   1       8.331  10.784  18.418  0.00  0.00    -0.065 C 
ATOM      2  H16 SDS d   1       7.447  11.176  18.943  0.00  0.00     0.033 H 
ATOM      3  H17 SDS d   1       8.009  10.213  17.535  0.00  0.00     0.033 H 
ENDROOT
BRANCH   1   4
ATOM      4  C7  SDS d   1       9.115   9.883  19.347  0.00  0.00    -0.065 C 
ATOM      5  H14 SDS d   1       9.985   9.480  18.808  0.00  0.00     0.033 H 
ATOM      6  H15 SDS d   1       9.459  10.469  20.212  0.00  0.00     0.033 H 
BRANCH   4   7
ATOM      7  C6  SDS d   1       8.261   8.737  19.835  0.00  0.00    -0.065 C 
ATOM      8  H12 SDS d   1       7.652   9.058  20.692  0.00  0.00     0.033 H 
ATOM      9  H13 SDS d   1       7.602   8.387  19.027  0.00  0.00     0.033 H 
BRANCH   7  10
ATOM     10  C5  SDS d   1       9.203   7.631  20.253  0.00  0.00    -0.065 C 
ATOM     11  H10 SDS d   1       9.886   7.406  19.421  0.00  0.00     0.033 H 
ATOM     12  H11 SDS d   1       9.785   7.964  21.125  0.00  0.00     0.033 H 
BRANCH  10  13
ATOM     13  C4  SDS d   1       8.437   6.379  20.618  0.00  0.00    -0.065 C 
ATOM     14  H8  SDS d   1       7.902   6.537  21.566  0.00  0.00     0.033 H 
ATOM     15  H9  SDS d   1       7.714   6.144  19.823  0.00  0.00     0.033 H 
BRANCH  13  16
ATOM     16  C3  SDS d   1       9.416   5.233  20.771  0.00  0.00    -0.069 C 
ATOM     17  H6  SDS d   1       8.864   4.282  20.786  0.00  0.00     0.032 H 
ATOM     18  H7  SDS d   1      10.116   5.237  19.923  0.00  0.00     0.032 H 
BRANCH  16  19
ATOM     19  C2  SDS d   1      10.194   5.383  22.066  0.00  0.00    -0.077 C 
ATOM     20  H3  SDS d   1      10.901   4.547  22.168  0.00  0.00     0.027 H 
ATOM     21  H4  SDS d   1       9.496   5.378  22.916  0.00  0.00     0.027 H 
ATOM     22  H5  SDS d   1      10.749   6.333  22.053  0.00  0.00     0.027 H 
ENDBRANCH  16  19
ENDBRANCH  13  16
ENDBRANCH  10  13
ENDBRANCH   7  10
ENDBRANCH   4   7
ENDBRANCH   1   4
BRANCH   1  23
ATOM     23  C9  SDS d   1       9.216  11.932  17.986  0.00  0.00    -0.065 C 
ATOM     24  H18 SDS d   1       9.398  12.594  18.846  0.00  0.00     0.033 H 
ATOM     25  H19 SDS d   1       8.713  12.498  17.188  0.00  0.00     0.033 H 
BRANCH  23  26
ATOM     26  C10 SDS d   1      10.541  11.407  17.469  0.00  0.00    -0.065 C 
ATOM     27  H20 SDS d   1      10.367  10.807  16.564  0.00  0.00     0.033 H 
ATOM     28  H21 SDS d   1      11.011  10.779  18.241  0.00  0.00     0.033 H 
BRANCH  26  29
ATOM     29  C11 SDS d   1      11.458  12.561  17.136  0.00  0.00    -0.063 C 
ATOM     30  H22 SDS d   1      10.854  13.438  16.859  0.00  0.00     0.033 H 
ATOM     31  H23 SDS d   1      12.104  12.280  16.291  0.00  0.00     0.033 H 
BRANCH  29  32
ATOM     32  C12 SDS d   1      12.320  12.905  18.333  0.00  0.00    -0.044 C 
ATOM     33  H24 SDS d   1      11.766  13.585  18.996  0.00  0.00     0.036 H 
ATOM     34  H25 SDS d   1      12.569  11.983  18.878  0.00  0.00     0.036 H 
BRANCH  32  35
ATOM     35  C1  SDS d   1      13.597  13.578  17.882  0.00  0.00     0.040 C 
ATOM     36  H1  SDS d   1      13.890  14.336  18.623  0.00  0.00     0.076 H 
ATOM     37  H2  SDS d   1      14.393  12.824  17.794  0.00  0.00     0.076 H 
BRANCH  35  38
ATOM     38  O2S SDS d   1      13.403  14.201  16.629  0.00  0.00    -0.257 OA
BRANCH  38  39
ATOM     39  S   SDS d   1      14.568  14.982  16.062  0.00  0.00     0.251 S 
ATOM     40  O1S SDS d   1      14.047  16.084  15.167  0.00  0.00    -0.572 OA
ATOM     41  O3S SDS d   1      15.469  15.521  17.145  0.00  0.00    -0.572 OA
ATOM     42  O4  SDS d   1      15.518  14.076  15.300  0.00  0.00    -0.572 OA
ENDBRANCH  38  39
ENDBRANCH  35  38
ENDBRANCH  32  35
ENDBRANCH  29  32
ENDBRANCH  26  29
ENDBRANCH  23  26
ENDBRANCH   1  23
TORSDOF 13
