REMARK  10 active torsions:
REMARK  status: ('A' for Active; 'I' for Inactive)
REMARK    1  A    between atoms: P11_1  and  C3_3 
REMARK    2  A    between atoms: P11_1  and  C11_7 
REMARK    3  A    between atoms: C3_3  and  C1_2 
REMARK    4  A    between atoms: C1_2  and  C6_4 
REMARK    5  A    between atoms: C3_3  and  N10_6 
REMARK    6  A    between atoms: C6_4  and  C8_5 
REMARK    7  A    between atoms: C11_7  and  C13_9 
REMARK    8  A    between atoms: C13_9  and  C15_11 
REMARK    9  A    between atoms: C13_9  and  C16_12 
REMARK   10  A    between atoms: C16_12  and  C17_14 
ROOT
ATOM      1  P11 379 d   1       9.264  44.326  15.085  0.00  0.00     0.138 P 
ATOM      2  O12 379 d   1       8.702  45.107  13.929  0.00  0.00    -0.666 OA
ATOM      3  O13 379 d   1       8.704  44.728  16.358  0.00  0.00    -0.666 OA
ENDROOT
BRANCH   1   4
ATOM      4  C3  379 d   1      11.067  44.530  15.131  0.00  0.00     0.173 C 
ATOM      5  H   379 d   1      11.488  44.125  14.199  0.00  0.00     0.100 H 
BRANCH   4   6
ATOM      6  C1  379 d   1      11.693  43.778  16.294  0.00  0.00    -0.026 C 
ATOM      7  H   379 d   1      11.286  42.756  16.302  0.00  0.00     0.037 H 
ATOM      8  H   379 d   1      11.414  44.291  17.226  0.00  0.00     0.037 H 
BRANCH   6   9
ATOM      9  C6  379 d   1      13.201  43.687  16.236  0.00  0.00    -0.037 C 
ATOM     10  H   379 d   1      13.623  44.703  16.220  0.00  0.00     0.040 H 
ATOM     11  H   379 d   1      13.495  43.153  15.320  0.00  0.00     0.040 H 
BRANCH   9  12
ATOM     12  C8  379 d   1      13.749  42.935  17.454  0.00  0.00    -0.041 A 
ATOM     13  C01 379 d   1      15.027  43.206  17.903  0.00  0.00     0.008 A 
ATOM     14  N18 379 d   1      15.534  42.546  18.980  0.00  0.00    -0.273 NA
ATOM     15  H   379 d   1      15.630  43.949  17.394  0.00  0.00     0.115 H 
ATOM     16  C19 379 d   1      14.781  41.603  19.632  0.00  0.00     0.002 A 
ATOM     17  C20 379 d   1      13.494  41.289  19.181  0.00  0.00    -0.066 A 
ATOM     18  H   379 d   1      15.185  41.098  20.502  0.00  0.00     0.114 H 
ATOM     19  C21 379 d   1      12.997  41.968  18.108  0.00  0.00    -0.074 A 
ATOM     20  H   379 d   1      12.905  40.523  19.674  0.00  0.00     0.085 H 
ATOM     21  H   379 d   1      11.995  41.748  17.759  0.00  0.00     0.084 H 
ENDBRANCH   9  12
ENDBRANCH   6   9
ENDBRANCH   4   6
BRANCH   4  22
ATOM     22  N10 379 d   1      11.370  45.964  15.198  0.00  0.00    -0.066 N 
ATOM     23  H   379 d   1      12.369  46.095  15.224  0.00  0.00     0.275 HD
ATOM     24  H   379 d   1      10.958  46.356  16.030  0.00  0.00     0.275 HD
ATOM     25  H   379 d   1      10.992  46.426  14.386  0.00  0.00     0.275 HD
ENDBRANCH   4  22
ENDBRANCH   1   4
BRANCH   1  26
ATOM     26  C11 379 d   1       8.753  42.592  14.888  0.00  0.00     0.022 C 
ATOM     27  H   379 d   1       9.591  42.042  14.435  0.00  0.00     0.050 H 
ATOM     28  H   379 d   1       7.889  42.570  14.207  0.00  0.00     0.050 H 
BRANCH  26  29
ATOM     29  C13 379 d   1       8.358  41.869  16.167  0.00  0.00     0.043 C 
ATOM     30  H   379 d   1       8.068  42.597  16.939  0.00  0.00     0.058 H 
BRANCH  29  31
ATOM     31  C15 379 d   1       9.461  40.964  16.646  0.00  0.00     0.177 C 
ATOM     32  O23 379 d   1       9.703  40.778  17.868  0.00  0.00    -0.648 OA
ATOM     33  O24 379 d   1      10.156  40.403  15.795  0.00  0.00    -0.648 OA
ENDBRANCH  29  31
BRANCH  29  34
ATOM     34  C16 379 d   1       7.256  40.892  15.875  0.00  0.00    -0.028 C 
ATOM     35  H   379 d   1       7.417  39.990  16.484  0.00  0.00     0.041 H 
ATOM     36  H   379 d   1       7.298  40.626  14.809  0.00  0.00     0.041 H 
BRANCH  34  37
ATOM     37  C17 379 d   1       5.877  41.440  16.181  0.00  0.00    -0.057 A 
ATOM     38  C36 379 d   1       5.051  41.785  15.120  0.00  0.00    -0.077 A 
ATOM     39  C37 379 d   1       3.774  42.266  15.352  0.00  0.00    -0.082 A 
ATOM     40  H   379 d   1       5.409  41.677  14.102  0.00  0.00     0.084 H 
ATOM     41  C38 379 d   1       3.311  42.407  16.656  0.00  0.00    -0.083 A 
ATOM     42  H   379 d   1       3.135  42.533  14.518  0.00  0.00     0.083 H 
ATOM     43  C39 379 d   1       4.127  42.062  17.725  0.00  0.00    -0.082 A 
ATOM     44  H   379 d   1       2.312  42.787  16.838  0.00  0.00     0.083 H 
ATOM     45  C40 379 d   1       5.412  41.575  17.489  0.00  0.00    -0.077 A 
ATOM     46  H   379 d   1       3.766  42.171  18.741  0.00  0.00     0.083 H 
ATOM     47  H   379 d   1       6.050  41.301  18.322  0.00  0.00     0.084 H 
ENDBRANCH  34  37
ENDBRANCH  29  34
ENDBRANCH  26  29
ENDBRANCH   1  26
TORSDOF 10
