REMARK  12 active torsions:
REMARK  status: ('A' for Active; 'I' for Inactive)
REMARK    1  A    between atoms: C17_6  and  S14_2 
REMARK    2  A    between atoms: S14_2  and  C8_7 
REMARK    3  A    between atoms: C18_4  and  O20_5 
REMARK    4  A    between atoms: C18_4  and  C17_6 
REMARK    5  A    between atoms: C9_12  and  N19_20 
REMARK    6  A    between atoms: C5_15  and  S1_16 
REMARK    7  A    between atoms: S1_16  and  N4_18 
REMARK    8  A    between atoms: N19_20  and  C21_21 
REMARK    9  A    between atoms: C21_21  and  C30_22 
REMARK   10  A    between atoms: C21_21  and  C22_28 
REMARK   11  A    between atoms: C22_28  and  O29_29 
REMARK   12  A    between atoms: C22_28  and  C23_30 
ROOT
ATOM      1  N19 WWX d   1       1.196   6.221   6.271  0.00  0.00    -0.375 N 
ATOM      2  H8  WWX d   1       2.210   6.382   6.192  0.00  0.00     0.160 HD
ENDROOT
BRANCH   1   3
ATOM      3  C9  WWX d   1       0.686   4.861   6.217  0.00  0.00     0.094 C 
ATOM      4  C8  WWX d   1       1.455   3.871   6.830  0.00  0.00     0.130 C 
ATOM      5  C7  WWX d   1       0.981   2.541   6.759  0.00  0.00     0.180 C 
ATOM      6  F12 WWX d   1       1.693   1.530   7.411  0.00  0.00    -0.201 F 
ATOM      7  C6  WWX d   1      -0.186   2.253   6.138  0.00  0.00     0.182 C 
ATOM      8  F11 WWX d   1      -0.574   0.937   6.235  0.00  0.00    -0.201 F 
ATOM      9  C5  WWX d   1      -0.953   3.210   5.399  0.00  0.00     0.161 C 
ATOM     10  C10 WWX d   1      -0.416   4.500   5.438  0.00  0.00     0.170 C 
ATOM     11  F13 WWX d   1      -1.066   5.494   4.788  0.00  0.00    -0.202 F 
BRANCH   4  12
ATOM     12  S14 WWX d   1       3.049   3.984   7.653  0.00  0.00     0.182 S 
ATOM     13  O16 WWX d   1       4.067   3.070   6.902  0.00  0.00    -0.222 OA
ATOM     14  O15 WWX d   1       3.557   5.438   7.567  0.00  0.00    -0.222 OA
BRANCH  12  15
ATOM     15  C17 WWX d   1       2.950   3.352   9.345  0.00  0.00     0.053 C 
ATOM     16  H4  WWX d   1       3.740   3.816   9.954  0.00  0.00     0.059 H 
ATOM     17  H5  WWX d   1       3.088   2.261   9.335  0.00  0.00     0.059 H 
BRANCH  15  18
ATOM     18  C18 WWX d   1       1.577   3.685   9.953  0.00  0.00     0.029 C 
ATOM     19  H1  WWX d   1       0.798   3.200   9.346  0.00  0.00     0.075 H 
ATOM     20  H2  WWX d   1       1.542   3.289  10.979  0.00  0.00     0.075 H 
BRANCH  18  21
ATOM     21  O20 WWX d   1       1.322   5.036   9.996  0.00  0.00    -0.400 OA
ATOM     22  H3  WWX d   1       0.465   5.183  10.379  0.00  0.00     0.209 HD
ENDBRANCH  18  21
ENDBRANCH  15  18
ENDBRANCH  12  15
ENDBRANCH   4  12
BRANCH   9  23
ATOM     23  S1  WWX d   1      -2.291   2.775   4.169  0.00  0.00     0.263 S 
ATOM     24  O3  WWX d   1      -3.605   3.250   4.605  0.00  0.00    -0.201 OA
ATOM     25  O2  WWX d   1      -1.831   3.126   2.893  0.00  0.00    -0.201 OA
BRANCH  23  26
ATOM     26  N4  WWX d   1      -2.249   1.194   4.325  0.00  0.00    -0.324 N 
ATOM     27  H6  WWX d   1      -2.866   0.622   3.785  0.00  0.00     0.169 HD
ATOM     28  H7  WWX d   1      -1.605   0.771   4.963  0.00  0.00     0.169 HD
ENDBRANCH  23  26
ENDBRANCH   9  23
ENDBRANCH   1   3
BRANCH   1  29
ATOM     29  C21 WWX d   1       0.300   7.367   6.435  0.00  0.00     0.064 C 
ATOM     30  H9  WWX d   1      -0.739   7.005   6.447  0.00  0.00     0.084 H 
BRANCH  29  31
ATOM     31  C30 WWX d   1       0.435   8.333   5.331  0.00  0.00    -0.033 A 
ATOM     32  C35 WWX d   1       1.678   8.605   4.729  0.00  0.00    -0.075 A 
ATOM     33  C34 WWX d   1       1.747   9.572   3.694  0.00  0.00    -0.082 A 
ATOM     34  H10 WWX d   1       2.571   8.082   5.052  0.00  0.00     0.084 H 
ATOM     35  C33 WWX d   1       0.577  10.354   3.305  0.00  0.00    -0.083 A 
ATOM     36  H11 WWX d   1       2.688   9.734   3.181  0.00  0.00     0.083 H 
ATOM     37  C32 WWX d   1      -0.617  10.088   3.963  0.00  0.00    -0.082 A 
ATOM     38  H12 WWX d   1       0.638  11.113   2.533  0.00  0.00     0.083 H 
ATOM     39  C31 WWX d   1      -0.740   9.065   4.974  0.00  0.00    -0.075 A 
ATOM     40  H13 WWX d   1      -1.493  10.673   3.707  0.00  0.00     0.083 H 
ATOM     41  H14 WWX d   1      -1.693   8.858   5.447  0.00  0.00     0.084 H 
ENDBRANCH  29  31
BRANCH  29  42
ATOM     42  C22 WWX d   1       0.618   8.034   7.812  0.00  0.00     0.084 C 
ATOM     43  H15 WWX d   1       0.432   7.278   8.589  0.00  0.00     0.094 H 
BRANCH  42  44
ATOM     44  O29 WWX d   1       2.007   8.367   7.849  0.00  0.00    -0.388 OA
ATOM     45  H16 WWX d   1       2.524   7.577   7.745  0.00  0.00     0.210 HD
ENDBRANCH  42  44
BRANCH  42  46
ATOM     46  C23 WWX d   1      -0.240   9.223   8.153  0.00  0.00    -0.027 A 
ATOM     47  C28 WWX d   1       0.193  10.543   7.957  0.00  0.00    -0.074 A 
ATOM     48  C27 WWX d   1      -0.689  11.617   8.309  0.00  0.00    -0.082 A 
ATOM     49  H17 WWX d   1       1.176  10.747   7.547  0.00  0.00     0.084 H 
ATOM     50  C26 WWX d   1      -1.939  11.338   8.814  0.00  0.00    -0.083 A 
ATOM     51  H18 WWX d   1      -0.373  12.646   8.178  0.00  0.00     0.083 H 
ATOM     52  C25 WWX d   1      -2.348  10.028   9.008  0.00  0.00    -0.082 A 
ATOM     53  H19 WWX d   1      -2.611  12.152   9.063  0.00  0.00     0.083 H 
ATOM     54  C24 WWX d   1      -1.496   8.996   8.640  0.00  0.00    -0.074 A 
ATOM     55  H20 WWX d   1      -3.318   9.813   9.441  0.00  0.00     0.083 H 
ATOM     56  H21 WWX d   1      -1.840   7.973   8.743  0.00  0.00     0.084 H 
ENDBRANCH  42  46
ENDBRANCH  29  42
ENDBRANCH   1  29
TORSDOF 12
