REMARK  12 active torsions:
REMARK  status: ('A' for Active; 'I' for Inactive)
REMARK    1  A    between atoms: C17_6  and  S14_2 
REMARK    2  A    between atoms: S14_2  and  C8_7 
REMARK    3  A    between atoms: C18_4  and  O20_5 
REMARK    4  A    between atoms: C18_4  and  C17_6 
REMARK    5  A    between atoms: C9_12  and  N19_20 
REMARK    6  A    between atoms: C5_15  and  S1_16 
REMARK    7  A    between atoms: S1_16  and  N4_18 
REMARK    8  A    between atoms: N19_20  and  C21_21 
REMARK    9  A    between atoms: C21_21  and  C30_22 
REMARK   10  A    between atoms: C21_21  and  C22_28 
REMARK   11  A    between atoms: C22_28  and  O29_29 
REMARK   12  A    between atoms: C22_28  and  C23_30 
ROOT
ATOM      1  N19 WWX d   1       5.076 -21.236 -12.614  0.00  0.00    -0.375 N 
ATOM      2  H8  WWX d   1       4.072 -21.216 -12.386  0.00  0.00     0.160 HD
ENDROOT
BRANCH   1   3
ATOM      3  C9  WWX d   1       5.717 -22.527 -11.991  0.00  0.00     0.094 A 
ATOM      4  C8  WWX d   1       5.570 -23.858 -12.601  0.00  0.00     0.130 A 
ATOM      5  C7  WWX d   1       6.089 -25.068 -12.071  0.00  0.00     0.180 A 
ATOM      6  F12 WWX d   1       5.953 -26.375 -12.782  0.00  0.00    -0.201 F 
ATOM      7  C6  WWX d   1       6.862 -24.959 -10.833  0.00  0.00     0.182 A 
ATOM      8  F11 WWX d   1       7.305 -26.155 -10.424  0.00  0.00    -0.201 F 
ATOM      9  C5  WWX d   1       7.010 -23.737 -10.134  0.00  0.00     0.161 A 
ATOM     10  C10 WWX d   1       6.428 -22.600 -10.786  0.00  0.00     0.170 A 
ATOM     11  F13 WWX d   1       6.614 -21.482 -10.003  0.00  0.00    -0.202 F 
BRANCH   4  12
ATOM     12  S14 WWX d   1       4.641 -24.194 -14.133  0.00  0.00     0.182 S 
ATOM     13  O16 WWX d   1       3.671 -25.290 -13.527  0.00  0.00    -0.222 OA
ATOM     14  O15 WWX d   1       3.781 -22.934 -14.450  0.00  0.00    -0.222 OA
BRANCH  12  15
ATOM     15  C17 WWX d   1       5.415 -24.877 -15.626  0.00  0.00     0.053 C 
ATOM     16  H4  WWX d   1       4.849 -24.535 -16.505  0.00  0.00     0.059 H 
ATOM     17  H5  WWX d   1       5.379 -25.975 -15.571  0.00  0.00     0.059 H 
BRANCH  15  18
ATOM     18  C18 WWX d   1       6.887 -24.436 -15.782  0.00  0.00     0.029 C 
ATOM     19  H1  WWX d   1       7.500 -24.782 -14.936  0.00  0.00     0.075 H 
ATOM     20  H2  WWX d   1       7.318 -24.808 -16.723  0.00  0.00     0.075 H 
BRANCH  18  21
ATOM     21  O20 WWX d   1       6.774 -23.044 -15.791  0.00  0.00    -0.400 OA
ATOM     22  H3  WWX d   1       7.637 -22.658 -15.884  0.00  0.00     0.209 HD
ENDBRANCH  18  21
ENDBRANCH  15  18
ENDBRANCH  12  15
ENDBRANCH   4  12
BRANCH   9  23
ATOM     23  S1  WWX d   1       7.874 -23.733  -8.415  0.00  0.00     0.263 S 
ATOM     24  O3  WWX d   1       9.155 -22.980  -8.119  0.00  0.00    -0.201 OA
ATOM     25  O2  WWX d   1       6.974 -23.361  -7.289  0.00  0.00    -0.201 OA
BRANCH  23  26
ATOM     26  N4  WWX d   1       8.201 -25.373  -8.169  0.00  0.00    -0.324 N 
ATOM     27  H6  WWX d   1       8.659 -25.671  -7.332  0.00  0.00     0.169 HD
ATOM     28  H7  WWX d   1       7.936 -26.045  -8.861  0.00  0.00     0.169 HD
ENDBRANCH  23  26
ENDBRANCH   9  23
ENDBRANCH   1   3
BRANCH   1  29
ATOM     29  C21 WWX d   1       5.413 -20.042 -13.412  0.00  0.00     0.064 C 
ATOM     30  H9  WWX d   1       4.882 -19.194 -12.955  0.00  0.00     0.084 H 
BRANCH  29  31
ATOM     31  C30 WWX d   1       5.127 -20.044 -14.916  0.00  0.00    -0.033 A 
ATOM     32  C35 WWX d   1       3.823 -20.296 -15.439  0.00  0.00    -0.075 A 
ATOM     33  C34 WWX d   1       3.577 -20.328 -16.847  0.00  0.00    -0.082 A 
ATOM     34  H10 WWX d   1       3.001 -20.467 -14.753  0.00  0.00     0.084 H 
ATOM     35  C33 WWX d   1       4.628 -20.122 -17.778  0.00  0.00    -0.083 A 
ATOM     36  H11 WWX d   1       2.572 -20.512 -17.209  0.00  0.00     0.083 H 
ATOM     37  C32 WWX d   1       5.937 -19.876 -17.319  0.00  0.00    -0.082 A 
ATOM     38  H12 WWX d   1       4.424 -20.154 -18.842  0.00  0.00     0.083 H 
ATOM     39  C31 WWX d   1       6.156 -19.855 -15.918  0.00  0.00    -0.075 A 
ATOM     40  H13 WWX d   1       6.751 -19.708 -18.015  0.00  0.00     0.083 H 
ATOM     41  H14 WWX d   1       7.169 -19.685 -15.571  0.00  0.00     0.084 H 
ENDBRANCH  29  31
BRANCH  29  42
ATOM     42  C22 WWX d   1       6.869 -19.802 -13.404  0.00  0.00     0.084 C 
ATOM     43  H15 WWX d   1       7.191 -19.869 -12.354  0.00  0.00     0.094 H 
BRANCH  42  44
ATOM     44  O29 WWX d   1       7.511 -20.851 -14.073  0.00  0.00    -0.388 OA
ATOM     45  H16 WWX d   1       7.199 -20.892 -14.969  0.00  0.00     0.210 HD
ENDBRANCH  42  44
BRANCH  42  46
ATOM     46  C23 WWX d   1       7.256 -18.398 -13.852  0.00  0.00    -0.027 A 
ATOM     47  C28 WWX d   1       8.632 -18.143 -14.065  0.00  0.00    -0.074 A 
ATOM     48  C27 WWX d   1       9.101 -16.858 -14.357  0.00  0.00    -0.082 A 
ATOM     49  H17 WWX d   1       9.339 -18.962 -14.000  0.00  0.00     0.084 H 
ATOM     50  C26 WWX d   1       8.239 -15.814 -14.521  0.00  0.00    -0.083 A 
ATOM     51  H18 WWX d   1      10.167 -16.689 -14.455  0.00  0.00     0.083 H 
ATOM     52  C25 WWX d   1       6.867 -16.062 -14.371  0.00  0.00    -0.082 A 
ATOM     53  H19 WWX d   1       8.604 -14.822 -14.760  0.00  0.00     0.083 H 
ATOM     54  C24 WWX d   1       6.332 -17.315 -14.025  0.00  0.00    -0.074 A 
ATOM     55  H20 WWX d   1       6.179 -15.240 -14.531  0.00  0.00     0.083 H 
ATOM     56  H21 WWX d   1       5.265 -17.457 -13.894  0.00  0.00     0.084 H 
ENDBRANCH  42  46
ENDBRANCH  29  42
ENDBRANCH   1  29
TORSDOF 12
