REMARK  9 active torsions:
REMARK  status: ('A' for Active; 'I' for Inactive)
REMARK    1  A    between atoms: C4_3  and  S7_4 
REMARK    2  A    between atoms: S7_4  and  N10_6 
REMARK    3  A    between atoms: C6_12  and  N25_25 
REMARK    4  A    between atoms: C1_13  and  S11_14 
REMARK    5  A    between atoms: S11_14  and  C21_17 
REMARK    6  A    between atoms: C21_17  and  C24_18 
REMARK    7  A    between atoms: C24_18  and  C30_19 
REMARK    8  A    between atoms: N25_25  and  C14_26 
REMARK    9  A    between atoms: C14_26  and  C15_27 
ROOT
ATOM      1  F26 V1F d   1     -37.130 -36.216  25.533  0.00  0.00    -0.202 F 
ATOM      2  C5  V1F d   1     -36.938 -35.995  24.216  0.00  0.00     0.170 A 
ATOM      3  C4  V1F d   1     -35.780 -36.286  23.539  0.00  0.00     0.161 A 
ATOM      4  C3  V1F d   1     -35.721 -36.009  22.186  0.00  0.00     0.182 A 
ATOM      5  F12 V1F d   1     -34.572 -36.304  21.508  0.00  0.00    -0.201 F 
ATOM      6  C2  V1F d   1     -36.809 -35.502  21.544  0.00  0.00     0.180 A 
ATOM      7  F13 V1F d   1     -36.699 -35.218  20.200  0.00  0.00    -0.201 F 
ATOM      8  C6  V1F d   1     -38.040 -35.396  23.571  0.00  0.00     0.094 A 
ATOM      9  C1  V1F d   1     -37.953 -35.219  22.181  0.00  0.00     0.130 A 
ENDROOT
BRANCH   9  10
ATOM     10  S11 V1F d   1     -39.432 -34.627  21.287  0.00  0.00     0.181 S 
ATOM     11  O22 V1F d   1     -38.954 -33.827  20.078  0.00  0.00    -0.222 OA
ATOM     12  O23 V1F d   1     -40.227 -33.651  22.155  0.00  0.00    -0.222 OA
BRANCH  10  13
ATOM     13  C21 V1F d   1     -40.672 -35.945  21.146  0.00  0.00     0.037 C 
ATOM     14  H3  V1F d   1     -41.438 -35.648  20.415  0.00  0.00     0.057 H 
ATOM     15  H4  V1F d   1     -41.144 -36.108  22.126  0.00  0.00     0.057 H 
BRANCH  13  16
ATOM     16  C24 V1F d   1     -40.012 -37.229  20.688  0.00  0.00    -0.029 C 
ATOM     17  H5  V1F d   1     -40.233 -38.033  21.405  0.00  0.00     0.041 H 
ATOM     18  H6  V1F d   1     -38.924 -37.082  20.625  0.00  0.00     0.041 H 
BRANCH  16  19
ATOM     19  C30 V1F d   1     -40.552 -37.601  19.329  0.00  0.00    -0.057 A 
ATOM     20  C29 V1F d   1     -39.706 -37.532  18.191  0.00  0.00    -0.077 A 
ATOM     21  C28 V1F d   1     -40.143 -37.894  16.888  0.00  0.00    -0.082 A 
ATOM     22  H7  V1F d   1     -38.686 -37.190  18.321  0.00  0.00     0.084 H 
ATOM     23  C27 V1F d   1     -41.479 -38.339  16.736  0.00  0.00    -0.083 A 
ATOM     24  H8  V1F d   1     -39.475 -37.831  16.037  0.00  0.00     0.083 H 
ATOM     25  C31 V1F d   1     -42.338 -38.414  17.876  0.00  0.00    -0.082 A 
ATOM     26  H11 V1F d   1     -41.849 -38.622  15.757  0.00  0.00     0.083 H 
ATOM     27  C32 V1F d   1     -41.881 -38.046  19.172  0.00  0.00    -0.077 A 
ATOM     28  H10 V1F d   1     -43.358 -38.758  17.750  0.00  0.00     0.083 H 
ATOM     29  H9  V1F d   1     -42.545 -38.107  20.027  0.00  0.00     0.084 H 
ENDBRANCH  16  19
ENDBRANCH  13  16
ENDBRANCH  10  13
ENDBRANCH   9  10
BRANCH   8  30
ATOM     30  N25 V1F d   1     -39.246 -35.176  24.277  0.00  0.00    -0.382 N 
ATOM     31  H12 V1F d   1     -39.638 -36.079  24.581  0.00  0.00     0.160 HD
BRANCH  30  32
ATOM     32  C14 V1F d   1     -40.121 -34.088  24.718  0.00  0.00     0.017 C 
ATOM     33  H13 V1F d   1     -39.855 -33.173  24.169  0.00  0.00     0.071 H 
ATOM     34  H14 V1F d   1     -39.971 -33.925  25.796  0.00  0.00     0.071 H 
BRANCH  32  35
ATOM     35  C15 V1F d   1     -41.608 -34.408  24.464  0.00  0.00    -0.041 A 
ATOM     36  C20 V1F d   1     -42.180 -35.661  24.863  0.00  0.00    -0.075 A 
ATOM     37  C19 V1F d   1     -43.551 -35.874  24.537  0.00  0.00    -0.082 A 
ATOM     38  H15 V1F d   1     -41.598 -36.410  25.387  0.00  0.00     0.084 H 
ATOM     39  C18 V1F d   1     -44.362 -34.891  23.873  0.00  0.00    -0.083 A 
ATOM     40  H16 V1F d   1     -44.004 -36.823  24.803  0.00  0.00     0.083 H 
ATOM     41  C17 V1F d   1     -43.773 -33.666  23.478  0.00  0.00    -0.082 A 
ATOM     42  H17 V1F d   1     -45.410 -35.085  23.677  0.00  0.00     0.083 H 
ATOM     43  C16 V1F d   1     -42.413 -33.447  23.799  0.00  0.00    -0.075 A 
ATOM     44  H18 V1F d   1     -44.348 -32.917  22.945  0.00  0.00     0.083 H 
ATOM     45  H19 V1F d   1     -41.964 -32.499  23.524  0.00  0.00     0.084 H 
ENDBRANCH  32  35
ENDBRANCH  30  32
ENDBRANCH   8  30
BRANCH   3  46
ATOM     46  S7  V1F d   1     -34.323 -36.934  24.353  0.00  0.00     0.263 S 
ATOM     47  O9  V1F d   1     -33.426 -35.878  24.487  0.00  0.00    -0.201 OA
ATOM     48  O8  V1F d   1     -34.066 -38.065  23.606  0.00  0.00    -0.201 OA
BRANCH  46  49
ATOM     49  N10 V1F d   1     -34.648 -37.456  26.002  0.00  0.00    -0.324 N 
ATOM     50  H1  V1F d   1     -33.911 -37.837  26.560  0.00  0.00     0.169 HD
ATOM     51  H2  V1F d   1     -35.570 -37.371  26.381  0.00  0.00     0.169 HD
ENDBRANCH  46  49
ENDBRANCH   3  46
TORSDOF 9
