REMARK WARNING: 32 MAX_TORS EXCEEDED!!!
REMARK  48 active torsions:
REMARK  status: ('A' for Active; 'I' for Inactive)
REMARK    1  A    between atoms: CBG_1  and  CBF_2 
REMARK    2  A    between atoms: CBF_2  and  CBE_3 
REMARK    3  A    between atoms: CBE_3  and  CBD_4 
REMARK    4  A    between atoms: CBD_4  and  CBC_5 
REMARK    5  A    between atoms: CBC_5  and  CBB_6 
REMARK    6  A    between atoms: CBB_6  and  CBA_7 
REMARK    7  A    between atoms: CBA_7  and  CB9_8 
REMARK    8  A    between atoms: CB9_8  and  CB8_9 
REMARK    9  A    between atoms: CB8_9  and  CB7_10 
REMARK   10  A    between atoms: CB7_10  and  CB6_11 
REMARK   11  A    between atoms: CB6_11  and  CB5_12 
REMARK   12  A    between atoms: CB5_12  and  CB4_13 
REMARK   13  A    between atoms: CB4_13  and  CB3_14 
REMARK   14  A    between atoms: CB3_14  and  CB2_15 
REMARK   15  A    between atoms: CB2_15  and  CB1_16 
REMARK   16  A    between atoms: CB1_16  and  OB1_18 
REMARK   17  A    between atoms: OB1_18  and  C7_19 
REMARK   18  A    between atoms: C7_19  and  C8_20 
REMARK   19  A    between atoms: C7_19  and  C9_49 
REMARK   20  A    between atoms: C8_20  and  O13_21 
REMARK   21  A    between atoms: O13_21  and  P1_22 
REMARK   22  A    between atoms: P1_22  and  O1_25 
REMARK   23  A    between atoms: O1_25  and  C1_26 
REMARK   24  A    between atoms: C2_27  and  O2_28 
REMARK   25  A    between atoms: C3_29  and  O3_30 
REMARK   26  A    between atoms: O3_30  and  P3_31 
REMARK   27  A    between atoms: C4_35  and  O4_36 
REMARK   28  A    between atoms: O4_36  and  P4_37 
REMARK   29  A    between atoms: C5_41  and  O5_42 
REMARK   30  A    between atoms: O5_42  and  P5_43 
REMARK   31  A    between atoms: C6_47  and  O6_48 
REMARK   32  A    between atoms: C9_49  and  OA1_50 
REMARK   33  A    between atoms: OA1_50  and  CA1_51 
REMARK   34  A    between atoms: CA1_51  and  CA2_53 
REMARK   35  A    between atoms: CA2_53  and  CA3_54 
REMARK   36  A    between atoms: CA3_54  and  CA4_55 
REMARK   37  A    between atoms: CA4_55  and  CA5_56 
REMARK   38  A    between atoms: CA5_56  and  CA6_57 
REMARK   39  A    between atoms: CA6_57  and  CA7_58 
REMARK   40  A    between atoms: CA7_58  and  CA8_59 
REMARK   41  A    between atoms: CA8_59  and  CA9_60 
REMARK   42  A    between atoms: CA9_60  and  CAA_61 
REMARK   43  A    between atoms: CAA_61  and  CAB_62 
REMARK   44  A    between atoms: CAB_62  and  CAC_63 
REMARK   45  A    between atoms: CAC_63  and  CAD_64 
REMARK   46  A    between atoms: CAD_64  and  CAE_65 
REMARK   47  A    between atoms: CAE_65  and  CAF_66 
REMARK   48  A    between atoms: CAF_66  and  CAG_67 
ROOT
ATOM      1  C7  PIZ d   1     -21.653  44.658 -14.403  0.00  0.00     0.090 C 
ATOM      2  H   PIZ d   1     -21.286  44.642 -13.366  0.00  0.00     0.090 H 
ENDROOT
BRANCH   1   3
ATOM      3  OB1 PIZ d   1     -21.730  43.279 -14.914  0.00  0.00    -0.312 OA
BRANCH   3   4
ATOM      4  CB1 PIZ d   1     -22.883  42.505 -14.564  0.00  0.00     0.259 C 
ATOM      5  OB2 PIZ d   1     -23.823  42.476 -15.350  0.00  0.00    -0.265 OA
BRANCH   4   6
ATOM      6  CB2 PIZ d   1     -22.618  41.227 -13.724  0.00  0.00     0.016 C 
ATOM      7  H   PIZ d   1     -22.089  40.500 -14.358  0.00  0.00     0.048 H 
ATOM      8  H   PIZ d   1     -21.981  41.501 -12.870  0.00  0.00     0.048 H 
BRANCH   6   9
ATOM      9  CB3 PIZ d   1     -23.896  40.555 -13.179  0.00  0.00    -0.057 C 
ATOM     10  H   PIZ d   1     -24.138  40.976 -12.192  0.00  0.00     0.033 H 
ATOM     11  H   PIZ d   1     -24.730  40.740 -13.872  0.00  0.00     0.033 H 
BRANCH   9  12
ATOM     12  CB4 PIZ d   1     -23.670  39.050 -13.047  0.00  0.00    -0.065 C 
ATOM     13  H   PIZ d   1     -23.415  38.651 -14.040  0.00  0.00     0.033 H 
ATOM     14  H   PIZ d   1     -22.828  38.886 -12.358  0.00  0.00     0.033 H 
BRANCH  12  15
ATOM     15  CB5 PIZ d   1     -24.898  38.269 -12.509  0.00  0.00    -0.065 C 
ATOM     16  H   PIZ d   1     -25.390  38.862 -11.724  0.00  0.00     0.033 H 
ATOM     17  H   PIZ d   1     -25.605  38.092 -13.333  0.00  0.00     0.033 H 
BRANCH  15  18
ATOM     18  CB6 PIZ d   1     -24.459  36.936 -11.929  0.00  0.00    -0.065 C 
ATOM     19  H   PIZ d   1     -24.768  36.135 -12.616  0.00  0.00     0.033 H 
ATOM     20  H   PIZ d   1     -23.363  36.937 -11.836  0.00  0.00     0.033 H 
BRANCH  18  21
ATOM     21  CB7 PIZ d   1     -25.075  36.656 -10.531  0.00  0.00    -0.065 C 
ATOM     22  H   PIZ d   1     -25.901  37.362 -10.357  0.00  0.00     0.033 H 
ATOM     23  H   PIZ d   1     -25.462  35.627 -10.511  0.00  0.00     0.033 H 
BRANCH  21  24
ATOM     24  CB8 PIZ d   1     -24.032  36.820  -9.408  0.00  0.00    -0.065 C 
ATOM     25  H   PIZ d   1     -23.795  35.828  -8.995  0.00  0.00     0.033 H 
ATOM     26  H   PIZ d   1     -23.121  37.268  -9.832  0.00  0.00     0.033 H 
BRANCH  24  27
ATOM     27  CB9 PIZ d   1     -24.551  37.728  -8.263  0.00  0.00    -0.065 C 
ATOM     28  H   PIZ d   1     -24.863  38.693  -8.689  0.00  0.00     0.033 H 
ATOM     29  H   PIZ d   1     -25.415  37.241  -7.788  0.00  0.00     0.033 H 
BRANCH  27  30
ATOM     30  CBA PIZ d   1     -23.473  37.983  -7.192  0.00  0.00    -0.065 C 
ATOM     31  H   PIZ d   1     -23.930  38.527  -6.352  0.00  0.00     0.033 H 
ATOM     32  H   PIZ d   1     -23.090  37.015  -6.837  0.00  0.00     0.033 H 
BRANCH  30  33
ATOM     33  CBB PIZ d   1     -22.303  38.807  -7.736  0.00  0.00    -0.065 C 
ATOM     34  H   PIZ d   1     -22.509  39.070  -8.784  0.00  0.00     0.033 H 
ATOM     35  H   PIZ d   1     -22.207  39.726  -7.140  0.00  0.00     0.033 H 
BRANCH  33  36
ATOM     36  CBC PIZ d   1     -20.992  38.036  -7.669  0.00  0.00    -0.065 C 
ATOM     37  H   PIZ d   1     -21.218  36.961  -7.609  0.00  0.00     0.033 H 
ATOM     38  H   PIZ d   1     -20.417  38.239  -8.585  0.00  0.00     0.033 H 
BRANCH  36  39
ATOM     39  CBD PIZ d   1     -20.153  38.420  -6.478  0.00  0.00    -0.065 C 
ATOM     40  H   PIZ d   1     -20.084  39.517  -6.430  0.00  0.00     0.033 H 
ATOM     41  H   PIZ d   1     -20.637  38.043  -5.565  0.00  0.00     0.033 H 
BRANCH  39  42
ATOM     42  CBE PIZ d   1     -18.733  37.834  -6.568  0.00  0.00    -0.065 C 
ATOM     43  H   PIZ d   1     -18.546  37.503  -7.600  0.00  0.00     0.033 H 
ATOM     44  H   PIZ d   1     -18.005  38.613  -6.295  0.00  0.00     0.033 H 
BRANCH  42  45
ATOM     45  CBF PIZ d   1     -18.567  36.644  -5.625  0.00  0.00    -0.069 C 
ATOM     46  H   PIZ d   1     -19.551  36.183  -5.457  0.00  0.00     0.032 H 
ATOM     47  H   PIZ d   1     -17.893  35.910  -6.092  0.00  0.00     0.032 H 
BRANCH  45  48
ATOM     48  CBG PIZ d   1     -17.982  37.066  -4.280  0.00  0.00    -0.077 C 
ATOM     49  H   PIZ d   1     -17.879  36.183  -3.632  0.00  0.00     0.027 H 
ATOM     50  H   PIZ d   1     -18.652  37.796  -3.801  0.00  0.00     0.027 H 
ATOM     51  H   PIZ d   1     -16.994  37.523  -4.437  0.00  0.00     0.027 H 
ENDBRANCH  45  48
ENDBRANCH  42  45
ENDBRANCH  39  42
ENDBRANCH  36  39
ENDBRANCH  33  36
ENDBRANCH  30  33
ENDBRANCH  27  30
ENDBRANCH  24  27
ENDBRANCH  21  24
ENDBRANCH  18  21
ENDBRANCH  15  18
ENDBRANCH  12  15
ENDBRANCH   9  12
ENDBRANCH   6   9
ENDBRANCH   4   6
ENDBRANCH   3   4
ENDBRANCH   1   3
BRANCH   1  52
ATOM     52  C8  PIZ d   1     -23.054  45.304 -14.412  0.00  0.00     0.058 C 
ATOM     53  H   PIZ d   1     -23.813  44.565 -14.117  0.00  0.00     0.079 H 
ATOM     54  H   PIZ d   1     -23.287  45.688 -15.416  0.00  0.00     0.079 H 
BRANCH  52  55
ATOM     55  O13 PIZ d   1     -23.024  46.375 -13.474  0.00  0.00    -0.287 OA
BRANCH  55  56
ATOM     56  P1  PIZ d   1     -23.838  46.215 -12.131  0.00  0.00     0.408 P 
ATOM     57  O12 PIZ d   1     -24.261  44.772 -11.962  0.00  0.00    -0.624 OA
ATOM     58  O11 PIZ d   1     -22.992  46.654 -10.966  0.00  0.00    -0.624 OA
BRANCH  56  59
ATOM     59  O1  PIZ d   1     -25.179  47.156 -12.228  0.00  0.00    -0.279 OA
BRANCH  59  60
ATOM     60  C1  PIZ d   1     -24.982  48.602 -12.321  0.00  0.00     0.105 C 
ATOM     61  C2  PIZ d   1     -25.444  49.229 -11.028  0.00  0.00     0.091 C 
ATOM     62  C3  PIZ d   1     -25.609  50.751 -11.110  0.00  0.00     0.106 C 
ATOM     63  H   PIZ d   1     -24.703  49.004 -10.247  0.00  0.00     0.091 H 
ATOM     64  C4  PIZ d   1     -26.414  51.240 -12.323  0.00  0.00     0.107 C 
ATOM     65  H   PIZ d   1     -24.607  51.200 -11.176  0.00  0.00     0.092 H 
ATOM     66  C5  PIZ d   1     -26.017  50.580 -13.644  0.00  0.00     0.106 C 
ATOM     67  H   PIZ d   1     -27.479  51.037 -12.136  0.00  0.00     0.092 H 
ATOM     68  C6  PIZ d   1     -25.765  49.075 -13.563  0.00  0.00     0.091 C 
ATOM     69  H   PIZ d   1     -25.092  51.060 -13.996  0.00  0.00     0.092 H 
ATOM     70  H   PIZ d   1     -26.749  48.584 -13.532  0.00  0.00     0.091 H 
ATOM     71  H   PIZ d   1     -23.915  48.831 -12.462  0.00  0.00     0.092 H 
BRANCH  61  72
ATOM     72  O2  PIZ d   1     -26.688  48.647 -10.679  0.00  0.00    -0.390 OA
ATOM     73  H   PIZ d   1     -26.998  49.028  -9.866  0.00  0.00     0.210 HD
ENDBRANCH  61  72
BRANCH  62  74
ATOM     74  O3  PIZ d   1     -26.227  51.178  -9.899  0.00  0.00    -0.272 OA
BRANCH  74  75
ATOM     75  P3  PIZ d   1     -25.410  52.261  -9.041  0.00  0.00     0.422 P 
ATOM     76  O31 PIZ d   1     -26.289  52.801  -7.940  0.00  0.00    -0.617 OA
ATOM     77  O32 PIZ d   1     -24.184  51.612  -8.458  0.00  0.00    -0.617 OA
ATOM     78  O33 PIZ d   1     -24.975  53.393  -9.949  0.00  0.00    -0.617 OA
ENDBRANCH  74  75
ENDBRANCH  62  74
BRANCH  64  79
ATOM     79  O4  PIZ d   1     -26.209  52.657 -12.470  0.00  0.00    -0.272 OA
BRANCH  79  80
ATOM     80  P4  PIZ d   1     -27.480  53.576 -12.369  0.00  0.00     0.422 P 
ATOM     81  O41 PIZ d   1     -28.029  53.523 -10.965  0.00  0.00    -0.617 OA
ATOM     82  O42 PIZ d   1     -27.099  55.000 -12.711  0.00  0.00    -0.617 OA
ATOM     83  O43 PIZ d   1     -28.527  53.089 -13.331  0.00  0.00    -0.617 OA
ENDBRANCH  79  80
ENDBRANCH  64  79
BRANCH  66  84
ATOM     84  O5  PIZ d   1     -27.061  50.805 -14.602  0.00  0.00    -0.272 OA
BRANCH  84  85
ATOM     85  P5  PIZ d   1     -26.651  51.487 -16.006  0.00  0.00     0.422 P 
ATOM     86  O51 PIZ d   1     -27.892  52.018 -16.684  0.00  0.00    -0.617 OA
ATOM     87  O52 PIZ d   1     -25.687  52.628 -15.758  0.00  0.00    -0.617 OA
ATOM     88  O53 PIZ d   1     -25.983  50.451 -16.892  0.00  0.00    -0.617 OA
ENDBRANCH  84  85
ENDBRANCH  66  84
BRANCH  68  89
ATOM     89  O6  PIZ d   1     -25.102  48.651 -14.712  0.00  0.00    -0.390 OA
ATOM     90  H   PIZ d   1     -25.637  48.842 -15.474  0.00  0.00     0.210 HD
ENDBRANCH  68  89
ENDBRANCH  59  60
ENDBRANCH  56  59
ENDBRANCH  55  56
ENDBRANCH  52  55
ENDBRANCH   1  52
BRANCH   1  91
ATOM     91  C9  PIZ d   1     -20.647  45.421 -15.270  0.00  0.00     0.055 C 
ATOM     92  H   PIZ d   1     -20.024  46.073 -14.640  0.00  0.00     0.079 H 
ATOM     93  H   PIZ d   1     -21.177  46.030 -16.017  0.00  0.00     0.079 H 
BRANCH  91  94
ATOM     94  OA1 PIZ d   1     -19.822  44.433 -15.930  0.00  0.00    -0.319 OA
BRANCH  94  95
ATOM     95  CA1 PIZ d   1     -18.490  44.355 -15.483  0.00  0.00     0.258 C 
ATOM     96  OA2 PIZ d   1     -18.081  45.119 -14.617  0.00  0.00    -0.265 OA
BRANCH  95  97
ATOM     97  CA2 PIZ d   1     -17.608  43.202 -15.977  0.00  0.00     0.016 C 
ATOM     98  H   PIZ d   1     -16.700  43.154 -15.357  0.00  0.00     0.048 H 
ATOM     99  H   PIZ d   1     -17.328  43.389 -17.024  0.00  0.00     0.048 H 
BRANCH  97 100
ATOM    100  CA3 PIZ d   1     -18.353  41.841 -15.888  0.00  0.00    -0.057 C 
ATOM    101  H   PIZ d   1     -18.060  41.221 -16.748  0.00  0.00     0.033 H 
ATOM    102  H   PIZ d   1     -19.436  42.029 -15.924  0.00  0.00     0.033 H 
BRANCH 100 103
ATOM    103  CA4 PIZ d   1     -18.016  41.050 -14.551  0.00  0.00    -0.065 C 
ATOM    104  H   PIZ d   1     -18.020  41.757 -13.708  0.00  0.00     0.033 H 
ATOM    105  H   PIZ d   1     -17.017  40.599 -14.646  0.00  0.00     0.033 H 
BRANCH 103 106
ATOM    106  CA5 PIZ d   1     -19.031  39.947 -14.274  0.00  0.00    -0.065 C 
ATOM    107  H   PIZ d   1     -18.893  39.147 -15.016  0.00  0.00     0.033 H 
ATOM    108  H   PIZ d   1     -20.043  40.367 -14.371  0.00  0.00     0.033 H 
BRANCH 106 109
ATOM    109  CA6 PIZ d   1     -18.880  39.343 -12.864  0.00  0.00    -0.065 C 
ATOM    110  H   PIZ d   1     -19.280  40.056 -12.127  0.00  0.00     0.033 H 
ATOM    111  H   PIZ d   1     -17.812  39.169 -12.664  0.00  0.00     0.033 H 
BRANCH 109 112
ATOM    112  CA7 PIZ d   1     -19.643  37.995 -12.724  0.00  0.00    -0.065 C 
ATOM    113  H   PIZ d   1     -19.351  37.334 -13.553  0.00  0.00     0.033 H 
ATOM    114  H   PIZ d   1     -20.724  38.192 -12.776  0.00  0.00     0.033 H 
BRANCH 112 115
ATOM    115  CA8 PIZ d   1     -19.330  37.288 -11.391  0.00  0.00    -0.065 C 
ATOM    116  H   PIZ d   1     -19.995  37.689 -10.611  0.00  0.00     0.033 H 
ATOM    117  H   PIZ d   1     -18.283  37.489 -11.119  0.00  0.00     0.033 H 
BRANCH 115 118
ATOM    118  CA9 PIZ d   1     -19.535  35.769 -11.485  0.00  0.00    -0.065 C 
ATOM    119  H   PIZ d   1     -18.734  35.343 -12.107  0.00  0.00     0.033 H 
ATOM    120  H   PIZ d   1     -20.509  35.573 -11.957  0.00  0.00     0.033 H 
BRANCH 118 121
ATOM    121  CAA PIZ d   1     -19.508  35.076 -10.094  0.00  0.00    -0.065 C 
ATOM    122  H   PIZ d   1     -19.956  35.753  -9.352  0.00  0.00     0.033 H 
ATOM    123  H   PIZ d   1     -18.462  34.872  -9.820  0.00  0.00     0.033 H 
BRANCH 121 124
ATOM    124  CAB PIZ d   1     -20.286  33.756 -10.092  0.00  0.00    -0.065 C 
ATOM    125  H   PIZ d   1     -19.662  32.974 -10.549  0.00  0.00     0.033 H 
ATOM    126  H   PIZ d   1     -21.205  33.883 -10.683  0.00  0.00     0.033 H 
BRANCH 124 127
ATOM    127  CAC PIZ d   1     -20.672  33.314  -8.644  0.00  0.00    -0.065 C 
ATOM    128  H   PIZ d   1     -19.754  33.195  -8.050  0.00  0.00     0.033 H 
ATOM    129  H   PIZ d   1     -21.205  32.353  -8.693  0.00  0.00     0.033 H 
BRANCH 127 130
ATOM    130  CAD PIZ d   1     -21.603  34.383  -7.944  0.00  0.00    -0.065 C 
ATOM    131  H   PIZ d   1     -22.056  35.020  -8.718  0.00  0.00     0.033 H 
ATOM    132  H   PIZ d   1     -20.990  35.002  -7.272  0.00  0.00     0.033 H 
BRANCH 130 133
ATOM    133  CAE PIZ d   1     -22.714  33.732  -7.133  0.00  0.00    -0.065 C 
ATOM    134  H   PIZ d   1     -22.396  32.718  -6.850  0.00  0.00     0.033 H 
ATOM    135  H   PIZ d   1     -23.618  33.672  -7.757  0.00  0.00     0.033 H 
BRANCH 133 136
ATOM    136  CAF PIZ d   1     -23.045  34.511  -5.867  0.00  0.00    -0.069 C 
ATOM    137  H   PIZ d   1     -23.185  35.571  -6.127  0.00  0.00     0.032 H 
ATOM    138  H   PIZ d   1     -22.208  34.414  -5.160  0.00  0.00     0.032 H 
BRANCH 136 139
ATOM    139  CAG PIZ d   1     -24.302  33.998  -5.210  0.00  0.00    -0.077 C 
ATOM    140  H   PIZ d   1     -24.507  34.584  -4.302  0.00  0.00     0.027 H 
ATOM    141  H   PIZ d   1     -24.169  32.940  -4.941  0.00  0.00     0.027 H 
ATOM    142  H   PIZ d   1     -25.147  34.096  -5.908  0.00  0.00     0.027 H 
ENDBRANCH 136 139
ENDBRANCH 133 136
ENDBRANCH 130 133
ENDBRANCH 127 130
ENDBRANCH 124 127
ENDBRANCH 121 124
ENDBRANCH 118 121
ENDBRANCH 115 118
ENDBRANCH 112 115
ENDBRANCH 109 112
ENDBRANCH 106 109
ENDBRANCH 103 106
ENDBRANCH 100 103
ENDBRANCH  97 100
ENDBRANCH  95  97
ENDBRANCH  94  95
ENDBRANCH  91  94
ENDBRANCH   1  91
TORSDOF 48
