REMARK WARNING: 32 MAX_TORS EXCEEDED!!!
REMARK  47 active torsions:
REMARK  status: ('A' for Active; 'I' for Inactive)
REMARK    1  A    between atoms: P1_1  and  O13_4 
REMARK    2  A    between atoms: O1_31  and  P1_1 
REMARK    3  A    between atoms: O13_4  and  C7_24 
REMARK    4  A    between atoms: CBF_6  and  CBG_5 
REMARK    5  A    between atoms: CBE_7  and  CBF_6 
REMARK    6  A    between atoms: CBD_8  and  CBE_7 
REMARK    7  A    between atoms: CBC_9  and  CBD_8 
REMARK    8  A    between atoms: CBB_10  and  CBC_9 
REMARK    9  A    between atoms: CBA_11  and  CBB_10 
REMARK   10  A    between atoms: CB9_12  and  CBA_11 
REMARK   11  A    between atoms: CB8_13  and  CB9_12 
REMARK   12  A    between atoms: CB7_14  and  CB8_13 
REMARK   13  A    between atoms: CB6_15  and  CB7_14 
REMARK   14  A    between atoms: CB5_16  and  CB6_15 
REMARK   15  A    between atoms: CB4_17  and  CB5_16 
REMARK   16  A    between atoms: CB3_18  and  CB4_17 
REMARK   17  A    between atoms: CB2_19  and  CB3_18 
REMARK   18  A    between atoms: CB1_20  and  CB2_19 
REMARK   19  A    between atoms: OB1_22  and  CB1_20 
REMARK   20  A    between atoms: C8_23  and  OB1_22 
REMARK   21  A    between atoms: C7_24  and  C8_23 
REMARK   22  A    between atoms: C8_23  and  C9_45 
REMARK   23  A    between atoms: C1_25  and  O1_31 
REMARK   24  A    between atoms: C2_26  and  O2_32 
REMARK   25  A    between atoms: C3_27  and  O3_33 
REMARK   26  A    between atoms: C4_28  and  O4_34 
REMARK   27  A    between atoms: C5_29  and  O5_35 
REMARK   28  A    between atoms: C6_30  and  O6_36 
REMARK   29  A    between atoms: O4_34  and  P4_37 
REMARK   30  A    between atoms: O5_35  and  P5_41 
REMARK   31  A    between atoms: C9_45  and  OA1_46 
REMARK   32  A    between atoms: OA1_46  and  CA1_47 
REMARK   33  A    between atoms: CA1_47  and  CA2_49 
REMARK   34  A    between atoms: CA2_49  and  CA3_50 
REMARK   35  A    between atoms: CA3_50  and  CA4_51 
REMARK   36  A    between atoms: CA4_51  and  CA5_52 
REMARK   37  A    between atoms: CA5_52  and  CA6_53 
REMARK   38  A    between atoms: CA6_53  and  CA7_54 
REMARK   39  A    between atoms: CA7_54  and  CA8_55 
REMARK   40  A    between atoms: CA8_55  and  CA9_56 
REMARK   41  A    between atoms: CA9_56  and  CAA_57 
REMARK   42  A    between atoms: CAA_57  and  CAB_58 
REMARK   43  A    between atoms: CAB_58  and  CAC_59 
REMARK   44  A    between atoms: CAC_59  and  CAD_60 
REMARK   45  A    between atoms: CAD_60  and  CAE_61 
REMARK   46  A    between atoms: CAE_61  and  CAF_62 
REMARK   47  A    between atoms: CAF_62  and  CAG_63 
ROOT
ATOM      1  C8  PIK d   1     -21.652  44.262 -14.038  0.00  0.00     0.090 C 
ATOM      2  H   PIK d   1     -20.871  44.238 -13.263  0.00  0.00     0.090 H 
ENDROOT
BRANCH   1   3
ATOM      3  OB1 PIK d   1     -21.748  42.934 -14.636  0.00  0.00    -0.312 OA
BRANCH   3   4
ATOM      4  CB1 PIK d   1     -23.034  42.246 -14.506  0.00  0.00     0.259 C 
ATOM      5  OB2 PIK d   1     -23.898  42.421 -15.352  0.00  0.00    -0.265 OA
BRANCH   4   6
ATOM      6  CB2 PIK d   1     -23.120  41.009 -13.593  0.00  0.00     0.016 C 
ATOM      7  H   PIK d   1     -22.375  40.271 -13.926  0.00  0.00     0.048 H 
ATOM      8  H   PIK d   1     -22.896  41.315 -12.561  0.00  0.00     0.048 H 
BRANCH   6   9
ATOM      9  CB3 PIK d   1     -24.524  40.350 -13.624  0.00  0.00    -0.057 C 
ATOM     10  H   PIK d   1     -25.286  41.143 -13.639  0.00  0.00     0.033 H 
ATOM     11  H   PIK d   1     -24.609  39.743 -14.538  0.00  0.00     0.033 H 
BRANCH   9  12
ATOM     12  CB4 PIK d   1     -24.780  39.436 -12.393  0.00  0.00    -0.065 C 
ATOM     13  H   PIK d   1     -23.913  39.501 -11.719  0.00  0.00     0.033 H 
ATOM     14  H   PIK d   1     -25.679  39.792 -11.869  0.00  0.00     0.033 H 
BRANCH  12  15
ATOM     15  CB5 PIK d   1     -24.992  37.945 -12.794  0.00  0.00    -0.065 C 
ATOM     16  H   PIK d   1     -26.066  37.778 -12.962  0.00  0.00     0.033 H 
ATOM     17  H   PIK d   1     -24.441  37.752 -13.726  0.00  0.00     0.033 H 
BRANCH  15  18
ATOM     18  CB6 PIK d   1     -24.504  36.954 -11.723  0.00  0.00    -0.065 C 
ATOM     19  H   PIK d   1     -24.864  35.948 -11.985  0.00  0.00     0.033 H 
ATOM     20  H   PIK d   1     -23.404  36.959 -11.714  0.00  0.00     0.033 H 
BRANCH  18  21
ATOM     21  CB7 PIK d   1     -25.015  37.309 -10.294  0.00  0.00    -0.065 C 
ATOM     22  H   PIK d   1     -25.789  38.086 -10.379  0.00  0.00     0.033 H 
ATOM     23  H   PIK d   1     -25.450  36.406  -9.840  0.00  0.00     0.033 H 
BRANCH  21  24
ATOM     24  CB8 PIK d   1     -23.893  37.828  -9.382  0.00  0.00    -0.065 C 
ATOM     25  H   PIK d   1     -23.084  37.083  -9.359  0.00  0.00     0.033 H 
ATOM     26  H   PIK d   1     -23.510  38.773  -9.795  0.00  0.00     0.033 H 
BRANCH  24  27
ATOM     27  CB9 PIK d   1     -24.376  38.078  -7.942  0.00  0.00    -0.065 C 
ATOM     28  H   PIK d   1     -24.863  39.064  -7.902  0.00  0.00     0.033 H 
ATOM     29  H   PIK d   1     -25.105  37.298  -7.676  0.00  0.00     0.033 H 
BRANCH  27  30
ATOM     30  CBA PIK d   1     -23.240  38.053  -6.918  0.00  0.00    -0.065 C 
ATOM     31  H   PIK d   1     -23.608  38.482  -5.974  0.00  0.00     0.033 H 
ATOM     32  H   PIK d   1     -22.939  37.008  -6.753  0.00  0.00     0.033 H 
BRANCH  30  33
ATOM     33  CBB PIK d   1     -22.008  38.852  -7.372  0.00  0.00    -0.065 C 
ATOM     34  H   PIK d   1     -22.256  39.385  -8.302  0.00  0.00     0.033 H 
ATOM     35  H   PIK d   1     -21.752  39.581  -6.589  0.00  0.00     0.033 H 
BRANCH  33  36
ATOM     36  CBC PIK d   1     -20.788  37.955  -7.628  0.00  0.00    -0.065 C 
ATOM     37  H   PIK d   1     -20.924  37.011  -7.081  0.00  0.00     0.033 H 
ATOM     38  H   PIK d   1     -20.723  37.748  -8.706  0.00  0.00     0.033 H 
BRANCH  36  39
ATOM     39  CBD PIK d   1     -19.438  38.621  -7.159  0.00  0.00    -0.065 C 
ATOM     40  H   PIK d   1     -18.910  39.015  -8.040  0.00  0.00     0.033 H 
ATOM     41  H   PIK d   1     -19.668  39.447  -6.470  0.00  0.00     0.033 H 
BRANCH  39  42
ATOM     42  CBE PIK d   1     -18.531  37.615  -6.444  0.00  0.00    -0.065 C 
ATOM     43  H   PIK d   1     -19.030  36.635  -6.428  0.00  0.00     0.033 H 
ATOM     44  H   PIK d   1     -17.583  37.535  -6.996  0.00  0.00     0.033 H 
BRANCH  42  45
ATOM     45  CBF PIK d   1     -18.226  38.048  -4.980  0.00  0.00    -0.069 C 
ATOM     46  H   PIK d   1     -17.138  38.157  -4.858  0.00  0.00     0.032 H 
ATOM     47  H   PIK d   1     -18.716  39.013  -4.783  0.00  0.00     0.032 H 
BRANCH  45  48
ATOM     48  CBG PIK d   1     -18.731  37.030  -3.989  0.00  0.00    -0.077 C 
ATOM     49  H   PIK d   1     -18.500  37.367  -2.968  0.00  0.00     0.027 H 
ATOM     50  H   PIK d   1     -18.242  36.062  -4.176  0.00  0.00     0.027 H 
ATOM     51  H   PIK d   1     -19.820  36.918  -4.100  0.00  0.00     0.027 H 
ENDBRANCH  45  48
ENDBRANCH  42  45
ENDBRANCH  39  42
ENDBRANCH  36  39
ENDBRANCH  33  36
ENDBRANCH  30  33
ENDBRANCH  27  30
ENDBRANCH  24  27
ENDBRANCH  21  24
ENDBRANCH  18  21
ENDBRANCH  15  18
ENDBRANCH  12  15
ENDBRANCH   9  12
ENDBRANCH   6   9
ENDBRANCH   4   6
ENDBRANCH   3   4
ENDBRANCH   1   3
BRANCH   1  52
ATOM     52  C7  PIK d   1     -22.978  44.624 -13.345  0.00  0.00     0.058 C 
ATOM     53  H   PIK d   1     -23.820  44.304 -13.976  0.00  0.00     0.079 H 
ATOM     54  H   PIK d   1     -23.034  44.113 -12.372  0.00  0.00     0.079 H 
BRANCH  52  55
ATOM     55  O13 PIK d   1     -23.043  46.044 -13.144  0.00  0.00    -0.287 OA
BRANCH  55  56
ATOM     56  P1  PIK d   1     -24.035  46.574 -12.017  0.00  0.00     0.408 P 
ATOM     57  O11 PIK d   1     -25.423  46.068 -12.306  0.00  0.00    -0.624 OA
ATOM     58  O12 PIK d   1     -23.591  46.071 -10.670  0.00  0.00    -0.624 OA
BRANCH  56  59
ATOM     59  O1  PIK d   1     -24.052  48.158 -12.021  0.00  0.00    -0.279 OA
BRANCH  59  60
ATOM     60  C1  PIK d   1     -25.282  48.793 -12.337  0.00  0.00     0.105 C 
ATOM     61  C2  PIK d   1     -25.248  49.343 -13.753  0.00  0.00     0.090 C 
ATOM     62  C3  PIK d   1     -26.612  49.898 -14.091  0.00  0.00     0.091 C 
ATOM     63  H   PIK d   1     -24.974  48.549 -14.463  0.00  0.00     0.091 H 
ATOM     64  C4  PIK d   1     -27.000  50.991 -13.099  0.00  0.00     0.106 C 
ATOM     65  H   PIK d   1     -27.347  49.084 -14.012  0.00  0.00     0.091 H 
ATOM     66  C5  PIK d   1     -26.999  50.447 -11.681  0.00  0.00     0.106 C 
ATOM     67  H   PIK d   1     -26.250  51.794 -13.158  0.00  0.00     0.092 H 
ATOM     68  C6  PIK d   1     -25.623  49.901 -11.354  0.00  0.00     0.091 C 
ATOM     69  H   PIK d   1     -27.731  49.629 -11.614  0.00  0.00     0.092 H 
ATOM     70  H   PIK d   1     -24.886  50.710 -11.463  0.00  0.00     0.091 H 
ATOM     71  H   PIK d   1     -26.077  48.035 -12.281  0.00  0.00     0.092 H 
BRANCH  61  72
ATOM     72  O2  PIK d   1     -24.313  50.386 -13.808  0.00  0.00    -0.390 OA
ATOM     73  H   PIK d   1     -24.304  50.756 -14.683  0.00  0.00     0.210 HD
ENDBRANCH  61  72
BRANCH  62  74
ATOM     74  O3  PIK d   1     -26.633  50.389 -15.429  0.00  0.00    -0.390 OA
ATOM     75  H   PIK d   1     -27.508  50.695 -15.639  0.00  0.00     0.210 HD
ENDBRANCH  62  74
BRANCH  64  76
ATOM     76  O4  PIK d   1     -28.265  51.540 -13.443  0.00  0.00    -0.272 OA
BRANCH  76  77
ATOM     77  P4  PIK d   1     -28.332  53.038 -13.853  0.00  0.00     0.422 P 
ATOM     78  O41 PIK d   1     -27.799  53.193 -15.253  0.00  0.00    -0.617 OA
ATOM     79  O42 PIK d   1     -29.763  53.509 -13.805  0.00  0.00    -0.617 OA
ATOM     80  O43 PIK d   1     -27.496  53.860 -12.899  0.00  0.00    -0.617 OA
ENDBRANCH  76  77
ENDBRANCH  64  76
BRANCH  66  81
ATOM     81  O5  PIK d   1     -27.355  51.431 -10.783  0.00  0.00    -0.272 OA
BRANCH  81  82
ATOM     82  P5  PIK d   1     -28.327  51.052  -9.593  0.00  0.00     0.422 P 
ATOM     83  O51 PIK d   1     -27.523  50.813  -8.344  0.00  0.00    -0.617 OA
ATOM     84  O52 PIK d   1     -29.301  52.188  -9.354  0.00  0.00    -0.617 OA
ATOM     85  O53 PIK d   1     -29.092  49.796  -9.947  0.00  0.00    -0.617 OA
ENDBRANCH  81  82
ENDBRANCH  66  81
BRANCH  68  86
ATOM     86  O6  PIK d   1     -25.573  49.421  -9.997  0.00  0.00    -0.390 OA
ATOM     87  H   PIK d   1     -25.769  50.135  -9.402  0.00  0.00     0.210 HD
ENDBRANCH  68  86
ENDBRANCH  59  60
ENDBRANCH  56  59
ENDBRANCH  55  56
ENDBRANCH  52  55
ENDBRANCH   1  52
BRANCH   1  88
ATOM     88  C9  PIK d   1     -21.208  45.275 -15.115  0.00  0.00     0.055 C 
ATOM     89  H   PIK d   1     -20.802  46.175 -14.631  0.00  0.00     0.079 H 
ATOM     90  H   PIK d   1     -22.070  45.552 -15.740  0.00  0.00     0.079 H 
BRANCH  88  91
ATOM     91  OA1 PIK d   1     -20.182  44.659 -15.942  0.00  0.00    -0.319 OA
BRANCH  91  92
ATOM     92  CA1 PIK d   1     -18.946  44.312 -15.266  0.00  0.00     0.258 C 
ATOM     93  OA2 PIK d   1     -18.595  44.926 -14.262  0.00  0.00    -0.265 OA
BRANCH  92  94
ATOM     94  CA2 PIK d   1     -17.923  43.373 -15.975  0.00  0.00     0.016 C 
ATOM     95  H   PIK d   1     -16.933  43.521 -15.519  0.00  0.00     0.048 H 
ATOM     96  H   PIK d   1     -17.879  43.639 -17.041  0.00  0.00     0.048 H 
BRANCH  94  97
ATOM     97  CA3 PIK d   1     -18.304  41.893 -15.853  0.00  0.00    -0.057 C 
ATOM     98  H   PIK d   1     -17.466  41.285 -16.225  0.00  0.00     0.033 H 
ATOM     99  H   PIK d   1     -19.194  41.709 -16.473  0.00  0.00     0.033 H 
BRANCH  97 100
ATOM    100  CA4 PIK d   1     -18.614  41.466 -14.420  0.00  0.00    -0.065 C 
ATOM    101  H   PIK d   1     -19.453  42.068 -14.041  0.00  0.00     0.033 H 
ATOM    102  H   PIK d   1     -17.726  41.641 -13.795  0.00  0.00     0.033 H 
BRANCH 100 103
ATOM    103  CA5 PIK d   1     -18.991  39.985 -14.346  0.00  0.00    -0.065 C 
ATOM    104  H   PIK d   1     -18.447  39.445 -15.135  0.00  0.00     0.033 H 
ATOM    105  H   PIK d   1     -20.073  39.890 -14.517  0.00  0.00     0.033 H 
BRANCH 103 106
ATOM    106  CA6 PIK d   1     -18.656  39.351 -13.008  0.00  0.00    -0.065 C 
ATOM    107  H   PIK d   1     -18.656  40.133 -12.234  0.00  0.00     0.033 H 
ATOM    108  H   PIK d   1     -17.656  38.897 -13.070  0.00  0.00     0.033 H 
BRANCH 106 109
ATOM    109  CA7 PIK d   1     -19.681  38.256 -12.615  0.00  0.00    -0.065 C 
ATOM    110  H   PIK d   1     -19.819  37.578 -13.470  0.00  0.00     0.033 H 
ATOM    111  H   PIK d   1     -20.639  38.739 -12.372  0.00  0.00     0.033 H 
BRANCH 109 112
ATOM    112  CA8 PIK d   1     -19.222  37.433 -11.402  0.00  0.00    -0.065 C 
ATOM    113  H   PIK d   1     -19.537  37.950 -10.483  0.00  0.00     0.033 H 
ATOM    114  H   PIK d   1     -18.125  37.355 -11.421  0.00  0.00     0.033 H 
BRANCH 112 115
ATOM    115  CA9 PIK d   1     -19.824  36.008 -11.404  0.00  0.00    -0.065 C 
ATOM    116  H   PIK d   1     -19.235  35.379 -12.088  0.00  0.00     0.033 H 
ATOM    117  H   PIK d   1     -20.863  36.066 -11.761  0.00  0.00     0.033 H 
BRANCH 115 118
ATOM    118  CAA PIK d   1     -19.819  35.362 -10.019  0.00  0.00    -0.065 C 
ATOM    119  H   PIK d   1     -20.323  36.035  -9.310  0.00  0.00     0.033 H 
ATOM    120  H   PIK d   1     -18.777  35.208  -9.701  0.00  0.00     0.033 H 
BRANCH 118 121
ATOM    121  CAB PIK d   1     -20.540  34.016 -10.020  0.00  0.00    -0.065 C 
ATOM    122  H   PIK d   1     -19.875  33.259 -10.461  0.00  0.00     0.033 H 
ATOM    123  H   PIK d   1     -21.451  34.104 -10.630  0.00  0.00     0.033 H 
BRANCH 121 124
ATOM    124  CAC PIK d   1     -20.935  33.561  -8.603  0.00  0.00    -0.065 C 
ATOM    125  H   PIK d   1     -20.036  33.547  -7.969  0.00  0.00     0.033 H 
ATOM    126  H   PIK d   1     -21.359  32.548  -8.659  0.00  0.00     0.033 H 
BRANCH 124 127
ATOM    127  CAD PIK d   1     -21.963  34.492  -7.980  0.00  0.00    -0.065 C 
ATOM    128  H   PIK d   1     -22.577  34.928  -8.782  0.00  0.00     0.033 H 
ATOM    129  H   PIK d   1     -21.434  35.295  -7.446  0.00  0.00     0.033 H 
BRANCH 127 130
ATOM    130  CAE PIK d   1     -22.889  33.767  -6.989  0.00  0.00    -0.065 C 
ATOM    131  H   PIK d   1     -22.345  32.913  -6.560  0.00  0.00     0.033 H 
ATOM    132  H   PIK d   1     -23.772  33.403  -7.535  0.00  0.00     0.033 H 
BRANCH 130 133
ATOM    133  CAF PIK d   1     -23.357  34.667  -5.852  0.00  0.00    -0.069 C 
ATOM    134  H   PIK d   1     -23.875  35.537  -6.281  0.00  0.00     0.032 H 
ATOM    135  H   PIK d   1     -22.477  35.007  -5.285  0.00  0.00     0.032 H 
BRANCH 133 136
ATOM    136  CAG PIK d   1     -24.306  33.953  -4.900  0.00  0.00    -0.077 C 
ATOM    137  H   PIK d   1     -24.613  34.644  -4.101  0.00  0.00     0.027 H 
ATOM    138  H   PIK d   1     -23.797  33.084  -4.458  0.00  0.00     0.027 H 
ATOM    139  H   PIK d   1     -25.195  33.615  -5.453  0.00  0.00     0.027 H 
ENDBRANCH 133 136
ENDBRANCH 130 133
ENDBRANCH 127 130
ENDBRANCH 124 127
ENDBRANCH 121 124
ENDBRANCH 118 121
ENDBRANCH 115 118
ENDBRANCH 112 115
ENDBRANCH 109 112
ENDBRANCH 106 109
ENDBRANCH 103 106
ENDBRANCH 100 103
ENDBRANCH  97 100
ENDBRANCH  94  97
ENDBRANCH  92  94
ENDBRANCH  91  92
ENDBRANCH  88  91
ENDBRANCH   1  88
TORSDOF 47
