REMARK  4 active torsions:
REMARK  status: ('A' for Active; 'I' for Inactive)
REMARK    1  A    between atoms: C1_1  and  C2_4 
REMARK    2  A    between atoms: C2_4  and  C3_6 
REMARK    3  A    between atoms: C3_6  and  C4_7 
REMARK    4  A    between atoms: C4_7  and  C5_8 
ROOT
ATOM      1  C3  AKG d   1      -1.156   1.145   9.007  0.00  0.00     0.010 C 
ATOM      2  H   AKG d   1      -1.771   1.848   8.425  0.00  0.00     0.045 H 
ATOM      3  H   AKG d   1      -0.294   1.679   9.435  0.00  0.00     0.045 H 
ENDROOT
BRANCH   1   4
ATOM      4  C2  AKG d   1      -0.665   0.038   8.103  0.00  0.00     0.225 C 
ATOM      5  O5  AKG d   1      -1.323  -1.025   8.005  0.00  0.00    -0.286 OA
BRANCH   4   6
ATOM      6  C1  AKG d   1       0.615   0.165   7.368  0.00  0.00     0.246 C 
ATOM      7  O1  AKG d   1       1.191   1.274   7.303  0.00  0.00    -0.642 OA
ATOM      8  O2  AKG d   1       1.136  -0.906   6.890  0.00  0.00    -0.642 OA
ENDBRANCH   4   6
ENDBRANCH   1   4
BRANCH   1   9
ATOM      9  C4  AKG d   1      -1.989   0.552  10.126  0.00  0.00     0.022 C 
ATOM     10  H   AKG d   1      -1.338  -0.080  10.748  0.00  0.00     0.049 H 
ATOM     11  H   AKG d   1      -2.782  -0.066   9.680  0.00  0.00     0.049 H 
BRANCH   9  12
ATOM     12  C5  AKG d   1      -2.637   1.596  11.015  0.00  0.00     0.172 C 
ATOM     13  O3  AKG d   1      -2.813   2.755  10.585  0.00  0.00    -0.648 OA
ATOM     14  O4  AKG d   1      -2.991   1.282  12.172  0.00  0.00    -0.648 OA
ENDBRANCH   9  12
ENDBRANCH   1   9
TORSDOF 4
