REMARK  15 active torsions:
REMARK  status: ('A' for Active; 'I' for Inactive)
REMARK    1  A    between atoms: CAU_2  and  OAC_3 
REMARK    2  A    between atoms: CAT_4  and  OAB_5 
REMARK    3  A    between atoms: CAW_8  and  CAZ_9 
REMARK    4  A    between atoms: CAZ_9  and  OAD_10 
REMARK    5  A    between atoms: CAZ_9  and  CAP_11 
REMARK    6  A    between atoms: CAP_11  and  NAQ_12 
REMARK    7  A    between atoms: NAQ_12  and  CAM_13 
REMARK    8  A    between atoms: CAM_13  and  CAO_14 
REMARK    9  A    between atoms: CAO_14  and  CAV_15 
REMARK   10  A    between atoms: CAY_17  and  OAR_18 
REMARK   11  A    between atoms: OAR_18  and  CAA_19 
REMARK   12  A    between atoms: CAX_22  and  OAS_23 
REMARK   13  A    between atoms: OAS_23  and  CAN_24 
REMARK   14  A    between atoms: CAN_24  and  CAL_25 
REMARK   15  A    between atoms: CAL_25  and  SAE_26 
ROOT
ATOM      1  CAM 35V d   1       5.811 -21.922 -50.844  0.00  0.00     0.085 C 
ATOM      2  H12 35V d   1       6.111 -22.979 -50.787  0.00  0.00     0.076 H 
ATOM      3  H13 35V d   1       6.689 -21.282 -50.672  0.00  0.00     0.076 H 
ENDROOT
BRANCH   1   4
ATOM      4  NAQ 35V d   1       4.830 -21.660 -49.781  0.00  0.00    -0.072 N 
ATOM      5  H10 35V d   1       5.328 -21.832 -48.922  0.00  0.00     0.277 HD
ATOM      6  H11 35V d   1       4.623 -20.677 -49.858  0.00  0.00     0.277 HD
BRANCH   4   7
ATOM      7  CAP 35V d   1       3.530 -22.303 -49.595  0.00  0.00     0.109 C 
ATOM      8  H8  35V d   1       2.906 -22.226 -50.498  0.00  0.00     0.080 H 
ATOM      9  H9  35V d   1       3.637 -23.361 -49.312  0.00  0.00     0.080 H 
BRANCH   7  10
ATOM     10  CAZ 35V d   1       2.965 -21.461 -48.441  0.00  0.00     0.084 C 
ATOM     11  H6  35V d   1       2.816 -20.445 -48.834  0.00  0.00     0.093 H 
BRANCH  10  12
ATOM     12  CAW 35V d   1       1.724 -21.882 -47.977  0.00  0.00    -0.025 A 
ATOM     13  CAJ 35V d   1       0.578 -21.668 -48.731  0.00  0.00    -0.040 A 
ATOM     14  CAU 35V d   1      -0.638 -22.100 -48.216  0.00  0.00     0.099 A 
ATOM     15  H1  35V d   1       0.631 -21.177 -49.696  0.00  0.00     0.088 H 
ATOM     16  CAT 35V d   1      -0.710 -22.718 -46.972  0.00  0.00     0.098 A 
ATOM     17  CAF 35V d   1       0.431 -22.920 -46.213  0.00  0.00    -0.048 A 
ATOM     18  CAH 35V d   1       1.647 -22.490 -46.728  0.00  0.00    -0.072 A 
ATOM     19  H4  35V d   1       0.376 -23.401 -45.243  0.00  0.00     0.087 H 
ATOM     20  H5  35V d   1       2.551 -22.631 -46.147  0.00  0.00     0.084 H 
BRANCH  14  21
ATOM     21  OAC 35V d   1      -1.808 -21.943 -48.893  0.00  0.00    -0.358 OA
ATOM     22  H2  35V d   1      -2.521 -22.301 -48.377  0.00  0.00     0.217 HD
ENDBRANCH  14  21
BRANCH  16  23
ATOM     23  OAB 35V d   1      -1.939 -23.108 -46.542  0.00  0.00    -0.358 OA
ATOM     24  H3  35V d   1      -1.860 -23.514 -45.687  0.00  0.00     0.217 HD
ENDBRANCH  16  23
ENDBRANCH  10  12
BRANCH  10  25
ATOM     25  OAD 35V d   1       3.941 -21.369 -47.391  0.00  0.00    -0.389 OA
ATOM     26  H7  35V d   1       4.052 -22.222 -46.988  0.00  0.00     0.210 HD
ENDBRANCH  10  25
ENDBRANCH   7  10
ENDBRANCH   4   7
ENDBRANCH   1   4
BRANCH   1  27
ATOM     27  CAO 35V d   1       5.277 -21.645 -52.257  0.00  0.00    -0.018 C 
ATOM     28  H14 35V d   1       4.837 -20.638 -52.302  0.00  0.00     0.042 H 
ATOM     29  H15 35V d   1       4.514 -22.391 -52.523  0.00  0.00     0.042 H 
BRANCH  27  30
ATOM     30  CAV 35V d   1       6.359 -21.733 -53.138  0.00  0.00    -0.054 A 
ATOM     31  CAK 35V d   1       7.584 -21.258 -52.678  0.00  0.00    -0.042 A 
ATOM     32  CAY 35V d   1       8.693 -21.274 -53.501  0.00  0.00     0.102 A 
ATOM     33  H16 35V d   1       7.668 -20.873 -51.668  0.00  0.00     0.088 H 
ATOM     34  CAX 35V d   1       8.587 -21.775 -54.791  0.00  0.00     0.102 A 
ATOM     35  CAI 35V d   1       7.369 -22.242 -55.267  0.00  0.00    -0.048 A 
ATOM     36  CAG 35V d   1       6.248 -22.219 -54.442  0.00  0.00    -0.074 A 
ATOM     37  H21 35V d   1       7.291 -22.624 -56.279  0.00  0.00     0.087 H 
ATOM     38  H20 35V d   1       5.293 -22.577 -54.810  0.00  0.00     0.084 H 
BRANCH  32  39
ATOM     39  OAR 35V d   1       9.921 -20.853 -53.097  0.00  0.00    -0.353 OA
BRANCH  39  40
ATOM     40  CAA 35V d   1       9.925 -20.405 -51.735  0.00  0.00     0.010 C 
ATOM     41  H17 35V d   1      10.938 -20.077 -51.460  0.00  0.00     0.066 H 
ATOM     42  H18 35V d   1       9.616 -21.230 -51.077  0.00  0.00     0.066 H 
ATOM     43  H19 35V d   1       9.224 -19.564 -51.623  0.00  0.00     0.066 H 
ENDBRANCH  39  40
ENDBRANCH  32  39
BRANCH  34  44
ATOM     44  OAS 35V d   1       9.729 -21.770 -55.531  0.00  0.00    -0.348 OA
BRANCH  44  45
ATOM     45  CAN 35V d   1       9.485 -22.309 -56.833  0.00  0.00     0.034 C 
ATOM     46  H22 35V d   1       9.223 -21.494 -57.524  0.00  0.00     0.076 H 
ATOM     47  H23 35V d   1       8.653 -23.027 -56.782  0.00  0.00     0.076 H 
BRANCH  45  48
ATOM     48  CAL 35V d   1      10.745 -23.022 -57.339  0.00  0.00    -0.005 C 
ATOM     49  H24 35V d   1      10.547 -23.424 -58.344  0.00  0.00     0.051 H 
ATOM     50  H25 35V d   1      10.985 -23.849 -56.654  0.00  0.00     0.051 H 
BRANCH  48  51
ATOM     51  SAE 35V d   1      12.179 -21.892 -57.427  0.00  0.00    -0.180 SA
ATOM     52  H26 35V d   1      12.372 -21.523 -56.509  0.00  0.00     0.101 HD
ENDBRANCH  48  51
ENDBRANCH  45  48
ENDBRANCH  44  45
ENDBRANCH  34  44
ENDBRANCH  27  30
ENDBRANCH   1  27
TORSDOF 15
