REMARK  20 active torsions:
REMARK  status: ('A' for Active; 'I' for Inactive)
REMARK    1  A    between atoms: C4_3  and  C2_1 
REMARK       I    between atoms: C2_1  and  N1_10 
REMARK    2  A    between atoms: N5_4  and  C4_3 
REMARK    3  A    between atoms: N1_10  and  C11_11 
REMARK    4  A    between atoms: C11_11  and  C13_12 
REMARK    5  A    between atoms: C11_11  and  C12_14 
REMARK       I    between atoms: C13_12  and  N15_15 
REMARK    6  A    between atoms: N15_15  and  C16_16 
REMARK    7  A    between atoms: C16_16  and  C17_17 
REMARK    8  A    between atoms: C16_16  and  C26_26 
REMARK    9  A    between atoms: C17_17  and  C18_18 
REMARK   10  A    between atoms: C21_21  and  O22_22 
REMARK   11  A    between atoms: O22_22  and  C23_23 
REMARK       I    between atoms: C26_26  and  N28_28 
REMARK   12  A    between atoms: N28_28  and  C29_29 
REMARK   13  A    between atoms: C29_29  and  C30_30 
REMARK   14  A    between atoms: C29_29  and  C31_37 
REMARK   15  A    between atoms: C30_30  and  C41_31 
REMARK   16  A    between atoms: C31_37  and  O32_38 
REMARK   17  A    between atoms: C31_37  and  C37_39 
REMARK   18  A    between atoms: C37_39  and  C38_40 
REMARK   19  A    between atoms: C37_39  and  C39_41 
REMARK   20  A    between atoms: C39_41  and  O40_42 
ROOT
ATOM      1  C16 38N d   1      61.586-135.910  39.339  0.00  0.00     0.093 C 
ATOM      2  H   38N d   1      60.934-135.100  39.699  0.00  0.00     0.088 H 
ENDROOT
BRANCH   1   3
ATOM      3  N15 38N d   1      61.854-135.723  37.902  0.00  0.00    -0.346 N 
ATOM      4  C13 38N d   1      61.300-134.727  37.187  0.00  0.00     0.240 C 
ATOM      5  O14 38N d   1      60.497-133.913  37.638  0.00  0.00    -0.271 OA
ATOM      6  H   38N d   1      62.471-136.361  37.441  0.00  0.00     0.163 HD
BRANCH   4   7
ATOM      7  C11 38N d   1      61.739-134.663  35.716  0.00  0.00     0.086 C 
ATOM      8  H   38N d   1      62.054-135.668  35.398  0.00  0.00     0.086 H 
BRANCH   7   9
ATOM      9  N1  38N d   1      60.624-134.222  34.861  0.00  0.00    -0.347 N 
ATOM     10  C2  38N d   1      59.666-135.078  34.470  0.00  0.00     0.244 C 
ATOM     11  O3  38N d   1      59.637-136.264  34.797  0.00  0.00    -0.272 OA
ATOM     12  H   38N d   1      60.579-133.268  34.566  0.00  0.00     0.163 HD
BRANCH  10  13
ATOM     13  C4  38N d   1      58.572-134.491  33.556  0.00  0.00     0.156 C 
ATOM     14  H   38N d   1      58.526-135.048  32.609  0.00  0.00     0.090 H 
ATOM     15  H   38N d   1      58.776-133.430  33.348  0.00  0.00     0.090 H 
BRANCH  13  16
ATOM     16  N5  38N d   1      57.319-134.632  34.289  0.00  0.00    -0.059 N 
ATOM     17  C6  38N d   1      57.021-133.452  35.122  0.00  0.00     0.103 C 
ATOM     18  C7  38N d   1      55.872-133.862  35.937  0.00  0.00     0.042 C 
ATOM     19  H   38N d   1      56.764-132.587  34.493  0.00  0.00     0.079 H 
ATOM     20  H   38N d   1      57.880-133.199  35.760  0.00  0.00     0.079 H 
ATOM     21  O8  38N d   1      54.737-133.932  35.067  0.00  0.00    -0.388 OA
ATOM     22  H   38N d   1      56.062-134.847  36.388  0.00  0.00     0.076 H 
ATOM     23  H   38N d   1      55.692-133.124  36.732  0.00  0.00     0.076 H 
ATOM     24  C9  38N d   1      54.841-134.866  33.941  0.00  0.00     0.042 C 
ATOM     25  C10 38N d   1      56.217-134.806  33.319  0.00  0.00     0.103 C 
ATOM     26  H   38N d   1      54.090-134.601  33.182  0.00  0.00     0.076 H 
ATOM     27  H   38N d   1      54.653-135.888  34.302  0.00  0.00     0.076 H 
ATOM     28  H   38N d   1      56.387-135.744  32.770  0.00  0.00     0.079 H 
ATOM     29  H   38N d   1      56.240-133.960  32.617  0.00  0.00     0.079 H 
ATOM     30  H   38N d   1      57.379-135.444  34.883  0.00  0.00     0.280 HD
ENDBRANCH  13  16
ENDBRANCH  10  13
ENDBRANCH   7   9
BRANCH   7  31
ATOM     31  C12 38N d   1      62.925-133.697  35.559  0.00  0.00    -0.049 C 
ATOM     32  H   38N d   1      63.756-134.029  36.199  0.00  0.00     0.030 H 
ATOM     33  H   38N d   1      62.615-132.685  35.857  0.00  0.00     0.030 H 
ATOM     34  H   38N d   1      63.253-133.686  34.509  0.00  0.00     0.030 H 
ENDBRANCH   7  31
ENDBRANCH   4   7
ENDBRANCH   1   3
BRANCH   1  35
ATOM     35  C17 38N d   1      60.951-137.247  39.622  0.00  0.00    -0.014 C 
ATOM     36  H   38N d   1      61.006-137.459  40.700  0.00  0.00     0.043 H 
ATOM     37  H   38N d   1      61.484-138.032  39.066  0.00  0.00     0.043 H 
BRANCH  35  38
ATOM     38  C18 38N d   1      59.611-137.216  39.219  0.00  0.00    -0.056 A 
ATOM     39  C25 38N d   1      59.234-137.613  37.938  0.00  0.00    -0.074 A 
ATOM     40  C24 38N d   1      57.891-137.590  37.559  0.00  0.00    -0.050 A 
ATOM     41  H   38N d   1      59.988-137.942  37.232  0.00  0.00     0.084 H 
ATOM     42  C21 38N d   1      56.902-137.179  38.454  0.00  0.00     0.068 A 
ATOM     43  H   38N d   1      57.612-137.895  36.557  0.00  0.00     0.087 H 
ATOM     44  C20 38N d   1      57.289-136.790  39.743  0.00  0.00    -0.050 A 
ATOM     45  C19 38N d   1      58.627-136.813  40.118  0.00  0.00    -0.074 A 
ATOM     46  H   38N d   1      56.538-136.468  40.455  0.00  0.00     0.087 H 
ATOM     47  H   38N d   1      58.908-136.514  41.121  0.00  0.00     0.084 H 
BRANCH  42  48
ATOM     48  O22 38N d   1      55.602-137.183  38.007  0.00  0.00    -0.356 OA
BRANCH  48  49
ATOM     49  C23 38N d   1      54.510-136.751  38.851  0.00  0.00     0.010 C 
ATOM     50  H   38N d   1      53.563-136.835  38.297  0.00  0.00     0.066 H 
ATOM     51  H   38N d   1      54.669-135.704  39.149  0.00  0.00     0.066 H 
ATOM     52  H   38N d   1      54.467-137.385  39.749  0.00  0.00     0.066 H 
ENDBRANCH  48  49
ENDBRANCH  42  48
ENDBRANCH  35  38
ENDBRANCH   1  35
BRANCH   1  53
ATOM     53  C26 38N d   1      62.923-135.908  40.099  0.00  0.00     0.241 C 
ATOM     54  O27 38N d   1      63.978-136.155  39.512  0.00  0.00    -0.271 OA
ATOM     55  N28 38N d   1      62.832-135.678  41.424  0.00  0.00    -0.352 N 
ATOM     56  H   38N d   1      61.934-135.497  41.825  0.00  0.00     0.163 HD
BRANCH  55  57
ATOM     57  C29 38N d   1      64.019-135.686  42.300  0.00  0.00     0.037 C 
ATOM     58  H   38N d   1      64.898-135.961  41.698  0.00  0.00     0.076 H 
BRANCH  57  59
ATOM     59  C30 38N d   1      64.251-134.321  42.942  0.00  0.00    -0.041 C 
ATOM     60  H   38N d   1      65.168-134.368  43.547  0.00  0.00     0.036 H 
ATOM     61  H   38N d   1      63.395-134.088  43.592  0.00  0.00     0.036 H 
BRANCH  59  62
ATOM     62  C41 38N d   1      64.404-133.187  41.898  0.00  0.00    -0.052 C 
ATOM     63  C42 38N d   1      65.689-133.366  41.144  0.00  0.00    -0.062 C 
ATOM     64  C43 38N d   1      65.906-132.135  40.250  0.00  0.00    -0.065 C 
ATOM     65  H   38N d   1      65.631-134.271  40.521  0.00  0.00     0.033 H 
ATOM     66  H   38N d   1      66.525-133.462  41.853  0.00  0.00     0.033 H 
ATOM     67  C44 38N d   1      66.076-130.891  41.122  0.00  0.00    -0.065 C 
ATOM     68  H   38N d   1      65.035-132.004  39.591  0.00  0.00     0.033 H 
ATOM     69  H   38N d   1      66.810-132.280  39.640  0.00  0.00     0.033 H 
ATOM     70  C45 38N d   1      64.762-130.633  41.837  0.00  0.00    -0.065 C 
ATOM     71  H   38N d   1      66.334-130.027  40.492  0.00  0.00     0.033 H 
ATOM     72  H   38N d   1      66.875-131.059  41.859  0.00  0.00     0.033 H 
ATOM     73  C46 38N d   1      64.381-131.852  42.688  0.00  0.00    -0.062 C 
ATOM     74  H   38N d   1      63.973-130.446  41.094  0.00  0.00     0.033 H 
ATOM     75  H   38N d   1      64.868-129.753  42.488  0.00  0.00     0.033 H 
ATOM     76  H   38N d   1      65.092-131.929  43.524  0.00  0.00     0.033 H 
ATOM     77  H   38N d   1      63.366-131.698  43.083  0.00  0.00     0.033 H 
ATOM     78  H   38N d   1      63.564-133.211  41.188  0.00  0.00     0.040 H 
ENDBRANCH  59  62
ENDBRANCH  57  59
BRANCH  57  79
ATOM     79  C31 38N d   1      63.843-136.714  43.469  0.00  0.00     0.060 C 
ATOM     80  H   38N d   1      64.597-136.450  44.225  0.00  0.00     0.086 H 
BRANCH  79  81
ATOM     81  O32 38N d   1      62.555-136.487  44.040  0.00  0.00    -0.393 OA
ATOM     82  H   38N d   1      61.888-136.618  43.376  0.00  0.00     0.210 HD
ENDBRANCH  79  81
BRANCH  79  83
ATOM     83  C37 38N d   1      64.070-138.304  43.162  0.00  0.00    -0.010 C 
ATOM     84  H   38N d   1      64.400-138.828  44.071  0.00  0.00     0.046 H 
BRANCH  83  85
ATOM     85  C38 38N d   1      65.088-138.469  41.992  0.00  0.00    -0.069 C 
ATOM     86  H   38N d   1      65.240-139.539  41.786  0.00  0.00     0.028 H 
ATOM     87  H   38N d   1      66.047-138.010  42.273  0.00  0.00     0.028 H 
ATOM     88  H   38N d   1      64.695-137.975  41.091  0.00  0.00     0.028 H 
ENDBRANCH  83  85
BRANCH  83  89
ATOM     89  C39 38N d   1      62.784-138.920  42.581  0.00  0.00     0.022 C 
ATOM     90  H   38N d   1      62.475-139.788  43.182  0.00  0.00     0.074 H 
ATOM     91  H   38N d   1      62.953-139.236  41.541  0.00  0.00     0.074 H 
BRANCH  89  92
ATOM     92  O40 38N d   1      61.784-137.912  42.629  0.00  0.00    -0.400 OA
ATOM     93  H   38N d   1      61.651-137.642  43.530  0.00  0.00     0.209 HD
ENDBRANCH  89  92
ENDBRANCH  83  89
ENDBRANCH  79  83
ENDBRANCH  57  79
ENDBRANCH  55  57
ENDBRANCH   1  53
TORSDOF 20
