REMARK  20 active torsions:
REMARK  status: ('A' for Active; 'I' for Inactive)
REMARK    1  A    between atoms: C4_3  and  C2_1 
REMARK       I    between atoms: C2_1  and  N1_10 
REMARK    2  A    between atoms: N5_4  and  C4_3 
REMARK    3  A    between atoms: N1_10  and  C11_11 
REMARK    4  A    between atoms: C11_11  and  C12_12 
REMARK    5  A    between atoms: C11_11  and  C13_13 
REMARK       I    between atoms: C13_13  and  N15_15 
REMARK    6  A    between atoms: N15_15  and  C16_16 
REMARK    7  A    between atoms: C16_16  and  C17_17 
REMARK    8  A    between atoms: C16_16  and  C26_26 
REMARK    9  A    between atoms: C17_17  and  C18_18 
REMARK   10  A    between atoms: C21_21  and  O22_22 
REMARK   11  A    between atoms: O22_22  and  C23_23 
REMARK       I    between atoms: C26_26  and  N28_28 
REMARK   12  A    between atoms: N28_28  and  C29_29 
REMARK   13  A    between atoms: C29_29  and  C30_30 
REMARK   14  A    between atoms: C29_29  and  C31_37 
REMARK   15  A    between atoms: C30_30  and  C41_31 
REMARK   16  A    between atoms: C31_37  and  O32_38 
REMARK   17  A    between atoms: C31_37  and  C37_39 
REMARK   18  A    between atoms: C37_39  and  C38_40 
REMARK   19  A    between atoms: C37_39  and  C39_41 
REMARK   20  A    between atoms: C39_41  and  O40_42 
ROOT
ATOM      1  C16 37Y d   1      11.890-137.475  16.479  0.00  0.00     0.093 C 
ATOM      2  H   37Y d   1      12.382-136.495  16.569  0.00  0.00     0.088 H 
ENDROOT
BRANCH   1   3
ATOM      3  N15 37Y d   1      11.021-137.698  17.647  0.00  0.00    -0.346 N 
ATOM      4  C13 37Y d   1      10.871-136.764  18.597  0.00  0.00     0.240 C 
ATOM      5  O14 37Y d   1      11.430-135.668  18.587  0.00  0.00    -0.271 OA
ATOM      6  H   37Y d   1      10.532-138.566  17.733  0.00  0.00     0.163 HD
BRANCH   4   7
ATOM      7  C11 37Y d   1       9.980-137.156  19.772  0.00  0.00     0.086 C 
ATOM      8  H   37Y d   1       9.470-138.108  19.562  0.00  0.00     0.086 H 
BRANCH   7   9
ATOM      9  N1  37Y d   1       9.001-136.099  20.012  0.00  0.00    -0.347 N 
ATOM     10  C2  37Y d   1       7.758-136.095  19.504  0.00  0.00     0.244 C 
ATOM     11  O3  37Y d   1       7.280-136.975  18.791  0.00  0.00    -0.272 OA
ATOM     12  H   37Y d   1       9.273-135.330  20.591  0.00  0.00     0.163 HD
BRANCH  10  13
ATOM     13  C4  37Y d   1       6.990-134.851  19.956  0.00  0.00     0.156 C 
ATOM     14  H   37Y d   1       7.557-133.965  19.634  0.00  0.00     0.090 H 
ATOM     15  H   37Y d   1       6.929-134.868  21.054  0.00  0.00     0.090 H 
BRANCH  13  16
ATOM     16  N5  37Y d   1       5.643-134.736  19.434  0.00  0.00    -0.059 N 
ATOM     17  C6  37Y d   1       5.563-134.385  18.011  0.00  0.00     0.103 C 
ATOM     18  C7  37Y d   1       4.242-133.726  17.782  0.00  0.00     0.042 C 
ATOM     19  H   37Y d   1       5.641-135.293  17.396  0.00  0.00     0.079 H 
ATOM     20  H   37Y d   1       6.378-133.694  17.749  0.00  0.00     0.079 H 
ATOM     21  O8  37Y d   1       3.223-134.679  18.243  0.00  0.00    -0.388 OA
ATOM     22  H   37Y d   1       4.178-132.791  18.358  0.00  0.00     0.076 H 
ATOM     23  H   37Y d   1       4.105-133.509  16.712  0.00  0.00     0.076 H 
ATOM     24  C9  37Y d   1       3.363-135.103  19.637  0.00  0.00     0.042 C 
ATOM     25  C10 37Y d   1       4.675-135.791  19.798  0.00  0.00     0.103 C 
ATOM     26  H   37Y d   1       2.548-135.795  19.897  0.00  0.00     0.076 H 
ATOM     27  H   37Y d   1       3.323-134.224  20.297  0.00  0.00     0.076 H 
ATOM     28  H   37Y d   1       4.823-136.124  20.836  0.00  0.00     0.079 H 
ATOM     29  H   37Y d   1       4.756-136.654  19.121  0.00  0.00     0.079 H 
ATOM     30  H   37Y d   1       5.288-133.920  19.907  0.00  0.00     0.280 HD
ENDBRANCH  13  16
ENDBRANCH  10  13
ENDBRANCH   7   9
BRANCH   7  31
ATOM     31  C12 37Y d   1      10.856-137.281  21.023  0.00  0.00    -0.049 C 
ATOM     32  H   37Y d   1      11.604-138.072  20.869  0.00  0.00     0.030 H 
ATOM     33  H   37Y d   1      10.226-137.536  21.888  0.00  0.00     0.030 H 
ATOM     34  H   37Y d   1      11.367-136.325  21.210  0.00  0.00     0.030 H 
ENDBRANCH   7  31
ENDBRANCH   4   7
ENDBRANCH   1   3
BRANCH   1  35
ATOM     35  C17 37Y d   1      12.950-138.564  16.413  0.00  0.00    -0.014 C 
ATOM     36  H   37Y d   1      13.461-138.530  15.439  0.00  0.00     0.043 H 
ATOM     37  H   37Y d   1      12.482-139.550  16.548  0.00  0.00     0.043 H 
BRANCH  35  38
ATOM     38  C18 37Y d   1      13.880-138.326  17.453  0.00  0.00    -0.056 A 
ATOM     39  C19 37Y d   1      15.132-137.762  17.187  0.00  0.00    -0.074 A 
ATOM     40  C20 37Y d   1      16.045-137.536  18.218  0.00  0.00    -0.050 A 
ATOM     41  H   37Y d   1      15.396-137.498  16.169  0.00  0.00     0.084 H 
ATOM     42  C21 37Y d   1      15.731-137.879  19.535  0.00  0.00     0.068 A 
ATOM     43  H   37Y d   1      17.007-137.090  17.994  0.00  0.00     0.087 H 
ATOM     44  C24 37Y d   1      14.479-138.439  19.804  0.00  0.00    -0.050 A 
ATOM     45  C25 37Y d   1      13.572-138.668  18.772  0.00  0.00    -0.074 A 
ATOM     46  H   37Y d   1      14.212-138.697  20.823  0.00  0.00     0.087 H 
ATOM     47  H   37Y d   1      12.612-139.119  18.996  0.00  0.00     0.084 H 
BRANCH  42  48
ATOM     48  O22 37Y d   1      16.657-137.630  20.520  0.00  0.00    -0.356 OA
BRANCH  48  49
ATOM     49  C23 37Y d   1      16.787-138.556  21.621  0.00  0.00     0.010 C 
ATOM     50  H   37Y d   1      17.569-138.201  22.308  0.00  0.00     0.066 H 
ATOM     51  H   37Y d   1      17.061-139.549  21.235  0.00  0.00     0.066 H 
ATOM     52  H   37Y d   1      15.830-138.623  22.159  0.00  0.00     0.066 H 
ENDBRANCH  48  49
ENDBRANCH  42  48
ENDBRANCH  35  38
ENDBRANCH   1  35
BRANCH   1  53
ATOM     53  C26 37Y d   1      11.026-137.497  15.210  0.00  0.00     0.241 C 
ATOM     54  O27 37Y d   1       9.883-137.947  15.240  0.00  0.00    -0.271 OA
ATOM     55  N28 37Y d   1      11.611-136.978  14.117  0.00  0.00    -0.352 N 
ATOM     56  H   37Y d   1      12.545-136.629  14.190  0.00  0.00     0.163 HD
BRANCH  55  57
ATOM     57  C29 37Y d   1      10.926-136.905  12.819  0.00  0.00     0.037 C 
ATOM     58  H   37Y d   1       9.908-137.307  12.927  0.00  0.00     0.076 H 
BRANCH  57  59
ATOM     59  C30 37Y d   1      10.874-135.470  12.318  0.00  0.00    -0.041 C 
ATOM     60  H   37Y d   1      10.417-135.471  11.317  0.00  0.00     0.036 H 
ATOM     61  H   37Y d   1      11.905-135.091  12.250  0.00  0.00     0.036 H 
BRANCH  59  62
ATOM     62  C41 37Y d   1      10.062-134.507  13.221  0.00  0.00    -0.052 C 
ATOM     63  C42 37Y d   1       9.950-133.256  12.422  0.00  0.00    -0.062 C 
ATOM     64  C43 37Y d   1       9.359-132.181  13.316  0.00  0.00    -0.065 C 
ATOM     65  H   37Y d   1       9.293-133.424  11.556  0.00  0.00     0.033 H 
ATOM     66  H   37Y d   1      10.946-132.945  12.073  0.00  0.00     0.033 H 
ATOM     67  C44 37Y d   1       7.935-132.529  13.681  0.00  0.00    -0.065 C 
ATOM     68  H   37Y d   1       9.373-131.218  12.784  0.00  0.00     0.033 H 
ATOM     69  H   37Y d   1       9.960-132.101  14.234  0.00  0.00     0.033 H 
ATOM     70  C45 37Y d   1       7.869-133.915  14.337  0.00  0.00    -0.065 C 
ATOM     71  H   37Y d   1       7.318-132.530  12.770  0.00  0.00     0.033 H 
ATOM     72  H   37Y d   1       7.548-131.777  14.385  0.00  0.00     0.033 H 
ATOM     73  C46 37Y d   1       8.636-134.985  13.527  0.00  0.00    -0.062 C 
ATOM     74  H   37Y d   1       6.815-134.219  14.416  0.00  0.00     0.033 H 
ATOM     75  H   37Y d   1       8.308-133.851  15.344  0.00  0.00     0.033 H 
ATOM     76  H   37Y d   1       8.684-135.916  14.111  0.00  0.00     0.033 H 
ATOM     77  H   37Y d   1       8.106-135.172  12.581  0.00  0.00     0.033 H 
ATOM     78  H   37Y d   1      10.600-134.333  14.165  0.00  0.00     0.040 H 
ENDBRANCH  59  62
ENDBRANCH  57  59
BRANCH  57  79
ATOM     79  C31 37Y d   1      11.700-137.696  11.730  0.00  0.00     0.060 C 
ATOM     80  H   37Y d   1      11.307-137.362  10.759  0.00  0.00     0.086 H 
BRANCH  79  81
ATOM     81  O32 37Y d   1      13.090-137.326  11.802  0.00  0.00    -0.393 OA
ATOM     82  H   37Y d   1      13.176-136.392  11.650  0.00  0.00     0.210 HD
ENDBRANCH  79  81
BRANCH  79  83
ATOM     83  C37 37Y d   1      11.563-139.293  11.748  0.00  0.00    -0.010 C 
ATOM     84  H   37Y d   1      11.829-139.731  10.775  0.00  0.00     0.046 H 
BRANCH  83  85
ATOM     85  C38 37Y d   1      10.134-139.705  12.199  0.00  0.00    -0.069 C 
ATOM     86  H   37Y d   1      10.054-140.802  12.207  0.00  0.00     0.028 H 
ATOM     87  H   37Y d   1       9.394-139.288  11.499  0.00  0.00     0.028 H 
ATOM     88  H   37Y d   1       9.942-139.316  13.210  0.00  0.00     0.028 H 
ENDBRANCH  83  85
BRANCH  83  89
ATOM     89  C39 37Y d   1      12.473-139.788  12.896  0.00  0.00     0.022 C 
ATOM     90  H   37Y d   1      11.905-140.435  13.581  0.00  0.00     0.074 H 
ATOM     91  H   37Y d   1      12.882-138.933  13.454  0.00  0.00     0.074 H 
BRANCH  89  92
ATOM     92  O40 37Y d   1      13.533-140.530  12.277  0.00  0.00    -0.400 OA
ATOM     93  H   37Y d   1      14.122-140.857  12.947  0.00  0.00     0.209 HD
ENDBRANCH  89  92
ENDBRANCH  83  89
ENDBRANCH  79  83
ENDBRANCH  57  79
ENDBRANCH  55  57
ENDBRANCH   1  53
TORSDOF 20
