REMARK  18 active torsions:
REMARK  status: ('A' for Active; 'I' for Inactive)
REMARK    1  A    between atoms: C59_1  and  C58_2 
REMARK    2  A    between atoms: C50_10  and  C2_11 
REMARK       I    between atoms: C2_11  and  N1_13 
REMARK    3  A    between atoms: N1_13  and  C11_14 
REMARK    4  A    between atoms: C11_14  and  C12_15 
REMARK    5  A    between atoms: C11_14  and  C13_16 
REMARK       I    between atoms: C13_16  and  N15_18 
REMARK    6  A    between atoms: N15_18  and  C16_19 
REMARK    7  A    between atoms: C16_19  and  C26_20 
REMARK    8  A    between atoms: C16_19  and  C17_22 
REMARK       I    between atoms: C26_20  and  N28_32 
REMARK    9  A    between atoms: C17_22  and  C66_23 
REMARK   10  A    between atoms: N28_32  and  C29_33 
REMARK   11  A    between atoms: C29_33  and  C31_34 
REMARK   12  A    between atoms: C29_33  and  C30_40 
REMARK   13  A    between atoms: C31_34  and  O32_35 
REMARK   14  A    between atoms: C31_34  and  C37_36 
REMARK   15  A    between atoms: C37_36  and  C38_37 
REMARK   16  A    between atoms: C37_36  and  C39_38 
REMARK   17  A    between atoms: C39_38  and  O40_39 
REMARK   18  A    between atoms: C30_40  and  C41_41 
ROOT
ATOM      1  C16 39V d   1      11.606-136.777  16.566  0.00  0.00     0.093 C 
ATOM      2  H   39V d   1      12.262-135.895  16.520  0.00  0.00     0.088 H 
ENDROOT
BRANCH   1   3
ATOM      3  N15 39V d   1      10.688-136.628  17.680  0.00  0.00    -0.346 N 
ATOM      4  C13 39V d   1      10.921-135.758  18.645  0.00  0.00     0.240 C 
ATOM      5  O14 39V d   1      11.875-135.025  18.649  0.00  0.00    -0.271 OA
ATOM      6  H   39V d   1       9.865-137.194  17.717  0.00  0.00     0.163 HD
BRANCH   4   7
ATOM      7  C11 39V d   1       9.916-135.606  19.745  0.00  0.00     0.086 C 
ATOM      8  H   39V d   1       9.408-134.645  19.575  0.00  0.00     0.086 H 
BRANCH   7   9
ATOM      9  N1  39V d   1      10.545-135.521  21.059  0.00  0.00    -0.344 N 
ATOM     10  C2  39V d   1      10.798-136.527  21.852  0.00  0.00     0.249 C 
ATOM     11  O3  39V d   1      10.577-137.659  21.530  0.00  0.00    -0.268 OA
ATOM     12  H   39V d   1      10.806-134.611  21.381  0.00  0.00     0.163 HD
BRANCH  10  13
ATOM     13  C50 39V d   1      11.346-136.256  23.028  0.00  0.00     0.021 A 
ATOM     14  C58 39V d   1      11.639-137.126  23.965  0.00  0.00    -0.039 A 
ATOM     15  C57 39V d   1      12.172-136.535  25.006  0.00  0.00    -0.023 A 
ATOM     16  C56 39V d   1      12.574-137.006  26.168  0.00  0.00    -0.072 A 
ATOM     17  C52 39V d   1      12.252-135.261  24.738  0.00  0.00    -0.043 A 
ATOM     18  C55 39V d   1      13.110-136.206  27.144  0.00  0.00    -0.082 A 
ATOM     19  H   39V d   1      12.477-138.068  26.361  0.00  0.00     0.084 H 
ATOM     20  C54 39V d   1      13.210-134.881  26.869  0.00  0.00    -0.082 A 
ATOM     21  H   39V d   1      13.439-136.614  28.093  0.00  0.00     0.083 H 
ATOM     22  C53 39V d   1      12.762-134.450  25.642  0.00  0.00    -0.076 A 
ATOM     23  H   39V d   1      13.628-134.188  27.590  0.00  0.00     0.083 H 
ATOM     24  H   39V d   1      12.832-133.394  25.408  0.00  0.00     0.084 H 
ATOM     25  C51 39V d   1      11.736-135.033  23.479  0.00  0.00    -0.011 A 
ATOM     26  H   39V d   1      12.505-134.605  22.819  0.00  0.00     0.047 H 
ATOM     27  H   39V d   1      10.876-134.349  23.532  0.00  0.00     0.047 H 
BRANCH  14  28
ATOM     28  C59 39V d   1      11.449-138.624  23.895  0.00  0.00    -0.050 C 
ATOM     29  H   39V d   1      11.788-139.081  24.836  0.00  0.00     0.033 H 
ATOM     30  H   39V d   1      12.037-139.029  23.058  0.00  0.00     0.033 H 
ATOM     31  H   39V d   1      10.384-138.852  23.740  0.00  0.00     0.033 H 
ENDBRANCH  14  28
ENDBRANCH  10  13
ENDBRANCH   7   9
BRANCH   7  32
ATOM     32  C12 39V d   1       8.857-136.664  19.704  0.00  0.00    -0.049 C 
ATOM     33  H   39V d   1       8.409-136.696  18.700  0.00  0.00     0.030 H 
ATOM     34  H   39V d   1       8.078-136.432  20.446  0.00  0.00     0.030 H 
ATOM     35  H   39V d   1       9.306-137.641  19.936  0.00  0.00     0.030 H 
ENDBRANCH   7  32
ENDBRANCH   4   7
ENDBRANCH   1   3
BRANCH   1  36
ATOM     36  C26 39V d   1      10.781-136.841  15.329  0.00  0.00     0.241 C 
ATOM     37  O27 39V d   1       9.663-137.274  15.403  0.00  0.00    -0.271 OA
ATOM     38  N28 39V d   1      11.370-136.423  14.215  0.00  0.00    -0.352 N 
ATOM     39  H   39V d   1      12.330-136.152  14.283  0.00  0.00     0.163 HD
BRANCH  38  40
ATOM     40  C29 39V d   1      10.746-136.323  12.907  0.00  0.00     0.041 C 
ATOM     41  H   39V d   1       9.721-136.722  12.927  0.00  0.00     0.076 H 
BRANCH  40  42
ATOM     42  C31 39V d   1      11.571-137.048  11.824  0.00  0.00     0.060 C 
ATOM     43  H   39V d   1      11.248-136.663  10.845  0.00  0.00     0.086 H 
BRANCH  42  44
ATOM     44  O32 39V d   1      12.810-136.687  12.047  0.00  0.00    -0.393 OA
ATOM     45  H   39V d   1      13.064-136.956  12.922  0.00  0.00     0.210 HD
ENDBRANCH  42  44
BRANCH  42  46
ATOM     46  C37 39V d   1      11.486-138.613  11.746  0.00  0.00    -0.010 C 
ATOM     47  H   39V d   1      11.800-138.932  10.741  0.00  0.00     0.046 H 
BRANCH  46  48
ATOM     48  C38 39V d   1      10.089-139.091  12.005  0.00  0.00    -0.069 C 
ATOM     49  H   39V d   1      10.060-140.189  11.944  0.00  0.00     0.028 H 
ATOM     50  H   39V d   1       9.410-138.664  11.252  0.00  0.00     0.028 H 
ATOM     51  H   39V d   1       9.772-138.771  13.009  0.00  0.00     0.028 H 
ENDBRANCH  46  48
BRANCH  46  52
ATOM     52  C39 39V d   1      12.375-139.253  12.773  0.00  0.00     0.022 C 
ATOM     53  H   39V d   1      13.389-139.356  12.358  0.00  0.00     0.074 H 
ATOM     54  H   39V d   1      11.978-140.248  13.023  0.00  0.00     0.074 H 
BRANCH  52  55
ATOM     55  O40 39V d   1      12.433-138.472  13.944  0.00  0.00    -0.400 OA
ATOM     56  H   39V d   1      12.778-137.613  13.733  0.00  0.00     0.209 HD
ENDBRANCH  52  55
ENDBRANCH  46  52
ENDBRANCH  42  46
ENDBRANCH  40  42
BRANCH  40  57
ATOM     57  C30 39V d   1      10.759-134.815  12.621  0.00  0.00    -0.020 C 
ATOM     58  H   39V d   1      10.611-134.693  11.538  0.00  0.00     0.043 H 
ATOM     59  H   39V d   1      11.757-134.445  12.899  0.00  0.00     0.043 H 
BRANCH  57  60
ATOM     60  C41 39V d   1       9.835-133.996  13.250  0.00  0.00    -0.056 A 
ATOM     61  C42 39V d   1       8.883-134.458  14.114  0.00  0.00    -0.077 A 
ATOM     62  C43 39V d   1       8.010-133.579  14.706  0.00  0.00    -0.082 A 
ATOM     63  H   39V d   1       8.817-135.518  14.332  0.00  0.00     0.084 H 
ATOM     64  C44 39V d   1       8.077-132.240  14.431  0.00  0.00    -0.083 A 
ATOM     65  H   39V d   1       7.261-133.949  15.397  0.00  0.00     0.083 H 
ATOM     66  C45 39V d   1       9.024-131.766  13.564  0.00  0.00    -0.082 A 
ATOM     67  H   39V d   1       7.380-131.555  14.900  0.00  0.00     0.083 H 
ATOM     68  C46 39V d   1       9.895-132.650  12.988  0.00  0.00    -0.077 A 
ATOM     69  H   39V d   1       9.083-130.708  13.337  0.00  0.00     0.083 H 
ATOM     70  H   39V d   1      10.652-132.278  12.307  0.00  0.00     0.084 H 
ENDBRANCH  57  60
ENDBRANCH  40  57
ENDBRANCH  38  40
ENDBRANCH   1  36
BRANCH   1  71
ATOM     71  C17 39V d   1      12.482-138.019  16.705  0.00  0.00    -0.012 C 
ATOM     72  H   39V d   1      12.966-138.251  15.745  0.00  0.00     0.044 H 
ATOM     73  H   39V d   1      11.875-138.878  17.027  0.00  0.00     0.044 H 
BRANCH  71  74
ATOM     74  C66 39V d   1      13.526-137.696  17.752  0.00  0.00    -0.028 A 
ATOM     75  C65 39V d   1      13.288-137.747  19.030  0.00  0.00    -0.015 A 
ATOM     76  N69 39V d   1      14.382-137.379  19.644  0.00  0.00    -0.365 N 
ATOM     77  H   39V d   1      12.351-138.042  19.501  0.00  0.00     0.112 H 
ATOM     78  C68 39V d   1      15.275-137.094  18.744  0.00  0.00     0.042 A 
ATOM     79  H   39V d   1      14.513-137.324  20.664  0.00  0.00     0.165 HD
ATOM     80  C67 39V d   1      14.747-137.286  17.572  0.00  0.00    -0.002 A 
ATOM     81  C60 39V d   1      16.499-136.694  18.919  0.00  0.00    -0.056 A 
ATOM     82  C63 39V d   1      15.431-137.076  16.500  0.00  0.00    -0.070 A 
ATOM     83  C62 39V d   1      16.728-136.651  16.614  0.00  0.00    -0.082 A 
ATOM     84  H   39V d   1      14.987-137.233  15.524  0.00  0.00     0.084 H 
ATOM     85  C61 39V d   1      17.282-136.457  17.846  0.00  0.00    -0.081 A 
ATOM     86  H   39V d   1      17.317-136.468  15.722  0.00  0.00     0.083 H 
ATOM     87  H   39V d   1      18.308-136.126  17.958  0.00  0.00     0.083 H 
ATOM     88  H   39V d   1      16.888-136.552  19.921  0.00  0.00     0.086 H 
ENDBRANCH  71  74
ENDBRANCH   1  71
TORSDOF 18
