REMARK  18 active torsions:
REMARK  status: ('A' for Active; 'I' for Inactive)
REMARK    1  A    between atoms: C59_1  and  C58_2 
REMARK    2  A    between atoms: C50_10  and  C2_11 
REMARK       I    between atoms: C2_11  and  N1_13 
REMARK    3  A    between atoms: N1_13  and  C11_14 
REMARK    4  A    between atoms: C11_14  and  C12_15 
REMARK    5  A    between atoms: C11_14  and  C13_16 
REMARK       I    between atoms: C13_16  and  N15_18 
REMARK    6  A    between atoms: N15_18  and  C16_19 
REMARK    7  A    between atoms: C16_19  and  C26_20 
REMARK    8  A    between atoms: C16_19  and  C17_22 
REMARK       I    between atoms: C26_20  and  N28_32 
REMARK    9  A    between atoms: C17_22  and  C66_23 
REMARK   10  A    between atoms: N28_32  and  C29_33 
REMARK   11  A    between atoms: C29_33  and  C30_34 
REMARK   12  A    between atoms: C29_33  and  C31_41 
REMARK   13  A    between atoms: C30_34  and  C41_35 
REMARK   14  A    between atoms: C31_41  and  O32_42 
REMARK   15  A    between atoms: C31_41  and  C37_43 
REMARK   16  A    between atoms: C37_43  and  C38_44 
REMARK   17  A    between atoms: C37_43  and  C39_45 
REMARK   18  A    between atoms: C39_45  and  O40_46 
ROOT
ATOM      1  C16 38X d   1      11.450-137.215  16.592  0.00  0.00     0.093 C 
ATOM      2  H   38X d   1      12.011-136.269  16.560  0.00  0.00     0.088 H 
ENDROOT
BRANCH   1   3
ATOM      3  N15 38X d   1      10.476-137.140  17.662  0.00  0.00    -0.346 N 
ATOM      4  C13 38X d   1      10.617-136.272  18.645  0.00  0.00     0.240 C 
ATOM      5  O14 38X d   1      11.493-135.451  18.700  0.00  0.00    -0.271 OA
ATOM      6  H   38X d   1       9.687-137.754  17.655  0.00  0.00     0.163 HD
BRANCH   4   7
ATOM      7  C11 38X d   1       9.600-136.226  19.699  0.00  0.00     0.086 C 
ATOM      8  H   38X d   1       9.020-135.304  19.547  0.00  0.00     0.086 H 
BRANCH   7   9
ATOM      9  N1  38X d   1      10.234-136.131  21.003  0.00  0.00    -0.344 N 
ATOM     10  C2  38X d   1      10.568-137.145  21.765  0.00  0.00     0.249 C 
ATOM     11  O3  38X d   1      10.452-138.285  21.398  0.00  0.00    -0.268 OA
ATOM     12  H   38X d   1      10.433-135.214  21.349  0.00  0.00     0.163 HD
BRANCH  10  13
ATOM     13  C50 38X d   1      11.091-136.865  22.955  0.00  0.00     0.021 A 
ATOM     14  C58 38X d   1      11.451-137.724  23.877  0.00  0.00    -0.039 A 
ATOM     15  C57 38X d   1      11.911-137.090  24.947  0.00  0.00    -0.023 A 
ATOM     16  C56 38X d   1      12.334-137.508  26.125  0.00  0.00    -0.072 A 
ATOM     17  C52 38X d   1      11.857-135.808  24.709  0.00  0.00    -0.043 A 
ATOM     18  C55 38X d   1      12.767-136.665  27.108  0.00  0.00    -0.082 A 
ATOM     19  H   38X d   1      12.338-138.574  26.322  0.00  0.00     0.084 H 
ATOM     20  C54 38X d   1      12.740-135.333  26.847  0.00  0.00    -0.082 A 
ATOM     21  H   38X d   1      13.119-137.045  28.060  0.00  0.00     0.083 H 
ATOM     22  C53 38X d   1      12.260-134.948  25.627  0.00  0.00    -0.076 A 
ATOM     23  H   38X d   1      13.084-134.607  27.575  0.00  0.00     0.083 H 
ATOM     24  H   38X d   1      12.208-133.889  25.402  0.00  0.00     0.084 H 
ATOM     25  C51 38X d   1      11.346-135.622  23.441  0.00  0.00    -0.011 A 
ATOM     26  H   38X d   1      12.080-135.106  22.805  0.00  0.00     0.047 H 
ATOM     27  H   38X d   1      10.419-135.031  23.485  0.00  0.00     0.047 H 
BRANCH  14  28
ATOM     28  C59 38X d   1      11.405-139.231  23.743  0.00  0.00    -0.050 C 
ATOM     29  H   38X d   1      11.767-139.693  24.673  0.00  0.00     0.033 H 
ATOM     30  H   38X d   1      12.045-139.544  22.905  0.00  0.00     0.033 H 
ATOM     31  H   38X d   1      10.370-139.551  23.553  0.00  0.00     0.033 H 
ENDBRANCH  14  28
ENDBRANCH  10  13
ENDBRANCH   7   9
BRANCH   7  32
ATOM     32  C12 38X d   1       8.618-137.374  19.638  0.00  0.00    -0.049 C 
ATOM     33  H   38X d   1       8.161-137.412  18.638  0.00  0.00     0.030 H 
ATOM     34  H   38X d   1       7.833-137.226  20.395  0.00  0.00     0.030 H 
ATOM     35  H   38X d   1       9.145-138.319  19.836  0.00  0.00     0.030 H 
ENDBRANCH   7  32
ENDBRANCH   4   7
ENDBRANCH   1   3
BRANCH   1  36
ATOM     36  C26 38X d   1      10.668-137.303  15.304  0.00  0.00     0.241 C 
ATOM     37  O27 38X d   1       9.520-137.649  15.334  0.00  0.00    -0.271 OA
ATOM     38  N28 38X d   1      11.257-136.893  14.205  0.00  0.00    -0.352 N 
ATOM     39  H   38X d   1      12.227-136.654  14.257  0.00  0.00     0.163 HD
BRANCH  38  40
ATOM     40  C29 38X d   1      10.593-136.762  12.913  0.00  0.00     0.037 C 
ATOM     41  H   38X d   1       9.557-137.129  12.956  0.00  0.00     0.076 H 
BRANCH  40  42
ATOM     42  C30 38X d   1      10.663-135.243  12.726  0.00  0.00    -0.041 C 
ATOM     43  H   38X d   1      11.149-135.068  11.755  0.00  0.00     0.036 H 
ATOM     44  H   38X d   1      11.304-134.856  13.532  0.00  0.00     0.036 H 
BRANCH  42  45
ATOM     45  C41 38X d   1       9.398-134.401  12.736  0.00  0.00    -0.052 C 
ATOM     46  C42 38X d   1       9.882-132.969  12.695  0.00  0.00    -0.062 C 
ATOM     47  C43 38X d   1       9.126-131.926  13.434  0.00  0.00    -0.065 C 
ATOM     48  H   38X d   1       9.898-132.666  11.638  0.00  0.00     0.033 H 
ATOM     49  H   38X d   1      10.907-132.965  13.093  0.00  0.00     0.033 H 
ATOM     50  C44 38X d   1       7.739-132.287  13.663  0.00  0.00    -0.065 C 
ATOM     51  H   38X d   1       9.154-130.994  12.851  0.00  0.00     0.033 H 
ATOM     52  H   38X d   1       9.612-131.765  14.408  0.00  0.00     0.033 H 
ATOM     53  C45 38X d   1       7.715-133.518  14.471  0.00  0.00    -0.065 C 
ATOM     54  H   38X d   1       7.236-132.463  12.701  0.00  0.00     0.033 H 
ATOM     55  H   38X d   1       7.227-131.477  14.203  0.00  0.00     0.033 H 
ATOM     56  C46 38X d   1       8.553-134.675  13.936  0.00  0.00    -0.062 C 
ATOM     57  H   38X d   1       6.671-133.859  14.537  0.00  0.00     0.033 H 
ATOM     58  H   38X d   1       8.084-133.270  15.477  0.00  0.00     0.033 H 
ATOM     59  H   38X d   1       9.222-135.002  14.745  0.00  0.00     0.033 H 
ATOM     60  H   38X d   1       7.864-135.492  13.677  0.00  0.00     0.033 H 
ATOM     61  H   38X d   1       8.802-134.617  11.837  0.00  0.00     0.040 H 
ENDBRANCH  42  45
ENDBRANCH  40  42
BRANCH  40  62
ATOM     62  C31 38X d   1      11.346-137.467  11.747  0.00  0.00     0.060 C 
ATOM     63  H   38X d   1      11.104-136.943  10.811  0.00  0.00     0.086 H 
BRANCH  62  64
ATOM     64  O32 38X d   1      12.663-137.363  12.018  0.00  0.00    -0.393 OA
ATOM     65  H   38X d   1      12.849-137.788  12.847  0.00  0.00     0.210 HD
ENDBRANCH  62  64
BRANCH  62  66
ATOM     66  C37 38X d   1      11.051-138.996  11.550  0.00  0.00    -0.010 C 
ATOM     67  H   38X d   1      11.438-139.328  10.575  0.00  0.00     0.046 H 
BRANCH  66  68
ATOM     68  C38 38X d   1       9.579-139.279  11.671  0.00  0.00    -0.069 C 
ATOM     69  H   38X d   1       9.400-140.355  11.529  0.00  0.00     0.028 H 
ATOM     70  H   38X d   1       9.032-138.712  10.903  0.00  0.00     0.028 H 
ATOM     71  H   38X d   1       9.228-138.977  12.669  0.00  0.00     0.028 H 
ENDBRANCH  66  68
BRANCH  66  72
ATOM     72  C39 38X d   1      11.663-139.786  12.676  0.00  0.00     0.022 C 
ATOM     73  H   38X d   1      11.821-140.823  12.345  0.00  0.00     0.074 H 
ATOM     74  H   38X d   1      10.978-139.777  13.537  0.00  0.00     0.074 H 
BRANCH  72  75
ATOM     75  O40 38X d   1      12.891-139.235  13.061  0.00  0.00    -0.400 OA
ATOM     76  H   38X d   1      12.758-138.340  13.351  0.00  0.00     0.209 HD
ENDBRANCH  72  75
ENDBRANCH  66  72
ENDBRANCH  62  66
ENDBRANCH  40  62
ENDBRANCH  38  40
ENDBRANCH   1  36
BRANCH   1  77
ATOM     77  C17 38X d   1      12.491-138.329  16.907  0.00  0.00    -0.012 C 
ATOM     78  H   38X d   1      12.609-138.972  16.022  0.00  0.00     0.044 H 
ATOM     79  H   38X d   1      12.128-138.932  17.752  0.00  0.00     0.044 H 
BRANCH  77  80
ATOM     80  C66 38X d   1      13.866-137.718  17.275  0.00  0.00    -0.028 A 
ATOM     81  C65 38X d   1      14.151-136.474  17.096  0.00  0.00    -0.015 A 
ATOM     82  N69 38X d   1      15.360-136.262  17.489  0.00  0.00    -0.365 N 
ATOM     83  H   38X d   1      13.480-135.724  16.680  0.00  0.00     0.112 H 
ATOM     84  C68 38X d   1      15.853-137.351  17.915  0.00  0.00     0.042 A 
ATOM     85  H   38X d   1      15.847-135.355  17.462  0.00  0.00     0.165 HD
ATOM     86  C67 38X d   1      14.928-138.267  17.804  0.00  0.00    -0.002 A 
ATOM     87  C60 38X d   1      17.054-137.551  18.399  0.00  0.00    -0.056 A 
ATOM     88  C63 38X d   1      15.218-139.490  18.200  0.00  0.00    -0.070 A 
ATOM     89  C62 38X d   1      16.475-139.788  18.719  0.00  0.00    -0.082 A 
ATOM     90  H   38X d   1      14.471-140.271  18.121  0.00  0.00     0.084 H 
ATOM     91  C61 38X d   1      17.425-138.794  18.827  0.00  0.00    -0.081 A 
ATOM     92  H   38X d   1      16.706-140.798  19.037  0.00  0.00     0.083 H 
ATOM     93  H   38X d   1      18.412-138.989  19.230  0.00  0.00     0.083 H 
ATOM     94  H   38X d   1      17.756-136.727  18.460  0.00  0.00     0.086 H 
ENDBRANCH  77  80
ENDBRANCH   1  77
TORSDOF 18
