REMARK  20 active torsions:
REMARK  status: ('A' for Active; 'I' for Inactive)
REMARK    1  A    between atoms: C4_3  and  C2_1 
REMARK       I    between atoms: C2_1  and  N1_10 
REMARK    2  A    between atoms: N5_4  and  C4_3 
REMARK    3  A    between atoms: N1_10  and  C11_11 
REMARK    4  A    between atoms: C11_11  and  C12_12 
REMARK    5  A    between atoms: C11_11  and  C13_13 
REMARK       I    between atoms: C13_13  and  N15_15 
REMARK    6  A    between atoms: N15_15  and  C16_16 
REMARK    7  A    between atoms: C16_16  and  C17_17 
REMARK    8  A    between atoms: C16_16  and  C26_26 
REMARK    9  A    between atoms: C17_17  and  C18_18 
REMARK   10  A    between atoms: C21_21  and  O22_22 
REMARK   11  A    between atoms: O22_22  and  C23_23 
REMARK       I    between atoms: C26_26  and  N28_28 
REMARK   12  A    between atoms: N28_28  and  C29_29 
REMARK   13  A    between atoms: C29_29  and  C31_30 
REMARK   14  A    between atoms: C29_29  and  C30_36 
REMARK   15  A    between atoms: C31_30  and  O32_31 
REMARK   16  A    between atoms: C31_30  and  C37_32 
REMARK   17  A    between atoms: C37_32  and  C38_33 
REMARK   18  A    between atoms: C37_32  and  C39_34 
REMARK   19  A    between atoms: C39_34  and  O40_35 
REMARK   20  A    between atoms: C30_36  and  C41_37 
ROOT
ATOM      1  C16 39Q d   1      11.569-137.636  16.705  0.00  0.00     0.093 C 
ATOM      2  H   39Q d   1      12.007-136.631  16.798  0.00  0.00     0.088 H 
ENDROOT
BRANCH   1   3
ATOM      3  N15 39Q d   1      10.734-137.920  17.855  0.00  0.00    -0.346 N 
ATOM      4  C13 39Q d   1      10.591-137.055  18.834  0.00  0.00     0.240 C 
ATOM      5  O14 39Q d   1      11.077-135.949  18.835  0.00  0.00    -0.271 OA
ATOM      6  H   39Q d   1      10.255-138.796  17.905  0.00  0.00     0.163 HD
BRANCH   4   7
ATOM      7  C11 39Q d   1       9.734-137.458  19.983  0.00  0.00     0.086 C 
ATOM      8  H   39Q d   1       9.139-138.354  19.750  0.00  0.00     0.086 H 
BRANCH   7   9
ATOM      9  N1  39Q d   1       8.926-136.319  20.268  0.00  0.00    -0.347 N 
ATOM     10  C2  39Q d   1       7.713-136.237  19.784  0.00  0.00     0.244 C 
ATOM     11  O3  39Q d   1       7.211-137.093  19.087  0.00  0.00    -0.272 OA
ATOM     12  H   39Q d   1       9.287-135.581  20.839  0.00  0.00     0.163 HD
BRANCH  10  13
ATOM     13  C4  39Q d   1       6.962-134.989  20.143  0.00  0.00     0.156 C 
ATOM     14  H   39Q d   1       7.530-134.108  19.809  0.00  0.00     0.090 H 
ATOM     15  H   39Q d   1       6.823-134.944  21.233  0.00  0.00     0.090 H 
BRANCH  13  16
ATOM     16  N5  39Q d   1       5.667-135.008  19.489  0.00  0.00    -0.059 N 
ATOM     17  C10 39Q d   1       4.870-136.120  20.021  0.00  0.00     0.103 C 
ATOM     18  C9  39Q d   1       3.432-135.972  19.603  0.00  0.00     0.042 C 
ATOM     19  H   39Q d   1       4.931-136.119  21.119  0.00  0.00     0.079 H 
ATOM     20  H   39Q d   1       5.266-137.070  19.632  0.00  0.00     0.079 H 
ATOM     21  O8  39Q d   1       3.029-134.680  20.039  0.00  0.00    -0.388 OA
ATOM     22  H   39Q d   1       3.341-136.052  18.510  0.00  0.00     0.076 H 
ATOM     23  H   39Q d   1       2.814-136.747  20.080  0.00  0.00     0.076 H 
ATOM     24  C7  39Q d   1       3.653-133.649  19.314  0.00  0.00     0.042 C 
ATOM     25  C6  39Q d   1       5.103-133.674  19.709  0.00  0.00     0.103 C 
ATOM     26  H   39Q d   1       3.205-132.678  19.571  0.00  0.00     0.076 H 
ATOM     27  H   39Q d   1       3.550-133.827  18.233  0.00  0.00     0.076 H 
ATOM     28  H   39Q d   1       5.657-132.941  19.103  0.00  0.00     0.079 H 
ATOM     29  H   39Q d   1       5.194-133.413  20.774  0.00  0.00     0.079 H 
ATOM     30  H   39Q d   1       5.783-135.153  18.498  0.00  0.00     0.280 HD
ENDBRANCH  13  16
ENDBRANCH  10  13
ENDBRANCH   7   9
BRANCH   7  31
ATOM     31  C12 39Q d   1      10.576-137.653  21.222  0.00  0.00    -0.049 C 
ATOM     32  H   39Q d   1      11.236-138.522  21.084  0.00  0.00     0.030 H 
ATOM     33  H   39Q d   1       9.920-137.825  22.088  0.00  0.00     0.030 H 
ATOM     34  H   39Q d   1      11.185-136.754  21.396  0.00  0.00     0.030 H 
ENDBRANCH   7  31
ENDBRANCH   4   7
ENDBRANCH   1   3
BRANCH   1  35
ATOM     35  C17 39Q d   1      12.663-138.674  16.719  0.00  0.00    -0.014 C 
ATOM     36  H   39Q d   1      13.259-138.586  15.799  0.00  0.00     0.043 H 
ATOM     37  H   39Q d   1      12.212-139.676  16.769  0.00  0.00     0.043 H 
BRANCH  35  38
ATOM     38  C18 39Q d   1      13.481-138.489  17.809  0.00  0.00    -0.056 A 
ATOM     39  C19 39Q d   1      13.105-138.893  19.059  0.00  0.00    -0.074 A 
ATOM     40  C20 39Q d   1      13.941-138.705  20.143  0.00  0.00    -0.050 A 
ATOM     41  H   39Q d   1      12.140-139.366  19.202  0.00  0.00     0.084 H 
ATOM     42  C21 39Q d   1      15.171-138.118  19.971  0.00  0.00     0.068 A 
ATOM     43  H   39Q d   1      13.626-139.021  21.131  0.00  0.00     0.087 H 
ATOM     44  C24 39Q d   1      15.542-137.720  18.715  0.00  0.00    -0.050 A 
ATOM     45  C25 39Q d   1      14.707-137.911  17.646  0.00  0.00    -0.074 A 
ATOM     46  H   39Q d   1      16.507-137.249  18.565  0.00  0.00     0.087 H 
ATOM     47  H   39Q d   1      15.024-137.599  16.657  0.00  0.00     0.084 H 
BRANCH  42  48
ATOM     48  O22 39Q d   1      16.024-137.901  20.997  0.00  0.00    -0.356 OA
BRANCH  48  49
ATOM     49  C23 39Q d   1      16.225-139.037  21.820  0.00  0.00     0.010 C 
ATOM     50  H   39Q d   1      16.927-138.785  22.628  0.00  0.00     0.066 H 
ATOM     51  H   39Q d   1      16.640-139.858  21.217  0.00  0.00     0.066 H 
ATOM     52  H   39Q d   1      15.264-139.350  22.254  0.00  0.00     0.066 H 
ENDBRANCH  48  49
ENDBRANCH  42  48
ENDBRANCH  35  38
ENDBRANCH   1  35
BRANCH   1  53
ATOM     53  C26 39Q d   1      10.753-137.702  15.417  0.00  0.00     0.241 C 
ATOM     54  O27 39Q d   1       9.619-138.118  15.444  0.00  0.00    -0.271 OA
ATOM     55  N28 39Q d   1      11.337-137.275  14.299  0.00  0.00    -0.352 N 
ATOM     56  H   39Q d   1      12.298-137.002  14.339  0.00  0.00     0.163 HD
BRANCH  55  57
ATOM     57  C29 39Q d   1      10.640-137.185  13.010  0.00  0.00     0.041 C 
ATOM     58  H   39Q d   1       9.620-137.589  13.096  0.00  0.00     0.076 H 
BRANCH  57  59
ATOM     59  C31 39Q d   1      11.406-137.912  11.890  0.00  0.00     0.060 C 
ATOM     60  H   39Q d   1      11.000-137.587  10.920  0.00  0.00     0.086 H 
BRANCH  59  61
ATOM     61  O32 39Q d   1      12.689-137.486  12.019  0.00  0.00    -0.393 OA
ATOM     62  H   39Q d   1      13.014-137.721  12.880  0.00  0.00     0.210 HD
ENDBRANCH  59  61
BRANCH  59  63
ATOM     63  C37 39Q d   1      11.357-139.436  11.922  0.00  0.00    -0.010 C 
ATOM     64  H   39Q d   1      11.650-139.844  10.943  0.00  0.00     0.046 H 
BRANCH  63  65
ATOM     65  C38 39Q d   1       9.970-139.862  12.276  0.00  0.00    -0.069 C 
ATOM     66  H   39Q d   1       9.919-140.960  12.303  0.00  0.00     0.028 H 
ATOM     67  H   39Q d   1       9.266-139.481  11.522  0.00  0.00     0.028 H 
ATOM     68  H   39Q d   1       9.703-139.458  13.264  0.00  0.00     0.028 H 
ENDBRANCH  63  65
BRANCH  63  69
ATOM     69  C39 39Q d   1      12.272-139.960  13.006  0.00  0.00     0.022 C 
ATOM     70  H   39Q d   1      12.512-141.014  12.804  0.00  0.00     0.074 H 
ATOM     71  H   39Q d   1      11.768-139.879  13.980  0.00  0.00     0.074 H 
BRANCH  69  72
ATOM     72  O40 39Q d   1      13.489-139.188  13.030  0.00  0.00    -0.400 OA
ATOM     73  H   39Q d   1      13.282-138.278  13.205  0.00  0.00     0.209 HD
ENDBRANCH  69  72
ENDBRANCH  63  69
ENDBRANCH  59  63
ENDBRANCH  57  59
BRANCH  57  74
ATOM     74  C30 39Q d   1      10.623-135.692  12.647  0.00  0.00    -0.020 C 
ATOM     75  H   39Q d   1      10.489-135.626  11.557  0.00  0.00     0.043 H 
ATOM     76  H   39Q d   1      11.606-135.281  12.921  0.00  0.00     0.043 H 
BRANCH  74  77
ATOM     77  C41 39Q d   1       9.663-134.873  13.226  0.00  0.00    -0.056 A 
ATOM     78  C42 39Q d   1       8.720-135.315  14.116  0.00  0.00    -0.077 A 
ATOM     79  C43 39Q d   1       7.805-134.438  14.657  0.00  0.00    -0.082 A 
ATOM     80  H   39Q d   1       8.693-136.362  14.397  0.00  0.00     0.084 H 
ATOM     81  C44 39Q d   1       7.810-133.115  14.318  0.00  0.00    -0.083 A 
ATOM     82  H   39Q d   1       7.069-134.804  15.364  0.00  0.00     0.083 H 
ATOM     83  C45 39Q d   1       8.747-132.667  13.431  0.00  0.00    -0.082 A 
ATOM     84  H   39Q d   1       7.084-132.433  14.745  0.00  0.00     0.083 H 
ATOM     85  C46 39Q d   1       9.661-133.541  12.894  0.00  0.00    -0.077 A 
ATOM     86  H   39Q d   1       8.770-131.620  13.150  0.00  0.00     0.083 H 
ATOM     87  H   39Q d   1      10.398-133.170  12.191  0.00  0.00     0.084 H 
ENDBRANCH  74  77
ENDBRANCH  57  74
ENDBRANCH  55  57
ENDBRANCH   1  53
TORSDOF 20
