REMARK  12 active torsions:
REMARK  status: ('A' for Active; 'I' for Inactive)
REMARK    1  A    between atoms: CAO_1  and  CAP_2 
REMARK    2  A    between atoms: CAO_1  and  CAE_5 
REMARK    3  A    between atoms: CAO_1  and  CAQ_19 
REMARK    4  A    between atoms: CAP_2  and  OAY_3 
REMARK    5  A    between atoms: CAP_2  and  OAX_4 
REMARK    6  A    between atoms: CAE_5  and  PAD_6 
REMARK    7  A    between atoms: PAD_6  and  CAB_9 
REMARK    8  A    between atoms: CAB_9  and  NAC_10 
REMARK    9  A    between atoms: CAB_9  and  CAA_11 
REMARK   10  A    between atoms: CAA_11  and  CAH_12 
REMARK   11  A    between atoms: CAH_12  and  CAI_13 
REMARK   12  A    between atoms: CAQ_19  and  CAR_20 
ROOT
ATOM      1  PAD 37B d   1       9.503  44.094 -23.558  0.00  0.00     0.138 P 
ATOM      2  OAF 37B d   1       8.976  44.977 -24.769  0.00  0.00    -0.666 OA
ATOM      3  OAG 37B d   1       8.906  44.600 -22.308  0.00  0.00    -0.666 OA
ENDROOT
BRANCH   1   4
ATOM      4  CAE 37B d   1       9.264  42.290 -23.728  0.00  0.00     0.017 C 
ATOM      5  H   37B d   1       9.069  42.047 -24.783  0.00  0.00     0.049 H 
ATOM      6  H   37B d   1      10.173  41.769 -23.394  0.00  0.00     0.049 H 
BRANCH   4   7
ATOM      7  CAO 37B d   1       8.069  41.832 -22.869  0.00  0.00     0.006 C 
ATOM      8  H   37B d   1       7.950  42.557 -22.050  0.00  0.00     0.048 H 
BRANCH   7   9
ATOM      9  CAP 37B d   1       8.181  40.454 -22.243  0.00  0.00     0.130 C 
ATOM     10  H   37B d   1       7.455  39.777 -22.717  0.00  0.00     0.129 H 
BRANCH   9  11
ATOM     11  OAY 37B d   1       9.453  39.920 -22.389  0.00  0.00    -0.371 OA
ATOM     12  H   37B d   1       9.489  39.070 -21.967  0.00  0.00     0.212 HD
ENDBRANCH   9  11
BRANCH   9  13
ATOM     13  OAX 37B d   1       7.873  40.602 -20.865  0.00  0.00    -0.371 OA
ATOM     14  H   37B d   1       8.506  41.184 -20.461  0.00  0.00     0.212 HD
ENDBRANCH   9  13
ENDBRANCH   7   9
BRANCH   7  15
ATOM     15  CAQ 37B d   1       6.847  41.868 -23.740  0.00  0.00    -0.033 C 
ATOM     16  H   37B d   1       6.871  40.994 -24.407  0.00  0.00     0.041 H 
ATOM     17  H   37B d   1       6.877  42.789 -24.341  0.00  0.00     0.041 H 
BRANCH  15  18
ATOM     18  CAR 37B d   1       5.496  41.843 -22.942  0.00  0.00    -0.058 A 
ATOM     19  CAS 37B d   1       5.433  42.087 -21.579  0.00  0.00    -0.077 A 
ATOM     20  CAT 37B d   1       4.211  42.055 -20.917  0.00  0.00    -0.082 A 
ATOM     21  H   37B d   1       6.340  42.304 -21.027  0.00  0.00     0.084 H 
ATOM     22  CAU 37B d   1       3.056  41.788 -21.618  0.00  0.00    -0.083 A 
ATOM     23  H   37B d   1       4.167  42.240 -19.850  0.00  0.00     0.083 H 
ATOM     24  CAV 37B d   1       3.117  41.547 -22.974  0.00  0.00    -0.082 A 
ATOM     25  H   37B d   1       2.101  41.767 -21.105  0.00  0.00     0.083 H 
ATOM     26  CAW 37B d   1       4.333  41.584 -23.631  0.00  0.00    -0.077 A 
ATOM     27  H   37B d   1       2.210  41.328 -23.526  0.00  0.00     0.083 H 
ATOM     28  H   37B d   1       4.371  41.407 -24.700  0.00  0.00     0.084 H 
ENDBRANCH  15  18
ENDBRANCH   7  15
ENDBRANCH   4   7
ENDBRANCH   1   4
BRANCH   1  29
ATOM     29  CAB 37B d   1      11.256  44.462 -23.575  0.00  0.00     0.173 C 
ATOM     30  H   37B d   1      11.670  44.181 -24.555  0.00  0.00     0.100 H 
BRANCH  29  31
ATOM     31  NAC 37B d   1      11.359  45.932 -23.431  0.00  0.00    -0.066 N 
ATOM     32  H   37B d   1      12.330  46.203 -23.434  0.00  0.00     0.275 HD
ATOM     33  H   37B d   1      10.934  46.215 -22.562  0.00  0.00     0.275 HD
ATOM     34  H   37B d   1      10.883  46.379 -24.199  0.00  0.00     0.275 HD
ENDBRANCH  29  31
BRANCH  29  35
ATOM     35  CAA 37B d   1      12.002  43.670 -22.536  0.00  0.00    -0.026 C 
ATOM     36  H   37B d   1      11.817  42.600 -22.712  0.00  0.00     0.037 H 
ATOM     37  H   37B d   1      11.620  43.949 -21.543  0.00  0.00     0.037 H 
BRANCH  35  38
ATOM     38  CAH 37B d   1      13.506  43.912 -22.562  0.00  0.00    -0.039 C 
ATOM     39  H   37B d   1      13.721  44.611 -21.741  0.00  0.00     0.040 H 
ATOM     40  H   37B d   1      13.724  44.398 -23.524  0.00  0.00     0.040 H 
BRANCH  38  41
ATOM     41  CAI 37B d   1      14.531  42.741 -22.420  0.00  0.00    -0.058 A 
ATOM     42  CAJ 37B d   1      14.585  41.701 -23.403  0.00  0.00    -0.077 A 
ATOM     43  CAK 37B d   1      15.526  40.655 -23.274  0.00  0.00    -0.082 A 
ATOM     44  H   37B d   1      13.904  41.716 -24.246  0.00  0.00     0.084 H 
ATOM     45  CAL 37B d   1      16.411  40.654 -22.180  0.00  0.00    -0.083 A 
ATOM     46  H   37B d   1      15.566  39.861 -24.011  0.00  0.00     0.083 H 
ATOM     47  CAM 37B d   1      16.373  41.698 -21.201  0.00  0.00    -0.082 A 
ATOM     48  H   37B d   1      17.132  39.851 -22.077  0.00  0.00     0.083 H 
ATOM     49  CAN 37B d   1      15.422  42.752 -21.325  0.00  0.00    -0.077 A 
ATOM     50  H   37B d   1      17.066  41.687 -20.367  0.00  0.00     0.083 H 
ATOM     51  H   37B d   1      15.383  43.549 -20.591  0.00  0.00     0.084 H 
ENDBRANCH  38  41
ENDBRANCH  35  38
ENDBRANCH  29  35
ENDBRANCH   1  29
TORSDOF 12
