REMARK  5 active torsions:
REMARK  status: ('A' for Active; 'I' for Inactive)
REMARK       I    between atoms: C2_2  and  N3_3 
REMARK       I    between atoms: C2_2  and  N7_7 
REMARK    1  A    between atoms: N3_3  and  C4_4 
REMARK    2  A    between atoms: N7_7  and  C8_8 
REMARK    3  A    between atoms: C13_12  and  C14_13 
REMARK    4  A    between atoms: C19_18  and  C20_19 
REMARK    5  A    between atoms: C20_19  and  N21_20 
ROOT
ATOM      1  C14 35R d   1     127.633   1.305  73.179  0.00  0.00     0.159 A 
ATOM      2  N15 35R d   1     128.285   1.314  71.994  0.00  0.00    -0.227 NA
ATOM      3  C16 35R d   1     128.693   2.568  71.747  0.00  0.00     0.086 A 
ATOM      4  C17 35R d   1     129.410   3.135  70.675  0.00  0.00    -0.052 A 
ATOM      5  C18 35R d   1     129.696   4.520  70.706  0.00  0.00    -0.073 A 
ATOM      6  C19 35R d   1     129.286   5.324  71.809  0.00  0.00    -0.030 A 
ATOM      7  C28 35R d   1     128.562   4.718  72.873  0.00  0.00    -0.047 A 
ATOM      8  C29 35R d   1     128.278   3.342  72.824  0.00  0.00     0.063 A 
ATOM      9  N30 35R d   1     127.620   2.556  73.693  0.00  0.00    -0.337 N 
ATOM     10  H10 35R d   1     129.736   2.522  69.843  0.00  0.00     0.087 H 
ATOM     11  H11 35R d   1     130.233   4.975  69.882  0.00  0.00     0.084 H 
ATOM     12  H23 35R d   1     128.231   5.314  73.716  0.00  0.00     0.087 H 
ATOM     13  H24 35R d   1     127.188   2.850  74.581  0.00  0.00     0.167 HD
ENDROOT
BRANCH   1  14
ATOM     14  C13 35R d   1     127.032   0.170  73.781  0.00  0.00     0.124 A 
ATOM     15  C8  35R d   1     126.307   0.093  74.981  0.00  0.00     0.087 A 
ATOM     16  C9  35R d   1     125.929  -1.241  75.093  0.00  0.00     0.050 A 
ATOM     17  N10 35R d   1     126.396  -1.873  74.007  0.00  0.00    -0.184 NA
ATOM     18  H8  35R d   1     125.361  -1.687  75.908  0.00  0.00     0.121 H 
ATOM     19  N12 35R d   1     127.042  -1.057  73.228  0.00  0.00    -0.272 N 
ATOM     20  H9  35R d   1     127.488  -1.308  72.334  0.00  0.00     0.189 HD
BRANCH  15  21
ATOM     21  N7  35R d   1     126.070   1.136  75.825  0.00  0.00    -0.305 N 
ATOM     22  C2  35R d   1     125.347   1.145  76.966  0.00  0.00     0.321 C 
ATOM     23  O1  35R d   1     124.816   0.116  77.439  0.00  0.00    -0.247 OA
ATOM     24  N3  35R d   1     125.240   2.346  77.579  0.00  0.00    -0.338 N 
ATOM     25  H1  35R d   1     125.011   2.356  78.552  0.00  0.00     0.164 HD
ATOM     26  H7  35R d   1     126.485   2.008  75.566  0.00  0.00     0.171 HD
BRANCH  24  27
ATOM     27  C4  35R d   1     125.432   3.596  76.928  0.00  0.00     0.014 A 
ATOM     28  C5  35R d   1     126.878   4.106  76.792  0.00  0.00    -0.044 A 
ATOM     29  C6  35R d   1     125.936   4.729  77.833  0.00  0.00    -0.044 A 
ATOM     30  H3  35R d   1     127.177   4.684  75.905  0.00  0.00     0.036 H 
ATOM     31  H4  35R d   1     127.717   3.474  77.118  0.00  0.00     0.036 H 
ATOM     32  H5  35R d   1     126.102   4.544  78.905  0.00  0.00     0.036 H 
ATOM     33  H6  35R d   1     125.561   5.753  77.692  0.00  0.00     0.036 H 
ATOM     34  H2  35R d   1     124.686   3.764  76.137  0.00  0.00     0.072 H 
ENDBRANCH  24  27
ENDBRANCH  15  21
ENDBRANCH   1  14
BRANCH   6  35
ATOM     35  C20 35R d   1     129.576   6.790  71.818  0.00  0.00     0.107 C 
ATOM     36  H12 35R d   1     129.005   7.226  72.651  0.00  0.00     0.083 H 
ATOM     37  H13 35R d   1     129.205   7.197  70.866  0.00  0.00     0.083 H 
BRANCH  35  38
ATOM     38  N21 35R d   1     130.999   7.256  71.970  0.00  0.00    -0.063 N 
ATOM     39  C23 35R d   1     131.416   7.330  73.403  0.00  0.00     0.103 C 
ATOM     40  C24 35R d   1     132.876   7.821  73.535  0.00  0.00     0.042 C 
ATOM     41  H15 35R d   1     131.332   6.330  73.853  0.00  0.00     0.079 H 
ATOM     42  H16 35R d   1     130.753   8.029  73.934  0.00  0.00     0.079 H 
ATOM     43  O25 35R d   1     133.033   9.113  72.911  0.00  0.00    -0.388 OA
ATOM     44  H17 35R d   1     133.546   7.099  73.046  0.00  0.00     0.076 H 
ATOM     45  H18 35R d   1     133.137   7.900  74.601  0.00  0.00     0.076 H 
ATOM     46  C26 35R d   1     132.668   9.110  71.512  0.00  0.00     0.042 C 
ATOM     47  C27 35R d   1     131.228   8.577  71.289  0.00  0.00     0.103 C 
ATOM     48  H19 35R d   1     133.373   8.469  70.962  0.00  0.00     0.076 H 
ATOM     49  H20 35R d   1     132.730  10.138  71.126  0.00  0.00     0.076 H 
ATOM     50  H21 35R d   1     130.513   9.311  71.689  0.00  0.00     0.079 H 
ATOM     51  H22 35R d   1     131.060   8.453  70.209  0.00  0.00     0.079 H 
ATOM     52  H14 35R d   1     131.587   6.574  71.517  0.00  0.00     0.280 HD
ENDBRANCH  35  38
ENDBRANCH   6  35
TORSDOF 5
