REMARK  12 active torsions:
REMARK  status: ('A' for Active; 'I' for Inactive)
REMARK    1  A    between atoms: OAV_22  and  CAA_1 
REMARK    2  A    between atoms: CAX_24  and  O02_2 
REMARK    3  A    between atoms: O02_2  and  C01_36 
REMARK    4  A    between atoms: CAM_13  and  CAC_3 
REMARK    5  A    between atoms: CAC_3  and  NBH_34 
REMARK    6  A    between atoms: CAN_14  and  CAM_13 
REMARK    7  A    between atoms: OAW_23  and  CAN_14 
REMARK    8  A    between atoms: NBI_35  and  CAO_15 
REMARK    9  A    between atoms: NAU_21  and  CBB_28 
REMARK   10  A    between atoms: CBE_31  and  NAU_21 
REMARK   11  A    between atoms: CBC_29  and  OAV_22 
REMARK   12  A    between atoms: CBD_30  and  OAW_23 
ROOT
ATOM      1  NAD DB8 d   1       0.564   4.929  16.417  0.00  0.00    -0.191 NA
ATOM      2  CAG DB8 d   1      -0.323   4.249  16.154  0.00  0.00     0.103 C 
ATOM      3  CAH DB8 d   1      -2.234   4.043  14.912  0.00  0.00     0.025 A 
ATOM      4  CAK DB8 d   1      -4.763   1.462  14.531  0.00  0.00    -0.019 A 
ATOM      5  CAL DB8 d   1      -3.134   0.189  16.423  0.00  0.00    -0.034 A 
ATOM      6  NAT DB8 d   1      -3.315   3.349  14.514  0.00  0.00    -0.259 NA
ATOM      7  CBA DB8 d   1      -1.345   3.488  15.853  0.00  0.00     0.089 A 
ATOM      8  CBC DB8 d   1      -4.292  -0.470  15.954  0.00  0.00     0.102 A 
ATOM      9  CBD DB8 d   1      -5.105   0.182  15.000  0.00  0.00     0.104 A 
ATOM     10  CBE DB8 d   1      -1.608   2.184  16.403  0.00  0.00     0.068 A 
ATOM     11  CBF DB8 d   1      -3.609   2.113  14.997  0.00  0.00     0.071 A 
ATOM     12  CBG DB8 d   1      -2.768   1.485  15.957  0.00  0.00     0.024 A 
ATOM     13  H6  DB8 d   1      -2.046   5.031  14.508  0.00  0.00     0.117 H 
ATOM     14  H9  DB8 d   1      -5.397   1.952  13.801  0.00  0.00     0.091 H 
ATOM     15  H10 DB8 d   1      -2.507  -0.304  17.157  0.00  0.00     0.089 H 
ENDROOT
BRANCH  10  16
ATOM     16  NAU DB8 d   1      -0.781   1.585  17.344  0.00  0.00    -0.353 N 
ATOM     17  H26 DB8 d   1      -0.766   0.555  17.368  0.00  0.00     0.166 HD
BRANCH  16  18
ATOM     18  CBB DB8 d   1       0.015   2.240  18.241  0.00  0.00     0.057 A 
ATOM     19  CAJ DB8 d   1      -0.528   3.209  19.119  0.00  0.00    -0.022 A 
ATOM     20  CAX DB8 d   1       0.315   3.886  20.020  0.00  0.00     0.092 A 
ATOM     21  H8  DB8 d   1      -1.589   3.429  19.097  0.00  0.00     0.091 H 
ATOM     22  CAY DB8 d   1       1.696   3.608  20.043  0.00  0.00     0.069 A 
ATOM     23 CL1  DB8 d   1       2.685   4.458  21.132  0.00  0.00    -0.081 Cl
ATOM     24  CAI DB8 d   1       2.250   2.653  19.175  0.00  0.00    -0.036 A 
ATOM     25  CAZ DB8 d   1       1.410   1.972  18.275  0.00  0.00     0.062 A 
ATOM     26  H7  DB8 d   1       3.313   2.443  19.198  0.00  0.00     0.088 H 
ATOM     27 CL2  DB8 d   1       2.122   0.828  17.244  0.00  0.00    -0.082 Cl
BRANCH  20  28
ATOM     28  O02 DB8 d   1      -0.144   4.845  20.880  0.00  0.00    -0.354 OA
BRANCH  28  29
ATOM     29  C01 DB8 d   1      -1.530   5.205  20.757  0.00  0.00     0.010 C 
ATOM     30  H29 DB8 d   1      -1.775   5.980  21.498  0.00  0.00     0.066 H 
ATOM     31  H30 DB8 d   1      -2.156   4.318  20.933  0.00  0.00     0.066 H 
ATOM     32  H31 DB8 d   1      -1.720   5.593  19.745  0.00  0.00     0.066 H 
ENDBRANCH  28  29
ENDBRANCH  20  28
ENDBRANCH  16  18
ENDBRANCH  10  16
BRANCH   8  33
ATOM     33  OAV DB8 d   1      -4.660  -1.721  16.396  0.00  0.00    -0.353 OA
BRANCH  33  34
ATOM     34  CAA DB8 d   1      -3.783  -2.327  17.362  0.00  0.00     0.010 C 
ATOM     35  H1  DB8 d   1      -4.173  -3.317  17.641  0.00  0.00     0.066 H 
ATOM     36  H2  DB8 d   1      -3.726  -1.690  18.257  0.00  0.00     0.066 H 
ATOM     37  H3  DB8 d   1      -2.779  -2.438  16.927  0.00  0.00     0.066 H 
ENDBRANCH  33  34
ENDBRANCH   8  33
BRANCH   9  38
ATOM     38  OAW DB8 d   1      -6.235  -0.419  14.531  0.00  0.00    -0.348 OA
BRANCH  38  39
ATOM     39  CAN DB8 d   1      -6.591  -0.194  13.148  0.00  0.00     0.028 C 
ATOM     40  H13 DB8 d   1      -7.183   0.728  13.050  0.00  0.00     0.075 H 
ATOM     41  H14 DB8 d   1      -5.686  -0.116  12.528  0.00  0.00     0.075 H 
BRANCH  39  42
ATOM     42  CAM DB8 d   1      -7.436  -1.428  12.720  0.00  0.00    -0.022 C 
ATOM     43  H11 DB8 d   1      -6.825  -2.040  12.040  0.00  0.00     0.038 H 
ATOM     44  H12 DB8 d   1      -7.672  -2.009  13.624  0.00  0.00     0.038 H 
BRANCH  42  45
ATOM     45  CAC DB8 d   1      -8.767  -1.096  12.002  0.00  0.00     0.086 C 
ATOM     46  H4  DB8 d   1      -8.772  -1.612  11.030  0.00  0.00     0.076 H 
ATOM     47  H5  DB8 d   1      -8.809  -0.009  11.840  0.00  0.00     0.076 H 
BRANCH  45  48
ATOM     48  NBH DB8 d   1     -10.004  -1.509  12.763  0.00  0.00    -0.068 N 
ATOM     49  CAP DB8 d   1     -10.771  -2.643  12.154  0.00  0.00     0.106 C 
ATOM     50  CAR DB8 d   1     -12.110  -2.860  12.902  0.00  0.00     0.105 C 
ATOM     51  H18 DB8 d   1     -10.980  -2.413  11.099  0.00  0.00     0.078 H 
ATOM     52  H19 DB8 d   1     -10.169  -3.561  12.217  0.00  0.00     0.078 H 
ATOM     53  NBI DB8 d   1     -11.881  -3.076  14.364  0.00  0.00    -0.072 N 
ATOM     54  H22 DB8 d   1     -12.617  -3.742  12.483  0.00  0.00     0.078 H 
ATOM     55  H23 DB8 d   1     -12.746  -1.973  12.765  0.00  0.00     0.078 H 
ATOM     56  CAS DB8 d   1     -11.123  -1.952  14.993  0.00  0.00     0.105 C 
ATOM     57  H28 DB8 d   1     -11.290  -3.889  14.441  0.00  0.00     0.279 HD
ATOM     58  CAQ DB8 d   1      -9.793  -1.706  14.235  0.00  0.00     0.106 C 
ATOM     59  H24 DB8 d   1     -11.734  -1.038  14.958  0.00  0.00     0.078 H 
ATOM     60  H25 DB8 d   1     -10.902  -2.205  16.040  0.00  0.00     0.078 H 
ATOM     61  H20 DB8 d   1      -9.135  -2.575  14.385  0.00  0.00     0.078 H 
ATOM     62  H21 DB8 d   1      -9.312  -0.806  14.647  0.00  0.00     0.078 H 
ATOM     63  H27 DB8 d   1     -10.618  -0.713  12.692  0.00  0.00     0.280 HD
BRANCH  53  64
ATOM     64  CAO DB8 d   1     -13.141  -3.410  15.083  0.00  0.00     0.066 C 
ATOM     65  H15 DB8 d   1     -13.647  -4.241  14.570  0.00  0.00     0.068 H 
ATOM     66  H16 DB8 d   1     -13.801  -2.530  15.094  0.00  0.00     0.068 H 
ATOM     67  H17 DB8 d   1     -12.906  -3.705  16.116  0.00  0.00     0.068 H 
ENDBRANCH  53  64
ENDBRANCH  45  48
ENDBRANCH  42  45
ENDBRANCH  39  42
ENDBRANCH  38  39
ENDBRANCH   9  38
TORSDOF 12
