REMARK  2 active torsions:
REMARK  status: ('A' for Active; 'I' for Inactive)
REMARK    1  A    between atoms: C09_9  and  C10_10 
REMARK    2  A    between atoms: C10_10  and  C11_11 
ROOT
ATOM      1  C01 34L d   1     125.560  -1.184  76.508  0.00  0.00     0.048 A 
ATOM      2  C02 34L d   1     124.805  -1.819  77.487  0.00  0.00     0.075 A 
ATOM      3  C03 34L d   1     124.619  -3.243  77.449  0.00  0.00    -0.052 A 
ATOM      4  C04 34L d   1     125.193  -3.980  76.417  0.00  0.00    -0.054 A 
ATOM      5  C05 34L d   1     125.968  -3.317  75.410  0.00  0.00     0.046 A 
ATOM      6  C06 34L d   1     126.154  -1.929  75.451  0.00  0.00     0.025 A 
ATOM      7  N07 34L d   1     126.628  -3.789  74.317  0.00  0.00    -0.333 N 
ATOM      8  C08 34L d   1     127.218  -2.781  73.679  0.00  0.00     0.190 A 
ATOM      9  C09 34L d   1     126.945  -1.558  74.347  0.00  0.00     0.034 A 
ATOM     10  O16 34L d   1     127.972  -2.916  72.548  0.00  0.00    -0.171 OA
ATOM     11  N17 34L d   1     124.255  -0.954  78.479  0.00  0.00    -0.253 NA
ATOM     12  C18 34L d   1     124.566   0.357  78.318  0.00  0.00     0.041 A 
ATOM     13  S19 34L d   1     125.517   0.492  76.925  0.00  0.00    -0.080 SA
ATOM     14  H1  34L d   1     124.037  -3.739  78.217  0.00  0.00     0.087 H 
ATOM     15  H2  34L d   1     125.054  -5.054  76.375  0.00  0.00     0.087 H 
ATOM     16  H3  34L d   1     126.664  -4.748  74.036  0.00  0.00     0.168 HD
ATOM     17  H8  34L d   1     124.259   1.175  78.968  0.00  0.00     0.126 H 
ENDROOT
BRANCH   9  18
ATOM     18  C10 34L d   1     127.386  -0.151  73.999  0.00  0.00    -0.041 C 
ATOM     19  H4  34L d   1     127.188   0.631  74.731  0.00  0.00     0.088 H 
BRANCH  18  20
ATOM     20  C11 34L d   1     128.077   0.255  72.721  0.00  0.00     0.051 A 
ATOM     21  N13 34L d   1     128.576  -0.514  71.738  0.00  0.00    -0.350 N 
ATOM     22  C12 34L d   1     129.120   0.281  70.803  0.00  0.00     0.064 A 
ATOM     23  H6  34L d   1     128.546  -1.543  71.707  0.00  0.00     0.166 HD
ATOM     24  N15 34L d   1     128.981   1.555  71.176  0.00  0.00    -0.254 NA
ATOM     25  H5  34L d   1     129.599  -0.059  69.886  0.00  0.00     0.143 H 
ATOM     26  C14 34L d   1     128.339   1.579  72.363  0.00  0.00     0.029 A 
ATOM     27  H7  34L d   1     128.074   2.467  72.936  0.00  0.00     0.118 H 
ENDBRANCH  18  20
ENDBRANCH   9  18
TORSDOF 2
