REMARK  7 active torsions:
REMARK  status: ('A' for Active; 'I' for Inactive)
REMARK    1  A    between atoms: CAZ_8  and  NAQ_9 
REMARK    2  A    between atoms: NAQ_9  and  CAS_10 
REMARK    3  A    between atoms: CAS_10  and  NBA_12 
REMARK    4  A    between atoms: CAX_17  and  NAR_18 
REMARK    5  A    between atoms: NAR_18  and  CAW_19 
REMARK    6  A    between atoms: CAY_24  and  SBB_25 
REMARK    7  A    between atoms: SBB_25  and  NAB_28 
ROOT
ATOM      1  NBA DKI d   1      27.124  -2.404  74.259  0.00  0.00    -0.018 N 
ATOM      2  NAP DKI d   1      27.752  -1.574  73.487  0.00  0.00     0.044 NA
ATOM      3  CAT DKI d   1      27.240  -3.639  73.738  0.00  0.00     0.739 A 
ATOM      4  NAA DKI d   1      26.718  -4.796  74.181  0.00  0.00    -0.230 N 
ATOM      5  NAO DKI d   1      27.983  -3.552  72.633  0.00  0.00     0.131 NA
ATOM      6  CAX DKI d   1      28.297  -2.260  72.484  0.00  0.00     0.760 A 
ATOM      7  H5  DKI d   1      26.897  -5.671  73.669  0.00  0.00     0.174 HD
ATOM      8  H6  DKI d   1      26.139  -4.807  75.033  0.00  0.00     0.174 HD
ENDROOT
BRANCH   6   9
ATOM      9  NAR DKI d   1      29.057  -1.830  71.447  0.00  0.00    -0.186 N 
ATOM     10  H7  DKI d   1      29.326  -2.576  70.789  0.00  0.00     0.184 HD
BRANCH   9  11
ATOM     11  CAW DKI d   1      29.531  -0.602  71.111  0.00  0.00     0.049 A 
ATOM     12  CAL DKI d   1      29.352   0.486  71.999  0.00  0.00    -0.055 A 
ATOM     13  CAN DKI d   1      29.844   1.765  71.662  0.00  0.00    -0.058 A 
ATOM     14  H8  DKI d   1      28.836   0.336  72.940  0.00  0.00     0.087 H 
ATOM     15  CAY DKI d   1      30.518   1.961  70.434  0.00  0.00     0.079 A 
ATOM     16  H9  DKI d   1      29.706   2.596  72.344  0.00  0.00     0.086 H 
ATOM     17  CAM DKI d   1      30.698   0.884  69.554  0.00  0.00    -0.058 A 
ATOM     18  CAK DKI d   1      30.212  -0.389  69.893  0.00  0.00    -0.055 A 
ATOM     19  H11 DKI d   1      31.212   1.034  68.612  0.00  0.00     0.086 H 
ATOM     20  H10 DKI d   1      30.362  -1.218  69.211  0.00  0.00     0.087 H 
BRANCH  15  21
ATOM     21  SBB DKI d   1      31.146   3.537  69.939  0.00  0.00     0.256 S 
ATOM     22  OAC DKI d   1      31.329   4.495  71.200  0.00  0.00    -0.201 OA
ATOM     23  OAD DKI d   1      32.532   3.358  69.166  0.00  0.00    -0.201 OA
BRANCH  21  24
ATOM     24  NAB DKI d   1      30.025   4.258  68.807  0.00  0.00    -0.324 N 
ATOM     25  H12 DKI d   1      30.218   5.159  68.417  0.00  0.00     0.169 HD
ATOM     26  H13 DKI d   1      29.191   3.770  68.549  0.00  0.00     0.169 HD
ENDBRANCH  21  24
ENDBRANCH  15  21
ENDBRANCH   9  11
ENDBRANCH   6   9
BRANCH   1  27
ATOM     27  CAS DKI d   1      26.441  -1.955  75.307  0.00  0.00     0.218 C 
ATOM     28  SAE DKI d   1      25.823  -3.020  76.500  0.00  0.00    -0.038 SA
BRANCH  27  29
ATOM     29  NAQ DKI d   1      26.142  -0.662  75.417  0.00  0.00    -0.326 N 
ATOM     30  H4  DKI d   1      26.362  -0.127  74.601  0.00  0.00     0.168 HD
BRANCH  29  31
ATOM     31  CAZ DKI d   1      25.595   0.074  76.425  0.00  0.00     0.112 A 
ATOM     32  CAU DKI d   1      26.315   0.658  77.479  0.00  0.00     0.146 A 
ATOM     33  FAF DKI d   1      27.604   0.522  77.547  0.00  0.00    -0.204 F 
ATOM     34  CAI DKI d   1      25.653   1.404  78.475  0.00  0.00    -0.043 A 
ATOM     35  CAH DKI d   1      24.258   1.572  78.418  0.00  0.00    -0.077 A 
ATOM     36  H1  DKI d   1      26.220   1.848  79.285  0.00  0.00     0.088 H 
ATOM     37  CAJ DKI d   1      23.527   0.989  77.376  0.00  0.00    -0.043 A 
ATOM     38  H2  DKI d   1      23.750   2.152  79.180  0.00  0.00     0.083 H 
ATOM     39  CAV DKI d   1      24.203   0.259  76.376  0.00  0.00     0.146 A 
ATOM     40  H3  DKI d   1      22.449   1.098  77.338  0.00  0.00     0.088 H 
ATOM     41  FAG DKI d   1      23.520  -0.289  75.419  0.00  0.00    -0.204 F 
ENDBRANCH  29  31
ENDBRANCH  27  29
ENDBRANCH   1  27
TORSDOF 7
