REMARK  8 active torsions:
REMARK  status: ('A' for Active; 'I' for Inactive)
REMARK    1  A    between atoms: C01_1  and  O02_2 
REMARK    2  A    between atoms: O02_2  and  C03_3 
REMARK    3  A    between atoms: C03_3  and  C04_4 
REMARK    4  A    between atoms: C04_4  and  O05_5 
REMARK    5  A    between atoms: O05_5  and  C06_6 
REMARK    6  A    between atoms: N12_12  and  C15_15 
REMARK    7  A    between atoms: C22_22  and  N23_23 
REMARK    8  A    between atoms: C26_26  and  N29_29 
ROOT
ATOM      1  C15 34U d   1      23.178  -5.271 137.610  0.00  0.00     0.136 A 
ATOM      2  N16 34U d   1      22.700  -4.195 138.288  0.00  0.00    -0.228 NA
ATOM      3  C17 34U d   1      22.085  -4.319 139.508  0.00  0.00     0.090 A 
ATOM      4  C18 34U d   1      21.957  -5.540 140.100  0.00  0.00    -0.005 A 
ATOM      5  C19 34U d   1      21.331  -5.654 141.395  0.00  0.00    -0.071 A 
ATOM      6  C20 34U d   1      20.847  -4.516 142.020  0.00  0.00    -0.080 A 
ATOM      7  C21 34U d   1      20.965  -3.261 141.413  0.00  0.00    -0.060 A 
ATOM      8  C22 34U d   1      21.586  -3.149 140.154  0.00  0.00     0.040 A 
ATOM      9  C30 34U d   1      22.497  -6.754 139.403  0.00  0.00    -0.067 A 
ATOM     10  C31 34U d   1      23.118  -6.566 138.150  0.00  0.00    -0.037 A 
ATOM     11  H12 34U d   1      21.240  -6.622 141.875  0.00  0.00     0.084 H 
ATOM     12  H13 34U d   1      20.371  -4.599 142.990  0.00  0.00     0.083 H 
ATOM     13  H14 34U d   1      20.580  -2.378 141.910  0.00  0.00     0.086 H 
ATOM     14  H27 34U d   1      22.413  -7.740 139.846  0.00  0.00     0.085 H 
ATOM     15  H28 34U d   1      23.542  -7.407 137.613  0.00  0.00     0.089 H 
ENDROOT
BRANCH   1  16
ATOM     16  N12 34U d   1      23.843  -5.091 136.384  0.00  0.00    -0.288 N 
ATOM     17  C09 34U d   1      24.397  -3.888 135.897  0.00  0.00     0.071 A 
ATOM     18  C08 34U d   1      24.983  -4.187 134.698  0.00  0.00     0.088 A 
ATOM     19  C10 34U d   1      24.426  -2.516 136.418  0.00  0.00    -0.052 A 
ATOM     20  C07 34U d   1      25.602  -3.201 133.944  0.00  0.00    -0.021 A 
ATOM     21  N14 34U d   1      24.781  -5.530 134.482  0.00  0.00    -0.241 NA
ATOM     22  C06 34U d   1      25.636  -1.879 134.457  0.00  0.00     0.071 A 
ATOM     23  H8  34U d   1      26.049  -3.435 132.985  0.00  0.00     0.091 H 
ATOM     24  C11 34U d   1      25.018  -1.557 135.707  0.00  0.00    -0.049 A 
ATOM     25  H10 34U d   1      25.031  -0.537 136.074  0.00  0.00     0.087 H 
ATOM     26  C13 34U d   1      24.096  -6.073 135.530  0.00  0.00     0.073 A 
ATOM     27  H11 34U d   1      23.811  -7.118 135.644  0.00  0.00     0.144 H 
ATOM     28  H9  34U d   1      23.969  -2.285 137.374  0.00  0.00     0.087 H 
BRANCH  22  29
ATOM     29  O05 34U d   1      26.273  -0.847 133.720  0.00  0.00    -0.349 OA
BRANCH  29  30
ATOM     30  C04 34U d   1      26.954  -1.255 132.536  0.00  0.00     0.046 C 
ATOM     31  H6  34U d   1      27.573  -2.141 132.739  0.00  0.00     0.078 H 
ATOM     32  H7  34U d   1      26.230  -1.488 131.741  0.00  0.00     0.078 H 
BRANCH  30  33
ATOM     33  C03 34U d   1      27.884  -0.012 132.098  0.00  0.00     0.039 C 
ATOM     34  H4  34U d   1      28.466   0.350 132.958  0.00  0.00     0.077 H 
ATOM     35  H5  34U d   1      28.570  -0.314 131.292  0.00  0.00     0.077 H 
BRANCH  33  36
ATOM     36  O02 34U d   1      27.040   0.957 131.659  0.00  0.00    -0.394 OA
BRANCH  36  37
ATOM     37  C01 34U d   1      27.681   2.255 131.604  0.00  0.00     0.004 C 
ATOM     38  H1  34U d   1      26.961   3.005 131.244  0.00  0.00     0.066 H 
ATOM     39  H2  34U d   1      28.539   2.212 130.917  0.00  0.00     0.066 H 
ATOM     40  H3  34U d   1      28.030   2.535 132.609  0.00  0.00     0.066 H 
ENDBRANCH  36  37
ENDBRANCH  33  36
ENDBRANCH  30  33
ENDBRANCH  29  30
ENDBRANCH  22  29
ENDBRANCH   1  16
BRANCH   8  41
ATOM     41  N23 34U d   1      21.704  -1.887 139.470  0.00  0.00    -0.281 NA
ATOM     42  C24 34U d   1      20.862  -1.784 138.281  0.00  0.00    -0.015 C 
ATOM     43  C25 34U d   1      21.179  -0.549 137.443  0.00  0.00    -0.027 C 
ATOM     44  H15 34U d   1      19.810  -1.734 138.598  0.00  0.00     0.056 H 
ATOM     45  H16 34U d   1      21.017  -2.679 137.661  0.00  0.00     0.056 H 
ATOM     46  C26 34U d   1      20.994   0.679 138.272  0.00  0.00     0.102 C 
ATOM     47  H17 34U d   1      20.503  -0.511 136.576  0.00  0.00     0.037 H 
ATOM     48  H18 34U d   1      22.221  -0.601 137.093  0.00  0.00     0.037 H 
ATOM     49  C27 34U d   1      21.821   0.654 139.471  0.00  0.00    -0.027 C 
ATOM     50  H19 34U d   1      19.940   0.750 138.577  0.00  0.00     0.084 H 
ATOM     51  C28 34U d   1      21.680  -0.652 140.271  0.00  0.00    -0.015 C 
ATOM     52  H20 34U d   1      21.527   1.494 140.117  0.00  0.00     0.037 H 
ATOM     53  H21 34U d   1      22.873   0.771 139.173  0.00  0.00     0.037 H 
ATOM     54  H22 34U d   1      22.509  -0.699 140.993  0.00  0.00     0.056 H 
ATOM     55  H23 34U d   1      20.723  -0.617 140.813  0.00  0.00     0.056 H 
BRANCH  46  56
ATOM     56  N29 34U d   1      21.336   1.834 137.436  0.00  0.00    -0.075 N 
ATOM     57  H24 34U d   1      20.755   1.836 136.612  0.00  0.00     0.274 HD
ATOM     58  H25 34U d   1      22.305   1.777 137.164  0.00  0.00     0.274 HD
ATOM     59  H26 34U d   1      21.183   2.683 137.957  0.00  0.00     0.274 HD
ENDBRANCH  46  56
ENDBRANCH   8  41
TORSDOF 8
