REMARK  10 active torsions:
REMARK  status: ('A' for Active; 'I' for Inactive)
REMARK    1  A    between atoms: C3_3  and  C2_2 
REMARK       I    between atoms: N2_22  and  C3_3 
REMARK    2  A    between atoms: N6_4  and  C20_16 
REMARK    3  A    between atoms: C9_7  and  C10_8 
REMARK    4  A    between atoms: N_18  and  C11_9 
REMARK    5  A    between atoms: C13_11  and  N5_30 
REMARK    6  A    between atoms: C14_12  and  C15_13 
REMARK    7  A    between atoms: C20_16  and  C21_17 
REMARK    8  A    between atoms: C21_17  and  O1_33 
REMARK    9  A    between atoms: C_19  and  N_18 
REMARK   10  A    between atoms: N2_22  and  C4_23 
ROOT
ATOM      1  C11 1N1 d   1      42.487   0.368  14.386  0.00  0.00     0.135 A 
ATOM      2  C12 1N1 d   1      41.451  -0.186  13.603  0.00  0.00     0.006 A 
ATOM      3  C13 1N1 d   1      40.935  -1.438  13.959  0.00  0.00     0.131 A 
ATOM      4  C14 1N1 d   1      42.440  -1.527  15.757  0.00  0.00     0.126 A 
ATOM      5  N3  1N1 d   1      41.451  -2.079  15.041  0.00  0.00    -0.216 NA
ATOM      6  N4  1N1 d   1      42.947  -0.328  15.437  0.00  0.00    -0.216 NA
ATOM      7  H8  1N1 d   1      41.063   0.347  12.743  0.00  0.00     0.095 H 
ENDROOT
BRANCH   1   8
ATOM      8  N   1N1 d   1      42.997   1.672  13.995  0.00  0.00    -0.320 N 
ATOM      9  H20 1N1 d   1      42.582   2.123  13.167  0.00  0.00     0.169 HD
BRANCH   8  10
ATOM     10  C   1N1 d   1      44.041   2.371  14.688  0.00  0.00     0.172 A 
ATOM     11  N1  1N1 d   1      44.442   3.565  14.351  0.00  0.00    -0.235 NA
ATOM     12  C1  1N1 d   1      45.428   4.081  15.050  0.00  0.00     0.027 A 
ATOM     13  C2  1N1 d   1      45.881   3.235  16.061  0.00  0.00     0.094 A 
ATOM     14  H1  1N1 d   1      45.848   5.068  14.859  0.00  0.00     0.117 H 
ATOM     15  S   1N1 d   1      44.951   1.744  16.046  0.00  0.00    -0.045 SA
BRANCH  13  16
ATOM     16  C3  1N1 d   1      46.975   3.549  17.043  0.00  0.00     0.264 C 
ATOM     17  N2  1N1 d   1      47.146   2.661  18.157  0.00  0.00    -0.320 N 
ATOM     18  H21 1N1 d   1      46.577   1.846  18.268  0.00  0.00     0.169 HD
ATOM     19  O   1N1 d   1      47.690   4.532  16.916  0.00  0.00    -0.267 OA
BRANCH  17  20
ATOM     20  C4  1N1 d   1      48.186   3.000  19.120  0.00  0.00     0.062 A 
ATOM     21  C9  1N1 d   1      47.889   3.930  20.127  0.00  0.00    -0.034 A 
ATOM     22  C8  1N1 d   1      48.883   4.249  21.046  0.00  0.00    -0.075 A 
ATOM     23  C7  1N1 d   1      50.144   3.658  20.952  0.00  0.00    -0.081 A 
ATOM     24  H4  1N1 d   1      48.678   4.960  21.838  0.00  0.00     0.084 H 
ATOM     25  C6  1N1 d   1      50.436   2.731  19.944  0.00  0.00    -0.060 A 
ATOM     26  H3  1N1 d   1      50.911   3.921  21.672  0.00  0.00     0.083 H 
ATOM     27  C5  1N1 d   1      49.444   2.407  19.026  0.00  0.00     0.061 A 
ATOM     28  H22 1N1 d   1      51.417   2.275  19.881  0.00  0.00     0.086 H 
ATOM     29 CL   1N1 d   1      49.725   1.263  17.743  0.00  0.00    -0.082 Cl
BRANCH  21  30
ATOM     30  C10 1N1 d   1      46.507   4.544  20.206  0.00  0.00    -0.049 C 
ATOM     31  H5  1N1 d   1      46.465   5.244  21.053  0.00  0.00     0.033 H 
ATOM     32  H6  1N1 d   1      45.760   3.749  20.349  0.00  0.00     0.033 H 
ATOM     33  H7  1N1 d   1      46.292   5.085  19.273  0.00  0.00     0.033 H 
ENDBRANCH  21  30
ENDBRANCH  17  20
ENDBRANCH  13  16
ENDBRANCH   8  10
ENDBRANCH   1   8
BRANCH   3  34
ATOM     34  N5  1N1 d   1      39.852  -1.996  13.120  0.00  0.00    -0.362 N 
ATOM     35  C16 1N1 d   1      39.079  -3.062  13.688  0.00  0.00     0.019 C 
ATOM     36  C17 1N1 d   1      39.069  -4.201  12.716  0.00  0.00     0.098 C 
ATOM     37  H12 1N1 d   1      38.050  -2.719  13.871  0.00  0.00     0.066 H 
ATOM     38  H13 1N1 d   1      39.532  -3.386  14.637  0.00  0.00     0.066 H 
ATOM     39  N6  1N1 d   1      38.558  -3.751  11.421  0.00  0.00    -0.066 N 
ATOM     40  H23 1N1 d   1      40.093  -4.582  12.591  0.00  0.00     0.078 H 
ATOM     41  H24 1N1 d   1      38.424  -5.004  13.103  0.00  0.00     0.078 H 
ATOM     42  C18 1N1 d   1      39.379  -2.693  10.809  0.00  0.00     0.098 C 
ATOM     43  H2  1N1 d   1      38.893  -4.531  10.878  0.00  0.00     0.280 HD
ATOM     44  C19 1N1 d   1      39.554  -1.522  11.767  0.00  0.00     0.019 C 
ATOM     45  H25 1N1 d   1      38.885  -2.338   9.892  0.00  0.00     0.078 H 
ATOM     46  H26 1N1 d   1      40.368  -3.104  10.557  0.00  0.00     0.078 H 
ATOM     47  H14 1N1 d   1      40.383  -0.890  11.416  0.00  0.00     0.066 H 
ATOM     48  H15 1N1 d   1      38.626  -0.932  11.788  0.00  0.00     0.066 H 
BRANCH  39  49
ATOM     49  C20 1N1 d   1      37.149  -3.852  10.996  0.00  0.00     0.103 C 
ATOM     50  H16 1N1 d   1      36.732  -2.843  10.865  0.00  0.00     0.079 H 
ATOM     51  H17 1N1 d   1      36.572  -4.390  11.763  0.00  0.00     0.079 H 
BRANCH  49  52
ATOM     52  C21 1N1 d   1      37.072  -4.597   9.698  0.00  0.00     0.039 C 
ATOM     53  H18 1N1 d   1      37.859  -5.365   9.670  0.00  0.00     0.076 H 
ATOM     54  H19 1N1 d   1      37.216  -3.894   8.864  0.00  0.00     0.076 H 
BRANCH  52  55
ATOM     55  O1  1N1 d   1      35.839  -5.201   9.580  0.00  0.00    -0.399 OA
ATOM     56  H27 1N1 d   1      35.796  -5.672   8.756  0.00  0.00     0.209 HD
ENDBRANCH  52  55
ENDBRANCH  49  52
ENDBRANCH  39  49
ENDBRANCH   3  34
BRANCH   4  57
ATOM     57  C15 1N1 d   1      43.007  -2.232  16.942  0.00  0.00    -0.019 C 
ATOM     58  H9  1N1 d   1      42.493  -3.195  17.076  0.00  0.00     0.037 H 
ATOM     59  H10 1N1 d   1      42.865  -1.613  17.840  0.00  0.00     0.037 H 
ATOM     60  H11 1N1 d   1      44.081  -2.409  16.784  0.00  0.00     0.037 H 
ENDBRANCH   4  57
TORSDOF 10
