REMARK  10 active torsions:
REMARK  status: ('A' for Active; 'I' for Inactive)
REMARK    1  A    between atoms: NAI_6  and  CAH_7 
REMARK    2  A    between atoms: CAH_7  and  CAG_8 
REMARK    3  A    between atoms: CAQ_13  and  NAP_14 
REMARK    4  A    between atoms: NAP_14  and  CAO_15 
REMARK    5  A    between atoms: CAO_15  and  CAN_16 
REMARK    6  A    between atoms: CAO_15  and  CBD_22 
REMARK    7  A    between atoms: CBA_31  and  NAZ_32 
REMARK    8  A    between atoms: NAZ_32  and  SAY_33 
REMARK    9  A    between atoms: SAY_33  and  CAX_36 
REMARK   10  A    between atoms: CAX_36  and  CAT_37 
ROOT
ATOM      1  CAO H1N d   1      22.628  10.103  71.426  0.00  0.00     0.059 C 
ENDROOT
BRANCH   1   2
ATOM      2  NAP H1N d   1      21.499  10.130  70.652  0.00  0.00    -0.355 N 
ATOM      3  H18 H1N d   1      21.306  11.069  70.276  0.00  0.00     0.166 HD
BRANCH   2   4
ATOM      4  CAQ H1N d   1      20.559   9.206  70.254  0.00  0.00     0.032 A 
ATOM      5  CAR H1N d   1      19.467   9.727  69.529  0.00  0.00    -0.057 A 
ATOM      6  CAS H1N d   1      18.437   8.895  69.066  0.00  0.00    -0.073 A 
ATOM      7  H15 H1N d   1      19.423  10.791  69.326  0.00  0.00     0.086 H 
ATOM      8  CAG H1N d   1      18.476   7.500  69.307  0.00  0.00    -0.032 A 
ATOM      9  H14 H1N d   1      17.605   9.323  68.519  0.00  0.00     0.084 H 
ATOM     10  CAF H1N d   1      19.563   6.980  70.034  0.00  0.00    -0.073 A 
ATOM     11  CAE H1N d   1      20.590   7.812  70.496  0.00  0.00    -0.057 A 
ATOM     12  H16 H1N d   1      19.606   5.917  70.240  0.00  0.00     0.084 H 
ATOM     13  H17 H1N d   1      21.420   7.383  71.046  0.00  0.00     0.086 H 
BRANCH   8  14
ATOM     14  CAH H1N d   1      17.394   6.601  68.821  0.00  0.00     0.107 C 
ATOM     15  H12 H1N d   1      17.239   5.834  69.594  0.00  0.00     0.083 H 
ATOM     16  H13 H1N d   1      16.485   7.213  68.724  0.00  0.00     0.083 H 
BRANCH  14  17
ATOM     17  NAI H1N d   1      17.584   5.878  67.511  0.00  0.00    -0.067 N 
ATOM     18  CAJ H1N d   1      18.007   6.882  66.475  0.00  0.00     0.084 C 
ATOM     19  CAL H1N d   1      18.152   6.305  65.052  0.00  0.00    -0.042 C 
ATOM     20  H1  H1N d   1      17.255   7.684  66.446  0.00  0.00     0.076 H 
ATOM     21  H2  H1N d   1      18.978   7.300  66.778  0.00  0.00     0.076 H 
ATOM     22  CAW H1N d   1      16.786   5.775  64.593  0.00  0.00    -0.062 C 
ATOM     23  H3  H1N d   1      18.884   5.484  65.058  0.00  0.00     0.035 H 
ATOM     24  H4  H1N d   1      18.492   7.094  64.366  0.00  0.00     0.035 H 
ATOM     25  CAV H1N d   1      16.304   4.709  65.596  0.00  0.00    -0.042 C 
ATOM     26  H5  H1N d   1      16.881   5.326  63.593  0.00  0.00     0.033 H 
ATOM     27  H6  H1N d   1      16.062   6.602  64.556  0.00  0.00     0.033 H 
ATOM     28  CAK H1N d   1      16.345   5.157  67.077  0.00  0.00     0.084 C 
ATOM     29  H7  H1N d   1      16.944   3.821  65.488  0.00  0.00     0.035 H 
ATOM     30  H8  H1N d   1      15.266   4.446  65.345  0.00  0.00     0.035 H 
ATOM     31  H9  H1N d   1      16.242   4.259  67.703  0.00  0.00     0.076 H 
ATOM     32  H10 H1N d   1      15.489   5.825  67.250  0.00  0.00     0.076 H 
ATOM     33  H11 H1N d   1      18.319   5.197  67.624  0.00  0.00     0.280 HD
ENDBRANCH  14  17
ENDBRANCH   8  14
ENDBRANCH   2   4
ENDBRANCH   1   2
BRANCH   1  34
ATOM     34  CAN H1N d   1      23.164   8.905  71.887  0.00  0.00    -0.008 A 
ATOM     35  CAM H1N d   1      24.017   8.130  71.060  0.00  0.00    -0.071 A 
ATOM     36  CAC H1N d   1      24.564   6.927  71.537  0.00  0.00    -0.082 A 
ATOM     37  H19 H1N d   1      24.248   8.467  70.056  0.00  0.00     0.084 H 
ATOM     38  CAA H1N d   1      24.268   6.494  72.843  0.00  0.00    -0.083 A 
ATOM     39  H20 H1N d   1      25.212   6.334  70.901  0.00  0.00     0.083 H 
ATOM     40  CAB H1N d   1      23.431   7.254  73.677  0.00  0.00    -0.082 A 
ATOM     41  H21 H1N d   1      24.690   5.565  73.209  0.00  0.00     0.083 H 
ATOM     42  CAD H1N d   1      22.876   8.460  73.205  0.00  0.00    -0.071 A 
ATOM     43  H22 H1N d   1      23.212   6.913  74.683  0.00  0.00     0.083 H 
ATOM     44  H23 H1N d   1      22.230   9.048  73.847  0.00  0.00     0.084 H 
ENDBRANCH   1  34
BRANCH   1  45
ATOM     45  CBD H1N d   1      23.243  11.286  71.689  0.00  0.00     0.072 A 
ATOM     46  CBC H1N d   1      24.481  11.583  72.308  0.00  0.00     0.011 A 
ATOM     47  CBB H1N d   1      25.456  10.860  73.065  0.00  0.00    -0.043 A 
ATOM     48  CBH H1N d   1      24.729  12.940  72.052  0.00  0.00     0.046 A 
ATOM     49  CBA H1N d   1      26.631  11.518  73.542  0.00  0.00     0.043 A 
ATOM     50  H24 H1N d   1      25.303   9.808  73.278  0.00  0.00     0.088 H 
ATOM     51  CBF H1N d   1      26.803  12.886  73.238  0.00  0.00    -0.054 A 
ATOM     52  CBG H1N d   1      25.864  13.616  72.502  0.00  0.00    -0.054 A 
ATOM     53  H27 H1N d   1      27.697  13.390  73.588  0.00  0.00     0.087 H 
ATOM     54  H26 H1N d   1      26.012  14.668  72.289  0.00  0.00     0.087 H 
ATOM     55  NBI H1N d   1      23.735  13.455  71.345  0.00  0.00    -0.322 N 
ATOM     56  CBJ H1N d   1      22.844  12.498  71.116  0.00  0.00     0.259 A 
ATOM     57  H25 H1N d   1      23.667  14.404  71.036  0.00  0.00     0.169 HD
ATOM     58  OBK H1N d   1      21.800  12.770  70.460  0.00  0.00    -0.267 OA
BRANCH  49  59
ATOM     59  NAZ H1N d   1      27.584  10.853  74.274  0.00  0.00    -0.285 N 
ATOM     60  H28 H1N d   1      28.326  11.406  74.652  0.00  0.00     0.178 HD
BRANCH  59  61
ATOM     61  SAY H1N d   1      27.632   9.177  74.606  0.00  0.00     0.230 S 
ATOM     62  OBE H1N d   1      28.834   8.862  75.622  0.00  0.00    -0.206 OA
ATOM     63  OAU H1N d   1      26.235   8.667  75.188  0.00  0.00    -0.206 OA
BRANCH  61  64
ATOM     64  CAX H1N d   1      27.869   8.298  73.015  0.00  0.00     0.043 C 
ATOM     65  H29 H1N d   1      27.266   8.796  72.241  0.00  0.00     0.058 H 
ATOM     66  H30 H1N d   1      27.530   7.258  73.130  0.00  0.00     0.058 H 
BRANCH  64  67
ATOM     67  CAT H1N d   1      29.334   8.294  72.573  0.00  0.00    -0.062 C 
ATOM     68  H31 H1N d   1      29.427   7.758  71.617  0.00  0.00     0.028 H 
ATOM     69  H32 H1N d   1      29.946   7.792  73.337  0.00  0.00     0.028 H 
ATOM     70  H33 H1N d   1      29.682   9.330  72.447  0.00  0.00     0.028 H 
ENDBRANCH  64  67
ENDBRANCH  61  64
ENDBRANCH  59  61
ENDBRANCH  49  59
ENDBRANCH   1  45
TORSDOF 10
