REMARK  6 active torsions:
REMARK  status: ('A' for Active; 'I' for Inactive)
REMARK    1  A    between atoms: S_1  and  N4_14 
REMARK    2  A    between atoms: C6_17  and  S_1 
REMARK    3  A    between atoms: C1_2  and  N1_4 
REMARK    4  A    between atoms: C2_6  and  N3_11 
REMARK    5  A    between atoms: N3_11  and  C3_10 
REMARK       I    between atoms: C9_21  and  N6_18 
REMARK    6  A    between atoms: C10_22  and  C9_21 
ROOT
ATOM      1  C1  SKE d   1      -2.446   2.995  15.225  0.00  0.00     0.740 A 
ATOM      2  C2  SKE d   1      -3.799   1.588  14.373  0.00  0.00     0.760 A 
ATOM      3  N2  SKE d   1      -3.463   2.882  14.364  0.00  0.00     0.131 NA
ATOM      4  O3  SKE d   1      -0.517   2.361  17.141  0.00  0.00    -0.264 OA
ATOM      5  N5  SKE d   1      -2.996   0.946  15.226  0.00  0.00     0.045 NA
ATOM      6  N6  SKE d   1      -2.167   1.779  15.757  0.00  0.00    -0.006 N 
ATOM      7  C9  SKE d   1      -1.196   1.416  16.665  0.00  0.00     0.301 C 
ENDROOT
BRANCH   2   8
ATOM      8  N3  SKE d   1      -4.790   0.988  13.670  0.00  0.00    -0.186 N 
ATOM      9  H3  SKE d   1      -5.370   1.633  13.114  0.00  0.00     0.184 HD
BRANCH   8  10
ATOM     10  C3  SKE d   1      -5.150  -0.324  13.573  0.00  0.00     0.049 A 
ATOM     11  C4  SKE d   1      -6.326  -0.546  12.827  0.00  0.00    -0.055 A 
ATOM     12  C5  SKE d   1      -6.813  -1.841  12.644  0.00  0.00    -0.058 A 
ATOM     13  H4  SKE d   1      -6.855   0.295  12.393  0.00  0.00     0.087 H 
ATOM     14  C6  SKE d   1      -6.124  -2.920  13.216  0.00  0.00     0.079 A 
ATOM     15  H7  SKE d   1      -7.714  -2.011  12.066  0.00  0.00     0.086 H 
ATOM     16  C7  SKE d   1      -4.948  -2.724  13.961  0.00  0.00    -0.058 A 
ATOM     17  C8  SKE d   1      -4.462  -1.423  14.146  0.00  0.00    -0.055 A 
ATOM     18  H8  SKE d   1      -4.423  -3.571  14.388  0.00  0.00     0.086 H 
ATOM     19  H9  SKE d   1      -3.562  -1.257  14.726  0.00  0.00     0.087 H 
BRANCH  14  20
ATOM     20  S   SKE d   1      -6.756  -4.545  12.961  0.00  0.00     0.256 S 
ATOM     21  O1  SKE d   1      -6.283  -5.481  14.173  0.00  0.00    -0.201 OA
ATOM     22  O2  SKE d   1      -8.351  -4.550  12.818  0.00  0.00    -0.201 OA
BRANCH  20  23
ATOM     23  N4  SKE d   1      -6.096  -5.142  11.451  0.00  0.00    -0.324 N 
ATOM     24  H5  SKE d   1      -5.106  -5.218  11.333  0.00  0.00     0.169 HD
ATOM     25  H6  SKE d   1      -6.710  -5.407  10.707  0.00  0.00     0.169 HD
ENDBRANCH  20  23
ENDBRANCH  14  20
ENDBRANCH   8  10
ENDBRANCH   2   8
BRANCH   1  26
ATOM     26  N1  SKE d   1      -1.850   4.181  15.451  0.00  0.00    -0.230 N 
ATOM     27  H1  SKE d   1      -2.182   5.025  14.963  0.00  0.00     0.174 HD
ATOM     28  H2  SKE d   1      -1.062   4.244  16.112  0.00  0.00     0.174 HD
ENDBRANCH   1  26
BRANCH   7  29
ATOM     29  C10 SKE d   1      -0.933   0.043  17.046  0.00  0.00     0.111 A 
ATOM     30  C11 SKE d   1       0.320  -0.552  16.715  0.00  0.00     0.135 A 
ATOM     31  F1  SKE d   1       1.273   0.105  16.112  0.00  0.00    -0.205 F 
ATOM     32  C12 SKE d   1       0.618  -1.891  17.032  0.00  0.00    -0.044 A 
ATOM     33  C13 SKE d   1      -0.343  -2.682  17.678  0.00  0.00    -0.077 A 
ATOM     34  H10 SKE d   1       1.586  -2.308  16.778  0.00  0.00     0.088 H 
ATOM     35  C14 SKE d   1      -1.593  -2.143  18.004  0.00  0.00    -0.044 A 
ATOM     36  H11 SKE d   1      -0.117  -3.713  17.925  0.00  0.00     0.083 H 
ATOM     37  C15 SKE d   1      -1.886  -0.803  17.681  0.00  0.00     0.135 A 
ATOM     38  H12 SKE d   1      -2.334  -2.755  18.504  0.00  0.00     0.088 H 
ATOM     39  F2  SKE d   1      -3.077  -0.425  18.034  0.00  0.00    -0.205 F 
ENDBRANCH   7  29
TORSDOF 6
