REMARK  8 active torsions:
REMARK  status: ('A' for Active; 'I' for Inactive)
REMARK    1  A    between atoms: C01_1  and  C02_2 
REMARK       I    between atoms: C02_2  and  N04_4 
REMARK    2  A    between atoms: N04_4  and  C05_5 
REMARK    3  A    between atoms: C05_5  and  C06_6 
REMARK       I    between atoms: C06_6  and  N08_8 
REMARK    4  A    between atoms: C17_17  and  N19_19 
REMARK    5  A    between atoms: N19_19  and  C20_20 
REMARK    6  A    between atoms: C23_23  and  C31_31 
REMARK    7  A    between atoms: C24_24  and  N26_26 
REMARK    8  A    between atoms: N26_26  and  C27_27 
ROOT
ATOM      1  C06 34W d   1      33.038   2.115  71.144  0.00  0.00     0.238 C 
ATOM      2  O07 34W d   1      33.224   3.010  72.012  0.00  0.00    -0.272 OA
ATOM      3  N08 34W d   1      31.781   1.973  70.590  0.00  0.00    -0.333 N 
ATOM      4  C09 34W d   1      30.578   2.702  70.878  0.00  0.00     0.041 C 
ATOM      5  C10 34W d   1      30.044   3.069  69.452  0.00  0.00    -0.040 C 
ATOM      6  C11 34W d   1      30.595   1.912  68.571  0.00  0.00    -0.040 C 
ATOM      7  C12 34W d   1      31.311   1.021  69.634  0.00  0.00     0.041 C 
ATOM      8  C13 34W d   1      30.361   0.448  70.613  0.00  0.00    -0.025 A 
ATOM      9  C14 34W d   1      29.898   1.507  71.400  0.00  0.00    -0.027 A 
ATOM     10  C15 34W d   1      28.961   1.309  72.425  0.00  0.00    -0.072 A 
ATOM     11  C16 34W d   1      28.510  -0.013  72.643  0.00  0.00    -0.056 A 
ATOM     12  C17 34W d   1      28.987  -1.099  71.866  0.00  0.00     0.050 A 
ATOM     13  C18 34W d   1      29.914  -0.860  70.827  0.00  0.00    -0.048 A 
ATOM     14  H7  34W d   1      30.646   3.558  71.566  0.00  0.00     0.080 H 
ATOM     15  H8  34W d   1      30.436   4.042  69.120  0.00  0.00     0.036 H 
ATOM     16  H9  34W d   1      28.944   3.092  69.434  0.00  0.00     0.036 H 
ATOM     17  H10 34W d   1      31.304   2.284  67.817  0.00  0.00     0.036 H 
ATOM     18  H11 34W d   1      29.782   1.365  68.072  0.00  0.00     0.036 H 
ATOM     19  H12 34W d   1      32.039   0.318  69.203  0.00  0.00     0.080 H 
ATOM     20  H13 34W d   1      28.598   2.135  73.025  0.00  0.00     0.084 H 
ATOM     21  H14 34W d   1      27.782  -0.201  73.423  0.00  0.00     0.086 H 
ATOM     22  H15 34W d   1      30.272  -1.675  70.208  0.00  0.00     0.087 H 
ENDROOT
BRANCH  12  23
ATOM     23  N19 34W d   1      28.525  -2.357  72.088  0.00  0.00    -0.188 N 
ATOM     24  H16 34W d   1      28.706  -2.998  71.302  0.00  0.00     0.184 HD
BRANCH  23  25
ATOM     25  C20 34W d   1      27.875  -2.953  73.123  0.00  0.00     0.728 A 
ATOM     26  N21 34W d   1      27.582  -4.271  73.075  0.00  0.00    -0.074 NA
ATOM     27  C22 34W d   1      26.924  -4.901  74.063  0.00  0.00     0.039 A 
ATOM     28  C23 34W d   1      26.508  -4.206  75.208  0.00  0.00     0.112 A 
ATOM     29  H17 34W d   1      26.712  -5.960  73.974  0.00  0.00     0.117 H 
ATOM     30  C24 34W d   1      26.816  -2.822  75.252  0.00  0.00     0.159 A 
ATOM     31  N25 34W d   1      27.483  -2.252  74.211  0.00  0.00    -0.044 NA
BRANCH  28  32
ATOM     32  C31 34W d   1      25.781  -4.943  76.272  0.00  0.00     0.422 C 
ATOM     33  F32 34W d   1      24.507  -4.455  76.474  0.00  0.00    -0.166 F 
ATOM     34  F33 34W d   1      26.462  -4.891  77.449  0.00  0.00    -0.166 F 
ATOM     35  F34 34W d   1      25.628  -6.259  75.939  0.00  0.00    -0.166 F 
ENDBRANCH  28  32
BRANCH  30  36
ATOM     36  N26 34W d   1      26.467  -2.060  76.324  0.00  0.00    -0.369 N 
ATOM     37  H18 34W d   1      25.818  -2.465  77.014  0.00  0.00     0.161 HD
BRANCH  36  38
ATOM     38  C27 34W d   1      26.946  -0.732  76.551  0.00  0.00     0.011 C 
ATOM     39  C28 34W d   1      26.545  -0.189  77.940  0.00  0.00    -0.046 C 
ATOM     40  C29 34W d   1      26.218   1.145  77.260  0.00  0.00    -0.061 C 
ATOM     41  H20 34W d   1      27.368  -0.142  78.668  0.00  0.00     0.035 H 
ATOM     42  H21 34W d   1      25.681  -0.694  78.396  0.00  0.00     0.035 H 
ATOM     43  C30 34W d   1      26.026   0.355  75.954  0.00  0.00    -0.046 C 
ATOM     44  H22 34W d   1      27.048   1.866  77.242  0.00  0.00     0.033 H 
ATOM     45  H23 34W d   1      25.310   1.640  77.634  0.00  0.00     0.033 H 
ATOM     46  H24 34W d   1      24.993   0.028  75.764  0.00  0.00     0.035 H 
ATOM     47  H25 34W d   1      26.424   0.850  75.056  0.00  0.00     0.035 H 
ATOM     48  H19 34W d   1      28.012  -0.651  76.292  0.00  0.00     0.072 H 
ENDBRANCH  36  38
ENDBRANCH  30  36
ENDBRANCH  23  25
ENDBRANCH  12  23
BRANCH   1  49
ATOM     49  C05 34W d   1      34.196   1.260  70.762  0.00  0.00     0.069 C 
ATOM     50  H5  34W d   1      33.960   0.217  71.020  0.00  0.00     0.078 H 
ATOM     51  H6  34W d   1      34.348   1.343  69.676  0.00  0.00     0.078 H 
BRANCH  49  52
ATOM     52  N04 34W d   1      35.411   1.627  71.420  0.00  0.00    -0.353 N 
ATOM     53  C02 34W d   1      36.319   2.508  70.909  0.00  0.00     0.213 C 
ATOM     54  O03 34W d   1      36.131   3.076  69.798  0.00  0.00    -0.274 OA
ATOM     55  H4  34W d   1      35.607   1.213  72.309  0.00  0.00     0.162 HD
BRANCH  53  56
ATOM     56  C01 34W d   1      37.542   2.822  71.672  0.00  0.00    -0.003 C 
ATOM     57  H1  34W d   1      37.548   2.245  72.609  0.00  0.00     0.040 H 
ATOM     58  H2  34W d   1      37.564   3.897  71.903  0.00  0.00     0.040 H 
ATOM     59  H3  34W d   1      38.426   2.558  71.073  0.00  0.00     0.040 H 
ENDBRANCH  53  56
ENDBRANCH  49  52
ENDBRANCH   1  49
TORSDOF 8
