REMARK  3 active torsions:
REMARK  status: ('A' for Active; 'I' for Inactive)
REMARK    1  A    between atoms: CAW_5  and  NAX_6 
REMARK    2  A    between atoms: C6_12  and  NAA_13 
REMARK    3  A    between atoms: CAR_15  and  CAP_16 
ROOT
ATOM      1  NAX KS1 d   1      -1.787  -0.072  16.845  0.00  0.00    -0.246 N 
ATOM      2  NAN KS1 d   1      -0.683   0.372  17.319  0.00  0.00    -0.169 NA
ATOM      3  C4  KS1 d   1      -2.421   0.945  16.207  0.00  0.00     0.164 A 
ATOM      4  N3  KS1 d   1      -3.603   1.007  15.539  0.00  0.00    -0.222 NA
ATOM      5  C2  KS1 d   1      -3.991   2.188  14.984  0.00  0.00     0.091 A 
ATOM      6  N1  KS1 d   1      -3.205   3.305  15.087  0.00  0.00    -0.224 NA
ATOM      7  C6  KS1 d   1      -2.021   3.303  15.757  0.00  0.00     0.139 A 
ATOM      8  C5  KS1 d   1      -1.606   2.087  16.337  0.00  0.00     0.088 A 
ATOM      9  CAR KS1 d   1      -0.500   1.662  17.076  0.00  0.00     0.106 A 
ATOM     10  H10 KS1 d   1      -4.935   2.245  14.454  0.00  0.00     0.146 H 
ENDROOT
BRANCH   1  11
ATOM     11  CAW KS1 d   1      -1.975  -1.475  17.125  0.00  0.00     0.036 C 
ATOM     12  CAI KS1 d   1      -1.911  -2.512  15.992  0.00  0.00    -0.044 C 
ATOM     13  CAG KS1 d   1      -2.041  -3.833  16.779  0.00  0.00    -0.063 C 
ATOM     14  H1  KS1 d   1      -2.741  -2.384  15.282  0.00  0.00     0.036 H 
ATOM     15  H2  KS1 d   1      -0.955  -2.458  15.451  0.00  0.00     0.036 H 
ATOM     16  CAH KS1 d   1      -2.700  -3.475  18.131  0.00  0.00    -0.063 C 
ATOM     17  H3  KS1 d   1      -1.048  -4.276  16.946  0.00  0.00     0.033 H 
ATOM     18  H4  KS1 d   1      -2.671  -4.545  16.226  0.00  0.00     0.033 H 
ATOM     19  CAJ KS1 d   1      -3.086  -1.978  18.061  0.00  0.00    -0.044 C 
ATOM     20  H5  KS1 d   1      -1.990  -3.644  18.954  0.00  0.00     0.033 H 
ATOM     21  H6  KS1 d   1      -3.598  -4.090  18.289  0.00  0.00     0.033 H 
ATOM     22  H7  KS1 d   1      -3.041  -1.496  19.049  0.00  0.00     0.036 H 
ATOM     23  H8  KS1 d   1      -4.086  -1.832  17.627  0.00  0.00     0.036 H 
ATOM     24  H9  KS1 d   1      -1.060  -1.678  17.701  0.00  0.00     0.076 H 
ENDBRANCH   1  11
BRANCH   9  25
ATOM     25  CAP KS1 d   1       0.694   2.239  17.535  0.00  0.00     0.014 A 
ATOM     26  CAF KS1 d   1       1.516   3.016  16.693  0.00  0.00    -0.056 A 
ATOM     27  CAS KS1 d   1       2.718   3.499  17.236  0.00  0.00     0.012 A 
ATOM     28  H13 KS1 d   1       1.232   3.232  15.669  0.00  0.00     0.086 H 
ATOM     29  CAD KS1 d   1       3.730   4.300  16.725  0.00  0.00    -0.054 A 
ATOM     30  CAT KS1 d   1       3.068   3.183  18.556  0.00  0.00     0.137 A 
ATOM     31  CAB KS1 d   1       4.658   4.435  17.756  0.00  0.00    -0.020 A 
ATOM     32  H14 KS1 d   1       3.787   4.732  15.727  0.00  0.00     0.087 H 
ATOM     33  NAO KS1 d   1       4.246   3.757  18.840  0.00  0.00    -0.350 N 
ATOM     34  H15 KS1 d   1       5.582   5.007  17.692  0.00  0.00     0.111 H 
ATOM     35  H16 KS1 d   1       4.749   3.690  19.736  0.00  0.00     0.166 HD
ATOM     36  NAM KS1 d   1       2.287   2.411  19.333  0.00  0.00    -0.242 NA
ATOM     37  CAE KS1 d   1       1.112   1.929  18.853  0.00  0.00     0.017 A 
ATOM     38  H17 KS1 d   1       0.490   1.303  19.482  0.00  0.00     0.116 H 
ENDBRANCH   9  25
BRANCH   7  39
ATOM     39  NAA KS1 d   1      -1.329   4.454  15.814  0.00  0.00    -0.383 N 
ATOM     40  H11 KS1 d   1      -0.428   4.489  16.313  0.00  0.00     0.157 HD
ATOM     41  H12 KS1 d   1      -1.699   5.301  15.359  0.00  0.00     0.157 HD
ENDBRANCH   7  39
TORSDOF 3
