REMARK  9 active torsions:
REMARK  status: ('A' for Active; 'I' for Inactive)
REMARK    1  A    between atoms: C1_1  and  N2_2 
REMARK    2  A    between atoms: N5_5  and  C6_6 
REMARK    3  A    between atoms: C6_6  and  C7_7 
REMARK    4  A    between atoms: C7_7  and  O8_8 
REMARK    5  A    between atoms: O8_8  and  C9_9 
REMARK    6  A    between atoms: C11_11  and  O12_12 
REMARK    7  A    between atoms: O12_12  and  C13_13 
REMARK    8  A    between atoms: C20_20  and  N21_21 
REMARK    9  A    between atoms: N21_21  and  C22_22 
ROOT
ATOM      1  C9  H8H d   1      19.902   8.153  71.399  0.00  0.00     0.073 A 
ATOM      2  C10 H8H d   1      20.641   7.502  72.409  0.00  0.00    -0.018 A 
ATOM      3  C11 H8H d   1      21.812   8.067  72.969  0.00  0.00     0.088 A 
ATOM      4  C19 H8H d   1      22.235   9.363  72.518  0.00  0.00     0.072 A 
ATOM      5  C20 H8H d   1      23.397  10.069  73.008  0.00  0.00     0.144 A 
ATOM      6  N32 H8H d   1      23.686  11.275  72.486  0.00  0.00    -0.223 NA
ATOM      7  C33 H8H d   1      22.936  11.827  71.536  0.00  0.00     0.089 A 
ATOM      8  N34 H8H d   1      21.837  11.219  71.036  0.00  0.00    -0.241 NA
ATOM      9  C35 H8H d   1      21.459  10.025  71.490  0.00  0.00     0.077 A 
ATOM     10  C36 H8H d   1      20.300   9.409  70.943  0.00  0.00    -0.022 A 
ATOM     11  H14 H8H d   1      20.301   6.537  72.768  0.00  0.00     0.092 H 
ATOM     12  H29 H8H d   1      23.216  12.800  71.149  0.00  0.00     0.146 H 
ATOM     13  H30 H8H d   1      19.727   9.915  70.174  0.00  0.00     0.091 H 
ENDROOT
BRANCH   1  14
ATOM     14  O8  H8H d   1      18.734   7.508  70.890  0.00  0.00    -0.349 OA
BRANCH  14  15
ATOM     15  C7  H8H d   1      18.662   6.849  69.665  0.00  0.00     0.049 C 
ATOM     16  H12 H8H d   1      19.333   7.327  68.936  0.00  0.00     0.077 H 
ATOM     17  H13 H8H d   1      18.943   5.792  69.785  0.00  0.00     0.077 H 
BRANCH  15  18
ATOM     18  C6  H8H d   1      17.220   6.959  69.201  0.00  0.00     0.103 C 
ATOM     19  H10 H8H d   1      16.596   7.210  70.072  0.00  0.00     0.079 H 
ATOM     20  H11 H8H d   1      17.158   7.769  68.460  0.00  0.00     0.079 H 
BRANCH  18  21
ATOM     21  N5  H8H d   1      16.688   5.738  68.592  0.00  0.00    -0.066 N 
ATOM     22  C4  H8H d   1      16.769   5.635  67.110  0.00  0.00     0.106 C 
ATOM     23  C3  H8H d   1      16.441   4.286  66.591  0.00  0.00     0.105 C 
ATOM     24  H7  H8H d   1      16.064   6.357  66.672  0.00  0.00     0.078 H 
ATOM     25  H8  H8H d   1      17.793   5.888  66.799  0.00  0.00     0.078 H 
ATOM     26  N2  H8H d   1      15.132   3.848  67.070  0.00  0.00    -0.072 N 
ATOM     27  H5  H8H d   1      16.431   4.316  65.492  0.00  0.00     0.078 H 
ATOM     28  H6  H8H d   1      17.206   3.573  66.932  0.00  0.00     0.078 H 
ATOM     29  C38 H8H d   1      15.196   3.838  68.517  0.00  0.00     0.105 C 
ATOM     30  H4  H8H d   1      14.583   4.678  66.909  0.00  0.00     0.279 HD
ATOM     31  C37 H8H d   1      15.372   5.226  68.981  0.00  0.00     0.106 C 
ATOM     32  H33 H8H d   1      16.047   3.224  68.848  0.00  0.00     0.078 H 
ATOM     33  H34 H8H d   1      14.264   3.424  68.928  0.00  0.00     0.078 H 
ATOM     34  H31 H8H d   1      14.591   5.858  68.533  0.00  0.00     0.078 H 
ATOM     35  H32 H8H d   1      15.283   5.255  70.077  0.00  0.00     0.078 H 
ATOM     36  H9  H8H d   1      17.329   5.038  68.931  0.00  0.00     0.280 HD
BRANCH  26  37
ATOM     37  C1  H8H d   1      14.305   2.909  66.324  0.00  0.00     0.066 C 
ATOM     38  H1  H8H d   1      14.413   3.101  65.246  0.00  0.00     0.068 H 
ATOM     39  H2  H8H d   1      13.252   3.036  66.615  0.00  0.00     0.068 H 
ATOM     40  H3  H8H d   1      14.626   1.881  66.547  0.00  0.00     0.068 H 
ENDBRANCH  26  37
ENDBRANCH  18  21
ENDBRANCH  15  18
ENDBRANCH  14  15
ENDBRANCH   1  14
BRANCH   3  41
ATOM     41  O12 H8H d   1      22.503   7.353  73.997  0.00  0.00    -0.345 OA
BRANCH  41  42
ATOM     42  C13 H8H d   1      23.603   6.557  73.641  0.00  0.00     0.049 C 
ATOM     43  C14 H8H d   1      24.021   5.619  74.739  0.00  0.00    -0.021 C 
ATOM     44  C15 H8H d   1      25.325   5.022  74.291  0.00  0.00     0.022 C 
ATOM     45  H16 H8H d   1      23.266   4.831  74.878  0.00  0.00     0.040 H 
ATOM     46  H17 H8H d   1      24.155   6.169  75.682  0.00  0.00     0.040 H 
ATOM     47  O16 H8H d   1      25.178   4.360  73.054  0.00  0.00    -0.391 OA
ATOM     48  H18 H8H d   1      25.669   4.301  75.047  0.00  0.00     0.074 H 
ATOM     49  H19 H8H d   1      26.070   5.824  74.184  0.00  0.00     0.074 H 
ATOM     50  C17 H8H d   1      24.765   5.222  72.049  0.00  0.00     0.022 C 
ATOM     51  C18 H8H d   1      23.423   5.772  72.367  0.00  0.00    -0.021 C 
ATOM     52  H20 H8H d   1      24.717   4.674  71.097  0.00  0.00     0.074 H 
ATOM     53  H21 H8H d   1      25.485   6.049  71.960  0.00  0.00     0.074 H 
ATOM     54  H22 H8H d   1      23.075   6.429  71.556  0.00  0.00     0.040 H 
ATOM     55  H23 H8H d   1      22.699   4.957  72.516  0.00  0.00     0.040 H 
ATOM     56  H15 H8H d   1      24.439   7.251  73.471  0.00  0.00     0.084 H 
ENDBRANCH  41  42
ENDBRANCH   3  41
BRANCH   5  57
ATOM     57  N21 H8H d   1      24.260   9.504  74.060  0.00  0.00    -0.336 N 
ATOM     58  H24 H8H d   1      24.107   8.516  74.307  0.00  0.00     0.168 HD
BRANCH  57  59
ATOM     59  C22 H8H d   1      25.301  10.204  74.778  0.00  0.00     0.092 A 
ATOM     60  C23 H8H d   1      25.000  11.248  75.641  0.00  0.00     0.133 A 
ATOM     61  O24 H8H d   1      23.830  11.825  75.966  0.00  0.00    -0.321 OA
ATOM     62  C27 H8H d   1      26.014  11.867  76.325  0.00  0.00     0.107 A 
ATOM     63  C25 H8H d   1      24.125  13.005  76.686  0.00  0.00     0.115 C 
ATOM     64  O26 H8H d   1      25.481  12.865  77.084  0.00  0.00    -0.323 OA
ATOM     65  H25 H8H d   1      23.471  13.094  77.566  0.00  0.00     0.118 H 
ATOM     66  H26 H8H d   1      24.000  13.890  76.045  0.00  0.00     0.118 H 
ATOM     67  C28 H8H d   1      27.330  11.450  76.163  0.00  0.00    -0.046 A 
ATOM     68  C29 H8H d   1      27.623  10.402  75.329  0.00  0.00    -0.057 A 
ATOM     69  H27 H8H d   1      28.127  11.955  76.697  0.00  0.00     0.087 H 
ATOM     70  C30 H8H d   1      26.612   9.783  74.646  0.00  0.00     0.063 A 
ATOM     71  H28 H8H d   1      28.647  10.067  75.212  0.00  0.00     0.086 H 
ATOM     72 CL3  H8H d   1      26.975   8.477  73.590  0.00  0.00    -0.082 Cl
ENDBRANCH  57  59
ENDBRANCH   5  57
TORSDOF 9
