REMARK  8 active torsions:
REMARK  status: ('A' for Active; 'I' for Inactive)
REMARK    1  A    between atoms: C25_2  and  N3_31 
REMARK    2  A    between atoms: C23_4  and  N4_34 
REMARK    3  A    between atoms: C22_5  and  O6_32 
REMARK    4  A    between atoms: C21_6  and  C26_7 
REMARK    5  A    between atoms: C21_6  and  N2_8 
REMARK    6  A    between atoms: C8_23  and  O5_24 
REMARK    7  A    between atoms: O6_32  and  C27_33 
REMARK    8  A    between atoms: N4_34  and  C28_35 
ROOT
ATOM      1  O4  STU d   1      23.232  -2.565  75.035  0.00  0.00    -0.333 OA
ATOM      2  C25 STU d   1      22.580  -2.852  73.751  0.00  0.00     0.115 C 
ATOM      3  C24 STU d   1      23.282  -3.903  72.860  0.00  0.00     0.005 C 
ATOM      4  C23 STU d   1      24.500  -4.361  73.564  0.00  0.00     0.134 C 
ATOM      5  C22 STU d   1      25.343  -3.162  73.851  0.00  0.00     0.113 C 
ATOM      6  C21 STU d   1      24.607  -2.315  74.966  0.00  0.00     0.168 C 
ATOM      7  H1  STU d   1      21.591  -3.273  73.984  0.00  0.00     0.118 H 
ATOM      8  H2  STU d   1      23.556  -3.451  71.895  0.00  0.00     0.042 H 
ATOM      9  H3  STU d   1      22.608  -4.755  72.687  0.00  0.00     0.042 H 
ATOM     10  H4  STU d   1      24.213  -4.836  74.514  0.00  0.00     0.088 H 
ATOM     11  H5  STU d   1      26.333  -3.476  74.213  0.00  0.00     0.094 H 
ENDROOT
BRANCH   4  12
ATOM     12  N4  STU d   1      25.231  -5.341  72.754  0.00  0.00    -0.072 N 
ATOM     13  H26 STU d   1      26.150  -5.476  73.147  0.00  0.00     0.277 HD
ATOM     14  H27 STU d   1      25.316  -4.994  71.811  0.00  0.00     0.277 HD
BRANCH  12  15
ATOM     15  C28 STU d   1      24.530  -6.615  72.732  0.00  0.00     0.065 C 
ATOM     16  H28 STU d   1      25.095  -7.334  72.120  0.00  0.00     0.067 H 
ATOM     17  H29 STU d   1      23.528  -6.475  72.301  0.00  0.00     0.067 H 
ATOM     18  H30 STU d   1      24.437  -7.000  73.758  0.00  0.00     0.067 H 
ENDBRANCH  12  15
ENDBRANCH   4  12
BRANCH   5  19
ATOM     19  O6  STU d   1      25.494  -2.398  72.673  0.00  0.00    -0.384 OA
BRANCH  19  20
ATOM     20  C27 STU d   1      26.766  -2.085  72.161  0.00  0.00     0.005 C 
ATOM     21  H23 STU d   1      26.655  -1.487  71.244  0.00  0.00     0.066 H 
ATOM     22  H24 STU d   1      27.307  -3.014  71.929  0.00  0.00     0.066 H 
ATOM     23  H25 STU d   1      27.331  -1.509  72.909  0.00  0.00     0.066 H 
ENDBRANCH  19  20
ENDBRANCH   5  19
BRANCH   2  24
ATOM     24  N3  STU d   1      22.362  -1.588  73.084  0.00  0.00    -0.316 N 
ATOM     25  C19 STU d   1      23.098  -0.393  73.182  0.00  0.00     0.077 A 
ATOM     26  C18 STU d   1      24.248  -0.086  73.898  0.00  0.00     0.077 A 
ATOM     27  C6  STU d   1      22.435   0.587  72.339  0.00  0.00     0.017 A 
ATOM     28  N2  STU d   1      24.998  -0.852  74.734  0.00  0.00    -0.308 N 
ATOM     29  C11 STU d   1      24.813   1.245  73.808  0.00  0.00     0.014 A 
ATOM     30  C17 STU d   1      26.132  -0.046  75.246  0.00  0.00     0.049 A 
ATOM     31  C12 STU d   1      26.019   1.246  74.680  0.00  0.00     0.004 A 
ATOM     32  C16 STU d   1      27.245  -0.283  76.135  0.00  0.00    -0.056 A 
ATOM     33  C13 STU d   1      26.939   2.267  74.969  0.00  0.00    -0.070 A 
ATOM     34  C14 STU d   1      28.023   2.014  75.851  0.00  0.00    -0.082 A 
ATOM     35  H12 STU d   1      26.822   3.247  74.520  0.00  0.00     0.084 H 
ATOM     36  C15 STU d   1      28.161   0.733  76.421  0.00  0.00    -0.081 A 
ATOM     37  H11 STU d   1      28.736   2.797  76.083  0.00  0.00     0.083 H 
ATOM     38  H10 STU d   1      28.989   0.533  77.091  0.00  0.00     0.083 H 
ATOM     39  H9  STU d   1      27.372  -1.261  76.586  0.00  0.00     0.087 H 
ATOM     40  C10 STU d   1      24.168   2.274  72.961  0.00  0.00    -0.008 A 
ATOM     41  C7  STU d   1      23.020   1.951  72.256  0.00  0.00     0.020 A 
ATOM     42  C9  STU d   1      24.464   3.658  72.659  0.00  0.00     0.110 A 
ATOM     43  C8  STU d   1      22.635   3.144  71.530  0.00  0.00     0.218 A 
ATOM     44  N1  STU d   1      23.523   4.122  71.787  0.00  0.00    -0.041 N 
ATOM     45  H17 STU d   1      21.998   3.483  72.360  0.00  0.00     0.137 H 
ATOM     46  H15 STU d   1      23.970   4.405  70.929  0.00  0.00     0.281 HD
ATOM     47  H16 STU d   1      23.046   4.911  72.194  0.00  0.00     0.281 HD
ATOM     48  H13 STU d   1      25.462   3.733  72.202  0.00  0.00     0.083 H 
ATOM     49  H14 STU d   1      24.438   4.253  73.584  0.00  0.00     0.083 H 
ATOM     50  C5  STU d   1      21.213  -0.123  71.715  0.00  0.00     0.004 A 
ATOM     51  C20 STU d   1      21.199  -1.479  72.217  0.00  0.00     0.048 A 
ATOM     52  C4  STU d   1      20.193   0.298  70.823  0.00  0.00    -0.070 A 
ATOM     53  C1  STU d   1      20.181  -2.394  71.821  0.00  0.00    -0.056 A 
ATOM     54  C2  STU d   1      19.165  -1.963  70.927  0.00  0.00    -0.081 A 
ATOM     55  H19 STU d   1      20.182  -3.410  72.199  0.00  0.00     0.087 H 
ATOM     56  C3  STU d   1      19.168  -0.622  70.434  0.00  0.00    -0.082 A 
ATOM     57  H20 STU d   1      18.387  -2.652  70.619  0.00  0.00     0.083 H 
ATOM     58  H21 STU d   1      18.385  -0.298  69.758  0.00  0.00     0.083 H 
ATOM     59  H22 STU d   1      20.190   1.311  70.438  0.00  0.00     0.084 H 
BRANCH  43  60
ATOM     60  O5  STU d   1      21.547   3.210  70.730  0.00  0.00    -0.366 OA
ATOM     61  H18 STU d   1      21.101   2.371  70.734  0.00  0.00     0.212 HD
ENDBRANCH  43  60
ENDBRANCH   2  24
BRANCH   6  62
ATOM     62  C26 STU d   1      25.037  -2.847  76.326  0.00  0.00    -0.028 C 
ATOM     63  H6  STU d   1      26.124  -2.724  76.441  0.00  0.00     0.034 H 
ATOM     64  H7  STU d   1      24.779  -3.914  76.401  0.00  0.00     0.034 H 
ATOM     65  H8  STU d   1      24.519  -2.288  77.119  0.00  0.00     0.034 H 
ENDBRANCH   6  62
TORSDOF 8
