REMARK  11 active torsions:
REMARK  status: ('A' for Active; 'I' for Inactive)
REMARK    1  A    between atoms: C14_13  and  C4_1 
REMARK    2  A    between atoms: C13_5  and  C3_11 
REMARK    3  A    between atoms: C19_16  and  C22_10 
REMARK       I    between atoms: C22_10  and  N25_19 
REMARK    4  A    between atoms: C18_15  and  C12_12 
REMARK    5  A    between atoms: N25_19  and  C37_23 
REMARK    6  A    between atoms: C37_23  and  C38_24 
REMARK    7  A    between atoms: C38_24  and  N4_25 
REMARK    8  A    between atoms: N4_25  and  C39_26 
REMARK    9  A    between atoms: N4_25  and  C40_27 
REMARK   10  A    between atoms: C39_26  and  C42_29 
REMARK   11  A    between atoms: C40_27  and  C41_28 
ROOT
ATOM      1  C13 B49 d   1      -4.659  -1.152  15.633  0.00  0.00    -0.018 A 
ATOM      2  C14 B49 d   1      -5.895  -0.251  13.973  0.00  0.00     0.022 A 
ATOM      3  C18 B49 d   1      -4.221   0.137  15.383  0.00  0.00     0.040 A 
ATOM      4  C19 B49 d   1      -5.737  -1.404  14.728  0.00  0.00     0.062 A 
ATOM      5  N23 B49 d   1      -4.974   0.652  14.382  0.00  0.00    -0.359 N 
ATOM      6  H11 B49 d   1      -4.862   1.597  13.988  0.00  0.00     0.166 HD
ENDROOT
BRANCH   4   7
ATOM      7  C22 B49 d   1      -6.547  -2.708  14.614  0.00  0.00     0.254 C 
ATOM      8  N25 B49 d   1      -5.847  -3.963  14.625  0.00  0.00    -0.355 N 
ATOM      9  H13 B49 d   1      -4.850  -3.964  14.707  0.00  0.00     0.162 HD
ATOM     10  O28 B49 d   1      -7.784  -2.659  14.506  0.00  0.00    -0.268 OA
BRANCH   8  11
ATOM     11  C37 B49 d   1      -6.548  -5.226  14.520  0.00  0.00     0.018 C 
ATOM     12  H14 B49 d   1      -7.453  -5.150  15.140  0.00  0.00     0.066 H 
ATOM     13  H15 B49 d   1      -5.886  -6.003  14.931  0.00  0.00     0.066 H 
BRANCH  11  14
ATOM     14  C38 B49 d   1      -6.983  -5.687  13.143  0.00  0.00     0.098 C 
ATOM     15  H16 B49 d   1      -6.087  -6.064  12.627  0.00  0.00     0.078 H 
ATOM     16  H17 B49 d   1      -7.369  -4.805  12.611  0.00  0.00     0.078 H 
BRANCH  14  17
ATOM     17  N4  B49 d   1      -8.006  -6.730  13.052  0.00  0.00    -0.070 N 
ATOM     18  H18 B49 d   1      -7.989  -7.103  12.116  0.00  0.00     0.279 HD
BRANCH  17  19
ATOM     19  C39 B49 d   1      -9.343  -6.130  13.288  0.00  0.00     0.080 C 
ATOM     20  H19 B49 d   1      -9.183  -5.077  13.564  0.00  0.00     0.075 H 
ATOM     21  H20 B49 d   1      -9.795  -6.666  14.135  0.00  0.00     0.075 H 
BRANCH  19  22
ATOM     22  C42 B49 d   1     -10.326  -6.148  12.184  0.00  0.00    -0.053 C 
ATOM     23  H26 B49 d   1     -11.259  -5.669  12.516  0.00  0.00     0.029 H 
ATOM     24  H27 B49 d   1     -10.531  -7.189  11.893  0.00  0.00     0.029 H 
ATOM     25  H28 B49 d   1      -9.919  -5.599  11.322  0.00  0.00     0.029 H 
ENDBRANCH  19  22
ENDBRANCH  17  19
BRANCH  17  26
ATOM     26  C40 B49 d   1      -7.751  -7.834  13.973  0.00  0.00     0.080 C 
ATOM     27  H21 B49 d   1      -7.089  -7.449  14.763  0.00  0.00     0.075 H 
ATOM     28  H22 B49 d   1      -7.226  -8.614  13.403  0.00  0.00     0.075 H 
BRANCH  26  29
ATOM     29  C41 B49 d   1      -8.911  -8.495  14.656  0.00  0.00    -0.053 C 
ATOM     30  H23 B49 d   1      -8.542  -9.300  15.309  0.00  0.00     0.029 H 
ATOM     31  H24 B49 d   1      -9.589  -8.918  13.900  0.00  0.00     0.029 H 
ATOM     32  H25 B49 d   1      -9.453  -7.752  15.260  0.00  0.00     0.029 H 
ENDBRANCH  26  29
ENDBRANCH  17  26
ENDBRANCH  14  17
ENDBRANCH  11  14
ENDBRANCH   8  11
ENDBRANCH   4   7
BRANCH   1  33
ATOM     33  C3  B49 d   1      -4.110  -2.116  16.674  0.00  0.00    -0.048 C 
ATOM     34  H7  B49 d   1      -3.282  -1.637  17.217  0.00  0.00     0.033 H 
ATOM     35  H8  B49 d   1      -3.743  -3.025  16.175  0.00  0.00     0.033 H 
ATOM     36  H9  B49 d   1      -4.907  -2.383  17.383  0.00  0.00     0.033 H 
ENDBRANCH   1  33
BRANCH   2  37
ATOM     37  C4  B49 d   1      -6.913  -0.026  12.864  0.00  0.00    -0.036 C 
ATOM     38  H1  B49 d   1      -6.791   0.988  12.454  0.00  0.00     0.035 H 
ATOM     39  H2  B49 d   1      -7.929  -0.137  13.271  0.00  0.00     0.035 H 
ATOM     40  H3  B49 d   1      -6.755  -0.766  12.065  0.00  0.00     0.035 H 
ENDBRANCH   2  37
BRANCH   3  41
ATOM     41  C12 B49 d   1      -3.120   0.826  16.097  0.00  0.00    -0.041 C 
ATOM     42  C20 B49 d   1      -2.578   2.056  15.740  0.00  0.00     0.047 A 
ATOM     43  C17 B49 d   1      -1.299   2.497  16.237  0.00  0.00     0.009 A 
ATOM     44  C21 B49 d   1      -3.068   3.079  14.922  0.00  0.00     0.257 A 
ATOM     45  C7  B49 d   1      -0.350   1.888  17.096  0.00  0.00    -0.033 A 
ATOM     46  C16 B49 d   1      -1.058   3.744  15.702  0.00  0.00     0.046 A 
ATOM     47  C15 B49 d   1       0.853   2.575  17.402  0.00  0.00     0.117 A 
ATOM     48  H6  B49 d   1      -0.542   0.907  17.515  0.00  0.00     0.089 H 
ATOM     49  C5  B49 d   1       1.101   3.846  16.864  0.00  0.00    -0.043 A 
ATOM     50  F29 B49 d   1       1.758   2.016  18.206  0.00  0.00    -0.206 F 
ATOM     51  C6  B49 d   1       0.170   4.445  16.030  0.00  0.00    -0.053 A 
ATOM     52  H4  B49 d   1       2.024   4.362  17.101  0.00  0.00     0.088 H 
ATOM     53  H5  B49 d   1       0.358   5.433  15.624  0.00  0.00     0.087 H 
ATOM     54  N24 B49 d   1      -2.143   4.091  14.908  0.00  0.00    -0.322 N 
ATOM     55  H12 B49 d   1      -2.236   4.949  14.403  0.00  0.00     0.169 HD
ATOM     56  O27 B49 d   1      -4.109   3.131  14.323  0.00  0.00    -0.267 OA
ATOM     57  H10 B49 d   1      -2.702   0.329  16.971  0.00  0.00     0.088 H 
ENDBRANCH   3  41
TORSDOF 11
