REMARK  10 active torsions:
REMARK  status: ('A' for Active; 'I' for Inactive)
REMARK    1  A    between atoms: C1_1  and  C2_4 
REMARK    2  A    between atoms: C4_6  and  N4_20 
REMARK    3  A    between atoms: C5_7  and  N5_8 
REMARK       I    between atoms: N5_8  and  C10_9 
REMARK    4  A    between atoms: C10_9  and  C11_11 
REMARK    5  A    between atoms: C6_12  and  O7_14 
REMARK    6  A    between atoms: O7_14  and  C8_15 
REMARK    7  A    between atoms: C8_15  and  C9_16 
REMARK    8  A    between atoms: C8_15  and  C81_17 
REMARK    9  A    between atoms: C9_16  and  C91_19 
REMARK   10  A    between atoms: C81_17  and  C82_18 
ROOT
ATOM      1  C2  G39 d   1       0.402  88.768 131.247  0.00  0.00     0.035 C 
ATOM      2  C3  G39 d   1      -0.420  87.514 130.972  0.00  0.00    -0.024 C 
ATOM      3  C4  G39 d   1      -1.352  87.308 132.181  0.00  0.00     0.122 C 
ATOM      4  C5  G39 d   1      -2.282  88.496 132.351  0.00  0.00     0.064 C 
ATOM      5  C6  G39 d   1      -1.532  89.835 132.442  0.00  0.00     0.061 C 
ATOM      6  C7  G39 d   1      -0.520  90.000 131.310  0.00  0.00    -0.026 C 
ATOM      7  H   G39 d   1       0.790  88.644 132.269  0.00  0.00     0.056 H 
ATOM      8  H   G39 d   1       0.245  86.645 130.856  0.00  0.00     0.037 H 
ATOM      9  H   G39 d   1      -1.014  87.646 130.056  0.00  0.00     0.037 H 
ATOM     10  H   G39 d   1      -0.736  87.208 133.087  0.00  0.00     0.087 H 
ATOM     11  H   G39 d   1      -2.947  88.541 131.476  0.00  0.00     0.079 H 
ATOM     12  H   G39 d   1      -1.015  89.892 133.411  0.00  0.00     0.086 H 
ATOM     13  H   G39 d   1      -1.055  90.104 130.355  0.00  0.00     0.038 H 
ATOM     14  H   G39 d   1       0.086  90.900 131.491  0.00  0.00     0.038 H 
ENDROOT
BRANCH   5  15
ATOM     15  O7  G39 d   1      -2.441  90.888 132.319  0.00  0.00    -0.379 OA
BRANCH  15  16
ATOM     16  C8  G39 d   1      -2.780  91.569 133.530  0.00  0.00     0.038 C 
ATOM     17  H   G39 d   1      -3.148  90.841 134.268  0.00  0.00     0.083 H 
BRANCH  16  18
ATOM     18  C9  G39 d   1      -3.905  92.535 133.190  0.00  0.00    -0.044 C 
ATOM     19  H   G39 d   1      -3.604  93.143 132.324  0.00  0.00     0.036 H 
ATOM     20  H   G39 d   1      -4.086  93.191 134.054  0.00  0.00     0.036 H 
BRANCH  18  21
ATOM     21  C91 G39 d   1      -5.193  91.796 132.852  0.00  0.00    -0.074 C 
ATOM     22  H   G39 d   1      -5.982  92.525 132.612  0.00  0.00     0.027 H 
ATOM     23  H   G39 d   1      -5.505  91.189 133.715  0.00  0.00     0.027 H 
ATOM     24  H   G39 d   1      -5.023  91.141 131.985  0.00  0.00     0.027 H 
ENDBRANCH  18  21
ENDBRANCH  16  18
BRANCH  16  25
ATOM     25  C81 G39 d   1      -1.572  92.246 134.104  0.00  0.00    -0.044 C 
ATOM     26  H   G39 d   1      -0.793  91.489 134.279  0.00  0.00     0.036 H 
ATOM     27  H   G39 d   1      -1.851  92.713 135.060  0.00  0.00     0.036 H 
BRANCH  25  28
ATOM     28  C82 G39 d   1      -1.005  93.329 133.174  0.00  0.00    -0.074 C 
ATOM     29  H   G39 d   1      -0.124  93.791 133.643  0.00  0.00     0.027 H 
ATOM     30  H   G39 d   1      -1.771  94.098 132.997  0.00  0.00     0.027 H 
ATOM     31  H   G39 d   1      -0.714  92.874 132.216  0.00  0.00     0.027 H 
ENDBRANCH  25  28
ENDBRANCH  16  25
ENDBRANCH  15  16
ENDBRANCH   5  15
BRANCH   4  32
ATOM     32  N5  G39 d   1      -3.077  88.287 133.523  0.00  0.00    -0.352 N 
ATOM     33  C10 G39 d   1      -4.488  87.953 133.363  0.00  0.00     0.214 C 
ATOM     34  O10 G39 d   1      -4.972  87.851 132.245  0.00  0.00    -0.274 OA
ATOM     35  H   G39 d   1      -2.673  88.368 134.434  0.00  0.00     0.163 HD
BRANCH  33  36
ATOM     36  C11 G39 d   1      -5.362  87.731 134.604  0.00  0.00    -0.003 C 
ATOM     37  H   G39 d   1      -6.389  87.490 134.291  0.00  0.00     0.040 H 
ATOM     38  H   G39 d   1      -5.370  88.645 135.215  0.00  0.00     0.040 H 
ATOM     39  H   G39 d   1      -4.954  86.898 135.196  0.00  0.00     0.040 H 
ENDBRANCH  33  36
ENDBRANCH   4  32
BRANCH   3  40
ATOM     40  N4  G39 d   1      -2.125  86.113 132.011  0.00  0.00    -0.073 N 
ATOM     41  H   G39 d   1      -1.506  85.326 131.898  0.00  0.00     0.274 HD
ATOM     42  H   G39 d   1      -2.707  86.203 131.193  0.00  0.00     0.274 HD
ATOM     43  H   G39 d   1      -2.706  85.970 132.822  0.00  0.00     0.274 HD
ENDBRANCH   3  40
BRANCH   1  44
ATOM     44  C1  G39 d   1       1.679  88.930 130.366  0.00  0.00     0.177 C 
ATOM     45  O1A G39 d   1       2.236  87.876 129.901  0.00  0.00    -0.648 OA
ATOM     46  O1B G39 d   1       2.117  90.078 130.175  0.00  0.00    -0.648 OA
ENDBRANCH   1  44
TORSDOF 10
