REMARK  9 active torsions:
REMARK  status: ('A' for Active; 'I' for Inactive)
REMARK    1  A    between atoms: C1_1  and  O2_21 
REMARK    2  A    between atoms: C4_4  and  C18_18 
REMARK    3  A    between atoms: C12_12  and  C20_22 
REMARK    4  A    between atoms: C13_13  and  O1_20 
REMARK    5  A    between atoms: C17_17  and  C19_19 
REMARK    6  A    between atoms: C19_19  and  C21_23 
REMARK    7  A    between atoms: C19_19  and  C24_28 
REMARK    8  A    between atoms: C21_23  and  C22_24 
REMARK    9  A    between atoms: C22_24  and  C23_25 
ROOT
ATOM      1  C1  DXC d   1      17.471  19.775 186.119  0.00  0.00     0.036 C 
ATOM      2  C2  DXC d   1      17.044  21.049 185.421  0.00  0.00    -0.037 C 
ATOM      3  C3  DXC d   1      15.613  21.366 185.881  0.00  0.00    -0.044 C 
ATOM      4  C4  DXC d   1      14.624  20.275 185.473  0.00  0.00    -0.036 C 
ATOM      5  C5  DXC d   1      15.152  18.987 186.112  0.00  0.00    -0.055 C 
ATOM      6  C6  DXC d   1      16.580  18.656 185.653  0.00  0.00    -0.040 C 
ATOM      7  C7  DXC d   1      15.137  22.736 185.414  0.00  0.00    -0.060 C 
ATOM      8  C8  DXC d   1      15.008  22.735 183.912  0.00  0.00    -0.061 C 
ATOM      9  C9  DXC d   1      14.042  21.644 183.445  0.00  0.00    -0.046 C 
ATOM     10  C10 DXC d   1      14.474  20.266 183.941  0.00  0.00    -0.041 C 
ATOM     11  C11 DXC d   1      13.954  21.618 181.898  0.00  0.00    -0.041 C 
ATOM     12  C12 DXC d   1      12.965  20.622 181.336  0.00  0.00    -0.010 C 
ATOM     13  C13 DXC d   1      13.328  19.218 181.829  0.00  0.00     0.043 C 
ATOM     14  C14 DXC d   1      13.502  19.207 183.386  0.00  0.00    -0.036 C 
ATOM     15  C15 DXC d   1      13.650  22.913 181.168  0.00  0.00    -0.060 C 
ATOM     16  C16 DXC d   1      13.227  22.453 179.783  0.00  0.00    -0.060 C 
ATOM     17  C17 DXC d   1      13.149  20.923 179.846  0.00  0.00    -0.041 C 
ATOM     18  H1  DXC d   1      17.369  19.913 187.206  0.00  0.00     0.082 H 
ATOM     19  H2  DXC d   1      17.066  20.906 184.331  0.00  0.00     0.037 H 
ATOM     20  H3  DXC d   1      17.719  21.873 185.696  0.00  0.00     0.037 H 
ATOM     21  H4  DXC d   1      15.632  21.390 186.981  0.00  0.00     0.041 H 
ATOM     22  H5  DXC d   1      14.488  18.155 185.833  0.00  0.00     0.034 H 
ATOM     23  H6  DXC d   1      15.150  19.107 187.205  0.00  0.00     0.034 H 
ATOM     24  H7  DXC d   1      16.907  17.704 186.097  0.00  0.00     0.036 H 
ATOM     25  H8  DXC d   1      16.614  18.579 184.556  0.00  0.00     0.036 H 
ATOM     26  H9  DXC d   1      15.865  23.502 185.719  0.00  0.00     0.033 H 
ATOM     27  H10 DXC d   1      14.159  22.959 185.866  0.00  0.00     0.033 H 
ATOM     28  H11 DXC d   1      15.997  22.554 183.466  0.00  0.00     0.033 H 
ATOM     29  H12 DXC d   1      14.631  23.714 183.583  0.00  0.00     0.033 H 
ATOM     30  H13 DXC d   1      13.045  21.868 183.853  0.00  0.00     0.041 H 
ATOM     31  H14 DXC d   1      15.467  20.047 183.523  0.00  0.00     0.042 H 
ATOM     32  H15 DXC d   1      14.956  21.303 181.570  0.00  0.00     0.042 H 
ATOM     33  H16 DXC d   1      12.488  18.548 181.594  0.00  0.00     0.084 H 
ATOM     34  H17 DXC d   1      12.515  19.378 183.841  0.00  0.00     0.037 H 
ATOM     35  H18 DXC d   1      13.874  18.215 183.680  0.00  0.00     0.037 H 
ATOM     36  H19 DXC d   1      14.544  23.552 181.113  0.00  0.00     0.033 H 
ATOM     37  H20 DXC d   1      12.836  23.462 181.665  0.00  0.00     0.033 H 
ATOM     38  H21 DXC d   1      13.969  22.767 179.034  0.00  0.00     0.033 H 
ATOM     39  H22 DXC d   1      12.244  22.875 179.525  0.00  0.00     0.033 H 
ATOM     40  H23 DXC d   1      14.123  20.515 179.540  0.00  0.00     0.042 H 
ENDROOT
BRANCH  17  41
ATOM     41  C19 DXC d   1      12.119  20.312 178.885  0.00  0.00    -0.053 C 
ATOM     42  H27 DXC d   1      11.118  20.678 179.157  0.00  0.00     0.040 H 
BRANCH  41  43
ATOM     43  C21 DXC d   1      12.428  20.718 177.448  0.00  0.00    -0.053 C 
ATOM     44  H33 DXC d   1      13.260  20.102 177.075  0.00  0.00     0.034 H 
ATOM     45  H34 DXC d   1      12.721  21.778 177.433  0.00  0.00     0.034 H 
BRANCH  43  46
ATOM     46  C22 DXC d   1      11.224  20.526 176.535  0.00  0.00     0.016 C 
ATOM     47  H35 DXC d   1      10.406  21.174 176.884  0.00  0.00     0.049 H 
ATOM     48  H36 DXC d   1      10.905  19.474 176.584  0.00  0.00     0.049 H 
BRANCH  46  49
ATOM     49  C23 DXC d   1      11.545  20.874 175.095  0.00  0.00     0.172 C 
ATOM     50  O3  DXC d   1      12.612  20.472 174.545  0.00  0.00    -0.648 OA
ATOM     51  O4  DXC d   1      10.684  21.548 174.496  0.00  0.00    -0.648 OA
ENDBRANCH  46  49
ENDBRANCH  43  46
ENDBRANCH  41  43
BRANCH  41  52
ATOM     52  C24 DXC d   1      12.138  18.795 178.977  0.00  0.00    -0.072 C 
ATOM     53  H37 DXC d   1      11.916  18.488 180.010  0.00  0.00     0.028 H 
ATOM     54  H38 DXC d   1      13.132  18.423 178.689  0.00  0.00     0.028 H 
ATOM     55  H39 DXC d   1      11.379  18.377 178.299  0.00  0.00     0.028 H 
ENDBRANCH  41  52
ENDBRANCH  17  41
BRANCH  12  56
ATOM     56  C20 DXC d   1      11.539  20.940 181.765  0.00  0.00    -0.066 C 
ATOM     57  H30 DXC d   1      11.421  20.720 182.836  0.00  0.00     0.028 H 
ATOM     58  H31 DXC d   1      10.836  20.325 181.184  0.00  0.00     0.028 H 
ATOM     59  H32 DXC d   1      11.331  22.005 181.585  0.00  0.00     0.028 H 
ENDBRANCH  12  56
BRANCH  13  60
ATOM     60  O1  DXC d   1      14.479  18.733 181.102  0.00  0.00    -0.395 OA
ATOM     61  H28 DXC d   1      14.301  18.769 180.169  0.00  0.00     0.210 HD
ENDBRANCH  13  60
BRANCH   4  62
ATOM     62  C18 DXC d   1      13.271  20.503 186.156  0.00  0.00    -0.068 C 
ATOM     63  H24 DXC d   1      13.407  20.505 187.248  0.00  0.00     0.028 H 
ATOM     64  H25 DXC d   1      12.578  19.697 185.874  0.00  0.00     0.028 H 
ATOM     65  H26 DXC d   1      12.857  21.471 185.837  0.00  0.00     0.028 H 
ENDBRANCH   4  62
BRANCH   1  66
ATOM     66  O2  DXC d   1      18.787  19.399 185.824  0.00  0.00    -0.396 OA
ATOM     67  H29 DXC d   1      19.382  20.084 186.105  0.00  0.00     0.210 HD
ENDBRANCH   1  66
TORSDOF 9
