REMARK  4 active torsions:
REMARK  status: ('A' for Active; 'I' for Inactive)
REMARK    1  A    between atoms: C2_2  and  N7_7 
REMARK    2  A    between atoms: C4_4  and  N8_8 
REMARK    3  A    between atoms: C6_6  and  C9_9 
REMARK    4  A    between atoms: C10_10  and  O15_15 
ROOT
ATOM      1  N1  X11 d   1      -0.601   1.568  16.926  0.00  0.00    -0.041 NA
ATOM      2  C2  X11 d   1       0.546   2.163  17.300  0.00  0.00     0.738 A 
ATOM      3  N3  X11 d   1       0.731   3.463  17.045  0.00  0.00     0.129 NA
ATOM      4  C4  X11 d   1      -0.233   4.166  16.424  0.00  0.00     0.738 A 
ATOM      5  N5  X11 d   1      -1.382   3.581  16.044  0.00  0.00    -0.041 NA
ATOM      6  C6  X11 d   1      -1.567   2.274  16.294  0.00  0.00     0.200 A 
ENDROOT
BRANCH   6   7
ATOM      7  C9  X11 d   1      -2.823   1.579  15.890  0.00  0.00     0.046 A 
ATOM      8  C10 X11 d   1      -3.781   2.175  15.059  0.00  0.00     0.079 A 
ATOM      9  C11 X11 d   1      -4.922   1.478  14.712  0.00  0.00    -0.050 A 
ATOM     10  C12 X11 d   1      -5.126   0.191  15.186  0.00  0.00    -0.080 A 
ATOM     11  H5  X11 d   1      -5.661   1.939  14.067  0.00  0.00     0.087 H 
ATOM     12  C13 X11 d   1      -4.177  -0.400  16.009  0.00  0.00    -0.082 A 
ATOM     13  H6  X11 d   1      -6.024  -0.352  14.915  0.00  0.00     0.083 H 
ATOM     14  C14 X11 d   1      -3.028   0.291  16.361  0.00  0.00    -0.067 A 
ATOM     15  H7  X11 d   1      -4.335  -1.407  16.378  0.00  0.00     0.083 H 
ATOM     16  H8  X11 d   1      -2.290  -0.175  17.004  0.00  0.00     0.085 H 
BRANCH   8  17
ATOM     17  O15 X11 d   1      -3.613   3.450  14.556  0.00  0.00    -0.360 OA
ATOM     18  H9  X11 d   1      -2.792   3.809  14.873  0.00  0.00     0.217 HD
ENDBRANCH   8  17
ENDBRANCH   6   7
BRANCH   2  19
ATOM     19  N7  X11 d   1       1.574   1.424  17.969  0.00  0.00    -0.230 N 
ATOM     20  H1  X11 d   1       1.441   0.423  18.170  0.00  0.00     0.174 HD
ATOM     21  H2  X11 d   1       2.447   1.894  18.250  0.00  0.00     0.174 HD
ENDBRANCH   2  19
BRANCH   4  22
ATOM     22  N8  X11 d   1      -0.031   5.550  16.162  0.00  0.00    -0.230 N 
ATOM     23  H3  X11 d   1       0.847   6.006  16.450  0.00  0.00     0.174 HD
ATOM     24  H4  X11 d   1      -0.762   6.096  15.684  0.00  0.00     0.174 HD
ENDBRANCH   4  22
TORSDOF 4
