REMARK  13 active torsions:
REMARK  status: ('A' for Active; 'I' for Inactive)
REMARK    1  A    between atoms: CA_14  and  C_1 
REMARK    2  A    between atoms: CA_14  and  N_2 
REMARK    3  A    between atoms: C6_9  and  N6_10 
REMARK    4  A    between atoms: C1'_20  and  N9_13 
REMARK    5  A    between atoms: CB_15  and  CA_14 
REMARK    6  A    between atoms: CG_18  and  CB_15 
REMARK    7  A    between atoms: SD_16  and  CE_17 
REMARK    8  A    between atoms: SD_16  and  CG_18 
REMARK    9  A    between atoms: C5'_27  and  SD_16 
REMARK   10  A    between atoms: CE_17  and  CZ_19 
REMARK   11  A    between atoms: C2'_21  and  O2'_22 
REMARK   12  A    between atoms: C3'_23  and  O3'_24 
REMARK   13  A    between atoms: C4'_25  and  C5'_27 
ROOT
ATOM      1  C1' GEK d   1      35.146  65.554  13.137  0.00  0.00     0.139 C 
ATOM      2  C2' GEK d   1      35.043  66.103  14.546  0.00  0.00     0.105 C 
ATOM      3  C3' GEK d   1      35.200  67.580  14.291  0.00  0.00     0.090 C 
ATOM      4  C4' GEK d   1      36.128  67.643  13.177  0.00  0.00     0.076 C 
ATOM      5  O4' GEK d   1      36.196  66.316  12.571  0.00  0.00    -0.355 OA
ATOM      6  H16 GEK d   1      34.213  65.786  12.602  0.00  0.00     0.122 H 
ATOM      7  H17 GEK d   1      35.824  65.703  15.209  0.00  0.00     0.093 H 
ATOM      8  H19 GEK d   1      35.596  68.078  15.188  0.00  0.00     0.091 H 
ATOM      9  H21 GEK d   1      35.846  68.404  12.434  0.00  0.00     0.088 H 
ENDROOT
BRANCH   4  10
ATOM     10  C5' GEK d   1      37.443  67.967  13.859  0.00  0.00    -0.004 C 
ATOM     11  H22 GEK d   1      37.328  67.819  14.943  0.00  0.00     0.051 H 
ATOM     12  H23 GEK d   1      38.219  67.288  13.476  0.00  0.00     0.051 H 
BRANCH  10  13
ATOM     13  SD  GEK d   1      37.958  69.682  13.551  0.00  0.00    -0.207 SA
BRANCH  13  14
ATOM     14  CE  GEK d   1      39.698  69.503  14.144  0.00  0.00     0.049 C 
ATOM     15  H12 GEK d   1      40.172  68.684  13.583  0.00  0.00     0.064 H 
ATOM     16  H13 GEK d   1      39.674  69.248  15.214  0.00  0.00     0.064 H 
BRANCH  14  17
ATOM     17  CZ  GEK d   1      40.546  70.755  13.970  0.00  0.00     0.181 C 
ATOM     18  OZ1 GEK d   1      39.935  71.837  14.174  0.00  0.00    -0.647 OA
ATOM     19  OZ2 GEK d   1      41.779  70.579  13.687  0.00  0.00    -0.647 OA
ENDBRANCH  14  17
ENDBRANCH  13  14
BRANCH  13  20
ATOM     20  CG  GEK d   1      37.871  70.177  11.775  0.00  0.00    -0.029 C 
ATOM     21  H14 GEK d   1      38.778  70.742  11.513  0.00  0.00     0.047 H 
ATOM     22  H15 GEK d   1      37.809  69.273  11.151  0.00  0.00     0.047 H 
BRANCH  20  23
ATOM     23  CB  GEK d   1      36.617  71.069  11.513  0.00  0.00    -0.022 C 
ATOM     24  H10 GEK d   1      35.720  70.441  11.622  0.00  0.00     0.037 H 
ATOM     25  H11 GEK d   1      36.599  71.868  12.269  0.00  0.00     0.037 H 
BRANCH  23  26
ATOM     26  CA  GEK d   1      36.579  71.727  10.115  0.00  0.00     0.183 C 
ATOM     27  H9  GEK d   1      35.660  72.328  10.046  0.00  0.00     0.101 H 
BRANCH  26  28
ATOM     28  C   GEK d   1      37.791  72.684   9.984  0.00  0.00     0.204 C 
ATOM     29  O   GEK d   1      37.980  73.506  10.885  0.00  0.00    -0.646 OA
ATOM     30  OXT GEK d   1      38.571  72.556   9.023  0.00  0.00    -0.646 OA
ENDBRANCH  26  28
BRANCH  26  31
ATOM     31  N   GEK d   1      36.535  70.719   9.019  0.00  0.00    -0.065 N 
ATOM     32  H1  GEK d   1      35.733  70.121   9.145  0.00  0.00     0.275 HD
ATOM     33  H2  GEK d   1      37.376  70.163   9.040  0.00  0.00     0.275 HD
ATOM     34  H3  GEK d   1      36.466  71.191   8.131  0.00  0.00     0.275 HD
ENDBRANCH  26  31
ENDBRANCH  23  26
ENDBRANCH  20  23
ENDBRANCH  13  20
ENDBRANCH  10  13
ENDBRANCH   4  10
BRANCH   3  35
ATOM     35  O3' GEK d   1      34.039  68.242  13.853  0.00  0.00    -0.390 OA
ATOM     36  H20 GEK d   1      33.745  67.857  13.036  0.00  0.00     0.210 HD
ENDBRANCH   3  35
BRANCH   2  37
ATOM     37  O2' GEK d   1      33.734  65.854  15.094  0.00  0.00    -0.388 OA
ATOM     38  H18 GEK d   1      33.079  66.276  14.550  0.00  0.00     0.210 HD
ENDBRANCH   2  37
BRANCH   1  39
ATOM     39  N9  GEK d   1      35.334  64.058  13.038  0.00  0.00    -0.294 N 
ATOM     40  C4  GEK d   1      34.911  63.299  12.026  0.00  0.00     0.167 A 
ATOM     41  N3  GEK d   1      34.292  63.635  10.903  0.00  0.00    -0.224 NA
ATOM     42  C5  GEK d   1      35.152  62.008  12.274  0.00  0.00     0.147 A 
ATOM     43  C2  GEK d   1      33.937  62.690   9.834  0.00  0.00     0.067 A 
ATOM     44  N1  GEK d   1      34.335  61.312  10.168  0.00  0.00    -0.335 N 
ATOM     45  H5  GEK d   1      33.440  62.974   8.908  0.00  0.00     0.143 H 
ATOM     46  C6  GEK d   1      34.843  61.051  11.371  0.00  0.00     0.133 A 
ATOM     47  H4  GEK d   1      34.221  60.557   9.477  0.00  0.00     0.168 HD
ATOM     48  N7  GEK d   1      35.601  61.962  13.519  0.00  0.00    -0.236 NA
ATOM     49  C8  GEK d   1      35.743  63.211  13.982  0.00  0.00     0.071 A 
ATOM     50  H8  GEK d   1      36.127  63.487  14.963  0.00  0.00     0.144 H 
BRANCH  46  51
ATOM     51  N6  GEK d   1      34.986  59.789  11.719  0.00  0.00    -0.383 N 
ATOM     52  H6  GEK d   1      35.376  59.550  12.642  0.00  0.00     0.157 HD
ATOM     53  H7  GEK d   1      34.708  59.041  11.068  0.00  0.00     0.157 HD
ENDBRANCH  46  51
ENDBRANCH   1  39
TORSDOF 13
