REMARK  10 active torsions:
REMARK  status: ('A' for Active; 'I' for Inactive)
REMARK    1  A    between atoms: C7_8  and  C6_7 
REMARK    2  A    between atoms: C8_10  and  N2_9 
REMARK    3  A    between atoms: C8_10  and  C10_27 
REMARK    4  A    between atoms: C5_34  and  C8_10 
REMARK    5  A    between atoms: C12_13  and  C13_14 
REMARK    6  A    between atoms: C12_13  and  C26_29 
REMARK    7  A    between atoms: C13_14  and  C14_15 
REMARK    8  A    between atoms: C16_19  and  C17_20 
REMARK    9  A    between atoms: C10_27  and  C23_28 
REMARK   10  A    between atoms: C3_38  and  C29_30 
ROOT
ATOM      1  C7  35S d   1       7.801 -11.188  17.540  0.00  0.00     0.048 C 
ATOM      2  N2  35S d   1       7.105 -12.423  17.036  0.00  0.00    -0.332 N 
ATOM      3  C11 35S d   1       5.956 -12.911  17.604  0.00  0.00     0.230 C 
ATOM      4  O1  35S d   1       5.323 -13.814  17.075  0.00  0.00    -0.272 OA
ATOM      5  C12 35S d   1       5.405 -12.326  18.908  0.00  0.00     0.047 C 
ATOM      6  C15 35S d   1       5.787 -10.883  19.116  0.00  0.00    -0.040 C 
ATOM      7  C16 35S d   1       7.256 -10.614  18.879  0.00  0.00    -0.004 C 
ATOM      8  H   35S d   1       7.494 -10.432  16.803  0.00  0.00     0.081 H 
ATOM      9  H   35S d   1       5.543 -10.603  20.151  0.00  0.00     0.035 H 
ATOM     10  H   35S d   1       5.202 -10.263  18.421  0.00  0.00     0.035 H 
ATOM     11  H   35S d   1       7.783 -11.176  19.664  0.00  0.00     0.051 H 
ENDROOT
BRANCH   2  12
ATOM     12  C8  35S d   1       7.633 -13.103  15.845  0.00  0.00     0.057 C 
ATOM     13  H   35S d   1       8.675 -12.765  15.746  0.00  0.00     0.082 H 
BRANCH  12  14
ATOM     14  C10 35S d   1       7.714 -14.631  15.909  0.00  0.00    -0.044 C 
ATOM     15  H   35S d   1       7.947 -15.013  14.904  0.00  0.00     0.036 H 
ATOM     16  H   35S d   1       6.738 -15.021  16.232  0.00  0.00     0.036 H 
BRANCH  14  17
ATOM     17  C23 35S d   1       8.782 -15.127  16.879  0.00  0.00    -0.074 C 
ATOM     18  H   35S d   1       8.793 -16.227  16.882  0.00  0.00     0.027 H 
ATOM     19  H   35S d   1       8.557 -14.760  17.891  0.00  0.00     0.027 H 
ATOM     20  H   35S d   1       9.767 -14.752  16.564  0.00  0.00     0.027 H 
ENDBRANCH  14  17
ENDBRANCH  12  14
BRANCH  12  21
ATOM     21  C5  35S d   1       6.889 -12.596  14.596  0.00  0.00     0.057 A 
ATOM     22  C4  35S d   1       6.574 -13.400  13.471  0.00  0.00    -0.057 A 
ATOM     23  C31 35S d   1       5.909 -12.786  12.395  0.00  0.00    -0.079 A 
ATOM     24  H   35S d   1       6.837 -14.451  13.442  0.00  0.00     0.086 H 
ATOM     25  C30 35S d   1       5.572 -11.429  12.441  0.00  0.00    -0.058 A 
ATOM     26  H   35S d   1       5.654 -13.371  11.519  0.00  0.00     0.083 H 
ATOM     27  C29 35S d   1       5.907 -10.687  13.582  0.00  0.00     0.046 A 
ATOM     28  H   35S d   1       5.061 -10.959  11.608  0.00  0.00     0.086 H 
ATOM     29  N1  35S d   1       6.552 -11.283  14.621  0.00  0.00    -0.255 NA
BRANCH  27  30
ATOM     30  C3  35S d   1       5.521  -9.222  13.622  0.00  0.00     0.021 A 
ATOM     31  C1  35S d   1       5.333  -8.617  14.970  0.00  0.00    -0.093 A 
ATOM     32  C2  35S d   1       6.529  -8.272  14.154  0.00  0.00    -0.093 A 
ATOM     33  H   35S d   1       4.749  -8.508  15.883  0.00  0.00     0.078 H 
ATOM     34  H   35S d   1       7.462  -7.723  14.035  0.00  0.00     0.078 H 
ATOM     35  H   35S d   1       4.872  -8.955  12.775  0.00  0.00     0.062 H 
ENDBRANCH  27  30
ENDBRANCH  12  21
ENDBRANCH   2  12
BRANCH   1  36
ATOM     36  C6  35S d   1       9.298 -11.146  17.448  0.00  0.00    -0.035 A 
ATOM     37  C25 35S d   1      10.065 -11.964  18.292  0.00  0.00    -0.073 A 
ATOM     38  C24 35S d   1      11.466 -11.910  18.247  0.00  0.00    -0.061 A 
ATOM     39  H   35S d   1       9.573 -12.640  18.982  0.00  0.00     0.084 H 
ATOM     40  C9  35S d   1      12.059 -11.027  17.348  0.00  0.00     0.034 A 
ATOM     41  H   35S d   1      12.069 -12.537  18.893  0.00  0.00     0.086 H 
ATOM     42 CL1  35S d   1      13.744 -10.927  17.296  0.00  0.00    -0.084 Cl
ATOM     43  C27 35S d   1      11.332 -10.197  16.486  0.00  0.00    -0.061 A 
ATOM     44  C28 35S d   1       9.926 -10.266  16.544  0.00  0.00    -0.073 A 
ATOM     45  H   35S d   1      11.833  -9.525  15.799  0.00  0.00     0.086 H 
ATOM     46  H   35S d   1       9.326  -9.641  15.892  0.00  0.00     0.084 H 
ENDBRANCH   1  36
BRANCH   7  47
ATOM     47  C17 35S d   1       7.619  -9.162  19.114  0.00  0.00    -0.050 A 
ATOM     48  C18 35S d   1       6.866  -8.117  18.538  0.00  0.00    -0.076 A 
ATOM     49  C19 35S d   1       7.235  -6.759  18.713  0.00  0.00    -0.081 A 
ATOM     50  H   35S d   1       5.988  -8.357  17.950  0.00  0.00     0.084 H 
ATOM     51  C20 35S d   1       8.363  -6.427  19.469  0.00  0.00    -0.062 A 
ATOM     52  H   35S d   1       6.640  -5.975  18.259  0.00  0.00     0.083 H 
ATOM     53  C21 35S d   1       9.106  -7.468  20.042  0.00  0.00     0.034 A 
ATOM     54  H   35S d   1       8.655  -5.392  19.608  0.00  0.00     0.086 H 
ATOM     55 CL2  35S d   1      10.502  -7.112  20.964  0.00  0.00    -0.084 Cl
ATOM     56  C22 35S d   1       8.754  -8.820  19.882  0.00  0.00    -0.055 A 
ATOM     57  H   35S d   1       9.351  -9.597  20.346  0.00  0.00     0.086 H 
ENDBRANCH   7  47
BRANCH   5  58
ATOM     58  C13 35S d   1       5.894 -13.164  20.107  0.00  0.00     0.030 C 
ATOM     59  H   35S d   1       6.972 -12.992  20.245  0.00  0.00     0.051 H 
ATOM     60  H   35S d   1       5.717 -14.228  19.893  0.00  0.00     0.051 H 
BRANCH  58  61
ATOM     61  C14 35S d   1       5.175 -12.797  21.380  0.00  0.00     0.173 C 
ATOM     62  O2  35S d   1       5.364 -11.858  22.115  0.00  0.00    -0.648 OA
ATOM     63  O3  35S d   1       4.233 -13.761  21.554  0.00  0.00    -0.648 OA
ENDBRANCH  58  61
ENDBRANCH   5  58
BRANCH   5  64
ATOM     64  C26 35S d   1       3.866 -12.272  18.767  0.00  0.00    -0.060 C 
ATOM     65  H   35S d   1       3.476 -13.289  18.609  0.00  0.00     0.029 H 
ATOM     66  H   35S d   1       3.598 -11.639  17.908  0.00  0.00     0.029 H 
ATOM     67  H   35S d   1       3.428 -11.850  19.684  0.00  0.00     0.029 H 
ENDBRANCH   5  64
TORSDOF 10
