REMARK  8 active torsions:
REMARK  status: ('A' for Active; 'I' for Inactive)
REMARK       I    between atoms: C25_25  and  N1_1 
REMARK    1  A    between atoms: C3_3  and  N5_5 
REMARK       I    between atoms: N5_5  and  C6_6 
REMARK    2  A    between atoms: C6_6  and  C7_7 
REMARK    3  A    between atoms: C24_24  and  N17_17 
REMARK    4  A    between atoms: N20_20  and  C23_23 
REMARK    5  A    between atoms: C20_32  and  C25_25 
REMARK    6  A    between atoms: C27_27  and  C20_32 
REMARK    7  A    between atoms: C20_32  and  O34_35 
REMARK    8  A    between atoms: O34_35  and  C36_34 
ROOT
ATOM      1  N1  627 d   1     -10.122   5.743 -13.715  0.00  0.00    -0.340 N 
ATOM      2  N2  627 d   1     -12.559   6.157 -11.179  0.00  0.00    -0.278 N 
ATOM      3  C3  627 d   1     -10.549   6.997 -10.370  0.00  0.00     0.160 A 
ATOM      4  N4  627 d   1     -11.931   6.728 -10.152  0.00  0.00    -0.156 NA
ATOM      5  C13 627 d   1     -11.774   6.019 -12.041  0.00  0.00     0.057 A 
ATOM      6  C14 627 d   1     -10.352   6.599 -11.517  0.00  0.00     0.033 A 
ATOM      7  C15 627 d   1      -9.406   6.454 -12.531  0.00  0.00     0.027 A 
ATOM      8  C16 627 d   1     -11.627   5.543 -13.373  0.00  0.00     0.038 A 
ATOM      9  C25 627 d   1      -9.416   5.406 -15.172  0.00  0.00     0.254 C 
ATOM     10  O26 627 d   1     -10.152   4.874 -16.045  0.00  0.00    -0.270 OA
ATOM     11  H1  627 d   1     -13.552   5.886 -11.211  0.00  0.00     0.189 HD
ATOM     12  H7  627 d   1      -9.037   7.440 -12.849  0.00  0.00     0.072 H 
ATOM     13  H8  627 d   1      -8.562   5.844 -12.177  0.00  0.00     0.072 H 
ATOM     14  H9  627 d   1     -11.898   4.479 -13.434  0.00  0.00     0.074 H 
ATOM     15  H10 627 d   1     -12.259   6.123 -14.062  0.00  0.00     0.074 H 
ENDROOT
BRANCH   3  16
ATOM     16  N5  627 d   1      -9.815   7.513  -9.505  0.00  0.00    -0.305 N 
ATOM     17  C6  627 d   1      -8.492   7.682  -9.499  0.00  0.00     0.257 C 
ATOM     18  O8  627 d   1      -7.793   7.305 -10.467  0.00  0.00    -0.267 OA
ATOM     19  H2  627 d   1     -10.290   7.851  -8.693  0.00  0.00     0.170 HD
BRANCH  17  20
ATOM     20  C7  627 d   1      -7.749   8.269  -8.457  0.00  0.00     0.032 A 
ATOM     21  C9  627 d   1      -8.322   9.257  -7.619  0.00  0.00    -0.066 A 
ATOM     22  C10 627 d   1      -7.567   9.846  -6.583  0.00  0.00    -0.056 A 
ATOM     23  H3  627 d   1      -9.350   9.563  -7.775  0.00  0.00     0.085 H 
ATOM     24  C24 627 d   1      -6.230   9.470  -6.342  0.00  0.00     0.030 A 
ATOM     25  H4  627 d   1      -8.025  10.604  -5.958  0.00  0.00     0.086 H 
ATOM     26  C11 627 d   1      -5.656   8.468  -7.192  0.00  0.00    -0.056 A 
ATOM     27  C12 627 d   1      -6.406   7.884  -8.226  0.00  0.00    -0.066 A 
ATOM     28  H5  627 d   1      -4.630   8.157  -7.035  0.00  0.00     0.086 H 
ATOM     29  H6  627 d   1      -5.951   7.128  -8.856  0.00  0.00     0.085 H 
BRANCH  24  30
ATOM     30  N17 627 d   1      -5.527  10.064  -5.311  0.00  0.00    -0.378 N 
ATOM     31  C18 627 d   1      -4.493   9.370  -4.574  0.00  0.00     0.018 C 
ATOM     32  C19 627 d   1      -5.064   8.854  -3.196  0.00  0.00     0.098 C 
ATOM     33  H11 627 d   1      -3.656  10.058  -4.386  0.00  0.00     0.066 H 
ATOM     34  H12 627 d   1      -4.138   8.513  -5.165  0.00  0.00     0.066 H 
ATOM     35  N20 627 d   1      -5.795   9.942  -2.439  0.00  0.00    -0.072 N 
ATOM     36  H13 627 d   1      -4.228   8.493  -2.579  0.00  0.00     0.078 H 
ATOM     37  H14 627 d   1      -5.762   8.026  -3.389  0.00  0.00     0.078 H 
ATOM     38  C21 627 d   1      -6.807  10.628  -3.293  0.00  0.00     0.098 C 
ATOM     39  H15 627 d   1      -5.105  10.631  -2.183  0.00  0.00     0.279 HD
ATOM     40  C22 627 d   1      -6.135  11.173  -4.588  0.00  0.00     0.018 C 
ATOM     41  H16 627 d   1      -7.248  11.465  -2.732  0.00  0.00     0.078 H 
ATOM     42  H17 627 d   1      -7.597   9.913  -3.567  0.00  0.00     0.078 H 
ATOM     43  H18 627 d   1      -6.894  11.655  -5.222  0.00  0.00     0.066 H 
ATOM     44  H19 627 d   1      -5.361  11.907  -4.321  0.00  0.00     0.066 H 
BRANCH  35  45
ATOM     45  C23 627 d   1      -6.425   9.447  -1.151  0.00  0.00     0.066 C 
ATOM     46  H20 627 d   1      -5.661   8.945  -0.538  0.00  0.00     0.068 H 
ATOM     47  H21 627 d   1      -7.231   8.736  -1.387  0.00  0.00     0.068 H 
ATOM     48  H22 627 d   1      -6.840  10.300  -0.594  0.00  0.00     0.068 H 
ENDBRANCH  35  45
ENDBRANCH  24  30
ENDBRANCH  17  20
ENDBRANCH   3  16
BRANCH   9  49
ATOM     49  C20 627 d   1      -8.149   5.669 -15.441  0.00  0.00     0.140 C 
ATOM     50  H27 627 d   1      -7.948   6.682 -15.063  0.00  0.00     0.106 H 
BRANCH  49  51
ATOM     51  C27 627 d   1      -7.245   4.768 -14.727  0.00  0.00    -0.020 A 
ATOM     52  C28 627 d   1      -6.338   5.221 -13.844  0.00  0.00    -0.074 A 
ATOM     53  C31 627 d   1      -5.483   4.321 -13.157  0.00  0.00    -0.082 A 
ATOM     54  H23 627 d   1      -6.259   6.285 -13.655  0.00  0.00     0.084 H 
ATOM     55  C35 627 d   1      -5.571   2.929 -13.390  0.00  0.00    -0.083 A 
ATOM     56  H25 627 d   1      -4.757   4.703 -12.448  0.00  0.00     0.083 H 
ATOM     57  C33 627 d   1      -6.494   2.456 -14.301  0.00  0.00    -0.082 A 
ATOM     58  H28 627 d   1      -4.922   2.242 -12.860  0.00  0.00     0.083 H 
ATOM     59  C29 627 d   1      -7.322   3.324 -14.957  0.00  0.00    -0.074 A 
ATOM     60  H26 627 d   1      -6.563   1.392 -14.497  0.00  0.00     0.083 H 
ATOM     61  H24 627 d   1      -8.049   2.936 -15.661  0.00  0.00     0.084 H 
ENDBRANCH  49  51
BRANCH  49  62
ATOM     62  O34 627 d   1      -7.895   5.701 -16.862  0.00  0.00    -0.377 OA
BRANCH  62  63
ATOM     63  C36 627 d   1      -6.626   6.334 -17.268  0.00  0.00     0.005 C 
ATOM     64  H29 627 d   1      -6.535   6.304 -18.364  0.00  0.00     0.066 H 
ATOM     65  H30 627 d   1      -5.784   5.790 -16.815  0.00  0.00     0.066 H 
ATOM     66  H31 627 d   1      -6.613   7.380 -16.928  0.00  0.00     0.066 H 
ENDBRANCH  62  63
ENDBRANCH  49  62
ENDBRANCH   9  49
TORSDOF 8
