REMARK  10 active torsions:
REMARK  status: ('A' for Active; 'I' for Inactive)
REMARK    1  A    between atoms: C6_7  and  C19_8 
REMARK    2  A    between atoms: C4_10  and  C21_11 
REMARK    3  A    between atoms: C4_10  and  C24_15 
REMARK    4  A    between atoms: C21_11  and  C23_12 
REMARK    5  A    between atoms: N1_18  and  C18_19 
REMARK    6  A    between atoms: C18_19  and  C20_20 
REMARK    7  A    between atoms: C18_19  and  C2_38 
REMARK    8  A    between atoms: C20_20  and  S1_29 
REMARK    9  A    between atoms: C29_21  and  C7_22 
REMARK   10  A    between atoms: S1_29  and  N2_32 
ROOT
ATOM      1  C19 35T d   1      28.188  -0.783 -15.515  0.00  0.00    -0.004 C 
ATOM      2  C22 35T d   1      28.654   0.668 -15.385  0.00  0.00    -0.040 C 
ATOM      3  C4  35T d   1      27.483   1.642 -15.179  0.00  0.00     0.047 C 
ATOM      4  C5  35T d   1      26.256   1.323 -16.056  0.00  0.00     0.229 C 
ATOM      5  O1  35T d   1      25.293   2.098 -15.990  0.00  0.00    -0.272 OA
ATOM      6  N1  35T d   1      26.306   0.203 -16.866  0.00  0.00    -0.335 N 
ATOM      7  C29 35T d   1      27.272  -0.941 -16.771  0.00  0.00     0.048 C 
ATOM      8  H5  35T d   1      27.545  -0.984 -14.645  0.00  0.00     0.051 H 
ATOM      9  H6  35T d   1      29.191   0.950 -16.302  0.00  0.00     0.035 H 
ATOM     10  H7  35T d   1      29.334   0.745 -14.524  0.00  0.00     0.035 H 
ATOM     11  H16 35T d   1      27.928  -0.847 -17.649  0.00  0.00     0.081 H 
ENDROOT
BRANCH   6  12
ATOM     12  C18 35T d   1      25.346   0.087 -17.965  0.00  0.00     0.039 C 
ATOM     13  H13 35T d   1      25.576  -0.806 -18.564  0.00  0.00     0.075 H 
BRANCH  12  14
ATOM     14  C20 35T d   1      25.441   1.332 -18.843  0.00  0.00     0.066 C 
ATOM     15  H14 35T d   1      25.439   2.219 -18.193  0.00  0.00     0.062 H 
ATOM     16  H15 35T d   1      24.563   1.361 -19.505  0.00  0.00     0.062 H 
BRANCH  14  17
ATOM     17  S1  35T d   1      26.902   1.372 -19.845  0.00  0.00     0.230 S 
ATOM     18  O4  35T d   1      27.072   0.230 -20.688  0.00  0.00    -0.206 OA
ATOM     19  O5  35T d   1      27.987   1.705 -18.980  0.00  0.00    -0.206 OA
BRANCH  17  20
ATOM     20  N2  35T d   1      26.783   2.732 -20.942  0.00  0.00    -0.311 N 
ATOM     21  C25 35T d   1      27.149   4.037 -20.300  0.00  0.00     0.005 C 
ATOM     22  C26 35T d   1      26.454   5.128 -21.080  0.00  0.00    -0.048 C 
ATOM     23  H21 35T d   1      28.239   4.183 -20.337  0.00  0.00     0.065 H 
ATOM     24  H22 35T d   1      26.813   4.050 -19.253  0.00  0.00     0.065 H 
ATOM     25  C27 35T d   1      25.368   4.436 -21.869  0.00  0.00    -0.048 C 
ATOM     26  H23 35T d   1      27.163   5.626 -21.758  0.00  0.00     0.035 H 
ATOM     27  H24 35T d   1      26.017   5.870 -20.396  0.00  0.00     0.035 H 
ATOM     28  C28 35T d   1      25.647   2.923 -21.864  0.00  0.00     0.005 C 
ATOM     29  H25 35T d   1      25.366   4.809 -22.904  0.00  0.00     0.035 H 
ATOM     30  H26 35T d   1      24.390   4.634 -21.406  0.00  0.00     0.035 H 
ATOM     31  H27 35T d   1      24.765   2.371 -21.506  0.00  0.00     0.065 H 
ATOM     32  H28 35T d   1      25.910   2.578 -22.875  0.00  0.00     0.065 H 
ENDBRANCH  17  20
ENDBRANCH  14  17
ENDBRANCH  12  14
BRANCH  12  33
ATOM     33  C2  35T d   1      23.934  -0.029 -17.397  0.00  0.00    -0.001 A 
ATOM     34  C1  35T d   1      22.916  -0.278 -18.586  0.00  0.00    -0.097 A 
ATOM     35  C3  35T d   1      23.190  -1.287 -18.005  0.00  0.00    -0.097 A 
ATOM     36  H29 35T d   1      22.345   0.172 -19.396  0.00  0.00     0.077 H 
ATOM     37  H31 35T d   1      23.032  -2.362 -17.938  0.00  0.00     0.077 H 
ATOM     38  H30 35T d   1      23.751   0.462 -16.430  0.00  0.00     0.055 H 
ENDBRANCH  12  33
ENDBRANCH   6  12
BRANCH   7  39
ATOM     39  C7  35T d   1      26.697  -2.289 -16.859  0.00  0.00    -0.035 A 
ATOM     40  C8  35T d   1      25.740  -2.703 -15.866  0.00  0.00    -0.073 A 
ATOM     41  C9  35T d   1      25.232  -4.028 -15.950  0.00  0.00    -0.061 A 
ATOM     42  H17 35T d   1      25.418  -2.028 -15.082  0.00  0.00     0.084 H 
ATOM     43  C10 35T d   1      25.744  -4.815 -17.036  0.00  0.00     0.034 A 
ATOM     44  H18 35T d   1      24.508  -4.417 -15.243  0.00  0.00     0.086 H 
ATOM     45 CL1  35T d   1      25.150  -6.389 -17.172  0.00  0.00    -0.084 Cl
ATOM     46  C11 35T d   1      26.695  -4.419 -18.028  0.00  0.00    -0.061 A 
ATOM     47  C12 35T d   1      27.196  -3.094 -17.943  0.00  0.00    -0.073 A 
ATOM     48  H19 35T d   1      27.018  -5.099 -18.808  0.00  0.00     0.086 H 
ATOM     49  H20 35T d   1      27.916  -2.709 -18.656  0.00  0.00     0.084 H 
ENDBRANCH   7  39
BRANCH   3  50
ATOM     50  C21 35T d   1      26.961   1.741 -13.756  0.00  0.00     0.030 C 
ATOM     51  H8  35T d   1      26.701   0.727 -13.417  0.00  0.00     0.051 H 
ATOM     52  H9  35T d   1      26.057   2.367 -13.768  0.00  0.00     0.051 H 
BRANCH  50  53
ATOM     53  C23 35T d   1      27.945   2.345 -12.739  0.00  0.00     0.173 C 
ATOM     54  O3  35T d   1      28.922   1.515 -12.346  0.00  0.00    -0.648 OA
ATOM     55  O2  35T d   1      27.875   3.463 -12.301  0.00  0.00    -0.648 OA
ENDBRANCH  50  53
ENDBRANCH   3  50
BRANCH   3  56
ATOM     56  C24 35T d   1      27.866   3.035 -15.648  0.00  0.00    -0.060 C 
ATOM     57  H10 35T d   1      28.247   2.983 -16.679  0.00  0.00     0.029 H 
ATOM     58  H11 35T d   1      28.647   3.442 -14.989  0.00  0.00     0.029 H 
ATOM     59  H12 35T d   1      26.982   3.689 -15.617  0.00  0.00     0.029 H 
ENDBRANCH   3  56
BRANCH   1  60
ATOM     60  C6  35T d   1      29.327  -1.774 -15.412  0.00  0.00    -0.050 A 
ATOM     61  C17 35T d   1      29.154  -2.912 -14.538  0.00  0.00    -0.055 A 
ATOM     62  C16 35T d   1      30.203  -3.888 -14.454  0.00  0.00     0.034 A 
ATOM     63  H1  35T d   1      28.247  -3.026 -13.956  0.00  0.00     0.086 H 
ATOM     64 CL2  35T d   1      29.986  -5.232 -13.418  0.00  0.00    -0.084 Cl
ATOM     65  C15 35T d   1      31.409  -3.744 -15.217  0.00  0.00    -0.062 A 
ATOM     66  C14 35T d   1      31.638  -2.633 -16.102  0.00  0.00    -0.081 A 
ATOM     67  H2  35T d   1      32.178  -4.502 -15.123  0.00  0.00     0.086 H 
ATOM     68  C13 35T d   1      30.561  -1.652 -16.175  0.00  0.00    -0.076 A 
ATOM     69  H3  35T d   1      32.551  -2.532 -16.677  0.00  0.00     0.083 H 
ATOM     70  H4  35T d   1      30.685  -0.794 -16.826  0.00  0.00     0.084 H 
ENDBRANCH   1  60
TORSDOF 10
