REMARK WARNING: 32 MAX_TORS EXCEEDED!!!
REMARK  43 active torsions:
REMARK  status: ('A' for Active; 'I' for Inactive)
REMARK    1  A    between atoms: N_1  and  CA_2 
REMARK    2  A    between atoms: CA_2  and  C_3 
REMARK    3  A    between atoms: CA_2  and  CB_5 
REMARK       I    between atoms: C_3  and  N_10 
REMARK    4  A    between atoms: CB_5  and  CG_6 
REMARK    5  A    between atoms: CG_6  and  CD_7 
REMARK    6  A    between atoms: N_10  and  CA_11 
REMARK    7  A    between atoms: CA_11  and  C_12 
REMARK    8  A    between atoms: CA_11  and  CB_14 
REMARK       I    between atoms: C_12  and  N_15 
REMARK    9  A    between atoms: N_15  and  CA_16 
REMARK   10  A    between atoms: CA_16  and  C_17 
REMARK   11  A    between atoms: CA_16  and  CB_19 
REMARK       I    between atoms: C_17  and  N_20 
REMARK   12  A    between atoms: N_20  and  CA_21 
REMARK   13  A    between atoms: CA_21  and  C_22 
REMARK       I    between atoms: C_22  and  N_24 
REMARK   14  A    between atoms: N_24  and  CA_25 
REMARK   15  A    between atoms: CA_25  and  C_26 
REMARK   16  A    between atoms: CA_25  and  CB_28 
REMARK       I    between atoms: C_26  and  N_32 
REMARK   17  A    between atoms: CB_28  and  CG1_29 
REMARK   18  A    between atoms: CB_28  and  CG2_30 
REMARK   19  A    between atoms: CG1_29  and  CD1_31 
REMARK   20  A    between atoms: N_32  and  CA_33 
REMARK   21  A    between atoms: CA_33  and  C_34 
REMARK       I    between atoms: C_34  and  N_36 
REMARK   22  A    between atoms: N_36  and  CA_37 
REMARK   23  A    between atoms: CA_37  and  C_38 
REMARK   24  A    between atoms: CA_37  and  CB_40 
REMARK       I    between atoms: C_38  and  N_44 
REMARK   25  A    between atoms: CB_40  and  CG1_41 
REMARK   26  A    between atoms: CB_40  and  CG2_42 
REMARK   27  A    between atoms: CG1_41  and  CD1_43 
REMARK   28  A    between atoms: N_44  and  CA_45 
REMARK   29  A    between atoms: CA_45  and  C_46 
REMARK   30  A    between atoms: CA_45  and  CB_48 
REMARK       I    between atoms: C_46  and  N_52 
REMARK   31  A    between atoms: CB_48  and  CG_49 
REMARK   32  A    between atoms: CG_49  and  CD1_50 
REMARK   33  A    between atoms: CG_49  and  CD2_51 
REMARK   34  A    between atoms: N_52  and  CA_53 
REMARK   35  A    between atoms: CA_53  and  C_54 
REMARK   36  A    between atoms: CA_53  and  CB_56 
REMARK       I    between atoms: C_54  and  N_59 
REMARK   37  A    between atoms: CB_56  and  OG1_57 
REMARK   38  A    between atoms: CB_56  and  CG2_58 
REMARK   39  A    between atoms: N_59  and  CA_60 
REMARK   40  A    between atoms: CA_60  and  C_61 
REMARK   41  A    between atoms: CA_60  and  CB_63 
REMARK   42  A    between atoms: CB_63  and  CG1_64 
REMARK   43  A    between atoms: CB_63  and  CG2_65 
ROOT
ATOM      1  C   GLY d   1      59.913   8.428 -10.479  0.00  0.00     0.236 C 
ATOM      2  O   GLY d   1      59.695   7.269 -10.806  0.00  0.00    -0.272 OA
ATOM      3  N   ILE d   1      60.121   9.387 -11.372  0.00  0.00    -0.346 N 
ATOM      4  H   ILE d   1      60.290  10.319 -11.051  0.00  0.00     0.163 HD
ENDROOT
BRANCH   1   5
ATOM      5  CA  GLY d   1      59.978   8.790  -8.990  0.00  0.00     0.069 C 
ATOM      6  H   GLY d   1      59.294   8.118  -8.451  0.00  0.00     0.078 H 
ATOM      7  H   GLY d   1      61.009   8.616  -8.647  0.00  0.00     0.078 H 
BRANCH   5   8
ATOM      8  N   GLY d   1      59.622  10.152  -8.646  0.00  0.00    -0.351 N 
ATOM      9  C   ILE d   1      58.405  10.578  -8.852  0.00  0.00     0.241 C 
ATOM     10  O   ILE d   1      57.552   9.858  -9.326  0.00  0.00    -0.271 OA
ATOM     11  H   GLY d   1      60.307  10.764  -8.252  0.00  0.00     0.163 HD
BRANCH   9  12
ATOM     12  CA  ILE d   1      58.121  12.021  -8.477  0.00  0.00     0.092 C 
ATOM     13  H   ILE d   1      58.818  12.662  -9.037  0.00  0.00     0.088 H 
BRANCH  12  14
ATOM     14  N   ILE d   1      56.762  12.429  -8.846  0.00  0.00    -0.346 N 
ATOM     15  C   GLY d   1      56.477  13.641  -9.296  0.00  0.00     0.236 C 
ATOM     16  O   GLY d   1      57.315  14.522  -9.412  0.00  0.00    -0.272 OA
ATOM     17  H   ILE d   1      56.020  11.765  -8.754  0.00  0.00     0.163 HD
BRANCH  15  18
ATOM     18  CA  GLY d   1      55.036  13.911  -9.642  0.00  0.00     0.069 C 
ATOM     19  H   GLY d   1      54.623  14.624  -8.914  0.00  0.00     0.078 H 
ATOM     20  H   GLY d   1      54.988  14.347 -10.651  0.00  0.00     0.078 H 
BRANCH  18  21
ATOM     21  N   GLY d   1      54.236  12.695  -9.616  0.00  0.00    -0.351 N 
ATOM     22  C   ALA d   1      53.982  11.972 -10.702  0.00  0.00     0.240 C 
ATOM     23  O   ALA d   1      54.327  12.308 -11.819  0.00  0.00    -0.271 OA
ATOM     24  H   GLY d   1      53.860  12.390  -8.741  0.00  0.00     0.163 HD
BRANCH  22  25
ATOM     25  CA  ALA d   1      53.222  10.689 -10.486  0.00  0.00     0.086 C 
ATOM     26  H   ALA d   1      52.906  10.636  -9.434  0.00  0.00     0.086 H 
BRANCH  25  27
ATOM     27  N   ALA d   1      52.040  10.667 -11.321  0.00  0.00    -0.346 N 
ATOM     28  C   ALA d   1      51.075  11.552 -11.133  0.00  0.00     0.240 C 
ATOM     29  O   ALA d   1      51.180  12.391 -10.263  0.00  0.00    -0.271 OA
ATOM     30  H   ALA d   1      51.953   9.980 -12.043  0.00  0.00     0.163 HD
BRANCH  28  31
ATOM     31  CA  ALA d   1      49.808  11.491 -12.069  0.00  0.00     0.086 C 
ATOM     32  H   ALA d   1      49.514  10.435 -12.164  0.00  0.00     0.086 H 
BRANCH  31  33
ATOM     33  N   ALA d   1      48.657  12.236 -11.550  0.00  0.00    -0.346 N 
ATOM     34  C   GLU d   1      47.913  11.822 -10.531  0.00  0.00     0.248 C 
ATOM     35  O   GLU d   1      48.069  10.757  -9.960  0.00  0.00    -0.271 OA
ATOM     36  H   ALA d   1      48.419  13.103 -11.987  0.00  0.00     0.163 HD
BRANCH  34  37
ATOM     37  CA  GLU d   1      46.805  12.746 -10.102  0.00  0.00     0.176 C 
ATOM     38  H   GLU d   1      46.936  13.732 -10.571  0.00  0.00     0.099 H 
BRANCH  37  39
ATOM     39  N   GLU d   1      45.526  12.128 -10.563  0.00  0.00    -0.066 N 
ATOM     40  H   GLU d   1      44.753  12.717 -10.295  0.00  0.00     0.275 HD
ATOM     41  H   GLU d   1      45.419  11.220 -10.139  0.00  0.00     0.275 HD
ATOM     42  H   GLU d   1      45.542  12.030 -11.566  0.00  0.00     0.275 HD
ENDBRANCH  37  39
BRANCH  37  43
ATOM     43  CB  GLU d   1      46.799  12.908  -8.577  0.00  0.00    -0.021 C 
ATOM     44  H   GLU d   1      46.659  11.911  -8.134  0.00  0.00     0.037 H 
ATOM     45  H   GLU d   1      45.947  13.551  -8.311  0.00  0.00     0.037 H 
BRANCH  43  46
ATOM     46  CG  GLU d   1      48.061  13.523  -7.958  0.00  0.00     0.018 C 
ATOM     47  H   GLU d   1      48.937  13.048  -8.424  0.00  0.00     0.049 H 
ATOM     48  H   GLU d   1      48.055  13.305  -6.880  0.00  0.00     0.049 H 
BRANCH  46  49
ATOM     49  CD  GLU d   1      48.187  15.021  -8.135  0.00  0.00     0.172 C 
ATOM     50  OE1 GLU d   1      47.150  15.714  -8.274  0.00  0.00    -0.648 OA
ATOM     51  OE2 GLU d   1      49.339  15.505  -8.082  0.00  0.00    -0.648 OA
ENDBRANCH  46  49
ENDBRANCH  43  46
ENDBRANCH  37  43
ENDBRANCH  34  37
ENDBRANCH  31  33
BRANCH  31  52
ATOM     52  CB  ALA d   1      50.146  12.028 -13.448  0.00  0.00    -0.049 C 
ATOM     53  H   ALA d   1      51.009  11.480 -13.854  0.00  0.00     0.030 H 
ATOM     54  H   ALA d   1      50.393  13.097 -13.375  0.00  0.00     0.030 H 
ATOM     55  H   ALA d   1      49.281  11.896 -14.115  0.00  0.00     0.030 H 
ENDBRANCH  31  52
ENDBRANCH  28  31
ENDBRANCH  25  27
BRANCH  25  56
ATOM     56  CB  ALA d   1      54.125   9.516 -10.777  0.00  0.00    -0.049 C 
ATOM     57  H   ALA d   1      55.011   9.565 -10.126  0.00  0.00     0.030 H 
ATOM     58  H   ALA d   1      54.441   9.549 -11.830  0.00  0.00     0.030 H 
ATOM     59  H   ALA d   1      53.581   8.579 -10.587  0.00  0.00     0.030 H 
ENDBRANCH  25  56
ENDBRANCH  22  25
ENDBRANCH  18  21
ENDBRANCH  15  18
ENDBRANCH  12  14
BRANCH  12  60
ATOM     60  CB  ILE d   1      58.412  12.211  -6.957  0.00  0.00    -0.030 C 
ATOM     61  H   ILE d   1      59.421  11.824  -6.753  0.00  0.00     0.043 H 
BRANCH  60  62
ATOM     62  CG1 ILE d   1      57.421  11.425  -6.110  0.00  0.00    -0.063 C 
ATOM     63  H   ILE d   1      57.495  10.360  -6.376  0.00  0.00     0.033 H 
ATOM     64  H   ILE d   1      56.405  11.788  -6.326  0.00  0.00     0.033 H 
BRANCH  62  65
ATOM     65  CD1 ILE d   1      57.686  11.575  -4.626  0.00  0.00    -0.076 C 
ATOM     66  H   ILE d   1      56.946  10.990  -4.060  0.00  0.00     0.027 H 
ATOM     67  H   ILE d   1      57.608  12.636  -4.345  0.00  0.00     0.027 H 
ATOM     68  H   ILE d   1      58.697  11.208  -4.395  0.00  0.00     0.027 H 
ENDBRANCH  62  65
ENDBRANCH  60  62
BRANCH  60  69
ATOM     69  CG2 ILE d   1      58.380  13.684  -6.568  0.00  0.00    -0.071 C 
ATOM     70  H   ILE d   1      59.099  14.242  -7.186  0.00  0.00     0.028 H 
ATOM     71  H   ILE d   1      58.649  13.789  -5.507  0.00  0.00     0.028 H 
ATOM     72  H   ILE d   1      57.368  14.084  -6.731  0.00  0.00     0.028 H 
ENDBRANCH  60  69
ENDBRANCH  12  60
ENDBRANCH   9  12
ENDBRANCH   5   8
ENDBRANCH   1   5
BRANCH   3  73
ATOM     73  CA  ILE d   1      60.111   9.128 -12.788  0.00  0.00     0.092 C 
ATOM     74  H   ILE d   1      59.987   8.047 -12.947  0.00  0.00     0.088 H 
BRANCH  73  75
ATOM     75  C   ILE d   1      61.426   9.578 -13.389  0.00  0.00     0.241 C 
ATOM     76  O   ILE d   1      61.647  10.746 -13.692  0.00  0.00    -0.271 OA
ATOM     77  N   LEU d   1      62.305   8.621 -13.593  0.00  0.00    -0.346 N 
ATOM     78  H   LEU d   1      62.062   7.675 -13.378  0.00  0.00     0.163 HD
BRANCH  77  79
ATOM     79  CA  LEU d   1      63.606   8.915 -14.119  0.00  0.00     0.089 C 
ATOM     80  H   LEU d   1      63.706   9.999 -14.277  0.00  0.00     0.087 H 
BRANCH  79  81
ATOM     81  C   LEU d   1      63.812   8.197 -15.403  0.00  0.00     0.241 C 
ATOM     82  O   LEU d   1      63.038   7.335 -15.772  0.00  0.00    -0.271 OA
ATOM     83  N   THR d   1      64.883   8.549 -16.085  0.00  0.00    -0.344 N 
ATOM     84  H   THR d   1      65.470   9.282 -15.742  0.00  0.00     0.163 HD
BRANCH  83  85
ATOM     85  CA  THR d   1      65.214   7.889 -17.316  0.00  0.00     0.113 C 
ATOM     86  H   THR d   1      64.305   7.726 -17.913  0.00  0.00     0.091 H 
BRANCH  85  87
ATOM     87  C   THR d   1      65.874   6.576 -16.980  0.00  0.00     0.243 C 
ATOM     88  O   THR d   1      66.487   6.439 -15.930  0.00  0.00    -0.271 OA
ATOM     89  N   VAL d   1      65.752   5.624 -17.902  0.00  0.00    -0.344 N 
ATOM     90  H   VAL d   1      65.270   5.843 -18.750  0.00  0.00     0.163 HD
BRANCH  89  91
ATOM     91  CA  VAL d   1      66.297   4.249 -17.734  0.00  0.00     0.099 C 
ATOM     92  H   VAL d   1      66.057   3.914 -16.714  0.00  0.00     0.090 H 
BRANCH  91  93
ATOM     93  C   VAL d   1      67.847   4.224 -17.894  0.00  0.00     0.197 C 
ATOM     94  O   VAL d   1      68.572   3.314 -17.441  0.00  0.00    -0.646 OA
ATOM     95  OXT VAL d   1      68.447   5.126 -18.485  0.00  0.00    -0.646 OA
ENDBRANCH  91  93
BRANCH  91  96
ATOM     96  CB  VAL d   1      65.631   3.261 -18.733  0.00  0.00    -0.032 C 
ATOM     97  H   VAL d   1      65.993   2.246 -18.512  0.00  0.00     0.042 H 
BRANCH  96  98
ATOM     98  CG1 VAL d   1      64.109   3.279 -18.612  0.00  0.00    -0.071 C 
ATOM     99  H   VAL d   1      63.675   2.570 -19.332  0.00  0.00     0.028 H 
ATOM    100  H   VAL d   1      63.736   4.292 -18.825  0.00  0.00     0.028 H 
ATOM    101  H   VAL d   1      63.819   2.989 -17.591  0.00  0.00     0.028 H 
ENDBRANCH  96  98
BRANCH  96 102
ATOM    102  CG2 VAL d   1      66.004   3.621 -20.154  0.00  0.00    -0.071 C 
ATOM    103  H   VAL d   1      67.099   3.613 -20.259  0.00  0.00     0.028 H 
ATOM    104  H   VAL d   1      65.621   4.624 -20.391  0.00  0.00     0.028 H 
ATOM    105  H   VAL d   1      65.564   2.888 -20.846  0.00  0.00     0.028 H 
ENDBRANCH  96 102
ENDBRANCH  91  96
ENDBRANCH  89  91
ENDBRANCH  85  87
BRANCH  85 106
ATOM    106  CB  THR d   1      66.215   8.703 -18.099  0.00  0.00     0.060 C 
ATOM    107  H   THR d   1      66.668   8.086 -18.889  0.00  0.00     0.086 H 
BRANCH 106 108
ATOM    108  OG1 THR d   1      67.202   9.145 -17.189  0.00  0.00    -0.393 OA
ATOM    109  H   THR d   1      67.623   8.393 -16.790  0.00  0.00     0.210 HD
ENDBRANCH 106 108
BRANCH 106 110
ATOM    110  CG2 THR d   1      65.570   9.885 -18.697  0.00  0.00    -0.050 C 
ATOM    111  H   THR d   1      66.316  10.463 -19.262  0.00  0.00     0.031 H 
ATOM    112  H   THR d   1      65.146  10.514 -17.900  0.00  0.00     0.031 H 
ATOM    113  H   THR d   1      64.767   9.561 -19.375  0.00  0.00     0.031 H 
ENDBRANCH 106 110
ENDBRANCH  85 106
ENDBRANCH  83  85
ENDBRANCH  79  81
BRANCH  79 114
ATOM    114  CB  LEU d   1      64.650   8.434 -13.140  0.00  0.00    -0.035 C 
ATOM    115  H   LEU d   1      65.640   8.717 -13.526  0.00  0.00     0.037 H 
ATOM    116  H   LEU d   1      64.581   7.338 -13.074  0.00  0.00     0.037 H 
BRANCH 114 117
ATOM    117  CG  LEU d   1      64.505   9.005 -11.739  0.00  0.00    -0.059 C 
ATOM    118  H   LEU d   1      63.725   8.462 -11.186  0.00  0.00     0.038 H 
BRANCH 117 119
ATOM    119  CD1 LEU d   1      65.847   8.831 -11.069  0.00  0.00    -0.073 C 
ATOM    120  H   LEU d   1      65.800   9.230 -10.045  0.00  0.00     0.028 H 
ATOM    121  H   LEU d   1      66.615   9.375 -11.639  0.00  0.00     0.028 H 
ATOM    122  H   LEU d   1      66.104   7.762 -11.035  0.00  0.00     0.028 H 
ENDBRANCH 117 119
BRANCH 117 123
ATOM    123  CD2 LEU d   1      64.157  10.486 -11.791  0.00  0.00    -0.073 C 
ATOM    124  H   LEU d   1      63.180  10.616 -12.279  0.00  0.00     0.028 H 
ATOM    125  H   LEU d   1      64.927  11.024 -12.364  0.00  0.00     0.028 H 
ATOM    126  H   LEU d   1      64.113  10.888 -10.768  0.00  0.00     0.028 H 
ENDBRANCH 117 123
ENDBRANCH 114 117
ENDBRANCH  79 114
ENDBRANCH  77  79
ENDBRANCH  73  75
BRANCH  73 127
ATOM    127  CB  ILE d   1      58.980   9.865 -13.505  0.00  0.00    -0.030 C 
ATOM    128  H   ILE d   1      59.133  10.947 -13.375  0.00  0.00     0.043 H 
BRANCH 127 129
ATOM    129  CG1 ILE d   1      57.622   9.500 -12.892  0.00  0.00    -0.063 C 
ATOM    130  H   ILE d   1      56.850  10.107 -13.388  0.00  0.00     0.033 H 
ATOM    131  H   ILE d   1      57.653   9.751 -11.821  0.00  0.00     0.033 H 
BRANCH 129 132
ATOM    132  CD1 ILE d   1      57.236   8.071 -13.019  0.00  0.00    -0.076 C 
ATOM    133  H   ILE d   1      56.253   7.914 -12.551  0.00  0.00     0.027 H 
ATOM    134  H   ILE d   1      57.986   7.442 -12.517  0.00  0.00     0.027 H 
ATOM    135  H   ILE d   1      57.183   7.799 -14.083  0.00  0.00     0.027 H 
ENDBRANCH 129 132
ENDBRANCH 127 129
BRANCH 127 136
ATOM    136  CG2 ILE d   1      59.022   9.552 -15.000  0.00  0.00    -0.071 C 
ATOM    137  H   ILE d   1      60.008   9.826 -15.404  0.00  0.00     0.028 H 
ATOM    138  H   ILE d   1      58.241  10.128 -15.517  0.00  0.00     0.028 H 
ATOM    139  H   ILE d   1      58.848   8.477 -15.155  0.00  0.00     0.028 H 
ENDBRANCH 127 136
ENDBRANCH  73 127
ENDBRANCH   3  73
TORSDOF 43
