REMARK  3 active torsions:
REMARK  status: ('A' for Active; 'I' for Inactive)
REMARK    1  A    between atoms: N10_17  and  C6_6 
REMARK    2  A    between atoms: C9_7  and  C10_11 
REMARK    3  A    between atoms: C9_7  and  N10_17 
ROOT
ATOM      1  C9  EMU d   1     -14.548 -37.593 -25.844  0.00  0.00     0.018 C 
ATOM      2  H2  EMU d   1     -14.552 -37.999 -26.866  0.00  0.00     0.071 H 
ATOM      3  H3  EMU d   1     -13.554 -37.181 -25.617  0.00  0.00     0.071 H 
ENDROOT
BRANCH   1   4
ATOM      4  C10 EMU d   1     -14.868 -38.694 -24.868  0.00  0.00    -0.041 A 
ATOM      5  C11 EMU d   1     -15.708 -39.725 -25.246  0.00  0.00    -0.075 A 
ATOM      6  C12 EMU d   1     -16.002 -40.737 -24.353  0.00  0.00    -0.082 A 
ATOM      7  H6  EMU d   1     -16.135 -39.739 -26.242  0.00  0.00     0.084 H 
ATOM      8  C13 EMU d   1     -15.456 -40.717 -23.082  0.00  0.00    -0.083 A 
ATOM      9  H7  EMU d   1     -16.660 -41.546 -24.648  0.00  0.00     0.083 H 
ATOM     10  C14 EMU d   1     -14.615 -39.686 -22.704  0.00  0.00    -0.082 A 
ATOM     11  H8  EMU d   1     -15.688 -41.511 -22.381  0.00  0.00     0.083 H 
ATOM     12  C15 EMU d   1     -14.321 -38.674 -23.598  0.00  0.00    -0.075 A 
ATOM     13  H9  EMU d   1     -14.187 -39.672 -21.708  0.00  0.00     0.083 H 
ATOM     14  H10 EMU d   1     -13.662 -37.865 -23.304  0.00  0.00     0.084 H 
ENDBRANCH   1   4
BRANCH   1  15
ATOM     15  N10 EMU d   1     -15.551 -36.530 -25.739  0.00  0.00    -0.369 N 
ATOM     16  H11 EMU d   1     -15.676 -36.022 -24.852  0.00  0.00     0.161 HD
BRANCH  15  17
ATOM     17  C6  EMU d   1     -16.331 -36.211 -26.839  0.00  0.00     0.156 A 
ATOM     18  N1  EMU d   1     -16.779 -37.157 -27.660  0.00  0.00    -0.222 NA
ATOM     19  C2  EMU d   1     -17.516 -36.852 -28.712  0.00  0.00     0.091 A 
ATOM     20  N3  EMU d   1     -17.842 -35.614 -29.009  0.00  0.00    -0.220 NA
ATOM     21  H1  EMU d   1     -17.865 -37.652 -29.355  0.00  0.00     0.146 H 
ATOM     22  C4  EMU d   1     -17.431 -34.602 -28.241  0.00  0.00     0.182 A 
ATOM     23  C5  EMU d   1     -16.648 -34.883 -27.113  0.00  0.00     0.127 A 
ATOM     24  N9  EMU d   1     -17.590 -33.268 -28.276  0.00  0.00    -0.222 NA
ATOM     25  N7  EMU d   1     -16.374 -33.669 -26.519  0.00  0.00    -0.345 N 
ATOM     26  C8  EMU d   1     -16.971 -32.718 -27.269  0.00  0.00     0.067 A 
ATOM     27  H4  EMU d   1     -15.819 -33.517 -25.665  0.00  0.00     0.167 HD
ATOM     28  H5  EMU d   1     -16.940 -31.649 -27.063  0.00  0.00     0.143 H 
ENDBRANCH  15  17
ENDBRANCH   1  15
TORSDOF 3
