REMARK  0 active torsions:
REMARK  status: ('A' for Active; 'I' for Inactive)
ROOT
ATOM      1  N3  36N d   1     -17.412 -33.311 -28.442  0.00  0.00    -0.349 N 
ATOM      2  C5  36N d   1     -17.425 -34.679 -28.319  0.00  0.00     0.156 A 
ATOM      3  C6  36N d   1     -16.821 -34.993 -27.081  0.00  0.00     0.103 A 
ATOM      4  C8  36N d   1     -17.149 -37.222 -27.488  0.00  0.00     0.020 A 
ATOM      5  C1  36N d   1     -16.447 -33.711 -26.479  0.00  0.00    -0.037 A 
ATOM      6  C2  36N d   1     -16.828 -32.751 -27.338  0.00  0.00    -0.019 A 
ATOM      7  N7  36N d   1     -16.700 -36.262 -26.702  0.00  0.00    -0.256 NA
ATOM      8  C9  36N d   1     -17.744 -36.914 -28.705  0.00  0.00     0.021 A 
ATOM      9  N10 36N d   1     -17.869 -35.658 -29.096  0.00  0.00    -0.240 NA
ATOM     10  H1  36N d   1     -17.786 -32.785 -29.245  0.00  0.00     0.167 HD
ATOM     11  H2  36N d   1     -17.053 -38.258 -27.182  0.00  0.00     0.117 H 
ATOM     12  H3  36N d   1     -15.954 -33.564 -25.519  0.00  0.00     0.089 H 
ATOM     13  H4  36N d   1     -16.692 -31.682 -27.179  0.00  0.00     0.111 H 
ATOM     14  H5  36N d   1     -18.110 -37.712 -29.340  0.00  0.00     0.117 H 
ENDROOT
TORSDOF 0
