REMARK  1 active torsions:
REMARK  status: ('A' for Active; 'I' for Inactive)
REMARK    1  A    between atoms: C8_4  and  C11_10 
ROOT
ATOM      1  N3  363 d   1      12.486  -8.789   0.900  0.00  0.00    -0.349 N 
ATOM      2  C5  363 d   1      13.701  -9.255   0.455  0.00  0.00     0.156 A 
ATOM      3  C6  363 d   1      14.288  -9.982   1.513  0.00  0.00     0.104 A 
ATOM      4  C8  363 d   1      16.117 -10.434   0.191  0.00  0.00     0.088 A 
ATOM      5  C1  363 d   1      13.331  -9.914   2.619  0.00  0.00    -0.036 A 
ATOM      6  C2  363 d   1      12.280  -9.191   2.190  0.00  0.00    -0.019 A 
ATOM      7  N7  363 d   1      15.483 -10.548   1.355  0.00  0.00    -0.243 NA
ATOM      8  C9  363 d   1      15.531  -9.706  -0.848  0.00  0.00     0.033 A 
ATOM      9  N10 363 d   1      14.349  -9.142  -0.697  0.00  0.00    -0.239 NA
ATOM     10  H1  363 d   1      11.830  -8.222   0.344  0.00  0.00     0.167 HD
ATOM     11  H2  363 d   1      13.448 -10.364   3.604  0.00  0.00     0.089 H 
ATOM     12  H3  363 d   1      11.396  -8.960   2.783  0.00  0.00     0.111 H 
ATOM     13  H4  363 d   1      16.056  -9.604  -1.791  0.00  0.00     0.118 H 
ENDROOT
BRANCH   4  14
ATOM     14  C11 363 d   1      17.458 -11.041  -0.012  0.00  0.00     0.030 A 
ATOM     15  C12 363 d   1      18.408 -11.218   0.950  0.00  0.00     0.035 A 
ATOM     16  N13 363 d   1      19.483 -11.779   0.365  0.00  0.00    -0.187 NA
ATOM     17  H5  363 d   1      18.314 -10.953   2.002  0.00  0.00     0.118 H 
ATOM     18  N15 363 d   1      19.205 -11.952  -0.998  0.00  0.00    -0.289 N 
ATOM     19  C16 363 d   1      17.998 -11.504  -1.230  0.00  0.00     0.009 A 
ATOM     20  H6  363 d   1      19.841 -12.361  -1.697  0.00  0.00     0.188 HD
ATOM     21  H7  363 d   1      17.497 -11.491  -2.197  0.00  0.00     0.115 H 
ENDBRANCH   4  14
TORSDOF 1
