REMARK  2 active torsions:
REMARK  status: ('A' for Active; 'I' for Inactive)
REMARK    1  A    between atoms: C7_3  and  C3_10 
REMARK    2  A    between atoms: C14_16  and  C17_6 
ROOT
ATOM      1  C7  362 d   1      36.534 -44.222  39.435  0.00  0.00     0.024 A 
ATOM      2  C8  362 d   1      37.586 -43.597  40.018  0.00  0.00    -0.008 A 
ATOM      3  C15 362 d   1      34.171 -44.458  42.796  0.00  0.00     0.033 A 
ATOM      4  N9  362 d   1      37.319 -43.391  41.339  0.00  0.00    -0.348 N 
ATOM      5  C11 362 d   1      36.073 -43.877  41.660  0.00  0.00     0.157 A 
ATOM      6  C12 362 d   1      35.522 -44.417  40.483  0.00  0.00     0.116 A 
ATOM      7  N13 362 d   1      34.310 -44.962  40.498  0.00  0.00    -0.242 NA
ATOM      8  C14 362 d   1      33.620 -44.996  41.629  0.00  0.00     0.088 A 
ATOM      9  N16 362 d   1      35.372 -43.916  42.787  0.00  0.00    -0.239 NA
ATOM     10  H3  362 d   1      38.503 -43.304  39.509  0.00  0.00     0.112 H 
ATOM     11  H4  362 d   1      33.603 -44.487  43.719  0.00  0.00     0.118 H 
ATOM     12  H8  362 d   1      37.961 -42.935  42.004  0.00  0.00     0.167 HD
ENDROOT
BRANCH   1  13
ATOM     13  C3  362 d   1      36.408 -44.618  38.013  0.00  0.00    -0.005 A 
ATOM     14  C4  362 d   1      35.414 -45.511  37.618  0.00  0.00     0.013 A 
ATOM     15  N5  362 d   1      35.291 -45.858  36.354  0.00  0.00    -0.272 NA
ATOM     16  H1  362 d   1      34.737 -45.923  38.357  0.00  0.00     0.116 H 
ATOM     17  C6  362 d   1      36.088 -45.378  35.418  0.00  0.00     0.002 A 
ATOM     18  C1  362 d   1      37.094 -44.483  35.728  0.00  0.00    -0.065 A 
ATOM     19  H2  362 d   1      35.951 -45.691  34.389  0.00  0.00     0.114 H 
ATOM     20  C2  362 d   1      37.263 -44.086  37.043  0.00  0.00    -0.069 A 
ATOM     21  H6  362 d   1      37.743 -44.096  34.951  0.00  0.00     0.085 H 
ATOM     22  H7  362 d   1      38.039 -43.380  37.314  0.00  0.00     0.085 H 
ENDBRANCH   1  13
BRANCH   8  23
ATOM     23  C17 362 d   1      32.265 -45.606  41.644  0.00  0.00     0.030 A 
ATOM     24  C22 362 d   1      31.603 -46.190  40.545  0.00  0.00     0.035 A 
ATOM     25  N21 362 d   1      30.435 -46.615  40.949  0.00  0.00    -0.187 NA
ATOM     26  H5  362 d   1      31.997 -46.273  39.533  0.00  0.00     0.118 H 
ATOM     27  N19 362 d   1      30.306 -46.323  42.312  0.00  0.00    -0.289 N 
ATOM     28  C18 362 d   1      31.432 -45.706  42.722  0.00  0.00     0.009 A 
ATOM     29  H10 362 d   1      29.490 -46.542  42.901  0.00  0.00     0.188 HD
ATOM     30  H9  362 d   1      31.640 -45.351  43.730  0.00  0.00     0.115 H 
ENDBRANCH   8  23
TORSDOF 2
