REMARK  5 active torsions:
REMARK  status: ('A' for Active; 'I' for Inactive)
REMARK    1  A    between atoms: C9_15  and  C6_2 
REMARK    2  A    between atoms: C2_11  and  C1_10 
REMARK    3  A    between atoms: C3_12  and  C2_11 
REMARK    4  A    between atoms: N4_13  and  C3_12 
REMARK    5  A    between atoms: C16_19  and  C19_21 
ROOT
ATOM      1  C10 35X d   1      -0.200   8.819  12.973  0.00  0.00    -0.008 A 
ATOM      2  C13 35X d   1      -2.217   8.984  13.930  0.00  0.00     0.157 A 
ATOM      3  C17 35X d   1      -3.907   9.538  15.378  0.00  0.00     0.033 A 
ATOM      4  C9  35X d   1      -0.008   9.582  14.084  0.00  0.00     0.025 A 
ATOM      5  N11 35X d   1      -1.518   8.462  12.867  0.00  0.00    -0.348 N 
ATOM      6  C14 35X d   1      -1.310   9.702  14.745  0.00  0.00     0.116 A 
ATOM      7  N15 35X d   1      -1.729  10.317  15.844  0.00  0.00    -0.242 NA
ATOM      8  C16 35X d   1      -3.014  10.260  16.170  0.00  0.00     0.085 A 
ATOM      9  N18 35X d   1      -3.489   8.924  14.285  0.00  0.00    -0.239 NA
ATOM     10  H3  35X d   1       0.581   8.534  12.270  0.00  0.00     0.112 H 
ATOM     11  H4  35X d   1      -4.952   9.480  15.661  0.00  0.00     0.118 H 
ATOM     12  H15 35X d   1      -1.922   7.892  12.110  0.00  0.00     0.167 HD
ENDROOT
BRANCH   4  13
ATOM     13  C6  35X d   1       1.273  10.153  14.569  0.00  0.00     0.014 A 
ATOM     14  C5  35X d   1       1.489  10.731  15.791  0.00  0.00     0.011 A 
ATOM     15  N4  35X d   1       2.793  11.090  15.840  0.00  0.00    -0.280 N 
ATOM     16  H1  35X d   1       0.749  10.875  16.577  0.00  0.00     0.115 H 
ATOM     17  N8  35X d   1       3.393  10.729  14.626  0.00  0.00    -0.184 NA
ATOM     18  C7  35X d   1       2.493  10.163  13.867  0.00  0.00     0.034 A 
ATOM     19  H2  35X d   1       2.658   9.768  12.866  0.00  0.00     0.118 H 
BRANCH  15  20
ATOM     20  C3  35X d   1       3.468  11.746  16.964  0.00  0.00     0.016 C 
ATOM     21  H13 35X d   1       4.291  12.374  16.594  0.00  0.00     0.067 H 
ATOM     22  H14 35X d   1       2.753  12.369  17.521  0.00  0.00     0.067 H 
BRANCH  20  23
ATOM     23  C2  35X d   1       4.020  10.640  17.874  0.00  0.00    -0.052 C 
ATOM     24  H11 35X d   1       3.182  10.072  18.304  0.00  0.00     0.035 H 
ATOM     25  H12 35X d   1       4.655   9.965  17.281  0.00  0.00     0.035 H 
BRANCH  23  26
ATOM     26  C1  35X d   1       4.856  11.255  19.014  0.00  0.00    -0.075 C 
ATOM     27  H8  35X d   1       5.245  10.452  19.658  0.00  0.00     0.027 H 
ATOM     28  H9  35X d   1       4.223  11.929  19.610  0.00  0.00     0.027 H 
ATOM     29  H10 35X d   1       5.696  11.823  18.587  0.00  0.00     0.027 H 
ENDBRANCH  23  26
ENDBRANCH  20  23
ENDBRANCH  15  20
ENDBRANCH   4  13
BRANCH   8  30
ATOM     30  C19 35X d   1      -3.534  10.915  17.389  0.00  0.00    -0.003 A 
ATOM     31  C20 35X d   1      -2.729  11.132  18.505  0.00  0.00    -0.054 A 
ATOM     32  C21 35X d   1      -3.285  11.739  19.618  0.00  0.00     0.003 A 
ATOM     33  H5  35X d   1      -1.688  10.831  18.502  0.00  0.00     0.087 H 
ATOM     34  N22 35X d   1      -4.556  12.109  19.627  0.00  0.00    -0.273 NA
ATOM     35  H6  35X d   1      -2.671  11.914  20.494  0.00  0.00     0.114 H 
ATOM     36  C23 35X d   1      -5.344  11.911  18.594  0.00  0.00     0.003 A 
ATOM     37  C24 35X d   1      -4.872  11.308  17.448  0.00  0.00    -0.054 A 
ATOM     38  H16 35X d   1      -6.380  12.226  18.644  0.00  0.00     0.114 H 
ATOM     39  H7  35X d   1      -5.531  11.141  16.604  0.00  0.00     0.087 H 
ENDBRANCH   8  30
TORSDOF 5
