REMARK  4 active torsions:
REMARK  status: ('A' for Active; 'I' for Inactive)
REMARK    1  A    between atoms: C7_4  and  C4_1 
REMARK    2  A    between atoms: N8_16  and  C7_4 
REMARK    3  A    between atoms: C13_7  and  C10_5 
REMARK    4  A    between atoms: C20_9  and  C23_24 
ROOT
ATOM      1  C13 35W d   1       3.315 -54.145 -60.710  0.00  0.00     0.025 A 
ATOM      2  C17 35W d   1       4.797 -54.733 -62.374  0.00  0.00     0.157 A 
ATOM      3  C20 35W d   1       5.927 -52.306 -62.632  0.00  0.00     0.085 A 
ATOM      4  C21 35W d   1       6.336 -53.390 -63.413  0.00  0.00     0.033 A 
ATOM      5  C14 35W d   1       3.156 -55.454 -61.019  0.00  0.00    -0.008 A 
ATOM      6  N15 35W d   1       4.034 -55.814 -62.004  0.00  0.00    -0.348 N 
ATOM      7  C18 35W d   1       4.382 -53.637 -61.584  0.00  0.00     0.116 A 
ATOM      8  N19 35W d   1       4.960 -52.453 -61.735  0.00  0.00    -0.242 NA
ATOM      9  N22 35W d   1       5.766 -54.569 -63.267  0.00  0.00    -0.239 NA
ATOM     10  H5  35W d   1       7.127 -53.260 -64.143  0.00  0.00     0.118 H 
ATOM     11  H13 35W d   1       2.434 -56.122 -60.551  0.00  0.00     0.112 H 
ATOM     12  H14 35W d   1       4.112 -56.758 -62.409  0.00  0.00     0.167 HD
ENDROOT
BRANCH   1  13
ATOM     13  C10 35W d   1       2.546 -53.372 -59.700  0.00  0.00     0.014 A 
ATOM     14  C9  35W d   1       2.934 -52.212 -59.098  0.00  0.00     0.011 A 
ATOM     15  N8  35W d   1       1.944 -51.842 -58.256  0.00  0.00    -0.276 N 
ATOM     16  H11 35W d   1       3.870 -51.681 -59.265  0.00  0.00     0.115 H 
ATOM     17  N12 35W d   1       0.924 -52.796 -58.331  0.00  0.00    -0.184 NA
ATOM     18  C11 35W d   1       1.277 -53.712 -59.192  0.00  0.00     0.034 A 
ATOM     19  H12 35W d   1       0.692 -54.587 -59.469  0.00  0.00     0.118 H 
BRANCH  15  20
ATOM     20  C7  35W d   1       1.942 -50.654 -57.400  0.00  0.00     0.040 C 
ATOM     21  H3  35W d   1       2.324 -49.787 -57.959  0.00  0.00     0.074 H 
ATOM     22  H4  35W d   1       0.920 -50.444 -57.050  0.00  0.00     0.074 H 
BRANCH  20  23
ATOM     23  C4  35W d   1       2.838 -50.947 -56.227  0.00  0.00    -0.038 A 
ATOM     24  C5  35W d   1       4.179 -50.616 -56.285  0.00  0.00    -0.075 A 
ATOM     25  C6  35W d   1       5.002 -50.893 -55.210  0.00  0.00    -0.082 A 
ATOM     26  H1  35W d   1       4.584 -50.141 -57.171  0.00  0.00     0.084 H 
ATOM     27  C1  35W d   1       4.484 -51.504 -54.083  0.00  0.00    -0.083 A 
ATOM     28  H2  35W d   1       6.053 -50.631 -55.250  0.00  0.00     0.083 H 
ATOM     29  C2  35W d   1       3.144 -51.836 -54.027  0.00  0.00    -0.082 A 
ATOM     30  H8  35W d   1       5.131 -51.723 -53.241  0.00  0.00     0.083 H 
ATOM     31  C3  35W d   1       2.321 -51.560 -55.102  0.00  0.00    -0.075 A 
ATOM     32  H9  35W d   1       2.739 -52.312 -53.141  0.00  0.00     0.083 H 
ATOM     33  H10 35W d   1       1.270 -51.824 -55.063  0.00  0.00     0.084 H 
ENDBRANCH  20  23
ENDBRANCH  15  20
ENDBRANCH   1  13
BRANCH   3  34
ATOM     34  C23 35W d   1       6.575 -50.983 -62.804  0.00  0.00    -0.003 A 
ATOM     35  C24 35W d   1       6.191 -49.890 -62.019  0.00  0.00    -0.054 A 
ATOM     36  C25 35W d   1       6.819 -48.677 -62.210  0.00  0.00     0.003 A 
ATOM     37  H6  35W d   1       5.412 -49.995 -61.272  0.00  0.00     0.087 H 
ATOM     38  N26 35W d   1       7.768 -48.546 -63.117  0.00  0.00    -0.273 NA
ATOM     39  H15 35W d   1       6.530 -47.823 -61.609  0.00  0.00     0.114 H 
ATOM     40  C27 35W d   1       8.160 -49.552 -63.876  0.00  0.00     0.003 A 
ATOM     41  C28 35W d   1       7.585 -50.799 -63.753  0.00  0.00    -0.054 A 
ATOM     42  H16 35W d   1       8.945 -49.396 -64.607  0.00  0.00     0.114 H 
ATOM     43  H7  35W d   1       7.910 -51.621 -64.380  0.00  0.00     0.087 H 
ENDBRANCH   3  34
TORSDOF 4
