REMARK  6 active torsions:
REMARK  status: ('A' for Active; 'I' for Inactive)
REMARK    1  A    between atoms: C20_10  and  C13_7 
REMARK    2  A    between atoms: C13_7  and  C1_11 
REMARK    3  A    between atoms: C15_8  and  N25_25 
REMARK       I    between atoms: N25_25  and  C20_10 
REMARK    4  A    between atoms: N24_24  and  C14_17 
REMARK    5  A    between atoms: C18_19  and  N24_24 
REMARK    6  A    between atoms: C19_20  and  N26_26 
ROOT
ATOM      1  C7  37Q d   1     -17.130  -3.065  16.279  0.00  0.00    -0.055 A 
ATOM      2  C8  37Q d   1     -17.481  -1.790  15.893  0.00  0.00    -0.051 A 
ATOM      3  C15 37Q d   1     -17.145  -4.125  15.397  0.00  0.00     0.037 A 
ATOM      4  C17 37Q d   1     -17.828  -2.706  13.696  0.00  0.00     0.073 A 
ATOM      5  C9  37Q d   1     -17.499  -3.984  14.079  0.00  0.00    -0.029 A 
ATOM      6  C12 37Q d   1     -18.463  -0.872  12.678  0.00  0.00     0.073 A 
ATOM      7  C16 37Q d   1     -17.833  -1.635  14.562  0.00  0.00     0.085 A 
ATOM      8  N22 37Q d   1     -18.222  -0.499  13.912  0.00  0.00    -0.241 NA
ATOM      9  N26 37Q d   1     -18.236  -2.202  12.493  0.00  0.00    -0.287 N 
ATOM     10  H4  37Q d   1     -16.833  -3.240  17.307  0.00  0.00     0.087 H 
ATOM     11  H5  37Q d   1     -17.482  -0.959  16.588  0.00  0.00     0.087 H 
ATOM     12  H14 37Q d   1     -17.518  -4.820  13.390  0.00  0.00     0.090 H 
ATOM     13  H16 37Q d   1     -18.804  -0.198  11.894  0.00  0.00     0.144 H 
ENDROOT
BRANCH   9  14
ATOM     14  C19 37Q d   1     -18.475  -2.895  11.300  0.00  0.00     0.155 A 
ATOM     15  C11 37Q d   1     -18.519  -2.167  10.124  0.00  0.00     0.047 A 
ATOM     16  N21 37Q d   1     -18.738  -2.740   8.938  0.00  0.00    -0.265 NA
ATOM     17  H15 37Q d   1     -18.370  -1.094  10.167  0.00  0.00     0.120 H 
ATOM     18  C10 37Q d   1     -18.892  -4.069   8.983  0.00  0.00     0.046 A 
ATOM     19  C18 37Q d   1     -18.842  -4.811  10.146  0.00  0.00     0.148 A 
ATOM     20  H6  37Q d   1     -19.066  -4.594   8.051  0.00  0.00     0.120 H 
ATOM     21  N23 37Q d   1     -18.619  -4.223  11.328  0.00  0.00    -0.210 NA
BRANCH  19  22
ATOM     22  N24 37Q d   1     -19.014  -6.195  10.012  0.00  0.00    -0.340 N 
ATOM     23  H17 37Q d   1     -18.892  -6.592   9.069  0.00  0.00     0.167 HD
BRANCH  22  24
ATOM     24  C14 37Q d   1     -19.339  -7.094  11.047  0.00  0.00     0.033 A 
ATOM     25  C5  37Q d   1     -19.182  -8.444  10.802  0.00  0.00    -0.057 A 
ATOM     26  C3  37Q d   1     -19.497  -9.369  11.780  0.00  0.00    -0.081 A 
ATOM     27  H2  37Q d   1     -18.811  -8.779   9.840  0.00  0.00     0.086 H 
ATOM     28  C2  37Q d   1     -19.965  -8.936  13.005  0.00  0.00    -0.083 A 
ATOM     29  H13 37Q d   1     -19.377 -10.429  11.586  0.00  0.00     0.083 H 
ATOM     30  C4  37Q d   1     -20.143  -7.594  13.267  0.00  0.00    -0.081 A 
ATOM     31  H12 37Q d   1     -20.197  -9.664  13.774  0.00  0.00     0.083 H 
ATOM     32  C6  37Q d   1     -19.834  -6.687  12.277  0.00  0.00    -0.057 A 
ATOM     33  H1  37Q d   1     -20.517  -7.261  14.228  0.00  0.00     0.083 H 
ATOM     34  H3  37Q d   1     -19.981  -5.630  12.464  0.00  0.00     0.086 H 
ENDBRANCH  22  24
ENDBRANCH  19  22
ENDBRANCH   9  14
BRANCH   3  35
ATOM     35  N25 37Q d   1     -16.825  -5.440  15.739  0.00  0.00    -0.327 N 
ATOM     36  C20 37Q d   1     -16.488  -5.881  16.974  0.00  0.00     0.221 C 
ATOM     37  O27 37Q d   1     -16.198  -5.202  17.949  0.00  0.00    -0.273 OA
ATOM     38  H18 37Q d   1     -16.847  -6.118  15.005  0.00  0.00     0.169 HD
BRANCH  36  39
ATOM     39  C13 37Q d   1     -16.512  -7.377  16.977  0.00  0.00     0.006 C 
ATOM     40  H7  37Q d   1     -15.504  -7.774  17.165  0.00  0.00     0.046 H 
ATOM     41  H8  37Q d   1     -16.881  -7.754  16.012  0.00  0.00     0.046 H 
BRANCH  39  42
ATOM     42  C1  37Q d   1     -17.444  -7.779  18.083  0.00  0.00    -0.068 C 
ATOM     43  H9  37Q d   1     -17.502  -8.876  18.133  0.00  0.00     0.028 H 
ATOM     44  H10 37Q d   1     -18.445  -7.368  17.887  0.00  0.00     0.028 H 
ATOM     45  H11 37Q d   1     -17.068  -7.388  19.040  0.00  0.00     0.028 H 
ENDBRANCH  39  42
ENDBRANCH  36  39
ENDBRANCH   3  35
TORSDOF 6
