REMARK WARNING: 32 MAX_TORS EXCEEDED!!!
REMARK  43 active torsions:
REMARK  status: ('A' for Active; 'I' for Inactive)
REMARK    1  A    between atoms: N_1  and  CA_2 
REMARK    2  A    between atoms: CA_2  and  C_3 
REMARK    3  A    between atoms: CA_2  and  CB_5 
REMARK       I    between atoms: C_3  and  N_6 
REMARK    4  A    between atoms: N_6  and  CA_7 
REMARK    5  A    between atoms: CA_7  and  C_8 
REMARK    6  A    between atoms: CA_7  and  CB_10 
REMARK       I    between atoms: C_8  and  N_17 
REMARK    7  A    between atoms: CB_10  and  CG_11 
REMARK    8  A    between atoms: CG_11  and  CD_12 
REMARK    9  A    between atoms: CD_12  and  NE_13 
REMARK       I    between atoms: NE_13  and  CZ_14 
REMARK       I    between atoms: CZ_14  and  NH1_15 
REMARK       I    between atoms: CZ_14  and  NH2_16 
REMARK   10  A    between atoms: N_17  and  CA_18 
REMARK   11  A    between atoms: CA_18  and  C_19 
REMARK   12  A    between atoms: CA_18  and  CB_21 
REMARK       I    between atoms: C_19  and  N_24 
REMARK   13  A    between atoms: CB_21  and  OG1_22 
REMARK   14  A    between atoms: CB_21  and  CG2_23 
REMARK   15  A    between atoms: N_24  and  CA_25 
REMARK   16  A    between atoms: CA_25  and  CB_26 
REMARK   17  A    between atoms: CA_25  and  C_31 
REMARK   18  A    between atoms: CB_26  and  CG_27 
REMARK   19  A    between atoms: CG_27  and  CD_28 
REMARK   20  A    between atoms: CD_28  and  CE_29 
REMARK   21  A    between atoms: CE_29  and  NZ_30 
REMARK   22  A    between atoms: NZ_30  and  CM1_33 
REMARK   23  A    between atoms: NZ_30  and  CM2_34 
REMARK   24  A    between atoms: NZ_30  and  CM3_35 
REMARK       I    between atoms: C_31  and  N_36 
REMARK   25  A    between atoms: N_36  and  CA_37 
REMARK   26  A    between atoms: CA_37  and  C_38 
REMARK   27  A    between atoms: CA_37  and  CB_40 
REMARK       I    between atoms: C_38  and  N_45 
REMARK   28  A    between atoms: CB_40  and  CG_41 
REMARK   29  A    between atoms: CG_41  and  CD_42 
REMARK       I    between atoms: CD_42  and  NE2_44 
REMARK   30  A    between atoms: N_45  and  CA_46 
REMARK   31  A    between atoms: CA_46  and  C_47 
REMARK   32  A    between atoms: CA_46  and  CB_49 
REMARK       I    between atoms: C_47  and  N_52 
REMARK   33  A    between atoms: CB_49  and  OG1_50 
REMARK   34  A    between atoms: CB_49  and  CG2_51 
REMARK   35  A    between atoms: N_52  and  CA_53 
REMARK   36  A    between atoms: CA_53  and  C_54 
REMARK   37  A    between atoms: CA_53  and  CB_56 
REMARK       I    between atoms: C_54  and  N_57 
REMARK   38  A    between atoms: N_57  and  CA_58 
REMARK   39  A    between atoms: CA_58  and  C_59 
REMARK   40  A    between atoms: CA_58  and  CB_61 
REMARK       I    between atoms: C_59  and  N_68 
REMARK   41  A    between atoms: CB_61  and  CG_62 
REMARK   42  A    between atoms: CG_62  and  CD_63 
REMARK   43  A    between atoms: CD_63  and  NE_64 
REMARK       I    between atoms: NE_64  and  CZ_65 
REMARK       I    between atoms: CZ_65  and  NH1_66 
ROOT
ATOM      1  CA  M3L d   1      10.823  13.482   1.765  0.00  0.00     0.089 C 
ATOM      2  H29 M3L d   1      11.461  12.607   1.956  0.00  0.00     0.087 H 
ENDROOT
BRANCH   1   3
ATOM      3  N   M3L d   1      10.619  14.190   3.045  0.00  0.00    -0.346 N 
ATOM      4  C   THR d   1      10.713  13.598   4.230  0.00  0.00     0.243 C 
ATOM      5  O   THR d   1      10.827  12.380   4.399  0.00  0.00    -0.271 OA
ATOM      6  H28 M3L d   1      10.399  15.165   3.018  0.00  0.00     0.163 HD
BRANCH   4   7
ATOM      7  CA  THR d   1      10.657  14.538   5.418  0.00  0.00     0.113 C 
ATOM      8  H22 THR d   1       9.888  15.299   5.221  0.00  0.00     0.091 H 
BRANCH   7   9
ATOM      9  N   THR d   1      10.271  13.844   6.629  0.00  0.00    -0.344 N 
ATOM     10  C   ARG d   1       9.320  14.332   7.417  0.00  0.00     0.241 C 
ATOM     11  O   ARG d   1       8.606  15.295   7.073  0.00  0.00    -0.271 OA
ATOM     12  H21 THR d   1      10.726  12.988   6.875  0.00  0.00     0.163 HD
BRANCH  10  13
ATOM     13  CA  ARG d   1       9.071  13.566   8.711  0.00  0.00     0.089 C 
ATOM     14  H9  ARG d   1       9.856  12.804   8.821  0.00  0.00     0.087 H 
BRANCH  13  15
ATOM     15  N   ARG d   1       9.122  14.449   9.861  0.00  0.00    -0.346 N 
ATOM     16  C   ALA d   1      10.204  14.551  10.646  0.00  0.00     0.248 C 
ATOM     17  O   ALA d   1      11.166  13.765  10.606  0.00  0.00    -0.271 OA
ATOM     18  H8  ARG d   1       8.318  15.004  10.077  0.00  0.00     0.163 HD
BRANCH  16  19
ATOM     19  CA  ALA d   1      10.196  15.709  11.645  0.00  0.00     0.172 C 
ATOM     20  H4  ALA d   1       9.233  15.712  12.177  0.00  0.00     0.098 H 
BRANCH  19  21
ATOM     21  N   ALA d   1      11.307  15.539  12.649  0.00  0.00    -0.067 N 
ATOM     22  H1  ALA d   1      11.291  16.308  13.301  0.00  0.00     0.275 HD
ATOM     23  H2  ALA d   1      12.194  15.523  12.170  0.00  0.00     0.275 HD
ATOM     24  H3  ALA d   1      11.179  14.672  13.148  0.00  0.00     0.275 HD
ENDBRANCH  19  21
BRANCH  19  25
ATOM     25  CB  ALA d   1      10.356  17.018  10.920  0.00  0.00    -0.042 C 
ATOM     26  H5  ALA d   1       9.542  17.134  10.190  0.00  0.00     0.030 H 
ATOM     27  H6  ALA d   1      11.323  17.031  10.396  0.00  0.00     0.030 H 
ATOM     28  H7  ALA d   1      10.320  17.845  11.644  0.00  0.00     0.030 H 
ENDBRANCH  19  25
ENDBRANCH  16  19
ENDBRANCH  13  15
BRANCH  13  29
ATOM     29  CB  ARG d   1       7.725  12.873   8.653  0.00  0.00    -0.036 C 
ATOM     30  H10 ARG d   1       6.953  13.626   8.437  0.00  0.00     0.036 H 
ATOM     31  H11 ARG d   1       7.526  12.414   9.633  0.00  0.00     0.036 H 
BRANCH  29  32
ATOM     32  CG  ARG d   1       7.656  11.804   7.602  0.00  0.00    -0.048 C 
ATOM     33  H12 ARG d   1       8.331  10.978   7.869  0.00  0.00     0.035 H 
ATOM     34  H13 ARG d   1       7.954  12.221   6.629  0.00  0.00     0.035 H 
BRANCH  32  35
ATOM     35  CD  ARG d   1       6.240  11.297   7.525  0.00  0.00     0.009 C 
ATOM     36  H14 ARG d   1       5.582  12.105   7.173  0.00  0.00     0.064 H 
ATOM     37  H15 ARG d   1       5.915  10.968   8.523  0.00  0.00     0.064 H 
BRANCH  35  38
ATOM     38  NE  ARG d   1       6.167  10.182   6.604  0.00  0.00    -0.227 N 
ATOM     39  CZ  ARG d   1       5.060   9.748   6.020  0.00  0.00     0.665 C 
ATOM     40  NH1 ARG d   1       3.881  10.321   6.259  0.00  0.00    -0.235 N 
ATOM     41  NH2 ARG d   1       5.137   8.716   5.186  0.00  0.00    -0.235 N 
ATOM     42  H17 ARG d   1       3.033   9.967   5.794  0.00  0.00     0.174 HD
ATOM     43  H18 ARG d   1       3.818  11.118   6.909  0.00  0.00     0.174 HD
ATOM     44  H19 ARG d   1       6.047   8.271   5.000  0.00  0.00     0.174 HD
ATOM     45  H20 ARG d   1       4.287   8.361   4.726  0.00  0.00     0.174 HD
ATOM     46  H16 ARG d   1       7.044   9.688   6.386  0.00  0.00     0.177 HD
ENDBRANCH  35  38
ENDBRANCH  32  35
ENDBRANCH  29  32
ENDBRANCH  13  29
ENDBRANCH  10  13
ENDBRANCH   7   9
BRANCH   7  47
ATOM     47  CB  THR d   1      12.023  15.258   5.516  0.00  0.00     0.060 C 
ATOM     48  H23 THR d   1      12.251  15.708   4.538  0.00  0.00     0.086 H 
BRANCH  47  49
ATOM     49  OG1 THR d   1      13.070  14.312   5.857  0.00  0.00    -0.393 OA
ATOM     50  H24 THR d   1      12.871  13.909   6.694  0.00  0.00     0.210 HD
ENDBRANCH  47  49
BRANCH  47  51
ATOM     51  CG2 THR d   1      11.996  16.338   6.549  0.00  0.00    -0.050 C 
ATOM     52  H25 THR d   1      12.980  16.828   6.593  0.00  0.00     0.031 H 
ATOM     53  H26 THR d   1      11.760  15.901   7.530  0.00  0.00     0.031 H 
ATOM     54  H27 THR d   1      11.228  17.080   6.284  0.00  0.00     0.031 H 
ENDBRANCH  47  51
ENDBRANCH   7  47
ENDBRANCH   4   7
ENDBRANCH   1   3
BRANCH   1  55
ATOM     55  CB  M3L d   1       9.505  12.978   1.140  0.00  0.00    -0.038 C 
ATOM     56  H30 M3L d   1       8.952  12.408   1.901  0.00  0.00     0.036 H 
ATOM     57  H31 M3L d   1       9.748  12.320   0.293  0.00  0.00     0.036 H 
BRANCH  55  58
ATOM     58  CG  M3L d   1       8.617  14.104   0.639  0.00  0.00    -0.061 C 
ATOM     59  H32 M3L d   1       9.169  14.679  -0.119  0.00  0.00     0.033 H 
ATOM     60  H33 M3L d   1       8.367  14.760   1.486  0.00  0.00     0.033 H 
BRANCH  58  61
ATOM     61  CD  M3L d   1       7.314  13.587   0.014  0.00  0.00    -0.042 C 
ATOM     62  H34 M3L d   1       6.722  13.058   0.775  0.00  0.00     0.035 H 
ATOM     63  H35 M3L d   1       7.547  12.899  -0.812  0.00  0.00     0.035 H 
BRANCH  61  64
ATOM     64  CE  M3L d   1       6.513  14.793  -0.523  0.00  0.00     0.084 C 
ATOM     65  H36 M3L d   1       7.198  15.419  -1.113  0.00  0.00     0.076 H 
ATOM     66  H37 M3L d   1       6.144  15.366   0.340  0.00  0.00     0.076 H 
BRANCH  64  67
ATOM     67  NZ  M3L d   1       5.348  14.456  -1.381  0.00  0.00    -0.079 N 
BRANCH  67  68
ATOM     68  CM1 M3L d   1       5.820  13.988  -2.707  0.00  0.00     0.067 C 
ATOM     69  H38 M3L d   1       4.954  13.740  -3.338  0.00  0.00     0.068 H 
ATOM     70  H39 M3L d   1       6.448  13.094  -2.578  0.00  0.00     0.068 H 
ATOM     71  H40 M3L d   1       6.409  14.783  -3.188  0.00  0.00     0.068 H 
ENDBRANCH  67  68
BRANCH  67  72
ATOM     72  CM2 M3L d   1       4.529  15.665  -1.597  0.00  0.00     0.067 C 
ATOM     73  H41 M3L d   1       4.163  16.038  -0.629  0.00  0.00     0.068 H 
ATOM     74  H42 M3L d   1       3.673  15.418  -2.242  0.00  0.00     0.068 H 
ATOM     75  H43 M3L d   1       5.141  16.441  -2.081  0.00  0.00     0.068 H 
ENDBRANCH  67  72
BRANCH  67  76
ATOM     76  CM3 M3L d   1       4.501  13.435  -0.741  0.00  0.00     0.067 C 
ATOM     77  H44 M3L d   1       5.092  12.523  -0.570  0.00  0.00     0.068 H 
ATOM     78  H45 M3L d   1       3.649  13.202  -1.396  0.00  0.00     0.068 H 
ATOM     79  H46 M3L d   1       4.130  13.817   0.221  0.00  0.00     0.068 H 
ENDBRANCH  67  76
ENDBRANCH  64  67
ENDBRANCH  61  64
ENDBRANCH  58  61
ENDBRANCH  55  58
ENDBRANCH   1  55
BRANCH   1  80
ATOM     80  C   M3L d   1      11.537  14.397   0.810  0.00  0.00     0.241 C 
ATOM     81  O   M3L d   1      11.632  15.624   1.021  0.00  0.00    -0.271 OA
ATOM     82  N   GLN d   1      12.059  13.794  -0.277  0.00  0.00    -0.346 N 
ATOM     83  H47 GLN d   1      11.963  12.802  -0.360  0.00  0.00     0.163 HD
BRANCH  82  84
ATOM     84  CA  GLN d   1      12.755  14.510  -1.336  0.00  0.00     0.090 C 
ATOM     85  H48 GLN d   1      12.690  15.592  -1.151  0.00  0.00     0.087 H 
BRANCH  84  86
ATOM     86  C   GLN d   1      12.121  14.169  -2.664  0.00  0.00     0.241 C 
ATOM     87  O   GLN d   1      11.695  13.031  -2.886  0.00  0.00    -0.271 OA
ATOM     88  N   THR d   1      12.000  15.165  -3.515  0.00  0.00    -0.344 N 
ATOM     89  H55 THR d   1      12.216  16.095  -3.216  0.00  0.00     0.163 HD
BRANCH  88  90
ATOM     90  CA  THR d   1      11.557  14.939  -4.887  0.00  0.00     0.113 C 
ATOM     91  H56 THR d   1      11.550  13.856  -5.081  0.00  0.00     0.091 H 
BRANCH  90  92
ATOM     92  C   THR d   1      12.583  15.599  -5.796  0.00  0.00     0.243 C 
ATOM     93  O   THR d   1      13.281  16.540  -5.409  0.00  0.00    -0.271 OA
ATOM     94  N   ALA d   1      12.699  15.108  -7.026  0.00  0.00    -0.346 N 
ATOM     95  H62 ALA d   1      12.121  14.347  -7.321  0.00  0.00     0.163 HD
BRANCH  94  96
ATOM     96  CA  ALA d   1      13.683  15.692  -7.949  0.00  0.00     0.086 C 
ATOM     97  H63 ALA d   1      14.630  15.832  -7.407  0.00  0.00     0.086 H 
BRANCH  96  98
ATOM     98  C   ALA d   1      13.195  17.040  -8.426  0.00  0.00     0.240 C 
ATOM     99  O   ALA d   1      11.995  17.231  -8.560  0.00  0.00    -0.271 OA
ATOM    100  N   ARG d   1      14.133  17.964  -8.659  0.00  0.00    -0.346 N 
ATOM    101  H67 ARG d   1      15.077  17.751  -8.408  0.00  0.00     0.163 HD
BRANCH 100 102
ATOM    102  CA  ARG d   1      13.853  19.292  -9.271  0.00  0.00     0.089 C 
ATOM    103  H68 ARG d   1      12.820  19.557  -9.003  0.00  0.00     0.087 H 
BRANCH 102 104
ATOM    104  C   ARG d   1      13.952  19.336 -10.819  0.00  0.00     0.238 C 
ATOM    105  O   ARG d   1      14.972  19.730 -11.377  0.00  0.00    -0.271 OA
ATOM    106  N   LYS d   1      12.875  18.969 -11.506  0.00  0.00    -0.368 N 
ATOM    107  H80 LYS d   1      12.892  18.981 -12.506  0.00  0.00     0.159 HD
ATOM    108  H81 LYS d   1      12.048  18.681 -11.023  0.00  0.00     0.159 HD
ENDBRANCH 102 104
BRANCH 102 109
ATOM    109  CB  ARG d   1      14.790  20.361  -8.683  0.00  0.00    -0.036 C 
ATOM    110  H69 ARG d   1      15.025  21.093  -9.470  0.00  0.00     0.036 H 
ATOM    111  H70 ARG d   1      15.716  19.871  -8.349  0.00  0.00     0.036 H 
BRANCH 109 112
ATOM    112  CG  ARG d   1      14.178  21.099  -7.501  0.00  0.00    -0.048 C 
ATOM    113  H71 ARG d   1      13.588  20.385  -6.907  0.00  0.00     0.035 H 
ATOM    114  H72 ARG d   1      13.518  21.891  -7.884  0.00  0.00     0.035 H 
BRANCH 112 115
ATOM    115  CD  ARG d   1      15.222  21.729  -6.605  0.00  0.00     0.009 C 
ATOM    116  H73 ARG d   1      16.084  22.023  -7.222  0.00  0.00     0.064 H 
ATOM    117  H74 ARG d   1      15.541  20.986  -5.860  0.00  0.00     0.064 H 
BRANCH 115 118
ATOM    118  NE  ARG d   1      14.725  22.908  -5.905  0.00  0.00    -0.227 N 
ATOM    119  CZ  ARG d   1      15.084  23.241  -4.669  0.00  0.00     0.665 C 
ATOM    120  NH1 ARG d   1      15.924  22.469  -3.990  0.00  0.00    -0.235 N 
ATOM    121  NH2 ARG d   1      14.591  24.334  -4.102  0.00  0.00    -0.235 N 
ATOM    122  H76 ARG d   1      16.202  22.728  -3.033  0.00  0.00     0.174 HD
ATOM    123  H77 ARG d   1      16.298  21.611  -4.421  0.00  0.00     0.174 HD
ATOM    124  H78 ARG d   1      13.939  24.936  -4.625  0.00  0.00     0.174 HD
ATOM    125  H79 ARG d   1      14.860  24.581  -3.139  0.00  0.00     0.174 HD
ATOM    126  H75 ARG d   1      14.057  23.518  -6.397  0.00  0.00     0.177 HD
ENDBRANCH 115 118
ENDBRANCH 112 115
ENDBRANCH 109 112
ENDBRANCH 102 109
ENDBRANCH 100 102
ENDBRANCH  96  98
BRANCH  96 127
ATOM    127  CB  ALA d   1      13.940  14.771  -9.133  0.00  0.00    -0.049 C 
ATOM    128  H64 ALA d   1      14.678  15.234  -9.804  0.00  0.00     0.030 H 
ATOM    129  H65 ALA d   1      13.000  14.606  -9.680  0.00  0.00     0.030 H 
ATOM    130  H66 ALA d   1      14.327  13.807  -8.771  0.00  0.00     0.030 H 
ENDBRANCH  96 127
ENDBRANCH  94  96
ENDBRANCH  90  92
BRANCH  90 131
ATOM    131  CB  THR d   1      10.129  15.480  -5.164  0.00  0.00     0.060 C 
ATOM    132  H57 THR d   1       9.907  15.338  -6.232  0.00  0.00     0.086 H 
BRANCH 131 133
ATOM    133  OG1 THR d   1      10.063  16.873  -4.857  0.00  0.00    -0.393 OA
ATOM    134  H58 THR d   1      10.686  17.345  -5.397  0.00  0.00     0.210 HD
ENDBRANCH 131 133
BRANCH 131 135
ATOM    135  CG2 THR d   1       9.069  14.750  -4.345  0.00  0.00    -0.050 C 
ATOM    136  H59 THR d   1       8.077  15.167  -4.574  0.00  0.00     0.031 H 
ATOM    137  H60 THR d   1       9.281  14.878  -3.273  0.00  0.00     0.031 H 
ATOM    138  H61 THR d   1       9.084  13.679  -4.597  0.00  0.00     0.031 H 
ENDBRANCH 131 135
ENDBRANCH  90 131
ENDBRANCH  88  90
ENDBRANCH  84  86
BRANCH  84 139
ATOM    139  CB  GLN d   1      14.221  14.083  -1.410  0.00  0.00    -0.030 C 
ATOM    140  H49 GLN d   1      14.749  14.765  -2.093  0.00  0.00     0.037 H 
ATOM    141  H50 GLN d   1      14.266  13.058  -1.808  0.00  0.00     0.037 H 
BRANCH 139 142
ATOM    142  CG  GLN d   1      14.918  14.109  -0.075  0.00  0.00     0.011 C 
ATOM    143  H51 GLN d   1      15.829  13.495  -0.136  0.00  0.00     0.047 H 
ATOM    144  H52 GLN d   1      14.244  13.691   0.688  0.00  0.00     0.047 H 
BRANCH 142 145
ATOM    145  CD  GLN d   1      15.300  15.515   0.326  0.00  0.00     0.215 C 
ATOM    146  OE1 GLN d   1      15.744  16.310  -0.506  0.00  0.00    -0.274 OA
ATOM    147  NE2 GLN d   1      15.141  15.831   1.604  0.00  0.00    -0.370 N 
ATOM    148  H53 GLN d   1      15.378  16.748   1.926  0.00  0.00     0.159 HD
ATOM    149  H54 GLN d   1      14.784  15.152   2.246  0.00  0.00     0.159 HD
ENDBRANCH 142 145
ENDBRANCH 139 142
ENDBRANCH  84 139
ENDBRANCH  82  84
ENDBRANCH   1  80
TORSDOF 43
