REMARK  15 active torsions:
REMARK  status: ('A' for Active; 'I' for Inactive)
REMARK    1  A    between atoms: C03_3  and  N11_11 
REMARK    2  A    between atoms: N07_7  and  C36_36 
REMARK    3  A    between atoms: C08_8  and  O35_35 
REMARK    4  A    between atoms: N09_9  and  C25_25 
REMARK    5  A    between atoms: N11_11  and  C12_12 
REMARK    6  A    between atoms: C15_15  and  N18_18 
REMARK    7  A    between atoms: N21_21  and  C24_24 
REMARK    8  A    between atoms: C27_27  and  O32_32 
REMARK    9  A    between atoms: C29_29  and  O31_31 
REMARK   10  A    between atoms: O31_31  and  C33_33 
REMARK   11  A    between atoms: O32_32  and  C34_34 
REMARK   12  A    between atoms: C36_36  and  C37_37 
REMARK   13  A    between atoms: C40_40  and  N43_43 
REMARK       I    between atoms: N43_43  and  C44_44 
REMARK   14  A    between atoms: C44_44  and  C45_45 
REMARK   15  A    between atoms: C45_45  and  C46_46 
ROOT
ATOM      1  C01 37O d   1     -64.525 146.109   2.618  0.00  0.00     0.032 A 
ATOM      2  N02 37O d   1     -64.321 147.430   2.676  0.00  0.00    -0.074 NA
ATOM      3  C03 37O d   1     -63.161 147.997   2.373  0.00  0.00     0.728 A 
ATOM      4  N04 37O d   1     -62.114 147.252   1.949  0.00  0.00    -0.044 NA
ATOM      5  C05 37O d   1     -62.229 145.901   1.846  0.00  0.00     0.158 A 
ATOM      6  C06 37O d   1     -63.461 145.287   2.188  0.00  0.00     0.025 A 
ATOM      7  N07 37O d   1     -61.142 145.079   1.385  0.00  0.00    -0.317 N 
ATOM      8  C08 37O d   1     -61.119 143.722   1.768  0.00  0.00     0.178 C 
ATOM      9  N09 37O d   1     -62.298 143.198   2.356  0.00  0.00    -0.333 N 
ATOM     10  C10 37O d   1     -63.527 143.865   2.049  0.00  0.00     0.028 C 
ATOM     11  H1  37O d   1     -65.482 145.681   2.894  0.00  0.00     0.116 H 
ATOM     12  H2  37O d   1     -61.475 143.421   0.772  0.00  0.00     0.155 H 
ATOM     13  H3  37O d   1     -63.799 143.630   1.009  0.00  0.00     0.072 H 
ATOM     14  H4  37O d   1     -64.306 143.486   2.727  0.00  0.00     0.072 H 
ENDROOT
BRANCH   3  15
ATOM     15  N11 37O d   1     -63.085 149.428   2.500  0.00  0.00    -0.188 N 
ATOM     16  H5  37O d   1     -63.971 149.919   2.688  0.00  0.00     0.184 HD
BRANCH  15  17
ATOM     17  C12 37O d   1     -61.914 150.246   2.394  0.00  0.00     0.049 A 
ATOM     18  C13 37O d   1     -62.154 151.710   2.099  0.00  0.00    -0.054 A 
ATOM     19  C14 37O d   1     -61.111 152.557   1.992  0.00  0.00    -0.055 A 
ATOM     20  H6  37O d   1     -63.166 152.078   1.974  0.00  0.00     0.087 H 
ATOM     21  C15 37O d   1     -59.677 152.046   2.175  0.00  0.00     0.038 A 
ATOM     22  H7  37O d   1     -61.287 153.605   1.776  0.00  0.00     0.087 H 
ATOM     23  C16 37O d   1     -59.446 150.737   2.448  0.00  0.00    -0.055 A 
ATOM     24  C17 37O d   1     -60.630 149.778   2.576  0.00  0.00    -0.054 A 
ATOM     25  H8  37O d   1     -58.432 150.375   2.574  0.00  0.00     0.087 H 
ATOM     26  H9  37O d   1     -60.460 148.733   2.809  0.00  0.00     0.087 H 
BRANCH  21  27
ATOM     27  N18 37O d   1     -58.635 153.015   2.044  0.00  0.00    -0.330 N 
ATOM     28  C19 37O d   1     -57.448 152.957   2.821  0.00  0.00    -0.000 A 
ATOM     29  C20 37O d   1     -56.492 153.927   2.653  0.00  0.00    -0.006 A 
ATOM     30  H10 37O d   1     -57.298 152.154   3.541  0.00  0.00     0.114 H 
ATOM     31  N21 37O d   1     -56.689 154.982   1.722  0.00  0.00    -0.368 N 
ATOM     32  H11 37O d   1     -55.575 153.888   3.238  0.00  0.00     0.113 H 
ATOM     33  C22 37O d   1     -57.887 155.038   0.945  0.00  0.00    -0.006 A 
ATOM     34  C23 37O d   1     -58.833 154.073   1.112  0.00  0.00    -0.000 A 
ATOM     35  H12 37O d   1     -58.041 155.843   0.228  0.00  0.00     0.113 H 
ATOM     36  H13 37O d   1     -59.751 154.111   0.527  0.00  0.00     0.114 H 
BRANCH  31  37
ATOM     37  C24 37O d   1     -55.671 156.014   1.547  0.00  0.00    -0.015 C 
ATOM     38  H14 37O d   1     -54.825 155.813   2.221  0.00  0.00     0.057 H 
ATOM     39  H15 37O d   1     -56.102 156.998   1.784  0.00  0.00     0.057 H 
ATOM     40  H16 37O d   1     -55.319 156.009   0.505  0.00  0.00     0.057 H 
ENDBRANCH  31  37
ENDBRANCH  21  27
ENDBRANCH  15  17
ENDBRANCH   3  15
BRANCH   7  41
ATOM     41  C36 37O d   1     -60.005 145.721   0.709  0.00  0.00     0.024 C 
ATOM     42  H27 37O d   1     -60.317 146.741   0.440  0.00  0.00     0.071 H 
ATOM     43  H28 37O d   1     -59.801 145.146  -0.207  0.00  0.00     0.071 H 
BRANCH  41  44
ATOM     44  C37 37O d   1     -58.694 145.835   1.474  0.00  0.00    -0.040 A 
ATOM     45  C38 37O d   1     -57.593 145.180   1.003  0.00  0.00    -0.073 A 
ATOM     46  C39 37O d   1     -56.383 145.296   1.678  0.00  0.00    -0.057 A 
ATOM     47  H29 37O d   1     -57.662 144.573   0.108  0.00  0.00     0.084 H 
ATOM     48  C40 37O d   1     -56.308 146.082   2.823  0.00  0.00     0.034 A 
ATOM     49  H30 37O d   1     -55.504 144.777   1.314  0.00  0.00     0.086 H 
ATOM     50  C41 37O d   1     -57.418 146.747   3.269  0.00  0.00    -0.057 A 
ATOM     51  C42 37O d   1     -58.622 146.633   2.603  0.00  0.00    -0.073 A 
ATOM     52  H31 37O d   1     -57.351 147.369   4.154  0.00  0.00     0.086 H 
ATOM     53  H32 37O d   1     -59.499 147.161   2.959  0.00  0.00     0.084 H 
BRANCH  48  54
ATOM     54  N43 37O d   1     -55.096 146.277   3.564  0.00  0.00    -0.327 N 
ATOM     55  C44 37O d   1     -53.806 146.441   2.942  0.00  0.00     0.221 C 
ATOM     56  O47 37O d   1     -53.663 146.366   1.738  0.00  0.00    -0.273 OA
ATOM     57  H33 37O d   1     -55.148 146.300   4.562  0.00  0.00     0.169 HD
BRANCH  55  58
ATOM     58  C45 37O d   1     -52.587 146.699   3.837  0.00  0.00     0.006 C 
ATOM     59  H34 37O d   1     -52.900 146.606   4.887  0.00  0.00     0.046 H 
ATOM     60  H35 37O d   1     -52.228 147.722   3.650  0.00  0.00     0.046 H 
BRANCH  58  61
ATOM     61  C46 37O d   1     -51.429 145.724   3.587  0.00  0.00    -0.068 C 
ATOM     62  H36 37O d   1     -50.593 145.967   4.260  0.00  0.00     0.028 H 
ATOM     63  H37 37O d   1     -51.096 145.811   2.542  0.00  0.00     0.028 H 
ATOM     64  H38 37O d   1     -51.768 144.695   3.780  0.00  0.00     0.028 H 
ENDBRANCH  58  61
ENDBRANCH  55  58
ENDBRANCH  48  54
ENDBRANCH  41  44
ENDBRANCH   7  41
BRANCH   8  65
ATOM     65  O35 37O d   1     -59.967 142.951   1.579  0.00  0.00    -0.359 OA
ATOM     66  H26 37O d   1     -59.294 143.484   1.173  0.00  0.00     0.214 HD
ENDBRANCH   8  65
BRANCH   9  67
ATOM     67  C25 37O d   1     -62.401 141.798   2.727  0.00  0.00     0.039 A 
ATOM     68  C26 37O d   1     -62.108 140.797   1.797  0.00  0.00    -0.025 A 
ATOM     69  C27 37O d   1     -62.225 139.458   2.178  0.00  0.00     0.073 A 
ATOM     70  H17 37O d   1     -61.794 141.056   0.792  0.00  0.00     0.091 H 
ATOM     71  C28 37O d   1     -62.638 139.133   3.501  0.00  0.00    -0.019 A 
ATOM     72  C29 37O d   1     -62.932 140.160   4.419  0.00  0.00     0.073 A 
ATOM     73  H18 37O d   1     -62.726 138.095   3.802  0.00  0.00     0.092 H 
ATOM     74  C30 37O d   1     -62.818 141.496   4.022  0.00  0.00    -0.025 A 
ATOM     75  H19 37O d   1     -63.053 142.293   4.718  0.00  0.00     0.091 H 
BRANCH  69  76
ATOM     76  O32 37O d   1     -61.913 138.459   1.216  0.00  0.00    -0.356 OA
BRANCH  76  77
ATOM     77  C34 37O d   1     -62.275 137.146   1.574  0.00  0.00     0.010 C 
ATOM     78  H23 37O d   1     -61.992 136.455   0.767  0.00  0.00     0.066 H 
ATOM     79  H24 37O d   1     -63.362 137.096   1.735  0.00  0.00     0.066 H 
ATOM     80  H25 37O d   1     -61.754 136.862   2.500  0.00  0.00     0.066 H 
ENDBRANCH  76  77
ENDBRANCH  69  76
BRANCH  72  81
ATOM     81  O31 37O d   1     -63.370 139.903   5.764  0.00  0.00    -0.356 OA
BRANCH  81  82
ATOM     82  C33 37O d   1     -63.733 138.535   6.073  0.00  0.00     0.010 C 
ATOM     83  H20 37O d   1     -64.049 138.468   7.125  0.00  0.00     0.066 H 
ATOM     84  H21 37O d   1     -62.865 137.879   5.908  0.00  0.00     0.066 H 
ATOM     85  H22 37O d   1     -64.561 138.219   5.421  0.00  0.00     0.066 H 
ENDBRANCH  81  82
ENDBRANCH  72  81
ENDBRANCH   9  67
TORSDOF 15
