REMARK  14 active torsions:
REMARK  status: ('A' for Active; 'I' for Inactive)
REMARK    1  A    between atoms: C03_3  and  N11_11 
REMARK    2  A    between atoms: N07_7  and  C36_36 
REMARK    3  A    between atoms: N09_9  and  C25_25 
REMARK    4  A    between atoms: N11_11  and  C12_12 
REMARK    5  A    between atoms: C15_15  and  N18_18 
REMARK    6  A    between atoms: N21_21  and  C24_24 
REMARK    7  A    between atoms: C27_27  and  O32_32 
REMARK    8  A    between atoms: C29_29  and  O31_31 
REMARK    9  A    between atoms: O31_31  and  C33_33 
REMARK   10  A    between atoms: O32_32  and  C34_34 
REMARK   11  A    between atoms: C36_36  and  C37_37 
REMARK   12  A    between atoms: C40_40  and  N43_43 
REMARK       I    between atoms: N43_43  and  C44_44 
REMARK   13  A    between atoms: C44_44  and  C45_45 
REMARK   14  A    between atoms: C45_45  and  C46_46 
ROOT
ATOM      1  C01 37O d   1     -24.585   8.523  -1.484  0.00  0.00     0.032 A 
ATOM      2  N02 37O d   1     -25.845   9.024  -1.382  0.00  0.00    -0.074 NA
ATOM      3  C03 37O d   1     -26.837   8.244  -1.020  0.00  0.00     0.728 A 
ATOM      4  N04 37O d   1     -26.742   7.035  -0.726  0.00  0.00    -0.044 NA
ATOM      5  C05 37O d   1     -25.628   6.395  -0.761  0.00  0.00     0.162 A 
ATOM      6  C06 37O d   1     -24.538   7.102  -1.136  0.00  0.00     0.025 A 
ATOM      7  N07 37O d   1     -25.524   5.086  -0.491  0.00  0.00    -0.290 N 
ATOM      8  C08 37O d   1     -24.313   4.504  -0.547  0.00  0.00     0.263 A 
ATOM      9  N09 37O d   1     -23.227   5.237  -0.898  0.00  0.00    -0.306 N 
ATOM     10  C10 37O d   1     -23.334   6.498  -1.211  0.00  0.00     0.032 A 
ATOM     11  O35 37O d   1     -24.174   3.172  -0.227  0.00  0.00    -0.151 OA
ATOM     12  H1  37O d   1     -23.721   9.104  -1.786  0.00  0.00     0.116 H 
ATOM     13  H2  37O d   1     -22.657   7.051  -0.544  0.00  0.00     0.072 H 
ATOM     14  H3  37O d   1     -22.989   6.600  -2.251  0.00  0.00     0.072 H 
ENDROOT
BRANCH   3  15
ATOM     15  N11 37O d   1     -28.074   8.896  -0.929  0.00  0.00    -0.188 N 
ATOM     16  H4  37O d   1     -28.049   9.924  -0.872  0.00  0.00     0.184 HD
BRANCH  15  17
ATOM     17  C12 37O d   1     -29.338   8.299  -0.907  0.00  0.00     0.049 A 
ATOM     18  C13 37O d   1     -30.421   9.095  -0.687  0.00  0.00    -0.054 A 
ATOM     19  C14 37O d   1     -31.702   8.603  -0.652  0.00  0.00    -0.055 A 
ATOM     20  H5  37O d   1     -30.266  10.157  -0.534  0.00  0.00     0.087 H 
ATOM     21  C15 37O d   1     -31.874   7.255  -0.821  0.00  0.00     0.030 A 
ATOM     22  H6  37O d   1     -32.550   9.260  -0.496  0.00  0.00     0.087 H 
ATOM     23  C16 37O d   1     -30.794   6.448  -1.060  0.00  0.00    -0.055 A 
ATOM     24  C17 37O d   1     -29.513   6.964  -1.106  0.00  0.00    -0.054 A 
ATOM     25  H7  37O d   1     -30.947   5.386  -1.216  0.00  0.00     0.087 H 
ATOM     26  H8  37O d   1     -28.664   6.318  -1.297  0.00  0.00     0.087 H 
BRANCH  21  27
ATOM     27  N18 37O d   1     -33.201   6.674  -0.837  0.00  0.00    -0.378 N 
ATOM     28  C19 37O d   1     -33.338   5.375  -1.154  0.00  0.00     0.018 A 
ATOM     29  C20 37O d   1     -34.591   4.793  -1.223  0.00  0.00     0.098 A 
ATOM     30  H9  37O d   1     -32.769   4.807  -0.404  0.00  0.00     0.066 H 
ATOM     31  H10 37O d   1     -32.875   5.242  -2.143  0.00  0.00     0.066 H 
ATOM     32  N21 37O d   1     -35.675   5.543  -0.985  0.00  0.00    -0.072 N 
ATOM     33  H11 37O d   1     -34.603   3.970  -0.493  0.00  0.00     0.078 H 
ATOM     34  H12 37O d   1     -34.700   4.384  -2.239  0.00  0.00     0.078 H 
ATOM     35  C22 37O d   1     -35.543   6.852  -0.692  0.00  0.00     0.098 A 
ATOM     36  H13 37O d   1     -35.622   5.318  -0.004  0.00  0.00     0.279 HD
ATOM     37  C23 37O d   1     -34.282   7.429  -0.630  0.00  0.00     0.018 A 
ATOM     38  H14 37O d   1     -36.010   7.005   0.292  0.00  0.00     0.078 H 
ATOM     39  H15 37O d   1     -36.108   7.406  -1.456  0.00  0.00     0.078 H 
ATOM     40  H16 37O d   1     -34.260   8.231  -1.382  0.00  0.00     0.066 H 
ATOM     41  H17 37O d   1     -34.179   7.865   0.374  0.00  0.00     0.066 H 
BRANCH  32  42
ATOM     42  C24 37O d   1     -36.968   4.940  -1.058  0.00  0.00     0.066 C 
ATOM     43  H18 37O d   1     -36.862   3.874  -1.307  0.00  0.00     0.068 H 
ATOM     44  H19 37O d   1     -37.563   5.441  -1.836  0.00  0.00     0.068 H 
ATOM     45  H20 37O d   1     -37.475   5.041  -0.087  0.00  0.00     0.068 H 
ENDBRANCH  32  42
ENDBRANCH  21  27
ENDBRANCH  15  17
ENDBRANCH   3  15
BRANCH   7  46
ATOM     46  C36 37O d   1     -26.718   4.408  -0.002  0.00  0.00     0.029 C 
ATOM     47  H30 37O d   1     -27.519   5.159  -0.069  0.00  0.00     0.072 H 
ATOM     48  H31 37O d   1     -26.508   4.189   1.055  0.00  0.00     0.072 H 
BRANCH  46  49
ATOM     49  C37 37O d   1     -27.321   3.147  -0.547  0.00  0.00    -0.040 A 
ATOM     50  C38 37O d   1     -27.364   2.020   0.247  0.00  0.00    -0.073 A 
ATOM     51  C39 37O d   1     -27.948   0.825  -0.232  0.00  0.00    -0.057 A 
ATOM     52  H32 37O d   1     -26.946   2.051   1.247  0.00  0.00     0.084 H 
ATOM     53  C40 37O d   1     -28.530   0.774  -1.492  0.00  0.00     0.034 A 
ATOM     54  H33 37O d   1     -27.942  -0.062   0.391  0.00  0.00     0.086 H 
ATOM     55  C41 37O d   1     -28.488   1.927  -2.277  0.00  0.00    -0.057 A 
ATOM     56  C42 37O d   1     -27.887   3.130  -1.808  0.00  0.00    -0.073 A 
ATOM     57  H34 37O d   1     -28.924   1.907  -3.269  0.00  0.00     0.086 H 
ATOM     58  H35 37O d   1     -27.874   4.018  -2.430  0.00  0.00     0.084 H 
BRANCH  53  59
ATOM     59  N43 37O d   1     -29.166  -0.427  -2.027  0.00  0.00    -0.327 N 
ATOM     60  C44 37O d   1     -29.953  -1.377  -1.313  0.00  0.00     0.221 C 
ATOM     61  O47 37O d   1     -30.162  -1.271  -0.129  0.00  0.00    -0.273 OA
ATOM     62  H36 37O d   1     -29.035  -0.602  -3.003  0.00  0.00     0.169 HD
BRANCH  60  63
ATOM     63  C45 37O d   1     -30.538  -2.541  -2.047  0.00  0.00     0.006 C 
ATOM     64  H37 37O d   1     -30.125  -2.559  -3.066  0.00  0.00     0.046 H 
ATOM     65  H38 37O d   1     -31.630  -2.415  -2.096  0.00  0.00     0.046 H 
BRANCH  63  66
ATOM     66  C46 37O d   1     -30.232  -3.857  -1.377  0.00  0.00    -0.068 C 
ATOM     67  H39 37O d   1     -30.683  -4.677  -1.955  0.00  0.00     0.028 H 
ATOM     68  H40 37O d   1     -30.647  -3.855  -0.358  0.00  0.00     0.028 H 
ATOM     69  H41 37O d   1     -29.142  -3.999  -1.329  0.00  0.00     0.028 H 
ENDBRANCH  63  66
ENDBRANCH  60  63
ENDBRANCH  53  59
ENDBRANCH  46  49
ENDBRANCH   7  46
BRANCH   9  70
ATOM     70  C25 37O d   1     -21.905   4.679  -1.064  0.00  0.00     0.043 A 
ATOM     71  C26 37O d   1     -21.127   4.211  -0.037  0.00  0.00    -0.025 A 
ATOM     72  C27 37O d   1     -19.854   3.712  -0.328  0.00  0.00     0.073 A 
ATOM     73  H21 37O d   1     -21.493   4.228   0.983  0.00  0.00     0.091 H 
ATOM     74  C28 37O d   1     -19.394   3.682  -1.632  0.00  0.00    -0.019 A 
ATOM     75  C29 37O d   1     -20.190   4.144  -2.692  0.00  0.00     0.073 A 
ATOM     76  H22 37O d   1     -18.403   3.295  -1.839  0.00  0.00     0.092 H 
ATOM     77  C30 37O d   1     -21.444   4.654  -2.377  0.00  0.00    -0.025 A 
ATOM     78  H23 37O d   1     -22.075   5.040  -3.169  0.00  0.00     0.091 H 
BRANCH  72  79
ATOM     79  O32 37O d   1     -19.083   3.236   0.737  0.00  0.00    -0.356 OA
BRANCH  79  80
ATOM     80  C34 37O d   1     -17.696   3.311   0.650  0.00  0.00     0.010 C 
ATOM     81  H27 37O d   1     -17.248   2.897   1.565  0.00  0.00     0.066 H 
ATOM     82  H28 37O d   1     -17.392   4.362   0.537  0.00  0.00     0.066 H 
ATOM     83  H29 37O d   1     -17.351   2.734  -0.221  0.00  0.00     0.066 H 
ENDBRANCH  79  80
ENDBRANCH  72  79
BRANCH  75  84
ATOM     84  O31 37O d   1     -19.805   4.139  -4.025  0.00  0.00    -0.356 OA
BRANCH  84  85
ATOM     85  C33 37O d   1     -18.485   3.884  -4.327  0.00  0.00     0.010 C 
ATOM     86  H24 37O d   1     -18.346   3.916  -5.418  0.00  0.00     0.066 H 
ATOM     87  H25 37O d   1     -18.209   2.888  -3.951  0.00  0.00     0.066 H 
ATOM     88  H26 37O d   1     -17.847   4.645  -3.853  0.00  0.00     0.066 H 
ENDBRANCH  84  85
ENDBRANCH  75  84
ENDBRANCH   9  70
TORSDOF 14
