REMARK WARNING: 32 MAX_TORS EXCEEDED!!!
REMARK  67 active torsions:
REMARK  status: ('A' for Active; 'I' for Inactive)
REMARK    1  A    between atoms: N_1  and  CA_2 
REMARK    2  A    between atoms: CA_2  and  C_3 
REMARK    3  A    between atoms: CA_2  and  CB_5 
REMARK       I    between atoms: C_3  and  N_6 
REMARK    4  A    between atoms: N_6  and  CA_7 
REMARK    5  A    between atoms: CA_7  and  C_8 
REMARK    6  A    between atoms: CA_7  and  CB_10 
REMARK       I    between atoms: C_8  and  N_12 
REMARK    7  A    between atoms: CB_10  and  CG_11 
REMARK    8  A    between atoms: N_12  and  CA_13 
REMARK    9  A    between atoms: CA_13  and  C_14 
REMARK   10  A    between atoms: CA_13  and  CB_16 
REMARK       I    between atoms: C_14  and  N_19 
REMARK   11  A    between atoms: CB_16  and  CG1_17 
REMARK   12  A    between atoms: CB_16  and  CG2_18 
REMARK   13  A    between atoms: N_19  and  CA_20 
REMARK   14  A    between atoms: CA_20  and  C_21 
REMARK   15  A    between atoms: CA_20  and  CB_23 
REMARK       I    between atoms: C_21  and  N_29 
REMARK   16  A    between atoms: CB_23  and  CG_24 
REMARK   17  A    between atoms: N_29  and  CA_30 
REMARK   18  A    between atoms: CA_30  and  C_31 
REMARK   19  A    between atoms: CA_30  and  CB_33 
REMARK       I    between atoms: C_31  and  N_37 
REMARK   20  A    between atoms: CB_33  and  CG_34 
REMARK   21  A    between atoms: CG_34  and  SD_35 
REMARK   22  A    between atoms: SD_35  and  CE_36 
REMARK   23  A    between atoms: CA_38  and  C_39 
REMARK       I    between atoms: C_39  and  N_44 
REMARK   24  A    between atoms: N_44  and  CA_45 
REMARK   25  A    between atoms: CA_45  and  C_46 
REMARK   26  A    between atoms: CA_45  and  CB_48 
REMARK       I    between atoms: C_46  and  N_51 
REMARK   27  A    between atoms: CB_48  and  OG1_49 
REMARK   28  A    between atoms: CB_48  and  CG2_50 
REMARK   29  A    between atoms: N_51  and  CA_52 
REMARK   30  A    between atoms: CA_52  and  C_53 
REMARK   31  A    between atoms: CA_52  and  CB_55 
REMARK       I    between atoms: C_53  and  N_59 
REMARK   32  A    between atoms: CB_55  and  CG_56 
REMARK   33  A    between atoms: CG_56  and  CD1_57 
REMARK   34  A    between atoms: CG_56  and  CD2_58 
REMARK   35  A    between atoms: CA_60  and  C_61 
REMARK       I    between atoms: C_61  and  N_66 
REMARK   36  A    between atoms: N_66  and  CA_67 
REMARK   37  A    between atoms: CA_67  and  C_68 
REMARK   38  A    between atoms: CA_67  and  CB_70 
REMARK       I    between atoms: C_68  and  N_74 
REMARK   39  A    between atoms: CB_70  and  CG_71 
REMARK       I    between atoms: CG_71  and  ND2_73 
REMARK   40  A    between atoms: N_74  and  CA_75 
REMARK   41  A    between atoms: CA_75  and  C_76 
REMARK   42  A    between atoms: CA_75  and  CB_78 
REMARK       I    between atoms: C_76  and  N_82 
REMARK   43  A    between atoms: CB_78  and  CG_79 
REMARK   44  A    between atoms: CG_79  and  CD1_80 
REMARK   45  A    between atoms: CG_79  and  CD2_81 
REMARK   46  A    between atoms: N_82  and  CA_83 
REMARK   47  A    between atoms: CA_83  and  C_84 
REMARK   48  A    between atoms: CA_83  and  CB_86 
REMARK       I    between atoms: C_84  and  N_90 
REMARK   49  A    between atoms: CB_86  and  CG_87 
REMARK   50  A    between atoms: N_90  and  CA_91 
REMARK   51  A    between atoms: CA_91  and  C_92 
REMARK   52  A    between atoms: CA_91  and  CB_94 
REMARK       I    between atoms: C_92  and  N_101 
REMARK   53  A    between atoms: CB_94  and  CG_95 
REMARK   54  A    between atoms: N_101  and  CA_102 
REMARK   55  A    between atoms: CA_102  and  C_103 
REMARK   56  A    between atoms: CA_102  and  CB_105 
REMARK       I    between atoms: C_103  and  N_111 
REMARK   57  A    between atoms: CB_105  and  CG_106 
REMARK   58  A    between atoms: N_111  and  CA_112 
REMARK   59  A    between atoms: CA_112  and  C_113 
REMARK   60  A    between atoms: CA_112  and  CB_115 
REMARK       I    between atoms: C_113  and  N_120 
REMARK   61  A    between atoms: CB_115  and  CG_116 
REMARK   62  A    between atoms: CG_116  and  CD_117 
REMARK   63  A    between atoms: CD_117  and  CE_118 
REMARK   64  A    between atoms: CE_118  and  NZ_119 
REMARK   65  A    between atoms: N_120  and  CA_121 
REMARK   66  A    between atoms: CA_121  and  C_122 
REMARK   67  A    between atoms: CA_121  and  CB_124 
ROOT
ATOM      1  N   PRO d   1      21.781  -3.105  22.127  0.00  0.00    -0.337 N 
ATOM      2  CA  PRO d   1      21.178  -4.140  22.942  0.00  0.00     0.091 C 
ATOM      3  CB  PRO d   1      19.935  -4.564  22.145  0.00  0.00    -0.036 C 
ATOM      4  CG  PRO d   1      20.051  -3.952  20.799  0.00  0.00    -0.048 C 
ATOM      5  CD  PRO d   1      21.042  -2.832  20.880  0.00  0.00    -0.001 C 
ATOM      6  H65 PRO d   1      20.892  -3.734  23.923  0.00  0.00     0.087 H 
ATOM      7  H66 PRO d   1      19.024  -4.204  22.646  0.00  0.00     0.036 H 
ATOM      8  H67 PRO d   1      19.897  -5.660  22.059  0.00  0.00     0.036 H 
ATOM      9  H68 PRO d   1      19.073  -3.562  20.481  0.00  0.00     0.035 H 
ATOM     10  H69 PRO d   1      20.398  -4.705  20.076  0.00  0.00     0.035 H 
ATOM     11  H70 PRO d   1      21.719  -2.844  20.013  0.00  0.00     0.064 H 
ATOM     12  H71 PRO d   1      20.531  -1.859  20.933  0.00  0.00     0.064 H 
ATOM     13  C   LEU d   1      22.801  -2.426  22.642  0.00  0.00     0.243 C 
ATOM     14  O   LEU d   1      23.275  -2.701  23.734  0.00  0.00    -0.271 OA
ENDROOT
BRANCH  13  15
ATOM     15  CA  LEU d   1      23.337  -1.235  21.825  0.00  0.00     0.090 C 
ATOM     16  H55 LEU d   1      22.532  -0.839  21.188  0.00  0.00     0.087 H 
BRANCH  15  17
ATOM     17  N   LEU d   1      23.766  -0.208  22.756  0.00  0.00    -0.346 N 
ATOM     18  C   THR d   1      22.926   0.470  23.528  0.00  0.00     0.243 C 
ATOM     19  O   THR d   1      21.704   0.399  23.434  0.00  0.00    -0.271 OA
ATOM     20  H54 LEU d   1      24.742  -0.001  22.819  0.00  0.00     0.163 HD
BRANCH  18  21
ATOM     21  CA  THR d   1      23.572   1.437  24.520  0.00  0.00     0.113 C 
ATOM     22  H48 THR d   1      24.502   1.828  24.082  0.00  0.00     0.091 H 
BRANCH  21  23
ATOM     23  N   THR d   1      22.644   2.548  24.720  0.00  0.00    -0.344 N 
ATOM     24  C   PRO d   1      22.679   3.595  23.904  0.00  0.00     0.241 C 
ATOM     25  O   PRO d   1      23.546   3.723  23.028  0.00  0.00    -0.271 OA
ATOM     26  H47 THR d   1      21.983   2.520  25.470  0.00  0.00     0.163 HD
BRANCH  24  27
ATOM     27  CA  PRO d   1      21.615   4.689  24.118  0.00  0.00     0.091 C 
ATOM     28  N   PRO d   1      22.156   6.024  23.839  0.00  0.00    -0.337 N 
ATOM     29  C   MET d   1      23.195   6.422  24.583  0.00  0.00     0.243 C 
ATOM     30  CD  PRO d   1      21.343   6.746  22.842  0.00  0.00    -0.001 C 
ATOM     31  O   MET d   1      23.579   5.784  25.541  0.00  0.00    -0.271 OA
ATOM     32  CG  PRO d   1      20.055   5.971  22.816  0.00  0.00    -0.048 C 
ATOM     33  H45 PRO d   1      21.829   6.735  21.855  0.00  0.00     0.064 H 
ATOM     34  H46 PRO d   1      21.170   7.787  23.154  0.00  0.00     0.064 H 
ATOM     35  CB  PRO d   1      20.467   4.555  23.098  0.00  0.00    -0.036 C 
ATOM     36  H43 PRO d   1      19.364   6.337  23.590  0.00  0.00     0.035 H 
ATOM     37  H44 PRO d   1      19.574   6.048  21.830  0.00  0.00     0.035 H 
ATOM     38  H41 PRO d   1      19.630   3.983  23.526  0.00  0.00     0.036 H 
ATOM     39  H42 PRO d   1      20.817   4.061  22.180  0.00  0.00     0.036 H 
ATOM     40  H40 PRO d   1      21.234   4.628  25.148  0.00  0.00     0.087 H 
BRANCH  29  41
ATOM     41  CA  MET d   1      23.917   7.716  24.200  0.00  0.00     0.090 C 
ATOM     42  H32 MET d   1      23.378   8.219  23.384  0.00  0.00     0.087 H 
BRANCH  41  43
ATOM     43  N   MET d   1      23.962   8.581  25.359  0.00  0.00    -0.346 N 
ATOM     44  C   HIS d   1      22.872   9.212  25.755  0.00  0.00     0.241 C 
ATOM     45  O   HIS d   1      21.890   9.330  25.050  0.00  0.00    -0.271 OA
ATOM     46  H31 MET d   1      24.819   8.701  25.860  0.00  0.00     0.163 HD
BRANCH  44  47
ATOM     47  CA  HIS d   1      22.896   9.840  27.132  0.00  0.00     0.094 C 
ATOM     48  H25 HIS d   1      23.905  10.233  27.323  0.00  0.00     0.088 H 
BRANCH  47  49
ATOM     49  N   HIS d   1      21.935  10.939  27.211  0.00  0.00    -0.346 N 
ATOM     50  C   VAL d   1      22.222  12.184  26.877  0.00  0.00     0.241 C 
ATOM     51  O   VAL d   1      23.290  12.517  26.422  0.00  0.00    -0.271 OA
ATOM     52  H24 HIS d   1      21.011  10.737  27.535  0.00  0.00     0.163 HD
BRANCH  50  53
ATOM     53  CA  VAL d   1      21.112  13.220  27.088  0.00  0.00     0.092 C 
ATOM     54  H16 VAL d   1      20.531  12.946  27.981  0.00  0.00     0.088 H 
BRANCH  53  55
ATOM     55  N   VAL d   1      21.747  14.509  27.332  0.00  0.00    -0.346 N 
ATOM     56  C   PHE d   1      21.673  15.137  28.497  0.00  0.00     0.241 C 
ATOM     57  O   PHE d   1      20.915  14.801  29.395  0.00  0.00    -0.271 OA
ATOM     58  H15 VAL d   1      22.260  14.938  26.589  0.00  0.00     0.163 HD
BRANCH  56  59
ATOM     59  CA  PHE d   1      22.572  16.338  28.674  0.00  0.00     0.089 C 
ATOM     60  H9  PHE d   1      22.828  16.771  27.696  0.00  0.00     0.087 H 
BRANCH  59  61
ATOM     61  N   PHE d   1      21.828  17.307  29.465  0.00  0.00    -0.346 N 
ATOM     62  C   ALA d   1      21.592  18.552  29.050  0.00  0.00     0.248 C 
ATOM     63  O   ALA d   1      22.014  18.988  27.973  0.00  0.00    -0.271 OA
ATOM     64  H8  PHE d   1      21.478  17.027  30.359  0.00  0.00     0.163 HD
BRANCH  62  65
ATOM     65  CA  ALA d   1      20.764  19.447  29.983  0.00  0.00     0.172 C 
ATOM     66  H4  ALA d   1      20.852  19.052  31.006  0.00  0.00     0.098 H 
BRANCH  65  67
ATOM     67  N   ALA d   1      21.283  20.850  29.976  0.00  0.00    -0.067 N 
ATOM     68  H1  ALA d   1      20.725  21.418  30.594  0.00  0.00     0.275 HD
ATOM     69  H2  ALA d   1      21.232  21.222  29.041  0.00  0.00     0.275 HD
ATOM     70  H3  ALA d   1      22.241  20.855  30.288  0.00  0.00     0.275 HD
ENDBRANCH  65  67
BRANCH  65  71
ATOM     71  CB  ALA d   1      19.289  19.422  29.585  0.00  0.00    -0.042 C 
ATOM     72  H5  ALA d   1      18.924  18.384  29.595  0.00  0.00     0.030 H 
ATOM     73  H6  ALA d   1      19.175  19.841  28.574  0.00  0.00     0.030 H 
ATOM     74  H7  ALA d   1      18.706  20.023  30.299  0.00  0.00     0.030 H 
ENDBRANCH  65  71
ENDBRANCH  62  65
ENDBRANCH  59  61
BRANCH  59  75
ATOM     75  CB  PHE d   1      23.851  15.904  29.387  0.00  0.00    -0.041 C 
ATOM     76  H10 PHE d   1      24.270  15.039  28.853  0.00  0.00     0.036 H 
ATOM     77  H11 PHE d   1      23.593  15.611  30.415  0.00  0.00     0.036 H 
BRANCH  75  78
ATOM     78  CG  PHE d   1      24.900  16.978  29.448  0.00  0.00    -0.074 A 
ATOM     79  H12 PHE d   1      25.787  16.594  29.973  0.00  0.00     0.027 H 
ATOM     80  H13 PHE d   1      24.502  17.849  29.989  0.00  0.00     0.027 H 
ATOM     81  H14 PHE d   1      25.179  17.277  28.427  0.00  0.00     0.027 H 
ENDBRANCH  75  78
ENDBRANCH  59  75
ENDBRANCH  56  59
ENDBRANCH  53  55
BRANCH  53  82
ATOM     82  CB  VAL d   1      20.141  13.223  25.867  0.00  0.00    -0.033 C 
ATOM     83  H17 VAL d   1      19.774  12.195  25.732  0.00  0.00     0.042 H 
BRANCH  82  84
ATOM     84  CG1 VAL d   1      18.948  14.121  26.112  0.00  0.00    -0.071 C 
ATOM     85  H18 VAL d   1      18.286  14.099  25.234  0.00  0.00     0.028 H 
ATOM     86  H19 VAL d   1      19.294  15.151  26.285  0.00  0.00     0.028 H 
ATOM     87  H20 VAL d   1      18.397  13.766  26.995  0.00  0.00     0.028 H 
ENDBRANCH  82  84
BRANCH  82  88
ATOM     88  CG2 VAL d   1      20.832  13.646  24.584  0.00  0.00    -0.071 C 
ATOM     89  H21 VAL d   1      21.700  12.995  24.403  0.00  0.00     0.028 H 
ATOM     90  H22 VAL d   1      21.169  14.689  24.676  0.00  0.00     0.028 H 
ATOM     91  H23 VAL d   1      20.128  13.561  23.743  0.00  0.00     0.028 H 
ENDBRANCH  82  88
ENDBRANCH  53  82
ENDBRANCH  50  53
ENDBRANCH  47  49
BRANCH  47  92
ATOM     92  CB  HIS d   1      22.554   8.791  28.207  0.00  0.00     0.004 C 
ATOM     93  H26 HIS d   1      23.128   7.875  28.002  0.00  0.00     0.046 H 
ATOM     94  H27 HIS d   1      21.478   8.569  28.154  0.00  0.00     0.046 H 
BRANCH  92  95
ATOM     95  CG  HIS d   1      22.879   9.262  29.588  0.00  0.00     0.053 A 
ATOM     96  ND1 HIS d   1      21.908   9.608  30.508  0.00  0.00    -0.247 NA
ATOM     97  CE1 HIS d   1      22.492  10.042  31.610  0.00  0.00     0.064 A 
ATOM     98  NE2 HIS d   1      23.805  10.018  31.427  0.00  0.00    -0.359 N 
ATOM     99  H29 HIS d   1      21.981  10.365  32.516  0.00  0.00     0.143 H 
ATOM    100  CD2 HIS d   1      24.073   9.541  30.170  0.00  0.00     0.002 A 
ATOM    101  H30 HIS d   1      24.510  10.311  32.118  0.00  0.00     0.166 HD
ATOM    102  H28 HIS d   1      25.058   9.411  29.723  0.00  0.00     0.114 H 
ENDBRANCH  92  95
ENDBRANCH  47  92
ENDBRANCH  44  47
ENDBRANCH  41  43
BRANCH  41 103
ATOM    103  CB  MET d   1      25.327   7.373  23.746  0.00  0.00    -0.030 C 
ATOM    104  H33 MET d   1      25.854   6.887  24.580  0.00  0.00     0.037 H 
ATOM    105  H34 MET d   1      25.845   8.306  23.478  0.00  0.00     0.037 H 
BRANCH 103 106
ATOM    106  CG  MET d   1      25.360   6.438  22.542  0.00  0.00    -0.021 C 
ATOM    107  H35 MET d   1      24.730   5.564  22.764  0.00  0.00     0.049 H 
ATOM    108  H36 MET d   1      26.398   6.111  22.385  0.00  0.00     0.049 H 
BRANCH 106 109
ATOM    109  SD  MET d   1      24.763   7.199  21.011  0.00  0.00    -0.173 SA
BRANCH 109 110
ATOM    110  CE  MET d   1      26.146   8.232  20.592  0.00  0.00    -0.035 C 
ATOM    111  H37 MET d   1      25.930   8.774  19.660  0.00  0.00     0.041 H 
ATOM    112  H38 MET d   1      27.041   7.608  20.454  0.00  0.00     0.041 H 
ATOM    113  H39 MET d   1      26.323   8.954  21.403  0.00  0.00     0.041 H 
ENDBRANCH 109 110
ENDBRANCH 106 109
ENDBRANCH 103 106
ENDBRANCH  41 103
ENDBRANCH  29  41
ENDBRANCH  24  27
ENDBRANCH  21  23
BRANCH  21 114
ATOM    114  CB  THR d   1      23.926   0.734  25.833  0.00  0.00     0.060 C 
ATOM    115  H49 THR d   1      24.634  -0.084  25.635  0.00  0.00     0.086 H 
BRANCH 114 116
ATOM    116  OG1 THR d   1      22.737   0.214  26.408  0.00  0.00    -0.393 OA
ATOM    117  H50 THR d   1      22.341  -0.406  25.807  0.00  0.00     0.210 HD
ENDBRANCH 114 116
BRANCH 114 118
ATOM    118  CG2 THR d   1      24.545   1.718  26.796  0.00  0.00    -0.050 C 
ATOM    119  H51 THR d   1      24.796   1.204  27.735  0.00  0.00     0.031 H 
ATOM    120  H52 THR d   1      23.831   2.529  27.001  0.00  0.00     0.031 H 
ATOM    121  H53 THR d   1      25.460   2.139  26.353  0.00  0.00     0.031 H 
ENDBRANCH 114 118
ENDBRANCH  21 114
ENDBRANCH  18  21
ENDBRANCH  15  17
BRANCH  15 122
ATOM    122  CB  LEU d   1      24.507  -1.669  20.934  0.00  0.00    -0.035 C 
ATOM    123  H56 LEU d   1      24.225  -2.616  20.450  0.00  0.00     0.037 H 
ATOM    124  H57 LEU d   1      25.378  -1.835  21.584  0.00  0.00     0.037 H 
BRANCH 122 125
ATOM    125  CG  LEU d   1      24.928  -0.692  19.834  0.00  0.00    -0.059 C 
ATOM    126  H58 LEU d   1      25.137   0.278  20.308  0.00  0.00     0.038 H 
BRANCH 125 127
ATOM    127  CD1 LEU d   1      26.190  -1.176  19.154  0.00  0.00    -0.073 C 
ATOM    128  H59 LEU d   1      26.479  -0.464  18.367  0.00  0.00     0.028 H 
ATOM    129  H60 LEU d   1      26.009  -2.164  18.706  0.00  0.00     0.028 H 
ATOM    130  H61 LEU d   1      27.000  -1.252  19.895  0.00  0.00     0.028 H 
ENDBRANCH 125 127
BRANCH 125 131
ATOM    131  CD2 LEU d   1      23.838  -0.480  18.781  0.00  0.00    -0.073 C 
ATOM    132  H62 LEU d   1      22.918  -0.128  19.271  0.00  0.00     0.028 H 
ATOM    133  H63 LEU d   1      23.637  -1.430  18.264  0.00  0.00     0.028 H 
ATOM    134  H64 LEU d   1      24.175   0.271  18.051  0.00  0.00     0.028 H 
ENDBRANCH 125 131
ENDBRANCH 122 125
ENDBRANCH  15 122
ENDBRANCH  13  15
BRANCH   2 135
ATOM    135  C   PRO d   1      22.097  -5.327  23.147  0.00  0.00     0.241 C 
ATOM    136  O   PRO d   1      23.063  -5.539  22.372  0.00  0.00    -0.271 OA
ATOM    137  N   ASN d   1      21.787  -6.089  24.192  0.00  0.00    -0.346 N 
ATOM    138  H72 ASN d   1      21.057  -5.792  24.807  0.00  0.00     0.163 HD
BRANCH 137 139
ATOM    139  CA  ASN d   1      22.474  -7.340  24.471  0.00  0.00     0.097 C 
ATOM    140  H73 ASN d   1      23.547  -7.238  24.250  0.00  0.00     0.088 H 
BRANCH 139 141
ATOM    141  C   ASN d   1      21.869  -8.420  23.591  0.00  0.00     0.241 C 
ATOM    142  O   ASN d   1      20.708  -8.784  23.751  0.00  0.00    -0.271 OA
ATOM    143  N   LEU d   1      22.641  -8.925  22.642  0.00  0.00    -0.346 N 
ATOM    144  H78 LEU d   1      23.592  -8.627  22.557  0.00  0.00     0.163 HD
BRANCH 143 145
ATOM    145  CA  LEU d   1      22.097  -9.921  21.718  0.00  0.00     0.089 C 
ATOM    146  H79 LEU d   1      21.072  -9.617  21.460  0.00  0.00     0.087 H 
BRANCH 145 147
ATOM    147  C   LEU d   1      22.028 -11.325  22.326  0.00  0.00     0.241 C 
ATOM    148  O   LEU d   1      21.499 -12.261  21.703  0.00  0.00    -0.271 OA
ATOM    149  N   ASP d   1      22.574 -11.482  23.534  0.00  0.00    -0.346 N 
ATOM    150  H89 ASP d   1      23.024 -10.708  23.979  0.00  0.00     0.163 HD
BRANCH 149 151
ATOM    151  CA  ASP d   1      22.519 -12.779  24.213  0.00  0.00     0.098 C 
ATOM    152  H90 ASP d   1      22.631 -13.555  23.442  0.00  0.00     0.088 H 
BRANCH 151 153
ATOM    153  C   ASP d   1      21.178 -13.015  24.896  0.00  0.00     0.241 C 
ATOM    154  O   ASP d   1      20.946 -14.101  25.394  0.00  0.00    -0.271 OA
ATOM    155  N   PHE d   1      20.283 -12.026  24.895  0.00  0.00    -0.346 N 
ATOM    156  H93 PHE d   1      20.500 -11.177  24.413  0.00  0.00     0.163 HD
BRANCH 155 157
ATOM    157  CA  PHE d   1      19.000 -12.145  25.574  0.00  0.00     0.093 C 
ATOM    158  H94 PHE d   1      18.892 -13.181  25.929  0.00  0.00     0.088 H 
BRANCH 157 159
ATOM    159  C   PHE d   1      17.819 -11.820  24.670  0.00  0.00     0.241 C 
ATOM    160  O   PHE d   1      17.950 -11.032  23.722  0.00  0.00    -0.271 OA
ATOM    161  N   HIS d   1      16.661 -12.412  24.969  0.00  0.00    -0.346 N 
ATOM    162 2H10 HIS d   1      16.661 -13.207  25.575  0.00  0.00     0.163 HD
BRANCH 161 163
ATOM    163  CA  HIS d   1      15.400 -11.927  24.434  0.00  0.00     0.094 C 
ATOM    164 3H10 HIS d   1      15.432 -11.988  23.336  0.00  0.00     0.088 H 
BRANCH 163 165
ATOM    165  C   HIS d   1      15.254 -10.468  24.872  0.00  0.00     0.241 C 
ATOM    166  O   HIS d   1      15.574 -10.128  26.002  0.00  0.00    -0.271 OA
ATOM    167  N   LYS d   1      14.774  -9.631  23.961  0.00  0.00    -0.346 N 
ATOM    168 9H10 LYS d   1      14.527 -10.009  23.069  0.00  0.00     0.163 HD
BRANCH 167 169
ATOM    169  CA  LYS d   1      14.581  -8.205  24.165  0.00  0.00     0.089 C 
ATOM    170 0H11 LYS d   1      15.563  -7.751  24.363  0.00  0.00     0.087 H 
BRANCH 169 171
ATOM    171  C   LYS d   1      13.658  -7.863  25.334  0.00  0.00     0.241 C 
ATOM    172  O   LYS d   1      13.973  -6.958  26.119  0.00  0.00    -0.271 OA
ATOM    173  N   THR d   1      12.544  -8.583  25.483  0.00  0.00    -0.345 N 
ATOM    174 2H12 THR d   1      12.397  -9.375  24.891  0.00  0.00     0.163 HD
BRANCH 173 175
ATOM    175  CA  THR d   1      11.519  -8.245  26.498  0.00  0.00     0.093 C 
ATOM    176 3H12 THR d   1      11.045  -7.307  26.174  0.00  0.00     0.089 H 
BRANCH 175 177
ATOM    177  C   THR d   1      12.068  -8.015  27.927  0.00  0.00     0.196 C 
ATOM    178  O   THR d   1      12.341  -6.879  28.347  0.00  0.00    -0.646 OA
ATOM    179  OXT THR d   1      12.258  -8.957  28.713  0.00  0.00    -0.646 OA
ENDBRANCH 175 177
BRANCH 175 180
ATOM    180  CB  THR d   1      10.433  -9.336  26.560  0.00  0.00    -0.048 C 
ATOM    181 4H12 THR d   1       9.684  -9.065  27.319  0.00  0.00     0.030 H 
ATOM    182 5H12 THR d   1      10.895 -10.298  26.828  0.00  0.00     0.030 H 
ATOM    183 6H12 THR d   1       9.945  -9.424  25.578  0.00  0.00     0.030 H 
ENDBRANCH 175 180
ENDBRANCH 173 175
ENDBRANCH 169 171
BRANCH 169 184
ATOM    184  CB  LYS d   1      13.996  -7.602  22.862  0.00  0.00    -0.038 C 
ATOM    185 1H11 LYS d   1      13.056  -8.130  22.643  0.00  0.00     0.036 H 
ATOM    186 2H11 LYS d   1      14.719  -7.790  22.055  0.00  0.00     0.036 H 
BRANCH 184 187
ATOM    187  CG  LYS d   1      13.695  -6.116  22.872  0.00  0.00    -0.061 C 
ATOM    188 3H11 LYS d   1      14.618  -5.560  23.091  0.00  0.00     0.033 H 
ATOM    189 4H11 LYS d   1      12.946  -5.902  23.649  0.00  0.00     0.033 H 
BRANCH 187 190
ATOM    190  CD  LYS d   1      13.155  -5.680  21.521  0.00  0.00    -0.043 C 
ATOM    191 5H11 LYS d   1      12.089  -5.942  21.458  0.00  0.00     0.035 H 
ATOM    192 6H11 LYS d   1      13.709  -6.202  20.727  0.00  0.00     0.035 H 
BRANCH 190 193
ATOM    193  CE  LYS d   1      13.311  -4.170  21.330  0.00  0.00     0.080 C 
ATOM    194 7H11 LYS d   1      14.379  -3.945  21.191  0.00  0.00     0.075 H 
ATOM    195 8H11 LYS d   1      12.945  -3.664  22.236  0.00  0.00     0.075 H 
BRANCH 193 196
ATOM    196  NZ  LYS d   1      12.555  -3.637  20.150  0.00  0.00    -0.079 N 
ATOM    197 9H11 LYS d   1      12.699  -2.642  20.081  0.00  0.00     0.274 HD
ATOM    198 0H12 LYS d   1      11.572  -3.827  20.267  0.00  0.00     0.274 HD
ATOM    199 1H12 LYS d   1      12.886  -4.084  19.309  0.00  0.00     0.274 HD
ENDBRANCH 193 196
ENDBRANCH 190 193
ENDBRANCH 187 190
ENDBRANCH 184 187
ENDBRANCH 169 184
ENDBRANCH 167 169
ENDBRANCH 163 165
BRANCH 163 200
ATOM    200  CB  HIS d   1      14.169 -12.713  24.936  0.00  0.00     0.004 C 
ATOM    201 4H10 HIS d   1      13.265 -12.181  24.605  0.00  0.00     0.046 H 
ATOM    202 5H10 HIS d   1      14.200 -12.734  26.035  0.00  0.00     0.046 H 
BRANCH 200 203
ATOM    203  CG  HIS d   1      14.086 -14.123  24.446  0.00  0.00     0.053 A 
ATOM    204  ND1 HIS d   1      13.002 -14.588  23.743  0.00  0.00    -0.247 NA
ATOM    205  CE1 HIS d   1      13.186 -15.858  23.438  0.00  0.00     0.064 A 
ATOM    206  NE2 HIS d   1      14.344 -16.241  23.935  0.00  0.00    -0.359 N 
ATOM    207 7H10 HIS d   1      12.498 -16.483  22.872  0.00  0.00     0.143 H 
ATOM    208  CD2 HIS d   1      14.929 -15.175  24.573  0.00  0.00     0.002 A 
ATOM    209 8H10 HIS d   1      14.745 -17.186  23.858  0.00  0.00     0.166 HD
ATOM    210 6H10 HIS d   1      15.890 -15.176  25.085  0.00  0.00     0.114 H 
ENDBRANCH 200 203
ENDBRANCH 163 200
ENDBRANCH 161 163
ENDBRANCH 157 159
BRANCH 157 211
ATOM    211  CB  PHE d   1      18.971 -11.190  26.785  0.00  0.00    -0.014 C 
ATOM    212  H95 PHE d   1      17.922 -11.046  27.082  0.00  0.00     0.043 H 
ATOM    213  H96 PHE d   1      19.399 -10.226  26.471  0.00  0.00     0.043 H 
BRANCH 211 214
ATOM    214  CG  PHE d   1      19.745 -11.679  28.001  0.00  0.00    -0.056 A 
ATOM    215  CD1 PHE d   1      21.106 -11.458  28.109  0.00  0.00    -0.077 A 
ATOM    216  CE1 PHE d   1      21.823 -11.867  29.229  0.00  0.00    -0.082 A 
ATOM    217  H97 PHE d   1      21.626 -10.954  27.302  0.00  0.00     0.084 H 
ATOM    218  CZ  PHE d   1      21.170 -12.500  30.284  0.00  0.00    -0.083 A 
ATOM    219  H99 PHE d   1      22.892 -11.693  29.281  0.00  0.00     0.083 H 
ATOM    220  CE2 PHE d   1      19.796 -12.727  30.196  0.00  0.00    -0.082 A 
ATOM    221 1H10 PHE d   1      21.723 -12.812  31.163  0.00  0.00     0.083 H 
ATOM    222  CD2 PHE d   1      19.091 -12.316  29.062  0.00  0.00    -0.077 A 
ATOM    223 0H10 PHE d   1      19.276 -13.222  31.008  0.00  0.00     0.083 H 
ATOM    224  H98 PHE d   1      18.023 -12.493  29.003  0.00  0.00     0.084 H 
ENDBRANCH 211 214
ENDBRANCH 157 211
ENDBRANCH 155 157
ENDBRANCH 151 153
BRANCH 151 225
ATOM    225  CB  ASP d   1      23.681 -12.937  25.192  0.00  0.00     0.043 C 
ATOM    226  H91 ASP d   1      23.596 -13.917  25.685  0.00  0.00     0.052 H 
ATOM    227  H92 ASP d   1      23.616 -12.140  25.947  0.00  0.00     0.052 H 
BRANCH 225 228
ATOM    228  CG  ASP d   1      25.049 -12.851  24.502  0.00  0.00     0.175 C 
ATOM    229  OD1 ASP d   1      25.209 -13.301  23.346  0.00  0.00    -0.648 OA
ATOM    230  OD2 ASP d   1      25.959 -12.285  25.114  0.00  0.00    -0.648 OA
ENDBRANCH 225 228
ENDBRANCH 151 225
ENDBRANCH 149 151
ENDBRANCH 145 147
BRANCH 145 231
ATOM    231  CB  LEU d   1      22.923  -9.941  20.449  0.00  0.00    -0.035 C 
ATOM    232  H80 LEU d   1      22.520 -10.720  19.786  0.00  0.00     0.037 H 
ATOM    233  H81 LEU d   1      23.961 -10.187  20.715  0.00  0.00     0.037 H 
BRANCH 231 234
ATOM    234  CG  LEU d   1      22.923  -8.603  19.682  0.00  0.00    -0.059 C 
ATOM    235  H82 LEU d   1      23.185  -7.806  20.393  0.00  0.00     0.038 H 
BRANCH 234 236
ATOM    236  CD1 LEU d   1      23.997  -8.658  18.602  0.00  0.00    -0.073 C 
ATOM    237  H83 LEU d   1      24.008  -7.708  18.047  0.00  0.00     0.028 H 
ATOM    238  H84 LEU d   1      23.779  -9.485  17.910  0.00  0.00     0.028 H 
ATOM    239  H85 LEU d   1      24.979  -8.820  19.070  0.00  0.00     0.028 H 
ENDBRANCH 234 236
BRANCH 234 240
ATOM    240  CD2 LEU d   1      21.575  -8.251  19.079  0.00  0.00    -0.073 C 
ATOM    241  H86 LEU d   1      20.816  -8.217  19.874  0.00  0.00     0.028 H 
ATOM    242  H87 LEU d   1      21.295  -9.013  18.337  0.00  0.00     0.028 H 
ATOM    243  H88 LEU d   1      21.638  -7.268  18.589  0.00  0.00     0.028 H 
ENDBRANCH 234 240
ENDBRANCH 231 234
ENDBRANCH 145 231
ENDBRANCH 143 145
ENDBRANCH 139 141
BRANCH 139 244
ATOM    244  CB  ASN d   1      22.286  -7.692  25.936  0.00  0.00     0.036 C 
ATOM    245  H74 ASN d   1      21.238  -7.987  26.095  0.00  0.00     0.051 H 
ATOM    246  H75 ASN d   1      22.513  -6.803  26.543  0.00  0.00     0.051 H 
BRANCH 244 247
ATOM    247  CG  ASN d   1      23.169  -8.811  26.379  0.00  0.00     0.217 C 
ATOM    248  OD1 ASN d   1      23.583  -9.647  25.597  0.00  0.00    -0.274 OA
ATOM    249  ND2 ASN d   1      23.449  -8.840  27.660  0.00  0.00    -0.370 N 
ATOM    250  H76 ASN d   1      24.035  -9.562  28.027  0.00  0.00     0.159 HD
ATOM    251  H77 ASN d   1      23.076  -8.140  28.269  0.00  0.00     0.159 HD
ENDBRANCH 244 247
ENDBRANCH 139 244
ENDBRANCH 137 139
ENDBRANCH   2 135
TORSDOF 67
