REMARK  4 active torsions:
REMARK  status: ('A' for Active; 'I' for Inactive)
REMARK    1  A    between atoms: CAT_5  and  NAM_6 
REMARK    2  A    between atoms: NAM_6  and  SAU_7 
REMARK    3  A    between atoms: SAU_7  and  CAQ_10 
REMARK    4  A    between atoms: CAP_15  and  CAR_16 
ROOT
ATOM      1  SAU BNJ d   1       7.183  -7.842  -3.083  0.00  0.00     0.259 S 
ATOM      2  OAB BNJ d   1       5.818  -8.349  -3.300  0.00  0.00    -0.201 OA
ATOM      3  OAC BNJ d   1       7.401  -6.585  -3.815  0.00  0.00    -0.201 OA
ENDROOT
BRANCH   1   4
ATOM      4  NAM BNJ d   1       8.324  -8.969  -3.512  0.00  0.00    -0.311 N 
ATOM      5  H10 BNJ d   1       9.181  -8.728  -3.967  0.00  0.00     0.172 HD
BRANCH   4   6
ATOM      6  CAT BNJ d   1       7.971 -10.331  -3.170  0.00  0.00     0.020 C 
ATOM      7  CAK BNJ d   1       8.622 -10.691  -1.904  0.00  0.00    -0.045 C 
ATOM      8  CAI BNJ d   1       9.061 -12.118  -2.019  0.00  0.00    -0.063 C 
ATOM      9  H1  BNJ d   1       9.493 -10.042  -1.731  0.00  0.00     0.036 H 
ATOM     10  H2  BNJ d   1       7.912 -10.582  -1.071  0.00  0.00     0.036 H 
ATOM     11  CAJ BNJ d   1       9.170 -12.396  -3.501  0.00  0.00    -0.063 C 
ATOM     12  H3  BNJ d   1       8.319 -12.786  -1.557  0.00  0.00     0.033 H 
ATOM     13  H4  BNJ d   1      10.036 -12.260  -1.530  0.00  0.00     0.033 H 
ATOM     14  CAL BNJ d   1       8.460 -11.271  -4.195  0.00  0.00    -0.045 C 
ATOM     15  H5  BNJ d   1       8.691 -13.356  -3.744  0.00  0.00     0.033 H 
ATOM     16  H6  BNJ d   1      10.226 -12.425  -3.806  0.00  0.00     0.033 H 
ATOM     17  H7  BNJ d   1       7.611 -11.666  -4.772  0.00  0.00     0.036 H 
ATOM     18  H8  BNJ d   1       9.155 -10.754  -4.873  0.00  0.00     0.036 H 
ATOM     19  H9  BNJ d   1       6.878 -10.415  -3.075  0.00  0.00     0.073 H 
ENDBRANCH   4   6
ENDBRANCH   1   4
BRANCH   1  20
ATOM     20  CAQ BNJ d   1       7.262  -7.477  -1.328  0.00  0.00     0.080 A 
ATOM     21  CAH BNJ d   1       8.347  -6.761  -0.821  0.00  0.00    -0.048 A 
ATOM     22  CAP BNJ d   1       8.379  -6.489   0.548  0.00  0.00    -0.007 A 
ATOM     23  H11 BNJ d   1       9.145  -6.425  -1.473  0.00  0.00     0.087 H 
ATOM     24  CAE BNJ d   1       7.350  -6.907   1.384  0.00  0.00    -0.071 A 
ATOM     25  CAD BNJ d   1       6.272  -7.623   0.870  0.00  0.00    -0.081 A 
ATOM     26  H14 BNJ d   1       7.387  -6.674   2.442  0.00  0.00     0.084 H 
ATOM     27  CAF BNJ d   1       6.232  -7.906  -0.500  0.00  0.00    -0.060 A 
ATOM     28  H13 BNJ d   1       5.474  -7.957   1.523  0.00  0.00     0.083 H 
ATOM     29  H12 BNJ d   1       5.398  -8.460  -0.915  0.00  0.00     0.085 H 
BRANCH  22  30
ATOM     30  CAR BNJ d   1       9.528  -5.707   1.101  0.00  0.00     0.051 A 
ATOM     31  CAG BNJ d   1       9.383  -4.832   2.197  0.00  0.00    -0.014 A 
ATOM     32  SAO BNJ d   1      10.908  -4.150   2.461  0.00  0.00    -0.053 SA
ATOM     33  H15 BNJ d   1       8.472  -4.635   2.760  0.00  0.00     0.098 H 
ATOM     34  CAS BNJ d   1      11.674  -4.952   1.186  0.00  0.00     0.221 A 
ATOM     35  OAA BNJ d   1      12.996  -4.839   0.847  0.00  0.00    -0.164 OA
ATOM     36  NAN BNJ d   1      10.790  -5.760   0.551  0.00  0.00    -0.328 N 
ATOM     37  H16 BNJ d   1      11.028  -6.333  -0.233  0.00  0.00     0.168 HD
ENDBRANCH  22  30
ENDBRANCH   1  20
TORSDOF 4
