REMARK  4 active torsions:
REMARK  status: ('A' for Active; 'I' for Inactive)
REMARK    1  A    between atoms: CAU_5  and  NAM_6 
REMARK    2  A    between atoms: NAM_6  and  SAV_7 
REMARK    3  A    between atoms: SAV_7  and  CAS_10 
REMARK    4  A    between atoms: CAQ_16  and  CAR_17 
ROOT
ATOM      1  SAV BNK d   1       8.686  -8.084  -3.591  0.00  0.00     0.260 S 
ATOM      2  OAB BNK d   1       7.521  -7.999  -4.478  0.00  0.00    -0.200 OA
ATOM      3  OAC BNK d   1       9.741  -7.132  -3.956  0.00  0.00    -0.200 OA
ENDROOT
BRANCH   1   4
ATOM      4  NAM BNK d   1       9.360  -9.574  -3.644  0.00  0.00    -0.311 N 
ATOM      5  H10 BNK d   1      10.348  -9.704  -3.723  0.00  0.00     0.172 HD
BRANCH   4   6
ATOM      6  CAU BNK d   1       8.471 -10.664  -3.573  0.00  0.00     0.020 C 
ATOM      7  CAK BNK d   1       8.943 -11.794  -4.453  0.00  0.00    -0.045 C 
ATOM      8  CAI BNK d   1       9.419 -12.891  -3.529  0.00  0.00    -0.063 C 
ATOM      9  H1  BNK d   1       8.116 -12.158  -5.080  0.00  0.00     0.036 H 
ATOM     10  H2  BNK d   1       9.768 -11.455  -5.096  0.00  0.00     0.036 H 
ATOM     11  CAJ BNK d   1       9.443 -12.297  -2.180  0.00  0.00    -0.063 C 
ATOM     12  H3  BNK d   1      10.426 -13.225  -3.818  0.00  0.00     0.033 H 
ATOM     13  H4  BNK d   1       8.726 -13.745  -3.559  0.00  0.00     0.033 H 
ATOM     14  CAL BNK d   1       8.485 -11.193  -2.197  0.00  0.00    -0.045 C 
ATOM     15  H5  BNK d   1      10.451 -11.922  -1.947  0.00  0.00     0.033 H 
ATOM     16  H6  BNK d   1       9.148 -13.045  -1.430  0.00  0.00     0.033 H 
ATOM     17  H7  BNK d   1       8.799 -10.408  -1.493  0.00  0.00     0.036 H 
ATOM     18  H8  BNK d   1       7.484 -11.556  -1.920  0.00  0.00     0.036 H 
ATOM     19  H9  BNK d   1       7.459 -10.345  -3.863  0.00  0.00     0.073 H 
ENDBRANCH   4   6
ENDBRANCH   1   4
BRANCH   1  20
ATOM     20  CAS BNK d   1       8.210  -7.703  -1.923  0.00  0.00     0.102 A 
ATOM     21  CAH BNK d   1       9.095  -6.949  -1.159  0.00  0.00    -0.046 A 
ATOM     22  CAQ BNK d   1       8.813  -6.613   0.161  0.00  0.00    -0.007 A 
ATOM     23  H11 BNK d   1      10.026  -6.616  -1.603  0.00  0.00     0.087 H 
ATOM     24  CAF BNK d   1       7.616  -7.006   0.738  0.00  0.00    -0.069 A 
ATOM     25  CAE BNK d   1       6.727  -7.759  -0.013  0.00  0.00    -0.059 A 
ATOM     26  H13 BNK d   1       7.379  -6.729   1.759  0.00  0.00     0.085 H 
ATOM     27  CAP BNK d   1       7.007  -8.112  -1.331  0.00  0.00     0.057 A 
ATOM     28  H12 BNK d   1       5.794  -8.080   0.435  0.00  0.00     0.086 H 
ATOM     29 CL   BNK d   1       5.818  -9.051  -2.176  0.00  0.00    -0.083 Cl
BRANCH  22  30
ATOM     30  CAR BNK d   1       9.805  -5.776   0.896  0.00  0.00     0.051 A 
ATOM     31  CAG BNK d   1       9.516  -4.933   1.991  0.00  0.00    -0.014 A 
ATOM     32  SAO BNK d   1      10.971  -4.173   2.409  0.00  0.00    -0.053 SA
ATOM     33  H14 BNK d   1       8.548  -4.798   2.472  0.00  0.00     0.098 H 
ATOM     34  CAT BNK d   1      11.903  -4.883   1.192  0.00  0.00     0.221 A 
ATOM     35  OAA BNK d   1      13.230  -4.699   0.960  0.00  0.00    -0.164 OA
ATOM     36  NAN BNK d   1      11.117  -5.715   0.490  0.00  0.00    -0.328 N 
ATOM     37  H15 BNK d   1      11.463  -6.255  -0.278  0.00  0.00     0.168 HD
ENDBRANCH  22  30
ENDBRANCH   1  20
TORSDOF 4
