REMARK  6 active torsions:
REMARK  status: ('A' for Active; 'I' for Inactive)
REMARK       I    between atoms: C02_2  and  N03_3 
REMARK    1  A    between atoms: C02_2  and  C25_25 
REMARK    2  A    between atoms: N03_3  and  C04_4 
REMARK    3  A    between atoms: C06_6  and  C07_7 
REMARK    4  A    between atoms: C14_14  and  S15_15 
REMARK    5  A    between atoms: S15_15  and  N18_18 
REMARK    6  A    between atoms: N18_18  and  C19_19 
ROOT
ATOM      1  C04 BNM d   1      -6.133  -7.971  -0.235  0.00  0.00     0.037 A 
ATOM      2  C05 BNM d   1      -7.033  -7.162  -0.810  0.00  0.00    -0.045 A 
ATOM      3  C06 BNM d   1      -8.344  -7.087  -0.297  0.00  0.00    -0.005 A 
ATOM      4  C13 BNM d   1      -8.666  -7.770   0.757  0.00  0.00    -0.048 A 
ATOM      5  C14 BNM d   1      -7.726  -8.618   1.355  0.00  0.00     0.082 A 
ATOM      6  C24 BNM d   1      -6.474  -8.696   0.865  0.00  0.00    -0.035 A 
ATOM      7  H2  BNM d   1      -6.753  -6.565  -1.670  0.00  0.00     0.088 H 
ATOM      8  H5  BNM d   1      -9.662  -7.684   1.175  0.00  0.00     0.087 H 
ATOM      9  H16 BNM d   1      -5.741  -9.334   1.345  0.00  0.00     0.089 H 
ENDROOT
BRANCH   5  10
ATOM     10  S15 BNM d   1      -8.131  -9.598   2.861  0.00  0.00     0.259 S 
ATOM     11  O16 BNM d   1      -9.138 -10.504   2.615  0.00  0.00    -0.201 OA
ATOM     12  O17 BNM d   1      -6.975 -10.459   3.239  0.00  0.00    -0.201 OA
BRANCH  10  13
ATOM     13  N18 BNM d   1      -8.586  -8.545   4.011  0.00  0.00    -0.311 N 
ATOM     14  H6  BNM d   1      -9.528  -8.479   4.340  0.00  0.00     0.172 HD
BRANCH  13  15
ATOM     15  C19 BNM d   1      -7.521  -7.712   4.520  0.00  0.00     0.020 C 
ATOM     16  C20 BNM d   1      -7.194  -6.542   3.648  0.00  0.00    -0.045 C 
ATOM     17  C21 BNM d   1      -6.872  -5.313   4.545  0.00  0.00    -0.063 C 
ATOM     18  H8  BNM d   1      -8.055  -6.312   3.003  0.00  0.00     0.036 H 
ATOM     19  H9  BNM d   1      -6.321  -6.781   3.023  0.00  0.00     0.036 H 
ATOM     20  C22 BNM d   1      -7.470  -5.592   5.877  0.00  0.00    -0.063 C 
ATOM     21  H10 BNM d   1      -7.313  -4.402   4.114  0.00  0.00     0.033 H 
ATOM     22  H11 BNM d   1      -5.783  -5.185   4.637  0.00  0.00     0.033 H 
ATOM     23  C23 BNM d   1      -7.953  -7.122   5.859  0.00  0.00    -0.045 C 
ATOM     24  H12 BNM d   1      -8.328  -4.926   6.054  0.00  0.00     0.033 H 
ATOM     25  H13 BNM d   1      -6.720  -5.441   6.668  0.00  0.00     0.033 H 
ATOM     26  H14 BNM d   1      -7.483  -7.676   6.685  0.00  0.00     0.036 H 
ATOM     27  H15 BNM d   1      -9.047  -7.174   5.959  0.00  0.00     0.036 H 
ATOM     28  H7  BNM d   1      -6.621  -8.331   4.648  0.00  0.00     0.073 H 
ENDBRANCH  13  15
ENDBRANCH  10  13
ENDBRANCH   5  10
BRANCH   3  29
ATOM     29  C07 BNM d   1      -9.328  -6.175  -0.923  0.00  0.00     0.052 A 
ATOM     30  C08 BNM d   1      -8.945  -5.277  -1.974  0.00  0.00    -0.013 A 
ATOM     31  S09 BNM d   1     -10.352  -4.400  -2.368  0.00  0.00    -0.039 SA
ATOM     32  H3  BNM d   1      -7.960  -5.176  -2.426  0.00  0.00     0.098 H 
ATOM     33  C10 BNM d   1     -11.370  -5.201  -1.153  0.00  0.00     0.288 A 
ATOM     34  O11 BNM d   1     -12.511  -4.980  -0.961  0.00  0.00    -0.260 OA
ATOM     35  N12 BNM d   1     -10.632  -6.089  -0.520  0.00  0.00    -0.316 N 
ATOM     36  H4  BNM d   1     -11.002  -6.664   0.209  0.00  0.00     0.169 HD
ENDBRANCH   3  29
BRANCH   1  37
ATOM     37  N03 BNM d   1      -4.701  -8.130  -0.711  0.00  0.00    -0.327 N 
ATOM     38  C02 BNM d   1      -4.102  -7.558  -1.803  0.00  0.00     0.226 C 
ATOM     39  O01 BNM d   1      -4.719  -6.813  -2.567  0.00  0.00    -0.273 OA
ATOM     40  H1  BNM d   1      -4.121  -8.728  -0.158  0.00  0.00     0.169 HD
BRANCH  38  41
ATOM     41  C25 BNM d   1      -2.646  -7.906  -2.003  0.00  0.00     0.024 A 
ATOM     42  C26 BNM d   1      -2.110  -6.715  -2.862  0.00  0.00    -0.053 A 
ATOM     43  C27 BNM d   1      -2.543  -8.037  -3.556  0.00  0.00    -0.053 A 
ATOM     44  H18 BNM d   1      -1.046  -6.441  -2.818  0.00  0.00     0.034 H 
ATOM     45  H19 BNM d   1      -2.718  -5.806  -2.982  0.00  0.00     0.034 H 
ATOM     46  H20 BNM d   1      -3.457  -8.063  -4.167  0.00  0.00     0.034 H 
ATOM     47  H21 BNM d   1      -1.785  -8.697  -4.003  0.00  0.00     0.034 H 
ATOM     48  H17 BNM d   1      -2.112  -8.481  -1.232  0.00  0.00     0.054 H 
ENDBRANCH  38  41
ENDBRANCH   1  37
TORSDOF 6
