REMARK  9 active torsions:
REMARK  status: ('A' for Active; 'I' for Inactive)
REMARK    1  A    between atoms: C20_12  and  N3_2 
REMARK    2  A    between atoms: C5_4  and  C4_3 
REMARK    3  A    between atoms: C6_5  and  C11_26 
REMARK    4  A    between atoms: N2_29  and  C13_9 
REMARK    5  A    between atoms: C17_11  and  C19_33 
REMARK    6  A    between atoms: C16_31  and  C20_12 
REMARK    7  A    between atoms: C3_24  and  C2_23 
REMARK    8  A    between atoms: C12_27  and  C9_25 
REMARK       I    between atoms: C12_27  and  N2_29 
REMARK    9  A    between atoms: N4_39  and  C25_38 
ROOT
ATOM      1  C13 0LI d   1      52.283   0.023  72.687  0.00  0.00     0.035 A 
ATOM      2  C15 0LI d   1      52.298  -0.218  70.263  0.00  0.00    -0.072 A 
ATOM      3  C17 0LI d   1      52.426   1.978  71.232  0.00  0.00     0.058 A 
ATOM      4  C14 0LI d   1      52.244  -0.768  71.543  0.00  0.00    -0.057 A 
ATOM      5  C16 0LI d   1      52.384   1.135  70.099  0.00  0.00    -0.017 A 
ATOM      6  C18 0LI d   1      52.369   1.429  72.534  0.00  0.00    -0.042 A 
ATOM      7  H   0LI d   1      52.272  -0.867  69.395  0.00  0.00     0.084 H 
ATOM      8  H   0LI d   1      52.169  -1.844  71.650  0.00  0.00     0.086 H 
ATOM      9  H   0LI d   1      52.391   2.075  73.404  0.00  0.00     0.088 H 
ENDROOT
BRANCH   1  10
ATOM     10  N2  0LI d   1      52.201  -0.607  74.016  0.00  0.00    -0.323 N 
ATOM     11  C12 0LI d   1      51.432  -0.087  75.173  0.00  0.00     0.256 C 
ATOM     12  O1  0LI d   1      50.769   0.943  75.271  0.00  0.00    -0.267 OA
ATOM     13  H   0LI d   1      52.708  -1.459  74.150  0.00  0.00     0.169 HD
BRANCH  11  14
ATOM     14  C9  0LI d   1      51.419  -0.848  76.461  0.00  0.00     0.033 A 
ATOM     15  C8  0LI d   1      52.039  -2.072  76.593  0.00  0.00    -0.067 A 
ATOM     16  C7  0LI d   1      51.984  -2.696  77.818  0.00  0.00    -0.075 A 
ATOM     17  H   0LI d   1      52.555  -2.529  75.756  0.00  0.00     0.085 H 
ATOM     18  C6  0LI d   1      51.308  -2.095  78.875  0.00  0.00    -0.043 A 
ATOM     19  H   0LI d   1      52.467  -3.656  77.960  0.00  0.00     0.084 H 
ATOM     20  C5  0LI d   1      50.677  -0.853  78.716  0.00  0.00     0.025 A 
ATOM     21  C10 0LI d   1      50.732  -0.211  77.495  0.00  0.00    -0.049 A 
ATOM     22  H   0LI d   1      50.259   0.753  77.345  0.00  0.00     0.087 H 
BRANCH  18  23
ATOM     23  C11 0LI d   1      51.268  -2.804  80.194  0.00  0.00    -0.050 C 
ATOM     24  H   0LI d   1      50.700  -2.201  80.917  0.00  0.00     0.033 H 
ATOM     25  H   0LI d   1      52.294  -2.949  80.564  0.00  0.00     0.033 H 
ATOM     26  H   0LI d   1      50.781  -3.783  80.070  0.00  0.00     0.033 H 
ENDBRANCH  18  23
BRANCH  20  27
ATOM     27  C4  0LI d   1      49.925  -0.151  79.803  0.00  0.00    -0.059 C 
ATOM     28  C3  0LI d   1      49.338   0.481  80.656  0.00  0.00    -0.040 C 
BRANCH  28  29
ATOM     29  C2  0LI d   1      48.682   1.318  81.704  0.00  0.00     0.131 A 
ATOM     30  N82 0LI d   1      47.356   1.383  82.034  0.00  0.00    -0.206 N 
ATOM     31  N81 0LI d   1      46.231   0.763  81.545  0.00  0.00    -0.177 NA
ATOM     32  C84 0LI d   1      47.249   2.287  83.073  0.00  0.00     0.151 A 
ATOM     33  C83 0LI d   1      45.028   1.034  82.071  0.00  0.00     0.022 A 
ATOM     34  C82 0LI d   1      44.891   1.926  83.096  0.00  0.00    -0.061 A 
ATOM     35  H   0LI d   1      44.145   0.534  81.674  0.00  0.00     0.117 H 
ATOM     36  C81 0LI d   1      45.994   2.572  83.619  0.00  0.00    -0.035 A 
ATOM     37  H   0LI d   1      43.903   2.130  83.505  0.00  0.00     0.086 H 
ATOM     38  H   0LI d   1      45.889   3.285  84.436  0.00  0.00     0.089 H 
ATOM     39  N1  0LI d   1      48.455   2.739  83.357  0.00  0.00    -0.238 NA
ATOM     40  C1  0LI d   1      49.351   2.184  82.559  0.00  0.00     0.041 A 
ATOM     41  H   0LI d   1      50.423   2.373  82.570  0.00  0.00     0.119 H 
ENDBRANCH  28  29
ENDBRANCH  20  27
ENDBRANCH  11  14
ENDBRANCH   1  10
BRANCH   3  42
ATOM     42  C19 0LI d   1      52.513   3.464  71.043  0.00  0.00     0.418 C 
ATOM     43  F1  0LI d   1      53.700   3.755  70.520  0.00  0.00    -0.166 F 
ATOM     44  F2  0LI d   1      52.324   4.073  72.221  0.00  0.00    -0.166 F 
ATOM     45  F3  0LI d   1      51.579   3.868  70.207  0.00  0.00    -0.166 F 
ENDBRANCH   3  42
BRANCH   5  46
ATOM     46  C20 0LI d   1      52.449   1.636  68.666  0.00  0.00     0.108 C 
ATOM     47  H   0LI d   1      51.810   2.527  68.579  0.00  0.00     0.083 H 
ATOM     48  H   0LI d   1      53.490   1.908  68.439  0.00  0.00     0.083 H 
BRANCH  46  49
ATOM     49  N3  0LI d   1      52.012   0.667  67.703  0.00  0.00    -0.064 N 
ATOM     50  C21 0LI d   1      50.577   0.750  67.483  0.00  0.00     0.106 C 
ATOM     51  C22 0LI d   1      50.094  -0.301  66.557  0.00  0.00     0.105 C 
ATOM     52  H   0LI d   1      50.340   1.736  67.056  0.00  0.00     0.078 H 
ATOM     53  H   0LI d   1      50.063   0.636  68.449  0.00  0.00     0.078 H 
ATOM     54  N4  0LI d   1      50.778  -0.084  65.324  0.00  0.00    -0.072 N 
ATOM     55  H   0LI d   1      49.007  -0.212  66.412  0.00  0.00     0.078 H 
ATOM     56  H   0LI d   1      50.331  -1.299  66.955  0.00  0.00     0.078 H 
ATOM     57  C23 0LI d   1      52.239  -0.164  65.370  0.00  0.00     0.105 C 
ATOM     58  H   0LI d   1      50.643   0.908  65.204  0.00  0.00     0.279 HD
ATOM     59  C24 0LI d   1      52.882   0.584  66.527  0.00  0.00     0.106 C 
ATOM     60  H   0LI d   1      52.521  -1.224  65.449  0.00  0.00     0.078 H 
ATOM     61  H   0LI d   1      52.634   0.252  64.432  0.00  0.00     0.078 H 
ATOM     62  H   0LI d   1      53.808   0.063  66.811  0.00  0.00     0.078 H 
ATOM     63  H   0LI d   1      53.123   1.605  66.195  0.00  0.00     0.078 H 
ATOM     64  H   0LI d   1      52.139  -0.225  68.156  0.00  0.00     0.280 HD
BRANCH  54  65
ATOM     65  C25 0LI d   1      50.158  -0.585  64.143  0.00  0.00     0.066 C 
ATOM     66  H   0LI d   1      49.067  -0.471  64.225  0.00  0.00     0.068 H 
ATOM     67  H   0LI d   1      50.408  -1.649  64.021  0.00  0.00     0.068 H 
ATOM     68  H   0LI d   1      50.520  -0.021  63.271  0.00  0.00     0.068 H 
ENDBRANCH  54  65
ENDBRANCH  46  49
ENDBRANCH   5  46
TORSDOF 9
