REMARK  5 active torsions:
REMARK  status: ('A' for Active; 'I' for Inactive)
REMARK    1  A    between atoms: C2'_10  and  O2'_11 
REMARK    2  A    between atoms: C1'_12  and  N9_13 
REMARK    3  A    between atoms: C2'1_32  and  O2'1_33 
REMARK    4  A    between atoms: C1'1_34  and  N91_35 
REMARK    5  A    between atoms: C61_39  and  N61_40 
ROOT
ATOM      1  P   2BA d   1      12.994 200.428  49.075  0.00  0.00     0.408 P 
ATOM      2  O1P 2BA d   1      12.637 201.722  48.552  0.00  0.00    -0.624 OA
ATOM      3  O2P 2BA d   1      12.583 199.235  48.309  0.00  0.00    -0.624 OA
ATOM      4  O5' 2BA d   1      14.603 200.568  49.308  0.00  0.00    -0.287 OA
ATOM      5  C5' 2BA d   1      15.262 199.518  49.929  0.00  0.00     0.058 C 
ATOM      6  C4' 2BA d   1      16.555 199.947  50.529  0.00  0.00     0.090 C 
ATOM      7  O4' 2BA d   1      17.327 200.725  49.635  0.00  0.00    -0.353 OA
ATOM      8  C3' 2BA d   1      16.302 200.793  51.722  0.00  0.00     0.106 C 
ATOM      9  O3' 2BA d   1      15.963 199.915  52.772  0.00  0.00    -0.279 OA
ATOM     10  C2' 2BA d   1      17.664 201.431  51.819  0.00  0.00     0.106 C 
ATOM     11  C1' 2BA d   1      18.052 201.644  50.381  0.00  0.00     0.140 C 
ATOM     12  P1  2BA d   1      15.510 200.490  54.146  0.00  0.00     0.408 P 
ATOM     13  O1P 2BA d   1      15.978 201.864  54.357  0.00  0.00    -0.624 OA
ATOM     14  O2P 2BA d   1      15.747 199.398  55.131  0.00  0.00    -0.624 OA
ATOM     15  O5' 2BA d   1      13.950 200.697  53.648  0.00  0.00    -0.287 OA
ATOM     16  C5' 2BA d   1      13.104 199.600  53.553  0.00  0.00     0.058 C 
ATOM     17  C4' 2BA d   1      11.871 199.991  52.781  0.00  0.00     0.090 C 
ATOM     18  O4' 2BA d   1      10.968 200.795  53.552  0.00  0.00    -0.353 OA
ATOM     19  C3' 2BA d   1      12.208 200.814  51.573  0.00  0.00     0.106 C 
ATOM     20  O3' 2BA d   1      12.653 199.971  50.538  0.00  0.00    -0.279 OA
ATOM     21  C2' 2BA d   1      10.903 201.488  51.279  0.00  0.00     0.106 C 
ATOM     22  C1' 2BA d   1      10.467 201.811  52.685  0.00  0.00     0.140 C 
ATOM     23  H   2BA d   1      15.459 198.733  49.184  0.00  0.00     0.079 H 
ATOM     24  H   2BA d   1      14.618 199.115  50.724  0.00  0.00     0.079 H 
ATOM     25  H   2BA d   1      17.125 199.052  50.820  0.00  0.00     0.090 H 
ATOM     26  H   2BA d   1      15.508 201.541  51.578  0.00  0.00     0.092 H 
ATOM     27  H   2BA d   1      17.631 202.381  52.373  0.00  0.00     0.093 H 
ATOM     28  H   2BA d   1      19.140 201.562  50.238  0.00  0.00     0.122 H 
ATOM     29  H   2BA d   1      12.817 199.268  54.562  0.00  0.00     0.079 H 
ATOM     30  H   2BA d   1      13.621 198.781  53.031  0.00  0.00     0.079 H 
ATOM     31  H   2BA d   1      11.359 199.070  52.466  0.00  0.00     0.090 H 
ATOM     32  H   2BA d   1      12.988 201.557  51.795  0.00  0.00     0.092 H 
ATOM     33  H   2BA d   1      10.973 202.386  50.647  0.00  0.00     0.093 H 
ATOM     34  H   2BA d   1       9.370 201.857  52.743  0.00  0.00     0.122 H 
ENDROOT
BRANCH  11  35
ATOM     35  N9  2BA d   1      17.506 202.935  49.885  0.00  0.00    -0.294 N 
ATOM     36  C8  2BA d   1      16.569 203.143  48.922  0.00  0.00     0.071 A 
ATOM     37  N7  2BA d   1      16.327 204.489  48.764  0.00  0.00    -0.236 NA
ATOM     38  H   2BA d   1      16.078 202.354  48.354  0.00  0.00     0.144 H 
ATOM     39  C5  2BA d   1      17.108 205.121  49.627  0.00  0.00     0.149 A 
ATOM     40  C6  2BA d   1      17.418 206.511  50.005  0.00  0.00     0.155 A 
ATOM     41  C4  2BA d   1      17.876 204.116  50.356  0.00  0.00     0.167 A 
ATOM     42  N6  2BA d   1      16.789 207.492  49.413  0.00  0.00    -0.382 N 
ATOM     43  N1  2BA d   1      18.319 206.783  50.962  0.00  0.00    -0.222 NA
ATOM     44  H   2BA d   1      16.998 208.467  49.670  0.00  0.00     0.157 HD
ATOM     45  H   2BA d   1      16.084 207.290  48.690  0.00  0.00     0.157 HD
ATOM     46  C2  2BA d   1      18.982 205.809  51.604  0.00  0.00     0.091 A 
ATOM     47  N3  2BA d   1      18.750 204.516  51.318  0.00  0.00    -0.222 NA
ATOM     48  H   2BA d   1      19.713 206.068  52.362  0.00  0.00     0.146 H 
ENDBRANCH  11  35
BRANCH  10  49
ATOM     49  O2' 2BA d   1      18.540 200.547  52.428  0.00  0.00    -0.388 OA
ATOM     50  H   2BA d   1      18.223 200.338  53.299  0.00  0.00     0.210 HD
ENDBRANCH  10  49
BRANCH  21  51
ATOM     51  O2' 2BA d   1      10.190 200.481  50.662  0.00  0.00    -0.388 OA
ATOM     52  H   2BA d   1      10.650 200.203  49.879  0.00  0.00     0.210 HD
ENDBRANCH  21  51
BRANCH  22  53
ATOM     53  N91 2BA d   1      11.063 203.125  53.090  0.00  0.00    -0.294 N 
ATOM     54  C81 2BA d   1      12.100 203.387  53.953  0.00  0.00     0.071 A 
ATOM     55  N71 2BA d   1      12.300 204.723  54.091  0.00  0.00    -0.236 NA
ATOM     56  H   2BA d   1      12.686 202.622  54.461  0.00  0.00     0.144 H 
ATOM     57  C51 2BA d   1      11.405 205.267  53.274  0.00  0.00     0.149 A 
ATOM     58  C61 2BA d   1      11.067 206.598  52.904  0.00  0.00     0.155 A 
ATOM     59  C41 2BA d   1      10.587 204.269  52.636  0.00  0.00     0.167 A 
ATOM     60  N11 2BA d   1      10.068 206.846  52.043  0.00  0.00    -0.222 NA
ATOM     61  C21 2BA d   1       9.338 205.856  51.477  0.00  0.00     0.091 A 
ATOM     62  N31 2BA d   1       9.586 204.593  51.791  0.00  0.00    -0.222 NA
ATOM     63  H   2BA d   1       8.553 206.096  50.769  0.00  0.00     0.146 H 
BRANCH  58  64
ATOM     64  N61 2BA d   1      11.825 207.503  53.451  0.00  0.00    -0.382 N 
ATOM     65  H   2BA d   1      11.665 208.500  53.249  0.00  0.00     0.157 HD
ATOM     66  H   2BA d   1      12.586 207.222  54.086  0.00  0.00     0.157 HD
ENDBRANCH  58  64
ENDBRANCH  22  53
TORSDOF 5
