REMARK  6 active torsions:
REMARK  status: ('A' for Active; 'I' for Inactive)
REMARK    1  A    between atoms: P_1  and  O5'_4 
REMARK    2  A    between atoms: O5'_4  and  C5'_5 
REMARK    3  A    between atoms: C5'_5  and  C4'_6 
REMARK    4  A    between atoms: C3'_8  and  O3'_9 
REMARK    5  A    between atoms: C2'_10  and  O2'_11 
REMARK    6  A    between atoms: C1'_12  and  N9_13 
ROOT
ATOM      1  C4' 2BA d   1     204.944  -7.303  90.860  0.00  0.00     0.089 C 
ATOM      2  O4' 2BA d   1     205.569  -7.989  89.804  0.00  0.00    -0.353 OA
ATOM      3  C3' 2BA d   1     203.714  -8.091  91.160  0.00  0.00     0.091 C 
ATOM      4  C2' 2BA d   1     203.326  -8.688  89.829  0.00  0.00     0.105 C 
ATOM      5  C1' 2BA d   1     204.676  -8.937  89.229  0.00  0.00     0.139 C 
ATOM      6  H   2BA d   1     204.644  -6.310  90.495  0.00  0.00     0.090 H 
ATOM      7  H   2BA d   1     203.911  -8.878  91.903  0.00  0.00     0.091 H 
ATOM      8  H   2BA d   1     202.755  -9.620  89.954  0.00  0.00     0.093 H 
ATOM      9  H   2BA d   1     204.631  -8.825  88.136  0.00  0.00     0.122 H 
ENDROOT
BRANCH   5  10
ATOM     10  N9  2BA d   1     205.193 -10.296  89.588  0.00  0.00    -0.294 N 
ATOM     11  C8  2BA d   1     206.285 -10.564  90.344  0.00  0.00     0.071 A 
ATOM     12  N7  2BA d   1     206.484 -11.896  90.448  0.00  0.00    -0.236 NA
ATOM     13  H   2BA d   1     206.917  -9.807  90.806  0.00  0.00     0.144 H 
ATOM     14  C5  2BA d   1     205.531 -12.503  89.745  0.00  0.00     0.149 A 
ATOM     15  C6  2BA d   1     205.159 -13.899  89.432  0.00  0.00     0.155 A 
ATOM     16  C4  2BA d   1     204.683 -11.451  89.185  0.00  0.00     0.167 A 
ATOM     17  N6  2BA d   1     205.856 -14.934  89.900  0.00  0.00    -0.382 N 
ATOM     18  N1  2BA d   1     204.081 -14.115  88.673  0.00  0.00    -0.222 NA
ATOM     19  H   2BA d   1     205.571 -15.895  89.664  0.00  0.00     0.157 HD
ATOM     20  H   2BA d   1     206.679 -14.773  90.498  0.00  0.00     0.157 HD
ATOM     21  C2  2BA d   1     203.348 -13.092  88.192  0.00  0.00     0.091 A 
ATOM     22  N3  2BA d   1     203.640 -11.794  88.414  0.00  0.00    -0.222 NA
ATOM     23  H   2BA d   1     202.475 -13.325  87.593  0.00  0.00     0.146 H 
ENDBRANCH   5  10
BRANCH   4  24
ATOM     24  O2' 2BA d   1     202.575  -7.765  89.023  0.00  0.00    -0.388 OA
ATOM     25  H   2BA d   1     201.780  -7.520  89.482  0.00  0.00     0.210 HD
ENDBRANCH   4  24
BRANCH   1  26
ATOM     26  C5' 2BA d   1     205.817  -7.072  92.083  0.00  0.00     0.056 C 
ATOM     27  H   2BA d   1     206.572  -6.329  91.788  0.00  0.00     0.079 H 
ATOM     28  H   2BA d   1     205.161  -6.642  92.854  0.00  0.00     0.079 H 
BRANCH  26  29
ATOM     29  O5' 2BA d   1     206.520  -8.127  92.704  0.00  0.00    -0.311 OA
BRANCH  29  30
ATOM     30  P   2BA d   1     207.544  -7.691  93.929  0.00  0.00     0.240 P 
ATOM     31  O1P 2BA d   1     207.806  -8.816  94.892  0.00  0.00    -0.648 OA
ATOM     32  O2P 2BA d   1     208.717  -6.829  93.480  0.00  0.00    -0.648 OA
ATOM     33  H   2BA d   1     206.997  -7.048  94.480  0.00  0.00     0.164 HD
ENDBRANCH  29  30
ENDBRANCH  26  29
ENDBRANCH   1  26
BRANCH   3  34
ATOM     34  O3' 2BA d   1     202.719  -7.219  91.632  0.00  0.00    -0.390 OA
ATOM     35  H   2BA d   1     202.529  -6.567  90.967  0.00  0.00     0.210 HD
ENDBRANCH   3  34
TORSDOF 6
