REMARK  10 active torsions:
REMARK  status: ('A' for Active; 'I' for Inactive)
REMARK    1  A    between atoms: S28_2  and  N31_4 
REMARK    2  A    between atoms: S28_2  and  C10_5 
REMARK    3  A    between atoms: C9_6  and  N8_7 
REMARK    4  A    between atoms: N8_7  and  C4_8 
REMARK    5  A    between atoms: C2_13  and  C1_14 
REMARK    6  A    between atoms: C17_22  and  C19_25 
REMARK    7  A    between atoms: C20_26  and  O24_27 
REMARK    8  A    between atoms: O24_27  and  C25_28 
REMARK    9  A    between atoms: C21_30  and  O26_31 
REMARK   10  A    between atoms: O26_31  and  C27_32 
ROOT
ATOM      1  C10 38K d   1      64.956 -20.200 -44.477  0.00  0.00     0.124 A 
ATOM      2  C9  38K d   1      64.807 -21.149 -45.517  0.00  0.00     0.070 A 
ATOM      3  C11 38K d   1      65.879 -19.150 -44.623  0.00  0.00     0.028 A 
ATOM      4  N12 38K d   1      66.620 -19.018 -45.717  0.00  0.00    -0.259 NA
ATOM      5  C13 38K d   1      66.519 -19.891 -46.737  0.00  0.00     0.070 A 
ATOM      6  C14 38K d   1      65.622 -20.968 -46.664  0.00  0.00     0.021 A 
ATOM      7  C18 38K d   1      67.340 -19.686 -47.856  0.00  0.00    -0.043 A 
ATOM      8  C17 38K d   1      67.296 -20.532 -48.960  0.00  0.00    -0.018 A 
ATOM      9  C16 38K d   1      66.428 -21.610 -48.886  0.00  0.00    -0.071 A 
ATOM     10  C15 38K d   1      65.612 -21.828 -47.769  0.00  0.00    -0.068 A 
ATOM     11  H   38K d   1      65.989 -18.429 -43.821  0.00  0.00     0.117 H 
ATOM     12  H   38K d   1      68.026 -18.847 -47.861  0.00  0.00     0.088 H 
ATOM     13  H   38K d   1      66.379 -22.305 -49.717  0.00  0.00     0.084 H 
ATOM     14  H   38K d   1      64.953 -22.688 -47.760  0.00  0.00     0.085 H 
ENDROOT
BRANCH   8  15
ATOM     15  C19 38K d   1      68.194 -20.302 -50.156  0.00  0.00     0.045 A 
ATOM     16  C20 38K d   1      69.003 -21.326 -50.651  0.00  0.00     0.180 A 
ATOM     17  N25 38K d   1      69.803 -21.096 -51.707  0.00  0.00    -0.182 NA
ATOM     18  C21 38K d   1      69.853 -19.886 -52.304  0.00  0.00     0.270 A 
ATOM     19  N22 38K d   1      69.077 -18.866 -51.837  0.00  0.00    -0.218 NA
ATOM     20  C23 38K d   1      68.257 -19.054 -50.793  0.00  0.00     0.021 A 
ATOM     21  H   38K d   1      67.639 -18.237 -50.439  0.00  0.00     0.116 H 
BRANCH  16  22
ATOM     22  O24 38K d   1      69.008 -22.584 -50.080  0.00  0.00    -0.339 OA
BRANCH  22  23
ATOM     23  C25 38K d   1      69.353 -23.756 -50.827  0.00  0.00     0.012 C 
ATOM     24  H   38K d   1      69.289 -24.639 -50.174  0.00  0.00     0.067 H 
ATOM     25  H   38K d   1      70.379 -23.657 -51.211  0.00  0.00     0.067 H 
ATOM     26  H   38K d   1      68.656 -23.872 -51.670  0.00  0.00     0.067 H 
ENDBRANCH  22  23
ENDBRANCH  16  22
BRANCH  18  27
ATOM     27  O26 38K d   1      70.718 -19.721 -53.379  0.00  0.00    -0.324 OA
BRANCH  27  28
ATOM     28  C27 38K d   1      72.048 -20.294 -53.423  0.00  0.00     0.013 C 
ATOM     29  H   38K d   1      72.533 -20.023 -54.373  0.00  0.00     0.067 H 
ATOM     30  H   38K d   1      71.978 -21.389 -53.346  0.00  0.00     0.067 H 
ATOM     31  H   38K d   1      72.643 -19.905 -52.584  0.00  0.00     0.067 H 
ENDBRANCH  27  28
ENDBRANCH  18  27
ENDBRANCH   8  15
BRANCH   2  32
ATOM     32  N8  38K d   1      63.768 -22.052 -45.432  0.00  0.00    -0.354 N 
ATOM     33  H   38K d   1      63.638 -22.507 -44.517  0.00  0.00     0.166 HD
BRANCH  32  34
ATOM     34  C4  38K d   1      62.893 -22.415 -46.411  0.00  0.00     0.033 A 
ATOM     35  C3  38K d   1      62.399 -23.726 -46.391  0.00  0.00    -0.041 A 
ATOM     36  C2  38K d   1      61.632 -24.247 -47.431  0.00  0.00     0.043 A 
ATOM     37  H   38K d   1      62.621 -24.356 -45.538  0.00  0.00     0.088 H 
ATOM     38  C7  38K d   1      61.335 -23.462 -48.515  0.00  0.00    -0.066 A 
ATOM     39  C6  38K d   1      61.803 -22.150 -48.552  0.00  0.00    -0.080 A 
ATOM     40  H   38K d   1      60.743 -23.857 -49.333  0.00  0.00     0.085 H 
ATOM     41  C5  38K d   1      62.565 -21.625 -47.500  0.00  0.00    -0.057 A 
ATOM     42  H   38K d   1      61.574 -21.526 -49.408  0.00  0.00     0.083 H 
ATOM     43  H   38K d   1      62.900 -20.595 -47.539  0.00  0.00     0.086 H 
BRANCH  36  44
ATOM     44  C1  38K d   1      61.144 -25.651 -47.378  0.00  0.00     0.209 C 
ATOM     45  O47 38K d   1      59.930 -25.893 -47.285  0.00  0.00    -0.644 OA
ATOM     46  O49 38K d   1      61.996 -26.557 -47.406  0.00  0.00    -0.644 OA
ENDBRANCH  36  44
ENDBRANCH  32  34
ENDBRANCH   2  32
BRANCH   1  47
ATOM     47  S28 38K d   1      64.073 -20.202 -43.107  0.00  0.00     0.260 S 
ATOM     48  O30 38K d   1      64.260 -21.498 -42.413  0.00  0.00    -0.201 OA
ATOM     49  O29 38K d   1      64.464 -19.001 -42.338  0.00  0.00    -0.201 OA
BRANCH  47  50
ATOM     50  N31 38K d   1      62.613 -19.914 -43.360  0.00  0.00    -0.324 N 
ATOM     51  H   38K d   1      62.056 -20.566 -43.875  0.00  0.00     0.169 HD
ATOM     52  H   38K d   1      62.202 -19.071 -43.013  0.00  0.00     0.169 HD
ENDBRANCH  47  50
ENDBRANCH   1  47
TORSDOF 10
