REMARK  5 active torsions:
REMARK  status: ('A' for Active; 'I' for Inactive)
REMARK    1  A    between atoms: NAR_9  and  C1'_10 
REMARK    2  A    between atoms: C4'_12  and  C5'_13 
REMARK    3  A    between atoms: C5'_13  and  O5'_14 
REMARK    4  A    between atoms: C3'_15  and  O3'_16 
REMARK    5  A    between atoms: C2'_17  and  O2'_18 
ROOT
ATOM      1  C1' 38T d   1      28.249  46.418 -10.673  0.00  0.00     0.137 C 
ATOM      2  O4' 38T d   1      28.162  46.992  -9.301  0.00  0.00    -0.354 OA
ATOM      3  C4' 38T d   1      27.887  48.434  -9.448  0.00  0.00     0.088 C 
ATOM      4  C3' 38T d   1      27.289  48.576 -10.881  0.00  0.00     0.091 C 
ATOM      5  C2' 38T d   1      28.185  47.621 -11.654  0.00  0.00     0.104 C 
ATOM      6  H   38T d   1      29.208  45.890 -10.783  0.00  0.00     0.122 H 
ATOM      7  H   38T d   1      28.829  48.998  -9.382  0.00  0.00     0.090 H 
ATOM      8  H   38T d   1      26.237  48.255 -10.910  0.00  0.00     0.091 H 
ATOM      9  H   38T d   1      27.735  47.330 -12.615  0.00  0.00     0.093 H 
ENDROOT
BRANCH   1  10
ATOM     10  NAR 38T d   1      27.146  45.473 -10.997  0.00  0.00    -0.300 N 
ATOM     11  CAM 38T d   1      27.317  44.579 -12.007  0.00  0.00     0.327 A 
ATOM     12  OAC 38T d   1      28.334  44.472 -12.704  0.00  0.00    -0.247 OA
ATOM     13  NAI 38T d   1      26.294  43.725 -12.328  0.00  0.00    -0.275 N 
ATOM     14  CAL 38T d   1      25.067  43.731 -11.644  0.00  0.00     0.256 A 
ATOM     15  H   38T d   1      26.426  43.074 -13.076  0.00  0.00     0.173 HD
ATOM     16  OAB 38T d   1      24.275  42.890 -12.040  0.00  0.00    -0.267 OA
ATOM     17  CAK 38T d   1      24.857  44.622 -10.604  0.00  0.00     0.019 A 
ATOM     18  CAA 38T d   1      23.652  44.662  -9.846  0.00  0.00    -0.109 C 
ATOM     19  CAG 38T d   1      25.916  45.506 -10.286  0.00  0.00     0.030 A 
ATOM     20  H   38T d   1      23.541  45.384  -9.038  0.00  0.00     0.067 H 
ATOM     21  H   38T d   1      22.842  43.971 -10.074  0.00  0.00     0.067 H 
ATOM     22  H   38T d   1      26.163  45.328  -9.229  0.00  0.00     0.072 H 
ATOM     23  H   38T d   1      25.517  46.524 -10.403  0.00  0.00     0.072 H 
ENDBRANCH   1  10
BRANCH   5  24
ATOM     24  O2' 38T d   1      29.509  48.223 -11.896  0.00  0.00    -0.388 OA
ATOM     25  H   38T d   1      29.405  49.022 -12.400  0.00  0.00     0.210 HD
ENDBRANCH   5  24
BRANCH   3  26
ATOM     26  C5' 38T d   1      26.943  48.961  -8.379  0.00  0.00     0.043 C 
ATOM     27  H   38T d   1      26.859  50.056  -8.436  0.00  0.00     0.078 H 
ATOM     28  H   38T d   1      27.287  48.672  -7.375  0.00  0.00     0.078 H 
BRANCH  26  29
ATOM     29  O5' 38T d   1      25.695  48.338  -8.688  0.00  0.00    -0.398 OA
ATOM     30  H   38T d   1      25.039  48.617  -8.060  0.00  0.00     0.209 HD
ENDBRANCH  26  29
ENDBRANCH   3  26
BRANCH   4  31
ATOM     31  O3' 38T d   1      27.389  49.956 -11.395  0.00  0.00    -0.390 OA
ATOM     32  H   38T d   1      28.302  50.214 -11.430  0.00  0.00     0.210 HD
ENDBRANCH   4  31
TORSDOF 5
