REMARK  3 active torsions:
REMARK  status: ('A' for Active; 'I' for Inactive)
REMARK    1  A    between atoms: NAP_9  and  CAO_10 
REMARK    2  A    between atoms: CAN_14  and  CAF_15 
REMARK    3  A    between atoms: CAF_15  and  OAD_16 
ROOT
ATOM      1  CAO 38S d   1      28.112  46.396 -10.595  0.00  0.00     0.110 C 
ATOM      2  OAJ 38S d   1      28.100  46.576  -9.175  0.00  0.00    -0.359 OA
ATOM      3  CAH 38S d   1      27.750  47.700 -11.186  0.00  0.00    -0.022 C 
ATOM      4  CAG 38S d   1      28.576  48.590 -10.348  0.00  0.00    -0.035 C 
ATOM      5  CAN 38S d   1      28.465  47.944  -8.945  0.00  0.00     0.061 C 
ATOM      6  H   38S d   1      29.098  46.055 -10.945  0.00  0.00     0.118 H 
ATOM      7  H   38S d   1      26.677  47.915 -11.078  0.00  0.00     0.039 H 
ATOM      8  H   38S d   1      28.031  47.761 -12.248  0.00  0.00     0.039 H 
ATOM      9  H   38S d   1      28.176  49.615 -10.345  0.00  0.00     0.037 H 
ATOM     10  H   38S d   1      29.620  48.605 -10.695  0.00  0.00     0.037 H 
ATOM     11  H   38S d   1      29.448  47.984  -8.452  0.00  0.00     0.086 H 
ENDROOT
BRANCH   1  12
ATOM     12  NAP 38S d   1      27.056  45.428 -10.961  0.00  0.00    -0.303 N 
ATOM     13  CAM 38S d   1      27.317  44.444 -11.839  0.00  0.00     0.327 A 
ATOM     14  OAC 38S d   1      28.418  44.278 -12.359  0.00  0.00    -0.247 OA
ATOM     15  NAI 38S d   1      26.326  43.547 -12.169  0.00  0.00    -0.275 N 
ATOM     16  CAL 38S d   1      25.040  43.654 -11.627  0.00  0.00     0.256 A 
ATOM     17  H   38S d   1      26.529  42.805 -12.808  0.00  0.00     0.173 HD
ATOM     18  OAB 38S d   1      24.258  42.790 -11.984  0.00  0.00    -0.267 OA
ATOM     19  CAK 38S d   1      24.745  44.654 -10.710  0.00  0.00     0.019 A 
ATOM     20  CAA 38S d   1      23.474  44.801 -10.119  0.00  0.00    -0.109 C 
ATOM     21  CAE 38S d   1      25.766  45.551 -10.380  0.00  0.00     0.030 A 
ATOM     22  H   38S d   1      23.295  45.603  -9.405  0.00  0.00     0.067 H 
ATOM     23  H   38S d   1      22.671  44.112 -10.377  0.00  0.00     0.067 H 
ATOM     24  H   38S d   1      25.904  45.483  -9.291  0.00  0.00     0.072 H 
ATOM     25  H   38S d   1      25.399  46.555 -10.641  0.00  0.00     0.072 H 
ENDBRANCH   1  12
BRANCH   5  26
ATOM     26  CAF 38S d   1      27.449  48.646  -8.034  0.00  0.00     0.041 C 
ATOM     27  H   38S d   1      27.821  49.639  -7.740  0.00  0.00     0.077 H 
ATOM     28  H   38S d   1      27.263  48.043  -7.133  0.00  0.00     0.077 H 
BRANCH  26  29
ATOM     29  OAD 38S d   1      26.235  48.774  -8.813  0.00  0.00    -0.398 OA
ATOM     30  H   38S d   1      26.412  49.289  -9.591  0.00  0.00     0.209 HD
ENDBRANCH  26  29
ENDBRANCH   5  26
TORSDOF 3
