REMARK  9 active torsions:
REMARK  status: ('A' for Active; 'I' for Inactive)
REMARK    1  A    between atoms: C18_2  and  C14_4 
REMARK    2  A    between atoms: C12_9  and  N11_10 
REMARK    3  A    between atoms: N11_10  and  C10_11 
REMARK    4  A    between atoms: C9_12  and  C21_13 
REMARK       I    between atoms: C21_13  and  N22_14 
REMARK    5  A    between atoms: C2_22  and  C23_24 
REMARK    6  A    between atoms: C26_27  and  O31_28 
REMARK    7  A    between atoms: O31_28  and  C32_29 
REMARK    8  A    between atoms: C28_31  and  O29_32 
REMARK    9  A    between atoms: O29_32  and  C30_33 
ROOT
ATOM      1  C10 38Q d   1     -64.818  21.582 -45.402  0.00  0.00     0.062 A 
ATOM      2  C9  38Q d   1     -64.715  20.619 -44.375  0.00  0.00     0.076 A 
ATOM      3  C5  38Q d   1     -65.517  21.229 -46.578  0.00  0.00     0.021 A 
ATOM      4  C6  38Q d   1     -66.121  19.975 -46.680  0.00  0.00     0.069 A 
ATOM      5  N7  38Q d   1     -66.022  19.092 -45.651  0.00  0.00    -0.259 NA
ATOM      6  C8  38Q d   1     -65.342  19.391 -44.533  0.00  0.00     0.020 A 
ATOM      7  C4  38Q d   1     -65.648  22.117 -47.650  0.00  0.00    -0.068 A 
ATOM      8  C3  38Q d   1     -66.359  21.767 -48.795  0.00  0.00    -0.071 A 
ATOM      9  C2  38Q d   1     -66.930  20.506 -48.933  0.00  0.00    -0.018 A 
ATOM     10  C1  38Q d   1     -66.823  19.633 -47.844  0.00  0.00    -0.043 A 
ATOM     11  H   38Q d   1     -65.281  18.658 -43.737  0.00  0.00     0.116 H 
ATOM     12  H   38Q d   1     -65.187  23.096 -47.589  0.00  0.00     0.085 H 
ATOM     13  H   38Q d   1     -66.470  22.491 -49.594  0.00  0.00     0.084 H 
ATOM     14  H   38Q d   1     -67.299  18.661 -47.903  0.00  0.00     0.088 H 
ENDROOT
BRANCH   9  15
ATOM     15  C23 38Q d   1     -67.759  20.103 -50.134  0.00  0.00     0.045 A 
ATOM     16  C24 38Q d   1     -67.778  18.786 -50.651  0.00  0.00     0.021 A 
ATOM     17  N25 38Q d   1     -68.587  18.449 -51.677  0.00  0.00    -0.218 NA
ATOM     18  H   38Q d   1     -67.131  18.034 -50.215  0.00  0.00     0.116 H 
ATOM     19  C26 38Q d   1     -69.394  19.408 -52.204  0.00  0.00     0.270 A 
ATOM     20  N27 38Q d   1     -69.395  20.649 -51.716  0.00  0.00    -0.182 NA
ATOM     21  C28 38Q d   1     -68.634  21.035 -50.702  0.00  0.00     0.180 A 
BRANCH  19  22
ATOM     22  O31 38Q d   1     -70.270  19.229 -53.252  0.00  0.00    -0.324 OA
BRANCH  22  23
ATOM     23  C32 38Q d   1     -71.400  20.123 -53.434  0.00  0.00     0.013 C 
ATOM     24  H   38Q d   1     -71.973  19.813 -54.320  0.00  0.00     0.067 H 
ATOM     25  H   38Q d   1     -71.035  21.151 -53.574  0.00  0.00     0.067 H 
ATOM     26  H   38Q d   1     -72.047  20.081 -52.546  0.00  0.00     0.067 H 
ENDBRANCH  22  23
ENDBRANCH  19  22
BRANCH  21  27
ATOM     27  O29 38Q d   1     -68.781  22.352 -50.307  0.00  0.00    -0.339 OA
BRANCH  27  28
ATOM     28  C30 38Q d   1     -69.537  23.300 -51.095  0.00  0.00     0.012 C 
ATOM     29  H   38Q d   1     -69.524  24.282 -50.599  0.00  0.00     0.067 H 
ATOM     30  H   38Q d   1     -70.576  22.951 -51.191  0.00  0.00     0.067 H 
ATOM     31  H   38Q d   1     -69.086  23.388 -52.094  0.00  0.00     0.067 H 
ENDBRANCH  27  28
ENDBRANCH  21  27
ENDBRANCH   9  15
BRANCH   1  32
ATOM     32  N11 38Q d   1     -64.056  22.727 -45.453  0.00  0.00    -0.355 N 
ATOM     33  H   38Q d   1     -64.351  23.537 -44.889  0.00  0.00     0.166 HD
BRANCH  32  34
ATOM     34  C12 38Q d   1     -62.936  22.843 -46.209  0.00  0.00     0.033 A 
ATOM     35  C17 38Q d   1     -62.269  21.853 -46.885  0.00  0.00    -0.057 A 
ATOM     36  C16 38Q d   1     -61.152  22.209 -47.660  0.00  0.00    -0.080 A 
ATOM     37  H   38Q d   1     -62.596  20.821 -46.823  0.00  0.00     0.086 H 
ATOM     38  C15 38Q d   1     -60.715  23.536 -47.778  0.00  0.00    -0.066 A 
ATOM     39  H   38Q d   1     -60.610  21.431 -48.185  0.00  0.00     0.083 H 
ATOM     40  C14 38Q d   1     -61.409  24.526 -47.115  0.00  0.00     0.043 A 
ATOM     41  H   38Q d   1     -59.847  23.779 -48.380  0.00  0.00     0.085 H 
ATOM     42  C13 38Q d   1     -62.492  24.169 -46.336  0.00  0.00    -0.041 A 
ATOM     43  H   38Q d   1     -63.023  24.947 -45.799  0.00  0.00     0.088 H 
BRANCH  40  44
ATOM     44  C18 38Q d   1     -60.971  25.950 -47.181  0.00  0.00     0.209 C 
ATOM     45  O19 38Q d   1     -59.866  26.168 -47.670  0.00  0.00    -0.644 OA
ATOM     46  O20 38Q d   1     -61.657  26.883 -46.717  0.00  0.00    -0.644 OA
ENDBRANCH  40  44
ENDBRANCH  32  34
ENDBRANCH   1  32
BRANCH   2  47
ATOM     47  C21 38Q d   1     -63.965  20.894 -43.102  0.00  0.00     0.253 C 
ATOM     48  N22 38Q d   1     -63.415  19.906 -42.416  0.00  0.00    -0.366 N 
ATOM     49  H   38Q d   1     -62.918  20.101 -41.570  0.00  0.00     0.159 HD
ATOM     50  H   38Q d   1     -63.496  18.965 -42.743  0.00  0.00     0.159 HD
ATOM     51  O33 38Q d   1     -63.831  22.033 -42.701  0.00  0.00    -0.268 OA
ENDBRANCH   2  47
TORSDOF 9
