REMARK  7 active torsions:
REMARK  status: ('A' for Active; 'I' for Inactive)
REMARK    1  A    between atoms: N2_2  and  S1_1 
REMARK    2  A    between atoms: S1_1  and  C20_20 
REMARK       I    between atoms: C3_3  and  N4_4 
REMARK       I    between atoms: N13_13  and  C3_3 
REMARK    3  A    between atoms: N4_4  and  C7_7 
REMARK    4  A    between atoms: N13_13  and  C18_18 
REMARK    5  A    between atoms: C20_20  and  C24_24 
REMARK    6  A    between atoms: C24_24  and  C25_25 
REMARK    7  A    between atoms: C24_24  and  C26_26 
ROOT
ATOM      1  N2  3C9 d   1       3.438 -16.652  -6.202  0.00  0.00    -0.309 N 
ATOM      2  C10 3C9 d   1       3.085 -17.925  -5.514  0.00  0.00     0.024 C 
ATOM      3  C18 3C9 d   1       1.614 -18.304  -5.710  0.00  0.00     0.030 C 
ATOM      4  C21 3C9 d   1       2.840 -16.210  -7.486  0.00  0.00     0.005 C 
ATOM      5  C22 3C9 d   1       1.350 -16.569  -7.562  0.00  0.00    -0.048 C 
ATOM      6  C23 3C9 d   1       1.188 -18.054  -7.175  0.00  0.00    -0.043 C 
ATOM      7  H2  3C9 d   1       3.280 -17.811  -4.438  0.00  0.00     0.068 H 
ATOM      8  H3  3C9 d   1       3.715 -18.732  -5.918  0.00  0.00     0.068 H 
ATOM      9  H8  3C9 d   1       1.484 -19.363  -5.444  0.00  0.00     0.075 H 
ATOM     10  H12 3C9 d   1       3.369 -16.702  -8.316  0.00  0.00     0.065 H 
ATOM     11  H13 3C9 d   1       2.950 -15.119  -7.576  0.00  0.00     0.065 H 
ATOM     12  H14 3C9 d   1       0.981 -16.409  -8.586  0.00  0.00     0.035 H 
ATOM     13  H15 3C9 d   1       0.780 -15.939  -6.864  0.00  0.00     0.035 H 
ATOM     14  H16 3C9 d   1       0.133 -18.342  -7.295  0.00  0.00     0.036 H 
ATOM     15  H17 3C9 d   1       1.814 -18.668  -7.840  0.00  0.00     0.036 H 
ENDROOT
BRANCH   3  16
ATOM     16  N13 3C9 d   1       0.687 -17.474  -4.929  0.00  0.00    -0.337 N 
ATOM     17  C3  3C9 d   1      -0.408 -18.055  -4.394  0.00  0.00     0.322 C 
ATOM     18  N4  3C9 d   1      -1.347 -17.349  -3.708  0.00  0.00    -0.292 N 
ATOM     19  O17 3C9 d   1      -0.533 -19.257  -4.535  0.00  0.00    -0.247 OA
ATOM     20  H1  3C9 d   1      -2.113 -17.833  -3.284  0.00  0.00     0.172 HD
ATOM     21  H6  3C9 d   1       0.863 -16.499  -4.796  0.00  0.00     0.164 HD
BRANCH  18  22
ATOM     22  C7  3C9 d   1      -1.261 -15.962  -3.585  0.00  0.00     0.149 A 
ATOM     23  N5  3C9 d   1      -0.179 -15.287  -3.988  0.00  0.00    -0.226 NA
ATOM     24  C8  3C9 d   1      -0.169 -13.936  -3.910  0.00  0.00     0.106 A 
ATOM     25  C6  3C9 d   1      -1.310 -13.233  -3.400  0.00  0.00     0.156 A 
ATOM     26  C12 3C9 d   1       0.826 -12.911  -4.241  0.00  0.00    -0.036 A 
ATOM     27  N9  3C9 d   1      -2.391 -13.925  -3.002  0.00  0.00    -0.237 NA
ATOM     28  N11 3C9 d   1      -1.026 -11.890  -3.425  0.00  0.00    -0.349 N 
ATOM     29  C19 3C9 d   1      -2.380 -15.261  -3.091  0.00  0.00     0.049 A 
ATOM     30  H9  3C9 d   1      -3.255 -15.818  -2.775  0.00  0.00     0.120 H 
ATOM     31  C16 3C9 d   1       0.248 -11.728  -3.941  0.00  0.00    -0.019 A 
ATOM     32  H4  3C9 d   1      -1.653 -11.134  -3.114  0.00  0.00     0.167 HD
ATOM     33  H7  3C9 d   1       0.727 -10.761  -4.088  0.00  0.00     0.111 H 
ATOM     34  H5  3C9 d   1       1.825 -13.071  -4.645  0.00  0.00     0.089 H 
ENDBRANCH  18  22
ENDBRANCH   3  16
BRANCH   1  35
ATOM     35  S1  3C9 d   1       4.624 -15.703  -5.522  0.00  0.00     0.229 S 
ATOM     36  O14 3C9 d   1       4.327 -14.380  -5.993  0.00  0.00    -0.206 OA
ATOM     37  O15 3C9 d   1       4.562 -15.984  -4.139  0.00  0.00    -0.206 OA
BRANCH  35  38
ATOM     38  C20 3C9 d   1       6.084 -16.468  -6.282  0.00  0.00     0.049 C 
ATOM     39  H10 3C9 d   1       5.959 -16.480  -7.375  0.00  0.00     0.059 H 
ATOM     40  H11 3C9 d   1       6.186 -17.499  -5.913  0.00  0.00     0.059 H 
BRANCH  38  41
ATOM     41  C24 3C9 d   1       7.343 -15.682  -5.930  0.00  0.00    -0.047 C 
ATOM     42  H18 3C9 d   1       7.218 -14.614  -6.163  0.00  0.00     0.040 H 
BRANCH  41  43
ATOM     43  C25 3C9 d   1       7.619 -15.889  -4.448  0.00  0.00    -0.072 C 
ATOM     44  H19 3C9 d   1       8.524 -15.333  -4.162  0.00  0.00     0.028 H 
ATOM     45  H20 3C9 d   1       7.769 -16.960  -4.249  0.00  0.00     0.028 H 
ATOM     46  H21 3C9 d   1       6.763 -15.523  -3.861  0.00  0.00     0.028 H 
ENDBRANCH  41  43
BRANCH  41  47
ATOM     47  C26 3C9 d   1       8.524 -16.282  -6.717  0.00  0.00    -0.072 C 
ATOM     48  H22 3C9 d   1       8.352 -16.147  -7.795  0.00  0.00     0.028 H 
ATOM     49  H23 3C9 d   1       8.608 -17.355  -6.491  0.00  0.00     0.028 H 
ATOM     50  H24 3C9 d   1       9.455 -15.772  -6.427  0.00  0.00     0.028 H 
ENDBRANCH  41  47
ENDBRANCH  38  41
ENDBRANCH  35  38
ENDBRANCH   1  35
TORSDOF 7
