REMARK  19 active torsions:
REMARK  status: ('A' for Active; 'I' for Inactive)
REMARK    1  A    between atoms: C10_14  and  O6_16 
REMARK    2  A    between atoms: C11_17  and  C43_56 
REMARK    3  A    between atoms: C16_22  and  O7_23 
REMARK    4  A    between atoms: O7_23  and  C50_63 
REMARK    5  A    between atoms: C17_24  and  C44_57 
REMARK    6  A    between atoms: C23_30  and  C45_58 
REMARK    7  A    between atoms: C25_32  and  C46_59 
REMARK    8  A    between atoms: C27_35  and  O9_36 
REMARK    9  A    between atoms: O9_36  and  C51_64 
REMARK   10  A    between atoms: C28_37  and  O10_38 
REMARK   11  A    between atoms: C29_39  and  C47_60 
REMARK   12  A    between atoms: C31_41  and  C48_61 
REMARK   13  A    between atoms: C34_45  and  C35_46 
REMARK   14  A    between atoms: C35_46  and  C36_47 
REMARK   15  A    between atoms: C35_46  and  C49_62 
REMARK   16  A    between atoms: C36_47  and  C37_48 
REMARK   17  A    between atoms: C39_50  and  O12_51 
REMARK   18  A    between atoms: O12_51  and  C52_65 
REMARK   19  A    between atoms: C40_52  and  O13_53 
ROOT
ATOM      1  C1  RAP d   1       4.607  16.748  15.978  0.00  0.00     0.282 C 
ATOM      2  O1  RAP d   1       3.783  17.657  16.610  0.00  0.00    -0.314 OA
ATOM      3  O2  RAP d   1       5.619  17.137  15.447  0.00  0.00    -0.263 OA
ATOM      4  C2  RAP d   1       4.215  15.313  16.003  0.00  0.00     0.099 C 
ATOM      5  C3  RAP d   1       4.215  14.774  14.594  0.00  0.00    -0.037 C 
ATOM      6  C4  RAP d   1       3.048  15.282  13.781  0.00  0.00    -0.061 C 
ATOM      7  C5  RAP d   1       1.773  14.944  14.423  0.00  0.00    -0.050 C 
ATOM      8  C6  RAP d   1       1.707  15.530  15.812  0.00  0.00    -0.001 C 
ATOM      9  N7  RAP d   1       2.893  15.118  16.591  0.00  0.00    -0.331 N 
ATOM     10  C8  RAP d   1       2.858  14.560  17.885  0.00  0.00     0.296 C 
ATOM     11  O3  RAP d   1       3.865  14.267  18.447  0.00  0.00    -0.264 OA
ATOM     12  C9  RAP d   1       1.580  14.350  18.579  0.00  0.00     0.278 C 
ATOM     13  O4  RAP d   1       1.042  13.382  18.373  0.00  0.00    -0.281 OA
ATOM     14  C10 RAP d   1       0.856  15.329  19.277  0.00  0.00     0.238 C 
ATOM     15  O5  RAP d   1       0.147  16.138  18.370  0.00  0.00    -0.343 OA
ATOM     16  C11 RAP d   1       1.546  16.013  20.371  0.00  0.00     0.005 C 
ATOM     17  C12 RAP d   1       1.087  17.336  20.797  0.00  0.00    -0.054 C 
ATOM     18  C13 RAP d   1       0.423  18.132  19.731  0.00  0.00    -0.040 C 
ATOM     19  C14 RAP d   1      -0.508  17.326  18.876  0.00  0.00     0.045 C 
ATOM     20  C15 RAP d   1      -0.969  18.064  17.630  0.00  0.00    -0.016 C 
ATOM     21  C16 RAP d   1      -2.059  19.092  17.944  0.00  0.00     0.043 C 
ATOM     22  C17 RAP d   1      -2.499  19.915  16.769  0.00  0.00    -0.029 C 
ATOM     23  C18 RAP d   1      -1.632  21.085  16.508  0.00  0.00    -0.044 C 
ATOM     24  C19 RAP d   1      -1.918  21.871  15.280  0.00  0.00    -0.103 C 
ATOM     25  C20 RAP d   1      -1.387  23.118  15.293  0.00  0.00    -0.087 C 
ATOM     26  C21 RAP d   1      -1.294  23.964  14.066  0.00  0.00    -0.086 C 
ATOM     27  C22 RAP d   1      -0.650  25.166  14.156  0.00  0.00    -0.099 C 
ATOM     28  C23 RAP d   1      -0.465  25.982  12.930  0.00  0.00    -0.041 C 
ATOM     29  C24 RAP d   1       0.985  26.476  12.889  0.00  0.00    -0.050 C 
ATOM     30  C25 RAP d   1       2.074  25.442  12.670  0.00  0.00     0.004 C 
ATOM     31  C26 RAP d   1       3.401  25.847  13.152  0.00  0.00     0.162 C 
ATOM     32  O8  RAP d   1       4.072  26.434  12.337  0.00  0.00    -0.295 OA
ATOM     33  C27 RAP d   1       4.034  25.644  14.464  0.00  0.00     0.120 C 
ATOM     34  C28 RAP d   1       4.319  24.277  14.920  0.00  0.00     0.070 C 
ATOM     35  C29 RAP d   1       3.037  23.535  15.176  0.00  0.00    -0.029 C 
ATOM     36  C30 RAP d   1       2.922  22.351  14.317  0.00  0.00    -0.050 C 
ATOM     37  C31 RAP d   1       1.987  21.184  14.426  0.00  0.00     0.001 C 
ATOM     38  C32 RAP d   1       2.515  19.975  14.996  0.00  0.00     0.133 C 
ATOM     39  O11 RAP d   1       2.642  19.038  14.269  0.00  0.00    -0.298 OA
ATOM     40  C33 RAP d   1       2.948  19.902  16.430  0.00  0.00     0.016 C 
ATOM     41  C34 RAP d   1       4.195  19.024  16.627  0.00  0.00     0.057 C 
ATOM     42  H1  RAP d   1       4.952  14.758  16.602  0.00  0.00     0.088 H 
ATOM     43  H2  RAP d   1       4.164  13.676  14.636  0.00  0.00     0.036 H 
ATOM     44  H3  RAP d   1       5.149  15.079  14.099  0.00  0.00     0.036 H 
ATOM     45  H4  RAP d   1       3.080  14.824  12.781  0.00  0.00     0.033 H 
ATOM     46  H5  RAP d   1       3.124  16.375  13.686  0.00  0.00     0.033 H 
ATOM     47  H6  RAP d   1       1.679  13.850  14.487  0.00  0.00     0.035 H 
ATOM     48  H7  RAP d   1       0.946  15.348  13.820  0.00  0.00     0.035 H 
ATOM     49  H8  RAP d   1       0.797  15.171  16.316  0.00  0.00     0.064 H 
ATOM     50  H9  RAP d   1       1.679  16.628  15.743  0.00  0.00     0.064 H 
ATOM     51  H11 RAP d   1       2.406  16.374  19.788  0.00  0.00     0.048 H 
ATOM     52  H12 RAP d   1       1.959  17.903  21.156  0.00  0.00     0.034 H 
ATOM     53  H13 RAP d   1       0.371  17.202  21.622  0.00  0.00     0.034 H 
ATOM     54  H14 RAP d   1       1.200  18.567  19.085  0.00  0.00     0.036 H 
ATOM     55  H15 RAP d   1      -0.152  18.940  20.207  0.00  0.00     0.036 H 
ATOM     56  H16 RAP d   1      -1.381  17.046  19.484  0.00  0.00     0.083 H 
ATOM     57  H17 RAP d   1      -1.367  17.333  16.911  0.00  0.00     0.040 H 
ATOM     58  H18 RAP d   1      -0.107  18.584  17.186  0.00  0.00     0.040 H 
ATOM     59  H19 RAP d   1      -1.660  19.774  18.709  0.00  0.00     0.084 H 
ATOM     60  H20 RAP d   1      -3.415  20.389  17.151  0.00  0.00     0.043 H 
ATOM     61  H21 RAP d   1      -0.596  20.722  16.437  0.00  0.00     0.039 H 
ATOM     62  H22 RAP d   1      -1.724  21.765  17.367  0.00  0.00     0.039 H 
ATOM     63  H23 RAP d   1      -2.501  21.481  14.447  0.00  0.00     0.076 H 
ATOM     64  H24 RAP d   1      -1.014  23.518  16.235  0.00  0.00     0.083 H 
ATOM     65  H25 RAP d   1      -1.728  23.632  13.124  0.00  0.00     0.083 H 
ATOM     66  H26 RAP d   1      -0.277  25.521  15.116  0.00  0.00     0.077 H 
ATOM     67  H27 RAP d   1      -0.669  25.354  12.051  0.00  0.00     0.045 H 
ATOM     68  H28 RAP d   1       1.191  26.972  13.849  0.00  0.00     0.035 H 
ATOM     69  H29 RAP d   1       1.060  27.210  12.073  0.00  0.00     0.035 H 
ATOM     70  H30 RAP d   1       1.804  24.706  13.442  0.00  0.00     0.051 H 
ATOM     71  H31 RAP d   1       3.229  25.941  15.152  0.00  0.00     0.099 H 
ATOM     72  H32 RAP d   1       4.912  24.275  15.847  0.00  0.00     0.088 H 
ATOM     73  H34 RAP d   1       2.300  24.202  14.704  0.00  0.00     0.043 H 
ATOM     74  H35 RAP d   1       3.925  21.899  14.342  0.00  0.00     0.034 H 
ATOM     75  H36 RAP d   1       2.729  22.761  13.314  0.00  0.00     0.034 H 
ATOM     76  H37 RAP d   1       1.348  21.511  15.259  0.00  0.00     0.051 H 
ATOM     77  H38 RAP d   1       2.124  19.483  17.026  0.00  0.00     0.048 H 
ATOM     78  H39 RAP d   1       3.174  20.919  16.782  0.00  0.00     0.048 H 
ATOM     79  H40 RAP d   1       4.884  19.200  15.788  0.00  0.00     0.085 H 
ENDROOT
BRANCH  41  80
ATOM     80  C35 RAP d   1       4.944  19.350  17.943  0.00  0.00    -0.031 C 
ATOM     81  H41 RAP d   1       5.753  18.611  18.039  0.00  0.00     0.043 H 
BRANCH  80  82
ATOM     82  C36 RAP d   1       5.597  20.753  17.991  0.00  0.00    -0.056 C 
ATOM     83  H42 RAP d   1       6.099  20.853  18.965  0.00  0.00     0.034 H 
ATOM     84  H43 RAP d   1       4.791  21.498  17.915  0.00  0.00     0.034 H 
BRANCH  82  85
ATOM     85  C37 RAP d   1       6.640  21.077  16.890  0.00  0.00    -0.051 C 
ATOM     86  C38 RAP d   1       7.246  22.429  17.200  0.00  0.00    -0.035 C 
ATOM     87  C39 RAP d   1       8.287  22.796  16.152  0.00  0.00     0.063 C 
ATOM     88  H45 RAP d   1       7.725  22.393  18.190  0.00  0.00     0.037 H 
ATOM     89  H46 RAP d   1       6.452  23.190  17.204  0.00  0.00     0.037 H 
ATOM     90  C40 RAP d   1       9.388  21.801  16.066  0.00  0.00     0.060 C 
ATOM     91  H47 RAP d   1       7.796  22.903  15.173  0.00  0.00     0.087 H 
ATOM     92  C41 RAP d   1       8.768  20.460  15.730  0.00  0.00    -0.038 C 
ATOM     93  H48 RAP d   1       9.929  21.737  17.022  0.00  0.00     0.086 H 
ATOM     94  C42 RAP d   1       7.732  20.041  16.786  0.00  0.00    -0.059 C 
ATOM     95  H50 RAP d   1       9.562  19.700  15.686  0.00  0.00     0.036 H 
ATOM     96  H51 RAP d   1       8.272  20.530  14.751  0.00  0.00     0.036 H 
ATOM     97  H52 RAP d   1       7.290  19.076  16.497  0.00  0.00     0.033 H 
ATOM     98  H53 RAP d   1       8.230  19.939  17.762  0.00  0.00     0.033 H 
ATOM     99  H44 RAP d   1       6.121  21.127  15.921  0.00  0.00     0.040 H 
BRANCH  87 100
ATOM    100  O12 RAP d   1       8.918  24.004  16.535  0.00  0.00    -0.388 OA
BRANCH 100 101
ATOM    101  C52 RAP d   1       8.482  25.089  15.771  0.00  0.00     0.005 C 
ATOM    102  H81 RAP d   1       8.998  26.002  16.103  0.00  0.00     0.066 H 
ATOM    103  H82 RAP d   1       7.396  25.214  15.898  0.00  0.00     0.066 H 
ATOM    104  H83 RAP d   1       8.709  24.905  14.710  0.00  0.00     0.066 H 
ENDBRANCH 100 101
ENDBRANCH  87 100
BRANCH  90 105
ATOM    105  O13 RAP d   1      10.274  22.221  15.032  0.00  0.00    -0.393 OA
ATOM    106  H49 RAP d   1       9.801  22.263  14.209  0.00  0.00     0.210 HD
ENDBRANCH  90 105
ENDBRANCH  82  85
ENDBRANCH  80  82
BRANCH  80 107
ATOM    107  C49 RAP d   1       4.022  19.199  19.148  0.00  0.00    -0.070 C 
ATOM    108  H72 RAP d   1       3.551  18.205  19.127  0.00  0.00     0.028 H 
ATOM    109  H73 RAP d   1       3.243  19.975  19.113  0.00  0.00     0.028 H 
ATOM    110  H74 RAP d   1       4.607  19.308  20.073  0.00  0.00     0.028 H 
ENDBRANCH  80 107
ENDBRANCH  41  80
BRANCH  37 111
ATOM    111  C48 RAP d   1       0.988  21.125  13.344  0.00  0.00    -0.066 C 
ATOM    112  H69 RAP d   1       0.341  20.247  13.490  0.00  0.00     0.028 H 
ATOM    113  H70 RAP d   1       1.502  21.045  12.375  0.00  0.00     0.028 H 
ATOM    114  H71 RAP d   1       0.376  22.039  13.360  0.00  0.00     0.028 H 
ENDBRANCH  37 111
BRANCH  35 115
ATOM    115  C47 RAP d   1       2.514  23.535  16.570  0.00  0.00    -0.070 C 
ATOM    116  H66 RAP d   1       2.703  24.515  17.032  0.00  0.00     0.028 H 
ATOM    117  H67 RAP d   1       3.021  22.752  17.152  0.00  0.00     0.028 H 
ATOM    118  H68 RAP d   1       1.432  23.338  16.556  0.00  0.00     0.028 H 
ENDBRANCH  35 115
BRANCH  34 119
ATOM    119  O10 RAP d   1       5.096  23.814  13.841  0.00  0.00    -0.392 OA
ATOM    120  H33 RAP d   1       5.359  22.916  14.004  0.00  0.00     0.210 HD
ENDBRANCH  34 119
BRANCH  14 121
ATOM    121  O6  RAP d   1      -0.161  14.652  20.064  0.00  0.00    -0.359 OA
ATOM    122  H10 RAP d   1      -0.711  14.132  19.489  0.00  0.00     0.213 HD
ENDBRANCH  14 121
BRANCH  33 123
ATOM    123  O9  RAP d   1       5.008  26.554  14.733  0.00  0.00    -0.381 OA
BRANCH 123 124
ATOM    124  C51 RAP d   1       5.208  27.055  16.053  0.00  0.00     0.005 C 
ATOM    125  H78 RAP d   1       6.040  27.774  16.050  0.00  0.00     0.066 H 
ATOM    126  H79 RAP d   1       5.447  26.221  16.729  0.00  0.00     0.066 H 
ATOM    127  H80 RAP d   1       4.291  27.556  16.398  0.00  0.00     0.066 H 
ENDBRANCH 123 124
ENDBRANCH  33 123
BRANCH  16 128
ATOM    128  C43 RAP d   1       2.345  15.083  21.318  0.00  0.00    -0.068 C 
ATOM    129  H54 RAP d   1       2.585  14.146  20.795  0.00  0.00     0.028 H 
ATOM    130  H55 RAP d   1       1.740  14.860  22.209  0.00  0.00     0.028 H 
ATOM    131  H56 RAP d   1       3.277  15.582  21.622  0.00  0.00     0.028 H 
ENDBRANCH  16 128
BRANCH  30 132
ATOM    132  C46 RAP d   1       1.982  24.583  11.473  0.00  0.00    -0.066 C 
ATOM    133  H63 RAP d   1       2.836  23.890  11.453  0.00  0.00     0.028 H 
ATOM    134  H64 RAP d   1       1.997  25.210  10.569  0.00  0.00     0.028 H 
ATOM    135  H65 RAP d   1       1.044  24.009  11.505  0.00  0.00     0.028 H 
ENDBRANCH  30 132
BRANCH  21 136
ATOM    136  O7  RAP d   1      -3.200  18.455  18.451  0.00  0.00    -0.390 OA
BRANCH 136 137
ATOM    137  C50 RAP d   1      -4.113  19.351  19.084  0.00  0.00     0.004 C 
ATOM    138  H75 RAP d   1      -4.981  18.787  19.457  0.00  0.00     0.066 H 
ATOM    139  H76 RAP d   1      -4.450  20.105  18.357  0.00  0.00     0.066 H 
ATOM    140  H77 RAP d   1      -3.612  19.851  19.926  0.00  0.00     0.066 H 
ENDBRANCH 136 137
ENDBRANCH  21 136
BRANCH  28 141
ATOM    141  C45 RAP d   1      -1.382  27.200  12.891  0.00  0.00    -0.070 C 
ATOM    142  H60 RAP d   1      -2.431  26.870  12.919  0.00  0.00     0.028 H 
ATOM    143  H61 RAP d   1      -1.201  27.766  11.965  0.00  0.00     0.028 H 
ATOM    144  H62 RAP d   1      -1.176  27.842  13.760  0.00  0.00     0.028 H 
ENDBRANCH  28 141
BRANCH  22 145
ATOM    145  C44 RAP d   1      -3.017  19.188  15.589  0.00  0.00    -0.070 C 
ATOM    146  H57 RAP d   1      -3.643  18.347  15.922  0.00  0.00     0.028 H 
ATOM    147  H58 RAP d   1      -2.174  18.805  14.995  0.00  0.00     0.028 H 
ATOM    148  H59 RAP d   1      -3.619  19.871  14.973  0.00  0.00     0.028 H 
ENDBRANCH  22 145
TORSDOF 19
