REMARK  7 active torsions:
REMARK  status: ('A' for Active; 'I' for Inactive)
REMARK       I    between atoms: C20_2  and  N5_3 
REMARK    1  A    between atoms: C20_2  and  C19_19 
REMARK    2  A    between atoms: N5_3  and  C21_4 
REMARK    3  A    between atoms: C27_7  and  C28_8 
REMARK    4  A    between atoms: N_22  and  C2_24 
REMARK    5  A    between atoms: C2_24  and  C3_25 
REMARK       I    between atoms: C3_25  and  N1_27 
REMARK    6  A    between atoms: N2_30  and  C8_33 
REMARK    7  A    between atoms: C11_36  and  C14_39 
ROOT
ATOM      1  C19 38Z d   1      28.346  57.267  33.647  0.00  0.00     0.049 C 
ATOM      2  C   38Z d   1      28.402  56.424  34.972  0.00  0.00    -0.029 C 
ATOM      3  C18 38Z d   1      29.199  56.518  32.650  0.00  0.00     0.095 C 
ATOM      4  N   38Z d   1      30.073  55.655  33.459  0.00  0.00    -0.062 N 
ATOM      5  C1  38Z d   1      29.266  55.226  34.613  0.00  0.00     0.085 C 
ATOM      6  H   38Z d   1      27.313  57.336  33.275  0.00  0.00     0.057 H 
ATOM      7  H   38Z d   1      27.394  56.102  35.273  0.00  0.00     0.036 H 
ATOM      8  H   38Z d   1      28.860  57.006  35.786  0.00  0.00     0.036 H 
ATOM      9  H   38Z d   1      29.798  57.220  32.051  0.00  0.00     0.077 H 
ATOM     10  H   38Z d   1      28.569  55.911  31.983  0.00  0.00     0.077 H 
ATOM     11  H   38Z d   1      30.766  56.272  33.853  0.00  0.00     0.280 HD
ATOM     12  H   38Z d   1      28.637  54.365  34.343  0.00  0.00     0.076 H 
ATOM     13  H   38Z d   1      29.917  54.954  35.457  0.00  0.00     0.076 H 
ENDROOT
BRANCH   4  14
ATOM     14  C2  38Z d   1      30.867  54.719  32.737  0.00  0.00     0.156 C 
ATOM     15  H   38Z d   1      31.271  55.225  31.848  0.00  0.00     0.090 H 
ATOM     16  H   38Z d   1      30.218  53.888  32.423  0.00  0.00     0.090 H 
BRANCH  14  17
ATOM     17  C3  38Z d   1      32.015  54.148  33.512  0.00  0.00     0.245 C 
ATOM     18  O   38Z d   1      32.297  54.571  34.609  0.00  0.00    -0.272 OA
ATOM     19  N1  38Z d   1      32.615  53.085  32.975  0.00  0.00    -0.348 N 
ATOM     20  C7  38Z d   1      32.114  52.255  31.890  0.00  0.00     0.013 C 
ATOM     21  C4  38Z d   1      33.658  52.345  33.681  0.00  0.00     0.013 C 
ATOM     22  C6  38Z d   1      31.416  51.039  32.467  0.00  0.00     0.010 C 
ATOM     23  H   38Z d   1      32.954  51.931  31.258  0.00  0.00     0.066 H 
ATOM     24  H   38Z d   1      31.401  52.834  31.284  0.00  0.00     0.066 H 
ATOM     25  N2  38Z d   1      32.287  50.306  33.400  0.00  0.00    -0.378 N 
ATOM     26  H   38Z d   1      31.130  50.368  31.644  0.00  0.00     0.066 H 
ATOM     27  H   38Z d   1      30.514  51.367  33.004  0.00  0.00     0.066 H 
ATOM     28  C5  38Z d   1      33.023  51.168  34.330  0.00  0.00     0.010 C 
ATOM     29  H   38Z d   1      33.811  50.569  34.809  0.00  0.00     0.066 H 
ATOM     30  H   38Z d   1      32.322  51.531  35.096  0.00  0.00     0.066 H 
ATOM     31  H   38Z d   1      34.121  52.988  34.444  0.00  0.00     0.066 H 
ATOM     32  H   38Z d   1      34.426  52.010  32.968  0.00  0.00     0.066 H 
BRANCH  25  33
ATOM     33  C8  38Z d   1      31.807  49.111  34.033  0.00  0.00     0.030 A 
ATOM     34  C13 38Z d   1      30.647  48.486  33.621  0.00  0.00    -0.056 A 
ATOM     35  C12 38Z d   1      30.139  47.403  34.346  0.00  0.00    -0.067 A 
ATOM     36  H   38Z d   1      30.129  48.835  32.735  0.00  0.00     0.086 H 
ATOM     37  C11 38Z d   1      30.755  46.957  35.520  0.00  0.00     0.012 A 
ATOM     38  H   38Z d   1      29.248  46.898  33.990  0.00  0.00     0.085 H 
ATOM     39  C10 38Z d   1      31.914  47.600  35.929  0.00  0.00    -0.067 A 
ATOM     40  C9  38Z d   1      32.454  48.637  35.193  0.00  0.00    -0.056 A 
ATOM     41  H   38Z d   1      32.405  47.283  36.842  0.00  0.00     0.085 H 
ATOM     42  H   38Z d   1      33.386  49.091  35.511  0.00  0.00     0.086 H 
BRANCH  37  43
ATOM     43  C14 38Z d   1      30.101  45.940  36.377  0.00  0.00     0.159 A 
ATOM     44  N4  38Z d   1      30.522  45.847  37.657  0.00  0.00    -0.241 NA
ATOM     45  C17 38Z d   1      29.826  45.004  38.435  0.00  0.00     0.006 A 
ATOM     46  C16 38Z d   1      28.802  44.215  37.962  0.00  0.00    -0.049 A 
ATOM     47  H   38Z d   1      30.082  44.941  39.486  0.00  0.00     0.114 H 
ATOM     48  C15 38Z d   1      28.486  44.366  36.637  0.00  0.00     0.006 A 
ATOM     49  H   38Z d   1      28.276  43.515  38.601  0.00  0.00     0.087 H 
ATOM     50  N3  38Z d   1      29.096  45.241  35.826  0.00  0.00    -0.241 NA
ATOM     51  H   38Z d   1      27.701  43.744  36.223  0.00  0.00     0.114 H 
ENDBRANCH  37  43
ENDBRANCH  25  33
ENDBRANCH  14  17
ENDBRANCH   4  14
BRANCH   1  52
ATOM     52  C20 38Z d   1      28.849  58.618  33.927  0.00  0.00     0.228 C 
ATOM     53  O1  38Z d   1      29.966  59.004  33.527  0.00  0.00    -0.273 OA
ATOM     54  N5  38Z d   1      28.007  59.395  34.646  0.00  0.00    -0.327 N 
ATOM     55  H   38Z d   1      27.123  58.983  34.867  0.00  0.00     0.169 HD
BRANCH  54  56
ATOM     56  C21 38Z d   1      28.202  60.699  35.124  0.00  0.00     0.035 A 
ATOM     57  C26 38Z d   1      27.075  61.395  35.560  0.00  0.00    -0.043 A 
ATOM     58  C25 38Z d   1      27.213  62.723  35.978  0.00  0.00     0.025 A 
ATOM     59  H   38Z d   1      26.104  60.913  35.575  0.00  0.00     0.088 H 
ATOM     60  C27 38Z d   1      26.324  63.779  36.484  0.00  0.00     0.073 A 
ATOM     61  C24 38Z d   1      28.492  63.308  35.975  0.00  0.00     0.089 A 
ATOM     62  N7  38Z d   1      27.055  64.843  36.742  0.00  0.00    -0.276 N 
ATOM     63  N8  38Z d   1      28.355  64.560  36.452  0.00  0.00    -0.174 NA
ATOM     64  H   38Z d   1      26.702  65.741  37.103  0.00  0.00     0.189 HD
ATOM     65  C23 38Z d   1      29.632  62.600  35.584  0.00  0.00    -0.051 A 
ATOM     66  C22 38Z d   1      29.468  61.304  35.157  0.00  0.00    -0.055 A 
ATOM     67  H   38Z d   1      30.614  63.058  35.617  0.00  0.00     0.087 H 
ATOM     68  H   38Z d   1      30.335  60.737  34.839  0.00  0.00     0.087 H 
BRANCH  60  69
ATOM     69  C28 38Z d   1      24.832  63.803  36.612  0.00  0.00    -0.004 A 
ATOM     70  C32 38Z d   1      24.035  62.844  35.992  0.00  0.00    -0.054 A 
ATOM     71  C31 38Z d   1      22.679  62.837  36.246  0.00  0.00     0.003 A 
ATOM     72  H   38Z d   1      24.473  62.114  35.320  0.00  0.00     0.087 H 
ATOM     73  N6  38Z d   1      22.088  63.713  37.071  0.00  0.00    -0.273 NA
ATOM     74  H   38Z d   1      22.064  62.090  35.757  0.00  0.00     0.114 H 
ATOM     75  C30 38Z d   1      22.860  64.616  37.667  0.00  0.00     0.003 A 
ATOM     76  C29 38Z d   1      24.230  64.701  37.487  0.00  0.00    -0.054 A 
ATOM     77  H   38Z d   1      22.389  65.329  38.334  0.00  0.00     0.114 H 
ATOM     78  H   38Z d   1      24.817  65.446  38.013  0.00  0.00     0.087 H 
ENDBRANCH  60  69
ENDBRANCH  54  56
ENDBRANCH   1  52
TORSDOF 7
