REMARK  7 active torsions:
REMARK  status: ('A' for Active; 'I' for Inactive)
REMARK       I    between atoms: C20_2  and  N5_3 
REMARK    1  A    between atoms: C20_2  and  C19_19 
REMARK    2  A    between atoms: N5_3  and  C21_4 
REMARK    3  A    between atoms: C27_7  and  C28_8 
REMARK    4  A    between atoms: N_22  and  C2_24 
REMARK    5  A    between atoms: C2_24  and  C3_25 
REMARK       I    between atoms: C3_25  and  N1_27 
REMARK    6  A    between atoms: N2_30  and  C8_33 
REMARK    7  A    between atoms: C11_36  and  C14_39 
ROOT
ATOM      1  C19 38Z d   1      35.055  53.295  49.579  0.00  0.00     0.049 C 
ATOM      2  C   38Z d   1      35.786  54.628  49.321  0.00  0.00    -0.029 C 
ATOM      3  C18 38Z d   1      35.963  52.449  50.421  0.00  0.00     0.095 C 
ATOM      4  N   38Z d   1      37.277  53.045  50.208  0.00  0.00    -0.062 N 
ATOM      5  C1  38Z d   1      37.095  54.481  50.058  0.00  0.00     0.085 C 
ATOM      6  H   38Z d   1      34.138  53.508  50.148  0.00  0.00     0.057 H 
ATOM      7  H   38Z d   1      35.207  55.474  49.719  0.00  0.00     0.036 H 
ATOM      8  H   38Z d   1      35.959  54.776  48.245  0.00  0.00     0.036 H 
ATOM      9  H   38Z d   1      35.947  51.401  50.086  0.00  0.00     0.077 H 
ATOM     10  H   38Z d   1      35.676  52.499  51.482  0.00  0.00     0.077 H 
ATOM     11  H   38Z d   1      37.538  52.741  49.283  0.00  0.00     0.280 HD
ATOM     12  H   38Z d   1      37.043  54.970  51.042  0.00  0.00     0.076 H 
ATOM     13  H   38Z d   1      37.919  54.917  49.475  0.00  0.00     0.076 H 
ENDROOT
BRANCH   4  14
ATOM     14  C2  38Z d   1      38.342  52.555  50.984  0.00  0.00     0.156 C 
ATOM     15  H   38Z d   1      38.286  51.456  50.976  0.00  0.00     0.090 H 
ATOM     16  H   38Z d   1      38.205  52.922  52.012  0.00  0.00     0.090 H 
BRANCH  14  17
ATOM     17  C3  38Z d   1      39.733  52.950  50.534  0.00  0.00     0.245 C 
ATOM     18  O   38Z d   1      39.901  53.385  49.405  0.00  0.00    -0.272 OA
ATOM     19  N1  38Z d   1      40.733  52.778  51.417  0.00  0.00    -0.348 N 
ATOM     20  C7  38Z d   1      40.594  52.557  52.861  0.00  0.00     0.009 C 
ATOM     21  C4  38Z d   1      42.094  53.194  51.134  0.00  0.00     0.009 C 
ATOM     22  C6  38Z d   1      40.798  53.865  53.595  0.00  0.00    -0.002 C 
ATOM     23  H   38Z d   1      41.348  51.828  53.194  0.00  0.00     0.066 H 
ATOM     24  H   38Z d   1      39.588  52.169  53.077  0.00  0.00     0.066 H 
ATOM     25  N2  38Z d   1      42.049  54.526  53.197  0.00  0.00    -0.280 NA
ATOM     26  H   38Z d   1      40.830  53.665  54.676  0.00  0.00     0.058 H 
ATOM     27  H   38Z d   1      39.955  54.535  53.370  0.00  0.00     0.058 H 
ATOM     28  C5  38Z d   1      42.303  54.539  51.749  0.00  0.00    -0.002 C 
ATOM     29  H   38Z d   1      43.343  54.852  51.573  0.00  0.00     0.058 H 
ATOM     30  H   38Z d   1      41.618  55.257  51.274  0.00  0.00     0.058 H 
ATOM     31  H   38Z d   1      42.248  53.253  50.046  0.00  0.00     0.066 H 
ATOM     32  H   38Z d   1      42.803  52.472  51.566  0.00  0.00     0.066 H 
BRANCH  25  33
ATOM     33  C8  38Z d   1      42.254  55.753  53.888  0.00  0.00     0.010 A 
ATOM     34  C13 38Z d   1      41.469  56.047  54.993  0.00  0.00    -0.061 A 
ATOM     35  C12 38Z d   1      41.605  57.243  55.674  0.00  0.00    -0.068 A 
ATOM     36  H   38Z d   1      40.734  55.325  55.330  0.00  0.00     0.086 H 
ATOM     37  C11 38Z d   1      42.528  58.185  55.283  0.00  0.00     0.012 A 
ATOM     38  H   38Z d   1      40.973  57.442  56.532  0.00  0.00     0.085 H 
ATOM     39  C10 38Z d   1      43.336  57.906  54.158  0.00  0.00    -0.068 A 
ATOM     40  C9  38Z d   1      43.216  56.690  53.460  0.00  0.00    -0.061 A 
ATOM     41  H   38Z d   1      44.061  58.641  53.827  0.00  0.00     0.085 H 
ATOM     42  H   38Z d   1      43.852  56.478  52.608  0.00  0.00     0.086 H 
BRANCH  37  43
ATOM     43  C14 38Z d   1      42.564  59.515  55.984  0.00  0.00     0.159 A 
ATOM     44  N4  38Z d   1      42.010  59.579  57.213  0.00  0.00    -0.241 NA
ATOM     45  C17 38Z d   1      42.001  60.795  57.787  0.00  0.00     0.006 A 
ATOM     46  C16 38Z d   1      42.523  61.912  57.190  0.00  0.00    -0.049 A 
ATOM     47  H   38Z d   1      41.559  60.896  58.771  0.00  0.00     0.114 H 
ATOM     48  C15 38Z d   1      43.101  61.715  55.966  0.00  0.00     0.006 A 
ATOM     49  H   38Z d   1      42.481  62.889  57.657  0.00  0.00     0.087 H 
ATOM     50  N3  38Z d   1      43.149  60.516  55.347  0.00  0.00    -0.241 NA
ATOM     51  H   38Z d   1      43.545  62.568  55.466  0.00  0.00     0.114 H 
ENDBRANCH  37  43
ENDBRANCH  25  33
ENDBRANCH  14  17
ENDBRANCH   4  14
BRANCH   1  52
ATOM     52  C20 38Z d   1      34.658  52.578  48.338  0.00  0.00     0.228 C 
ATOM     53  O1  38Z d   1      35.268  51.577  47.927  0.00  0.00    -0.273 OA
ATOM     54  N5  38Z d   1      33.651  53.164  47.682  0.00  0.00    -0.327 N 
ATOM     55  H   38Z d   1      33.236  53.961  48.122  0.00  0.00     0.169 HD
BRANCH  54  56
ATOM     56  C21 38Z d   1      33.110  52.781  46.438  0.00  0.00     0.035 A 
ATOM     57  C26 38Z d   1      31.874  53.331  46.078  0.00  0.00    -0.043 A 
ATOM     58  C25 38Z d   1      31.288  52.951  44.873  0.00  0.00     0.025 A 
ATOM     59  H   38Z d   1      31.380  54.043  46.728  0.00  0.00     0.088 H 
ATOM     60  C27 38Z d   1      30.038  53.246  44.157  0.00  0.00     0.073 A 
ATOM     61  C24 38Z d   1      32.006  52.097  44.012  0.00  0.00     0.089 A 
ATOM     62  N7  38Z d   1      30.045  52.580  43.015  0.00  0.00    -0.276 N 
ATOM     63  N8  38Z d   1      31.214  51.878  42.937  0.00  0.00    -0.174 NA
ATOM     64  H   38Z d   1      29.298  52.589  42.306  0.00  0.00     0.189 HD
ATOM     65  C23 38Z d   1      33.236  51.532  44.373  0.00  0.00    -0.051 A 
ATOM     66  C22 38Z d   1      33.775  51.882  45.592  0.00  0.00    -0.055 A 
ATOM     67  H   38Z d   1      33.748  50.841  43.714  0.00  0.00     0.087 H 
ATOM     68  H   38Z d   1      34.724  51.458  45.900  0.00  0.00     0.087 H 
BRANCH  60  69
ATOM     69  C28 38Z d   1      28.858  54.051  44.582  0.00  0.00    -0.004 A 
ATOM     70  C32 38Z d   1      28.650  54.356  45.921  0.00  0.00    -0.054 A 
ATOM     71  C31 38Z d   1      27.531  55.079  46.273  0.00  0.00     0.003 A 
ATOM     72  H   38Z d   1      29.356  54.031  46.676  0.00  0.00     0.087 H 
ATOM     73  N6  38Z d   1      26.618  55.488  45.399  0.00  0.00    -0.273 NA
ATOM     74  H   38Z d   1      27.388  55.327  47.319  0.00  0.00     0.114 H 
ATOM     75  C30 38Z d   1      26.814  55.175  44.111  0.00  0.00     0.003 A 
ATOM     76  C29 38Z d   1      27.923  54.487  43.651  0.00  0.00    -0.054 A 
ATOM     77  H   38Z d   1      26.063  55.477  43.390  0.00  0.00     0.114 H 
ATOM     78  H   38Z d   1      28.059  54.293  42.593  0.00  0.00     0.087 H 
ENDBRANCH  60  69
ENDBRANCH  54  56
ENDBRANCH   1  52
TORSDOF 7
