REMARK  7 active torsions:
REMARK  status: ('A' for Active; 'I' for Inactive)
REMARK       I    between atoms: C20_2  and  N5_3 
REMARK    1  A    between atoms: C20_2  and  C19_19 
REMARK    2  A    between atoms: N5_3  and  C21_4 
REMARK    3  A    between atoms: C27_7  and  C28_8 
REMARK    4  A    between atoms: N_22  and  C2_24 
REMARK    5  A    between atoms: C2_24  and  C3_25 
REMARK       I    between atoms: C3_25  and  N1_27 
REMARK    6  A    between atoms: N2_30  and  C8_33 
REMARK    7  A    between atoms: C11_36  and  C14_39 
ROOT
ATOM      1  C19 38Z d   1      60.844  33.799  13.488  0.00  0.00     0.049 C 
ATOM      2  C   38Z d   1      59.639  33.187  14.128  0.00  0.00    -0.029 C 
ATOM      3  C18 38Z d   1      60.550  35.288  13.153  0.00  0.00     0.095 C 
ATOM      4  N   38Z d   1      59.080  35.241  13.081  0.00  0.00    -0.062 N 
ATOM      5  C1  38Z d   1      58.548  33.918  13.422  0.00  0.00     0.085 C 
ATOM      6  H   38Z d   1      61.703  33.773  14.175  0.00  0.00     0.057 H 
ATOM      7  H   38Z d   1      59.617  33.374  15.212  0.00  0.00     0.036 H 
ATOM      8  H   38Z d   1      59.587  32.104  13.942  0.00  0.00     0.036 H 
ATOM      9  H   38Z d   1      60.998  35.588  12.194  0.00  0.00     0.077 H 
ATOM     10  H   38Z d   1      60.900  35.963  13.948  0.00  0.00     0.077 H 
ATOM     11  H   38Z d   1      59.005  35.564  14.033  0.00  0.00     0.280 HD
ATOM     12  H   38Z d   1      57.672  34.020  14.080  0.00  0.00     0.076 H 
ATOM     13  H   38Z d   1      58.260  33.378  12.508  0.00  0.00     0.076 H 
ENDROOT
BRANCH   4  14
ATOM     14  C2  38Z d   1      58.181  36.317  12.659  0.00  0.00     0.156 C 
ATOM     15  H   38Z d   1      58.678  36.903  11.872  0.00  0.00     0.090 H 
ATOM     16  H   38Z d   1      57.977  36.965  13.524  0.00  0.00     0.090 H 
BRANCH  14  17
ATOM     17  C3  38Z d   1      56.851  35.795  12.114  0.00  0.00     0.245 C 
ATOM     18  O   38Z d   1      56.786  34.677  11.614  0.00  0.00    -0.272 OA
ATOM     19  N1  38Z d   1      55.758  36.571  12.242  0.00  0.00    -0.348 N 
ATOM     20  C7  38Z d   1      55.713  37.964  12.727  0.00  0.00     0.013 C 
ATOM     21  C4  38Z d   1      54.453  36.028  11.843  0.00  0.00     0.013 C 
ATOM     22  C6  38Z d   1      55.006  38.855  11.712  0.00  0.00     0.010 C 
ATOM     23  H   38Z d   1      56.740  38.329  12.877  0.00  0.00     0.066 H 
ATOM     24  H   38Z d   1      55.168  37.998  13.682  0.00  0.00     0.066 H 
ATOM     25  N2  38Z d   1      53.692  38.307  11.362  0.00  0.00    -0.378 N 
ATOM     26  H   38Z d   1      55.621  38.924  10.803  0.00  0.00     0.066 H 
ATOM     27  H   38Z d   1      54.875  39.858  12.143  0.00  0.00     0.066 H 
ATOM     28  C5  38Z d   1      53.369  37.061  12.063  0.00  0.00     0.010 C 
ATOM     29  H   38Z d   1      52.414  36.669  11.682  0.00  0.00     0.066 H 
ATOM     30  H   38Z d   1      53.278  37.266  13.140  0.00  0.00     0.066 H 
ATOM     31  H   38Z d   1      54.231  35.135  12.445  0.00  0.00     0.066 H 
ATOM     32  H   38Z d   1      54.483  35.754  10.778  0.00  0.00     0.066 H 
BRANCH  25  33
ATOM     33  C8  38Z d   1      52.812  38.837  10.396  0.00  0.00     0.030 A 
ATOM     34  C13 38Z d   1      53.292  39.453   9.236  0.00  0.00    -0.056 A 
ATOM     35  C12 38Z d   1      52.425  39.790   8.208  0.00  0.00    -0.067 A 
ATOM     36  H   38Z d   1      54.350  39.669   9.140  0.00  0.00     0.086 H 
ATOM     37  C11 38Z d   1      51.060  39.515   8.292  0.00  0.00     0.012 A 
ATOM     38  H   38Z d   1      52.816  40.277   7.322  0.00  0.00     0.085 H 
ATOM     39  C10 38Z d   1      50.582  38.975   9.484  0.00  0.00    -0.067 A 
ATOM     40  C9  38Z d   1      51.436  38.646  10.519  0.00  0.00    -0.056 A 
ATOM     41  H   38Z d   1      49.517  38.809   9.602  0.00  0.00     0.085 H 
ATOM     42  H   38Z d   1      51.032  38.235  11.437  0.00  0.00     0.086 H 
BRANCH  37  43
ATOM     43  C14 38Z d   1      50.173  39.619   7.092  0.00  0.00     0.159 A 
ATOM     44  N4  38Z d   1      50.719  40.100   5.965  0.00  0.00    -0.241 NA
ATOM     45  C17 38Z d   1      49.937  40.065   4.874  0.00  0.00     0.006 A 
ATOM     46  C16 38Z d   1      48.652  39.583   4.878  0.00  0.00    -0.049 A 
ATOM     47  H   38Z d   1      50.342  40.437   3.940  0.00  0.00     0.114 H 
ATOM     48  C15 38Z d   1      48.188  39.137   6.091  0.00  0.00     0.006 A 
ATOM     49  H   38Z d   1      48.043  39.556   3.982  0.00  0.00     0.087 H 
ATOM     50  N3  38Z d   1      48.921  39.150   7.215  0.00  0.00    -0.241 NA
ATOM     51  H   38Z d   1      47.175  38.754   6.143  0.00  0.00     0.114 H 
ENDBRANCH  37  43
ENDBRANCH  25  33
ENDBRANCH  14  17
ENDBRANCH   4  14
BRANCH   1  52
ATOM     52  C20 38Z d   1      61.117  32.872  12.324  0.00  0.00     0.228 C 
ATOM     53  O1  38Z d   1      60.611  33.028  11.218  0.00  0.00    -0.273 OA
ATOM     54  N5  38Z d   1      62.100  31.970  12.608  0.00  0.00    -0.327 N 
ATOM     55  H   38Z d   1      62.224  31.723  13.569  0.00  0.00     0.169 HD
BRANCH  54  56
ATOM     56  C21 38Z d   1      62.961  31.350  11.671  0.00  0.00     0.035 A 
ATOM     57  C26 38Z d   1      63.626  30.220  12.131  0.00  0.00    -0.043 A 
ATOM     58  C25 38Z d   1      64.609  29.629  11.322  0.00  0.00     0.025 A 
ATOM     59  H   38Z d   1      63.389  29.800  13.102  0.00  0.00     0.088 H 
ATOM     60  C27 38Z d   1      65.578  28.517  11.429  0.00  0.00     0.073 A 
ATOM     61  C24 38Z d   1      64.872  30.185  10.066  0.00  0.00     0.089 A 
ATOM     62  N7  38Z d   1      66.301  28.481  10.346  0.00  0.00    -0.276 N 
ATOM     63  N8  38Z d   1      65.889  29.464   9.514  0.00  0.00    -0.174 NA
ATOM     64  H   38Z d   1      67.062  27.813  10.155  0.00  0.00     0.189 HD
ATOM     65  C23 38Z d   1      64.179  31.292   9.598  0.00  0.00    -0.051 A 
ATOM     66  C22 38Z d   1      63.212  31.853  10.410  0.00  0.00    -0.055 A 
ATOM     67  H   38Z d   1      64.391  31.707   8.619  0.00  0.00     0.087 H 
ATOM     68  H   38Z d   1      62.641  32.702  10.051  0.00  0.00     0.087 H 
BRANCH  60  69
ATOM     69  C28 38Z d   1      65.809  27.557  12.534  0.00  0.00    -0.004 A 
ATOM     70  C32 38Z d   1      65.090  27.591  13.708  0.00  0.00    -0.054 A 
ATOM     71  C31 38Z d   1      65.427  26.717  14.730  0.00  0.00     0.003 A 
ATOM     72  H   38Z d   1      64.272  28.291  13.831  0.00  0.00     0.087 H 
ATOM     73  N6  38Z d   1      66.432  25.813  14.644  0.00  0.00    -0.273 NA
ATOM     74  H   38Z d   1      64.854  26.759  15.649  0.00  0.00     0.114 H 
ATOM     75  C30 38Z d   1      67.097  25.793  13.492  0.00  0.00     0.003 A 
ATOM     76  C29 38Z d   1      66.835  26.623  12.420  0.00  0.00    -0.054 A 
ATOM     77  H   38Z d   1      67.902  25.074  13.387  0.00  0.00     0.114 H 
ATOM     78  H   38Z d   1      67.416  26.549  11.508  0.00  0.00     0.087 H 
ENDBRANCH  60  69
ENDBRANCH  54  56
ENDBRANCH   1  52
TORSDOF 7
