REMARK  7 active torsions:
REMARK  status: ('A' for Active; 'I' for Inactive)
REMARK       I    between atoms: C20_2  and  N5_3 
REMARK    1  A    between atoms: C20_2  and  C19_19 
REMARK    2  A    between atoms: N5_3  and  C21_4 
REMARK    3  A    between atoms: C27_7  and  C28_8 
REMARK    4  A    between atoms: N_22  and  C2_24 
REMARK    5  A    between atoms: C2_24  and  C3_25 
REMARK       I    between atoms: C3_25  and  N1_27 
REMARK    6  A    between atoms: N2_30  and  C8_33 
REMARK    7  A    between atoms: C11_36  and  C14_39 
ROOT
ATOM      1  C19 38Z d   1      22.949  13.491  31.619  0.00  0.00     0.049 C 
ATOM      2  C   38Z d   1      22.107  14.141  30.487  0.00  0.00    -0.029 C 
ATOM      3  C18 38Z d   1      24.412  13.669  31.257  0.00  0.00     0.095 C 
ATOM      4  N   38Z d   1      24.136  13.799  29.812  0.00  0.00    -0.062 N 
ATOM      5  C1  38Z d   1      23.147  14.843  29.673  0.00  0.00     0.085 C 
ATOM      6  H   38Z d   1      22.745  14.020  32.562  0.00  0.00     0.057 H 
ATOM      7  H   38Z d   1      21.374  14.853  30.895  0.00  0.00     0.036 H 
ATOM      8  H   38Z d   1      21.585  13.378  29.892  0.00  0.00     0.036 H 
ATOM      9  H   38Z d   1      25.030  12.794  31.504  0.00  0.00     0.077 H 
ATOM     10  H   38Z d   1      24.862  14.572  31.696  0.00  0.00     0.077 H 
ATOM     11  H   38Z d   1      24.943  14.374  29.628  0.00  0.00     0.280 HD
ATOM     12  H   38Z d   1      23.466  15.799  30.115  0.00  0.00     0.076 H 
ATOM     13  H   38Z d   1      22.838  15.006  28.630  0.00  0.00     0.076 H 
ENDROOT
BRANCH   4  14
ATOM     14  C2  38Z d   1      24.439  12.934  28.707  0.00  0.00     0.156 C 
ATOM     15  H   38Z d   1      23.516  12.760  28.134  0.00  0.00     0.090 H 
ATOM     16  H   38Z d   1      24.811  11.977  29.102  0.00  0.00     0.090 H 
BRANCH  14  17
ATOM     17  C3  38Z d   1      25.487  13.512  27.772  0.00  0.00     0.245 C 
ATOM     18  O   38Z d   1      25.317  14.631  27.278  0.00  0.00    -0.272 OA
ATOM     19  N1  38Z d   1      26.516  12.717  27.428  0.00  0.00    -0.348 N 
ATOM     20  C7  38Z d   1      26.838  11.450  28.090  0.00  0.00     0.013 C 
ATOM     21  C4  38Z d   1      27.489  13.041  26.378  0.00  0.00     0.013 C 
ATOM     22  C6  38Z d   1      26.848  10.341  27.087  0.00  0.00     0.010 C 
ATOM     23  H   38Z d   1      26.082  11.238  28.860  0.00  0.00     0.066 H 
ATOM     24  H   38Z d   1      27.829  11.526  28.560  0.00  0.00     0.066 H 
ATOM     25  N2  38Z d   1      27.863  10.610  26.073  0.00  0.00    -0.378 N 
ATOM     26  H   38Z d   1      25.860  10.271  26.608  0.00  0.00     0.066 H 
ATOM     27  H   38Z d   1      27.078   9.392  27.593  0.00  0.00     0.066 H 
ATOM     28  C5  38Z d   1      27.610  11.882  25.389  0.00  0.00     0.010 C 
ATOM     29  H   38Z d   1      26.673  11.800  24.819  0.00  0.00     0.066 H 
ATOM     30  H   38Z d   1      28.442  12.087  24.699  0.00  0.00     0.066 H 
ATOM     31  H   38Z d   1      28.470  13.229  26.838  0.00  0.00     0.066 H 
ATOM     32  H   38Z d   1      27.157  13.942  25.842  0.00  0.00     0.066 H 
BRANCH  25  33
ATOM     33  C8  38Z d   1      28.401   9.541  25.372  0.00  0.00     0.030 A 
ATOM     34  C13 38Z d   1      28.262   8.232  25.834  0.00  0.00    -0.056 A 
ATOM     35  C12 38Z d   1      28.795   7.174  25.122  0.00  0.00    -0.067 A 
ATOM     36  H   38Z d   1      27.731   8.043  26.760  0.00  0.00     0.086 H 
ATOM     37  C11 38Z d   1      29.477   7.380  23.927  0.00  0.00     0.012 A 
ATOM     38  H   38Z d   1      28.680   6.165  25.502  0.00  0.00     0.085 H 
ATOM     39  C10 38Z d   1      29.626   8.686  23.481  0.00  0.00    -0.067 A 
ATOM     40  C9  38Z d   1      29.101   9.751  24.185  0.00  0.00    -0.056 A 
ATOM     41  H   38Z d   1      30.166   8.874  22.560  0.00  0.00     0.085 H 
ATOM     42  H   38Z d   1      29.234  10.760  23.811  0.00  0.00     0.086 H 
BRANCH  37  43
ATOM     43  C14 38Z d   1      30.029   6.240  23.148  0.00  0.00     0.159 A 
ATOM     44  N4  38Z d   1      29.820   5.008  23.633  0.00  0.00    -0.241 NA
ATOM     45  C17 38Z d   1      30.282   3.996  22.881  0.00  0.00     0.006 A 
ATOM     46  C16 38Z d   1      30.943   4.176  21.690  0.00  0.00    -0.049 A 
ATOM     47  H   38Z d   1      30.125   2.983  23.232  0.00  0.00     0.114 H 
ATOM     48  C15 38Z d   1      31.120   5.480  21.302  0.00  0.00     0.006 A 
ATOM     49  H   38Z d   1      31.301   3.343  21.096  0.00  0.00     0.087 H 
ATOM     50  N3  38Z d   1      30.670   6.531  22.007  0.00  0.00    -0.241 NA
ATOM     51  H   38Z d   1      31.651   5.672  20.377  0.00  0.00     0.114 H 
ENDBRANCH  37  43
ENDBRANCH  25  33
ENDBRANCH  14  17
ENDBRANCH   4  14
BRANCH   1  52
ATOM     52  C20 38Z d   1      22.613  12.043  31.814  0.00  0.00     0.228 C 
ATOM     53  O1  38Z d   1      23.426  11.121  31.585  0.00  0.00    -0.273 OA
ATOM     54  N5  38Z d   1      21.398  11.890  32.364  0.00  0.00    -0.327 N 
ATOM     55  H   38Z d   1      20.896  12.733  32.559  0.00  0.00     0.169 HD
BRANCH  54  56
ATOM     56  C21 38Z d   1      20.742  10.690  32.701  0.00  0.00     0.035 A 
ATOM     57  C26 38Z d   1      21.234   9.436  32.364  0.00  0.00    -0.043 A 
ATOM     58  C25 38Z d   1      20.487   8.319  32.659  0.00  0.00     0.025 A 
ATOM     59  H   38Z d   1      22.196   9.338  31.874  0.00  0.00     0.088 H 
ATOM     60  C27 38Z d   1      20.645   6.861  32.483  0.00  0.00     0.073 A 
ATOM     61  C24 38Z d   1      19.248   8.477  33.317  0.00  0.00     0.089 A 
ATOM     62  N7  38Z d   1      19.574   6.306  32.998  0.00  0.00    -0.276 N 
ATOM     63  N8  38Z d   1      18.749   7.243  33.491  0.00  0.00    -0.174 NA
ATOM     64  H   38Z d   1      19.392   5.293  33.021  0.00  0.00     0.189 HD
ATOM     65  C23 38Z d   1      18.762   9.718  33.678  0.00  0.00    -0.051 A 
ATOM     66  C22 38Z d   1      19.526  10.823  33.362  0.00  0.00    -0.055 A 
ATOM     67  H   38Z d   1      17.813   9.821  34.192  0.00  0.00     0.087 H 
ATOM     68  H   38Z d   1      19.172  11.811  33.634  0.00  0.00     0.087 H 
BRANCH  60  69
ATOM     69  C28 38Z d   1      21.757   6.117  31.843  0.00  0.00    -0.004 A 
ATOM     70  C32 38Z d   1      22.656   6.760  31.001  0.00  0.00    -0.054 A 
ATOM     71  C31 38Z d   1      23.716   6.039  30.485  0.00  0.00     0.003 A 
ATOM     72  H   38Z d   1      22.528   7.808  30.753  0.00  0.00     0.087 H 
ATOM     73  N6  38Z d   1      23.933   4.747  30.751  0.00  0.00    -0.273 NA
ATOM     74  H   38Z d   1      24.410   6.550  29.828  0.00  0.00     0.114 H 
ATOM     75  C30 38Z d   1      23.056   4.136  31.547  0.00  0.00     0.003 A 
ATOM     76  C29 38Z d   1      21.977   4.777  32.134  0.00  0.00    -0.054 A 
ATOM     77  H   38Z d   1      23.194   3.079  31.746  0.00  0.00     0.114 H 
ATOM     78  H   38Z d   1      21.317   4.243  32.808  0.00  0.00     0.087 H 
ENDBRANCH  60  69
ENDBRANCH  54  56
ENDBRANCH   1  52
TORSDOF 7
