REMARK  12 active torsions:
REMARK  status: ('A' for Active; 'I' for Inactive)
REMARK    1  A    between atoms: CAB_2  and  CAD_4 
REMARK    2  A    between atoms: CAD_4  and  CAE_5 
REMARK    3  A    between atoms: CAD_4  and  CAL_14 
REMARK    4  A    between atoms: CAE_5  and  CAF_6 
REMARK    5  A    between atoms: CAH_10  and  CAZ_11 
REMARK    6  A    between atoms: CAZ_11  and  NBA_12 
REMARK    7  A    between atoms: CAL_14  and  PAM_15 
REMARK    8  A    between atoms: PAM_15  and  CAP_18 
REMARK    9  A    between atoms: CAP_18  and  NAQ_19 
REMARK   10  A    between atoms: CAP_18  and  CAR_20 
REMARK   11  A    between atoms: CAR_20  and  CAS_21 
REMARK   12  A    between atoms: CAS_21  and  CAT_22 
ROOT
ATOM      1  CAL 3DZ d   1     -41.204 -13.007 -23.405  0.00  0.00     0.022 C 
ATOM      2  H   3DZ d   1     -40.891 -12.911 -24.455  0.00  0.00     0.050 H 
ATOM      3  H   3DZ d   1     -41.241 -12.010 -22.941  0.00  0.00     0.050 H 
ENDROOT
BRANCH   1   4
ATOM      4  CAD 3DZ d   1     -40.145 -13.815 -22.679  0.00  0.00     0.043 C 
ATOM      5  H   3DZ d   1     -40.623 -14.628 -22.113  0.00  0.00     0.058 H 
BRANCH   4   6
ATOM      6  CAB 3DZ d   1     -39.224 -13.030 -21.744  0.00  0.00     0.177 C 
ATOM      7  OAA 3DZ d   1     -38.741 -11.911 -22.066  0.00  0.00    -0.648 OA
ATOM      8  OAC 3DZ d   1     -38.921 -13.541 -20.638  0.00  0.00    -0.648 OA
ENDBRANCH   4   6
BRANCH   4   9
ATOM      9  CAE 3DZ d   1     -39.280 -14.350 -23.799  0.00  0.00    -0.028 C 
ATOM     10  H   3DZ d   1     -38.784 -13.502 -24.294  0.00  0.00     0.041 H 
ATOM     11  H   3DZ d   1     -39.926 -14.869 -24.522  0.00  0.00     0.041 H 
BRANCH   9  12
ATOM     12  CAF 3DZ d   1     -38.217 -15.317 -23.323  0.00  0.00    -0.057 A 
ATOM     13  CAK 3DZ d   1     -38.542 -16.660 -23.182  0.00  0.00    -0.077 A 
ATOM     14  CAJ 3DZ d   1     -37.578 -17.588 -22.784  0.00  0.00    -0.082 A 
ATOM     15  H   3DZ d   1     -39.554 -16.991 -23.383  0.00  0.00     0.084 H 
ATOM     16  CAI 3DZ d   1     -36.275 -17.166 -22.530  0.00  0.00    -0.075 A 
ATOM     17  H   3DZ d   1     -37.843 -18.633 -22.673  0.00  0.00     0.083 H 
ATOM     18  CAH 3DZ d   1     -35.944 -15.822 -22.685  0.00  0.00    -0.033 A 
ATOM     19  H   3DZ d   1     -35.523 -17.880 -22.213  0.00  0.00     0.084 H 
ATOM     20  CAG 3DZ d   1     -36.913 -14.882 -23.088  0.00  0.00    -0.069 A 
ATOM     21  H   3DZ d   1     -36.649 -13.838 -23.213  0.00  0.00     0.085 H 
BRANCH  18  22
ATOM     22  CAZ 3DZ d   1     -34.527 -15.404 -22.408  0.00  0.00     0.103 C 
ATOM     23  H   3DZ d   1     -34.185 -14.728 -23.206  0.00  0.00     0.082 H 
ATOM     24  H   3DZ d   1     -33.884 -16.296 -22.383  0.00  0.00     0.082 H 
BRANCH  22  25
ATOM     25  NBA 3DZ d   1     -34.444 -14.711 -21.119  0.00  0.00    -0.075 N 
ATOM     26  H   3DZ d   1     -33.490 -14.437 -20.946  0.00  0.00     0.274 HD
ATOM     27  H   3DZ d   1     -34.754 -15.328 -20.385  0.00  0.00     0.274 HD
ATOM     28  H   3DZ d   1     -35.031 -13.892 -21.140  0.00  0.00     0.274 HD
ENDBRANCH  22  25
ENDBRANCH  18  22
ENDBRANCH   9  12
ENDBRANCH   4   9
ENDBRANCH   1   4
BRANCH   1  29
ATOM     29  PAM 3DZ d   1     -42.899 -13.691 -23.390  0.00  0.00     0.138 P 
ATOM     30  OAN 3DZ d   1     -43.298 -14.581 -24.525  0.00  0.00    -0.666 OA
ATOM     31  OAO 3DZ d   1     -43.084 -14.409 -22.118  0.00  0.00    -0.666 OA
BRANCH  29  32
ATOM     32  CAP 3DZ d   1     -44.085 -12.324 -23.414  0.00  0.00     0.173 C 
ATOM     33  H   3DZ d   1     -44.008 -11.798 -24.377  0.00  0.00     0.100 H 
BRANCH  32  34
ATOM     34  NAQ 3DZ d   1     -45.466 -12.928 -23.314  0.00  0.00    -0.066 N 
ATOM     35  H   3DZ d   1     -46.156 -12.193 -23.325  0.00  0.00     0.275 HD
ATOM     36  H   3DZ d   1     -45.543 -13.449 -22.455  0.00  0.00     0.275 HD
ATOM     37  H   3DZ d   1     -45.620 -13.545 -24.096  0.00  0.00     0.275 HD
ENDBRANCH  32  34
BRANCH  32  38
ATOM     38  CAR 3DZ d   1     -43.761 -11.331 -22.321  0.00  0.00    -0.026 C 
ATOM     39  H   3DZ d   1     -42.740 -10.948 -22.468  0.00  0.00     0.037 H 
ATOM     40  H   3DZ d   1     -43.827 -11.831 -21.344  0.00  0.00     0.037 H 
BRANCH  38  41
ATOM     41  CAS 3DZ d   1     -44.735 -10.181 -22.359  0.00  0.00    -0.039 C 
ATOM     42  H   3DZ d   1     -45.407 -10.300 -21.497  0.00  0.00     0.040 H 
ATOM     43  H   3DZ d   1     -45.312 -10.279 -23.290  0.00  0.00     0.040 H 
BRANCH  41  44
ATOM     44  CAT 3DZ d   1     -44.207  -8.772 -22.314  0.00  0.00    -0.058 A 
ATOM     45  CAU 3DZ d   1     -43.384  -8.299 -23.328  0.00  0.00    -0.077 A 
ATOM     46  CAV 3DZ d   1     -42.898  -6.985 -23.325  0.00  0.00    -0.082 A 
ATOM     47  H   3DZ d   1     -43.111  -8.962 -24.141  0.00  0.00     0.084 H 
ATOM     48  CAW 3DZ d   1     -43.295  -6.138 -22.292  0.00  0.00    -0.083 A 
ATOM     49  H   3DZ d   1     -42.231  -6.636 -24.105  0.00  0.00     0.083 H 
ATOM     50  CAX 3DZ d   1     -44.165  -6.605 -21.283  0.00  0.00    -0.082 A 
ATOM     51  H   3DZ d   1     -42.934  -5.116 -22.263  0.00  0.00     0.083 H 
ATOM     52  CAY 3DZ d   1     -44.624  -7.932 -21.278  0.00  0.00    -0.077 A 
ATOM     53  H   3DZ d   1     -44.484  -5.928 -20.499  0.00  0.00     0.083 H 
ATOM     54  H   3DZ d   1     -45.281  -8.293 -20.495  0.00  0.00     0.084 H 
ENDBRANCH  41  44
ENDBRANCH  38  41
ENDBRANCH  32  38
ENDBRANCH  29  32
ENDBRANCH   1  29
TORSDOF 12
