REMARK  13 active torsions:
REMARK  status: ('A' for Active; 'I' for Inactive)
REMARK    1  A    between atoms: C2_2  and  C7_7 
REMARK       I    between atoms: C7_7  and  N9_9 
REMARK    2  A    between atoms: N9_9  and  C10_10 
REMARK    3  A    between atoms: C10_10  and  C11_11 
REMARK    4  A    between atoms: C10_10  and  C18_18 
REMARK    5  A    between atoms: C11_11  and  C12_12 
REMARK       I    between atoms: C18_18  and  N20_20 
REMARK    6  A    between atoms: N20_20  and  C21_21 
REMARK    7  A    between atoms: C21_21  and  C22_22 
REMARK    8  A    between atoms: C21_21  and  B26_26 
REMARK    9  A    between atoms: C22_22  and  C23_23 
REMARK   10  A    between atoms: C23_23  and  C24_24 
REMARK   11  A    between atoms: C23_23  and  C25_25 
REMARK   12  A    between atoms: B26_26  and  O27_27 
REMARK   13  A    between atoms: B26_26  and  O28_28 
ROOT
ATOM      1  C10 BO2 d   1      61.106-136.001  39.270  0.00  0.00     0.093 C 
ATOM      2  H   BO2 d   1      60.405-135.237  39.637  0.00  0.00     0.088 H 
ENDROOT
BRANCH   1   3
ATOM      3  N9  BO2 d   1      61.549-135.650  37.915  0.00  0.00    -0.342 N 
ATOM      4  C7  BO2 d   1      61.164-134.505  37.320  0.00  0.00     0.272 C 
ATOM      5  O8  BO2 d   1      60.408-133.680  37.832  0.00  0.00    -0.266 OA
ATOM      6  H   BO2 d   1      62.152-136.277  37.422  0.00  0.00     0.163 HD
BRANCH   4   7
ATOM      7  C2  BO2 d   1      61.688-134.281  36.053  0.00  0.00     0.141 A 
ATOM      8  N1  BO2 d   1      62.132-133.051  35.746  0.00  0.00    -0.253 NA
ATOM      9  C6  BO2 d   1      62.671-132.773  34.482  0.00  0.00     0.020 A 
ATOM     10  C5  BO2 d   1      62.749-133.785  33.529  0.00  0.00     0.019 A 
ATOM     11  H   BO2 d   1      63.025-131.776  34.248  0.00  0.00     0.117 H 
ATOM     12  N4  BO2 d   1      62.288-135.066  33.845  0.00  0.00    -0.269 NA
ATOM     13  H   BO2 d   1      63.164-133.581  32.549  0.00  0.00     0.117 H 
ATOM     14  C3  BO2 d   1      61.753-135.311  35.114  0.00  0.00     0.035 A 
ATOM     15  H   BO2 d   1      61.389-136.300  35.368  0.00  0.00     0.118 H 
ENDBRANCH   4   7
ENDBRANCH   1   3
BRANCH   1  16
ATOM     16  C11 BO2 d   1      60.436-137.353  39.316  0.00  0.00    -0.014 C 
ATOM     17  H   BO2 d   1      60.212-137.630  40.357  0.00  0.00     0.043 H 
ATOM     18  H   BO2 d   1      61.089-138.115  38.867  0.00  0.00     0.043 H 
BRANCH  16  19
ATOM     19  C12 BO2 d   1      59.245-137.240  38.578  0.00  0.00    -0.056 A 
ATOM     20  C13 BO2 d   1      59.075-137.957  37.390  0.00  0.00    -0.077 A 
ATOM     21  C14 BO2 d   1      57.891-137.846  36.662  0.00  0.00    -0.082 A 
ATOM     22  H   BO2 d   1      59.868-138.603  37.033  0.00  0.00     0.084 H 
ATOM     23  C15 BO2 d   1      56.865-137.021  37.115  0.00  0.00    -0.083 A 
ATOM     24  H   BO2 d   1      57.769-138.404  35.740  0.00  0.00     0.083 H 
ATOM     25  C16 BO2 d   1      57.026-136.307  38.299  0.00  0.00    -0.082 A 
ATOM     26  H   BO2 d   1      55.945-136.935  36.548  0.00  0.00     0.083 H 
ATOM     27  C17 BO2 d   1      58.208-136.418  39.030  0.00  0.00    -0.077 A 
ATOM     28  H   BO2 d   1      56.230-135.663  38.654  0.00  0.00     0.083 H 
ATOM     29  H   BO2 d   1      58.324-135.864  39.954  0.00  0.00     0.084 H 
ENDBRANCH  16  19
ENDBRANCH   1  16
BRANCH   1  30
ATOM     30  C18 BO2 d   1      62.346-136.039  40.146  0.00  0.00     0.240 C 
ATOM     31  O19 BO2 d   1      63.467-136.116  39.642  0.00  0.00    -0.271 OA
ATOM     32  N20 BO2 d   1      62.098-135.956  41.461  0.00  0.00    -0.358 N 
ATOM     33  H   BO2 d   1      61.151-135.908  41.778  0.00  0.00     0.162 HD
BRANCH  32  34
ATOM     34  C21 BO2 d   1      63.187-135.934  42.445  0.00  0.00     0.046 C 
ATOM     35  H   BO2 d   1      64.148-136.066  41.927  0.00  0.00     0.064 H 
BRANCH  34  36
ATOM     36  C22 BO2 d   1      63.193-134.614  43.182  0.00  0.00    -0.046 C 
ATOM     37  H   BO2 d   1      64.077-134.560  43.835  0.00  0.00     0.035 H 
ATOM     38  H   BO2 d   1      62.281-134.527  43.791  0.00  0.00     0.035 H 
BRANCH  36  39
ATOM     39  C23 BO2 d   1      63.239-133.466  42.151  0.00  0.00    -0.060 C 
ATOM     40  H   BO2 d   1      62.511-133.677  41.354  0.00  0.00     0.038 H 
BRANCH  39  41
ATOM     41  C24 BO2 d   1      62.843-132.162  42.849  0.00  0.00    -0.073 C 
ATOM     42  H   BO2 d   1      62.872-131.335  42.124  0.00  0.00     0.028 H 
ATOM     43  H   BO2 d   1      63.547-131.956  43.669  0.00  0.00     0.028 H 
ATOM     44  H   BO2 d   1      61.825-132.258  43.255  0.00  0.00     0.028 H 
ENDBRANCH  39  41
BRANCH  39  45
ATOM     45  C25 BO2 d   1      64.632-133.348  41.513  0.00  0.00    -0.073 C 
ATOM     46  H   BO2 d   1      64.891-134.297  41.020  0.00  0.00     0.028 H 
ATOM     47  H   BO2 d   1      65.375-133.126  42.293  0.00  0.00     0.028 H 
ATOM     48  H   BO2 d   1      64.627-132.537  40.770  0.00  0.00     0.028 H 
ENDBRANCH  39  45
ENDBRANCH  36  39
ENDBRANCH  34  36
BRANCH  34  49
ATOM     49  B26 BO2 d   1      63.023-137.055  43.481  0.00  0.00     0.515 B 
BRANCH  49  50
ATOM     50  O27 BO2 d   1      61.777-136.916  44.186  0.00  0.00    -0.436 OA
ATOM     51  H   BO2 d   1      61.706-137.602  44.839  0.00  0.00     0.184 HD
ENDBRANCH  49  50
BRANCH  49  52
ATOM     52  O28 BO2 d   1      63.066-138.335  42.838  0.00  0.00    -0.436 OA
ATOM     53  H   BO2 d   1      62.993-139.019  43.493  0.00  0.00     0.184 HD
ENDBRANCH  49  52
ENDBRANCH  34  49
ENDBRANCH  32  34
ENDBRANCH   1  30
TORSDOF 13
