REMARK  13 active torsions:
REMARK  status: ('A' for Active; 'I' for Inactive)
REMARK    1  A    between atoms: C2_2  and  C7_7 
REMARK       I    between atoms: C7_7  and  N9_9 
REMARK    2  A    between atoms: N9_9  and  C10_10 
REMARK    3  A    between atoms: C10_10  and  C11_11 
REMARK    4  A    between atoms: C10_10  and  C18_18 
REMARK    5  A    between atoms: C11_11  and  C12_12 
REMARK       I    between atoms: C18_18  and  N20_20 
REMARK    6  A    between atoms: N20_20  and  C21_21 
REMARK    7  A    between atoms: C21_21  and  C22_22 
REMARK    8  A    between atoms: C21_21  and  B26_26 
REMARK    9  A    between atoms: C22_22  and  C23_23 
REMARK   10  A    between atoms: C23_23  and  C24_24 
REMARK   11  A    between atoms: C23_23  and  C25_25 
REMARK   12  A    between atoms: B26_26  and  O27_27 
REMARK   13  A    between atoms: B26_26  and  O28_28 
ROOT
ATOM      1  C10 BO2 d   1      61.517-135.876  39.464  0.00  0.00     0.093 C 
ATOM      2  H   BO2 d   1      60.834-135.088  39.814  0.00  0.00     0.088 H 
ENDROOT
BRANCH   1   3
ATOM      3  N9  BO2 d   1      61.994-135.561  38.112  0.00  0.00    -0.342 N 
ATOM      4  C7  BO2 d   1      61.786-134.351  37.564  0.00  0.00     0.272 C 
ATOM      5  O8  BO2 d   1      61.162-133.448  38.118  0.00  0.00    -0.266 OA
ATOM      6  H   BO2 d   1      62.483-136.259  37.589  0.00  0.00     0.163 HD
BRANCH   4   7
ATOM      7  C2  BO2 d   1      62.325-134.152  36.297  0.00  0.00     0.141 A 
ATOM      8  N1  BO2 d   1      62.859-132.954  36.006  0.00  0.00    -0.253 NA
ATOM      9  C6  BO2 d   1      63.416-132.689  34.749  0.00  0.00     0.020 A 
ATOM     10  C5  BO2 d   1      63.420-133.683  33.781  0.00  0.00     0.019 A 
ATOM     11  H   BO2 d   1      63.841-131.715  34.534  0.00  0.00     0.117 H 
ATOM     12  N4  BO2 d   1      62.866-134.931  34.078  0.00  0.00    -0.269 NA
ATOM     13  H   BO2 d   1      63.849-133.493  32.804  0.00  0.00     0.117 H 
ATOM     14  C3  BO2 d   1      62.315-135.164  35.341  0.00  0.00     0.035 A 
ATOM     15  H   BO2 d   1      61.881-136.129  35.575  0.00  0.00     0.118 H 
ENDBRANCH   4   7
ENDBRANCH   1   3
BRANCH   1  16
ATOM     16  C11 BO2 d   1      60.816-137.206  39.517  0.00  0.00    -0.014 C 
ATOM     17  H   BO2 d   1      60.573-137.463  40.558  0.00  0.00     0.043 H 
ATOM     18  H   BO2 d   1      61.458-137.988  39.086  0.00  0.00     0.043 H 
BRANCH  16  19
ATOM     19  C12 BO2 d   1      59.638-137.081  38.764  0.00  0.00    -0.056 A 
ATOM     20  C13 BO2 d   1      59.479-137.796  37.575  0.00  0.00    -0.077 A 
ATOM     21  C14 BO2 d   1      58.306-137.676  36.834  0.00  0.00    -0.082 A 
ATOM     22  H   BO2 d   1      60.273-138.447  37.227  0.00  0.00     0.084 H 
ATOM     23  C15 BO2 d   1      57.281-136.842  37.275  0.00  0.00    -0.083 A 
ATOM     24  H   BO2 d   1      58.190-138.233  35.911  0.00  0.00     0.083 H 
ATOM     25  C16 BO2 d   1      57.431-136.130  38.461  0.00  0.00    -0.082 A 
ATOM     26  H   BO2 d   1      56.369-136.748  36.696  0.00  0.00     0.083 H 
ATOM     27  C17 BO2 d   1      58.603-136.252  39.203  0.00  0.00    -0.077 A 
ATOM     28  H   BO2 d   1      56.635-135.480  38.807  0.00  0.00     0.083 H 
ATOM     29  H   BO2 d   1      58.713-135.699  40.129  0.00  0.00     0.084 H 
ENDBRANCH  16  19
ENDBRANCH   1  16
BRANCH   1  30
ATOM     30  C18 BO2 d   1      62.751-135.939  40.340  0.00  0.00     0.240 C 
ATOM     31  O19 BO2 d   1      63.864-136.029  39.825  0.00  0.00    -0.271 OA
ATOM     32  N20 BO2 d   1      62.529-135.850  41.659  0.00  0.00    -0.358 N 
ATOM     33  H   BO2 d   1      61.591-135.781  41.999  0.00  0.00     0.162 HD
BRANCH  32  34
ATOM     34  C21 BO2 d   1      63.651-135.852  42.613  0.00  0.00     0.046 C 
ATOM     35  H   BO2 d   1      64.594-135.993  42.064  0.00  0.00     0.064 H 
BRANCH  34  36
ATOM     36  C22 BO2 d   1      63.704-134.544  43.365  0.00  0.00    -0.046 C 
ATOM     37  H   BO2 d   1      64.631-134.498  43.956  0.00  0.00     0.035 H 
ATOM     38  H   BO2 d   1      62.837-134.472  44.037  0.00  0.00     0.035 H 
BRANCH  36  39
ATOM     39  C23 BO2 d   1      63.675-133.370  42.358  0.00  0.00    -0.060 C 
ATOM     40  H   BO2 d   1      63.024-133.644  41.515  0.00  0.00     0.038 H 
BRANCH  39  41
ATOM     41  C24 BO2 d   1      63.089-132.136  43.055  0.00  0.00    -0.073 C 
ATOM     42  H   BO2 d   1      63.063-131.293  42.348  0.00  0.00     0.028 H 
ATOM     43  H   BO2 d   1      63.716-131.871  43.919  0.00  0.00     0.028 H 
ATOM     44  H   BO2 d   1      62.068-132.359  43.398  0.00  0.00     0.028 H 
ENDBRANCH  39  41
BRANCH  39  45
ATOM     45  C25 BO2 d   1      65.079-133.072  41.808  0.00  0.00    -0.073 C 
ATOM     46  H   BO2 d   1      65.477-133.970  41.314  0.00  0.00     0.028 H 
ATOM     47  H   BO2 d   1      65.744-132.784  42.636  0.00  0.00     0.028 H 
ATOM     48  H   BO2 d   1      65.021-132.249  41.081  0.00  0.00     0.028 H 
ENDBRANCH  39  45
ENDBRANCH  36  39
ENDBRANCH  34  36
BRANCH  34  49
ATOM     49  B26 BO2 d   1      63.506-136.986  43.644  0.00  0.00     0.515 B 
BRANCH  49  50
ATOM     50  O27 BO2 d   1      62.196-136.949  44.231  0.00  0.00    -0.436 OA
ATOM     51  H   BO2 d   1      62.122-137.637  44.881  0.00  0.00     0.184 HD
ENDBRANCH  49  50
BRANCH  49  52
ATOM     52  O28 BO2 d   1      63.721-138.257  43.017  0.00  0.00    -0.436 OA
ATOM     53  H   BO2 d   1      63.648-138.946  43.667  0.00  0.00     0.184 HD
ENDBRANCH  49  52
ENDBRANCH  34  49
ENDBRANCH  32  34
ENDBRANCH   1  30
TORSDOF 13
