REMARK  13 active torsions:
REMARK  status: ('A' for Active; 'I' for Inactive)
REMARK    1  A    between atoms: C2_2  and  C7_7 
REMARK       I    between atoms: C7_7  and  N9_9 
REMARK    2  A    between atoms: N9_9  and  C10_10 
REMARK    3  A    between atoms: C10_10  and  C11_11 
REMARK    4  A    between atoms: C10_10  and  C18_18 
REMARK    5  A    between atoms: C11_11  and  C12_12 
REMARK       I    between atoms: C18_18  and  N20_20 
REMARK    6  A    between atoms: N20_20  and  C21_21 
REMARK    7  A    between atoms: C21_21  and  C22_22 
REMARK    8  A    between atoms: C21_21  and  B26_26 
REMARK    9  A    between atoms: C22_22  and  C23_23 
REMARK   10  A    between atoms: C23_23  and  C24_24 
REMARK   11  A    between atoms: C23_23  and  C25_25 
REMARK   12  A    between atoms: B26_26  and  O27_27 
REMARK   13  A    between atoms: B26_26  and  O28_28 
ROOT
ATOM      1  C10 BO2 d   1      60.727-136.221  39.474  0.00  0.00     0.093 C 
ATOM      2  H   BO2 d   1      60.025-135.455  39.837  0.00  0.00     0.088 H 
ENDROOT
BRANCH   1   3
ATOM      3  N9  BO2 d   1      61.234-135.854  38.147  0.00  0.00    -0.342 N 
ATOM      4  C7  BO2 d   1      60.887-134.700  37.554  0.00  0.00     0.272 C 
ATOM      5  O8  BO2 d   1      60.105-133.883  38.039  0.00  0.00    -0.266 OA
ATOM      6  H   BO2 d   1      61.854-136.479  37.672  0.00  0.00     0.163 HD
BRANCH   4   7
ATOM      7  C2  BO2 d   1      61.491-134.452  36.327  0.00  0.00     0.141 A 
ATOM      8  N1  BO2 d   1      62.013-133.236  36.108  0.00  0.00    -0.253 NA
ATOM      9  C6  BO2 d   1      62.639-132.922  34.898  0.00  0.00     0.020 A 
ATOM     10  C5  BO2 d   1      62.727-133.885  33.902  0.00  0.00     0.019 A 
ATOM     11  H   BO2 d   1      63.053-131.933  34.739  0.00  0.00     0.117 H 
ATOM     12  N4  BO2 d   1      62.186-135.156  34.126  0.00  0.00    -0.269 NA
ATOM     13  H   BO2 d   1      63.210-133.655  32.959  0.00  0.00     0.117 H 
ATOM     14  C3  BO2 d   1      61.563-135.438  35.345  0.00  0.00     0.035 A 
ATOM     15  H   BO2 d   1      61.138-136.419  35.526  0.00  0.00     0.118 H 
ENDBRANCH   4   7
ENDBRANCH   1   3
BRANCH   1  16
ATOM     16  C11 BO2 d   1      60.030-137.560  39.453  0.00  0.00    -0.014 C 
ATOM     17  H   BO2 d   1      59.787-137.878  40.477  0.00  0.00     0.043 H 
ATOM     18  H   BO2 d   1      60.672-138.316  38.977  0.00  0.00     0.043 H 
BRANCH  16  19
ATOM     19  C12 BO2 d   1      58.850-137.382  38.705  0.00  0.00    -0.056 A 
ATOM     20  C13 BO2 d   1      58.696-137.995  37.458  0.00  0.00    -0.077 A 
ATOM     21  C14 BO2 d   1      57.523-137.816  36.725  0.00  0.00    -0.082 A 
ATOM     22  H   BO2 d   1      59.492-138.613  37.059  0.00  0.00     0.084 H 
ATOM     23  C15 BO2 d   1      56.492-137.027  37.227  0.00  0.00    -0.083 A 
ATOM     24  H   BO2 d   1      57.414-138.294  35.758  0.00  0.00     0.083 H 
ATOM     25  C16 BO2 d   1      56.636-136.416  38.468  0.00  0.00    -0.082 A 
ATOM     26  H   BO2 d   1      55.582-136.890  36.654  0.00  0.00     0.083 H 
ATOM     27  C17 BO2 d   1      57.807-136.596  39.205  0.00  0.00    -0.077 A 
ATOM     28  H   BO2 d   1      55.837-135.799  38.863  0.00  0.00     0.083 H 
ATOM     29  H   BO2 d   1      57.909-136.122  40.175  0.00  0.00     0.084 H 
ENDBRANCH  16  19
ENDBRANCH   1  16
BRANCH   1  30
ATOM     30  C18 BO2 d   1      61.957-136.278  40.366  0.00  0.00     0.240 C 
ATOM     31  O19 BO2 d   1      63.076-136.393  39.870  0.00  0.00    -0.271 OA
ATOM     32  N20 BO2 d   1      61.726-136.145  41.675  0.00  0.00    -0.358 N 
ATOM     33  H   BO2 d   1      60.787-136.052  42.006  0.00  0.00     0.162 HD
BRANCH  32  34
ATOM     34  C21 BO2 d   1      62.842-136.135  42.632  0.00  0.00     0.046 C 
ATOM     35  H   BO2 d   1      63.786-136.273  42.085  0.00  0.00     0.064 H 
BRANCH  34  36
ATOM     36  C22 BO2 d   1      62.894-134.825  43.387  0.00  0.00    -0.046 C 
ATOM     37  H   BO2 d   1      63.835-134.769  43.954  0.00  0.00     0.035 H 
ATOM     38  H   BO2 d   1      62.044-134.772  44.083  0.00  0.00     0.035 H 
BRANCH  36  39
ATOM     39  C23 BO2 d   1      62.821-133.641  42.402  0.00  0.00    -0.060 C 
ATOM     40  H   BO2 d   1      62.009-133.824  41.682  0.00  0.00     0.038 H 
BRANCH  39  41
ATOM     41  C24 BO2 d   1      62.502-132.367  43.203  0.00  0.00    -0.073 C 
ATOM     42  H   BO2 d   1      62.445-131.508  42.518  0.00  0.00     0.028 H 
ATOM     43  H   BO2 d   1      63.295-132.192  43.945  0.00  0.00     0.028 H 
ATOM     44  H   BO2 d   1      61.538-132.490  43.718  0.00  0.00     0.028 H 
ENDBRANCH  39  41
BRANCH  39  45
ATOM     45  C25 BO2 d   1      64.137-133.488  41.621  0.00  0.00    -0.073 C 
ATOM     46  H   BO2 d   1      64.339-134.412  41.059  0.00  0.00     0.028 H 
ATOM     47  H   BO2 d   1      64.961-133.299  42.325  0.00  0.00     0.028 H 
ATOM     48  H   BO2 d   1      64.052-132.644  40.921  0.00  0.00     0.028 H 
ENDBRANCH  39  45
ENDBRANCH  36  39
ENDBRANCH  34  36
BRANCH  34  49
ATOM     49  B26 BO2 d   1      62.681-137.253  43.669  0.00  0.00     0.515 B 
BRANCH  49  50
ATOM     50  O27 BO2 d   1      61.421-137.114  44.353  0.00  0.00    -0.436 OA
ATOM     51  H   BO2 d   1      61.339-137.800  45.005  0.00  0.00     0.184 HD
ENDBRANCH  49  50
BRANCH  49  52
ATOM     52  O28 BO2 d   1      62.739-138.532  43.027  0.00  0.00    -0.436 OA
ATOM     53  H   BO2 d   1      62.656-139.217  43.680  0.00  0.00     0.184 HD
ENDBRANCH  49  52
ENDBRANCH  34  49
ENDBRANCH  32  34
ENDBRANCH   1  30
TORSDOF 13
