REMARK  13 active torsions:
REMARK  status: ('A' for Active; 'I' for Inactive)
REMARK    1  A    between atoms: C2_2  and  C7_7 
REMARK       I    between atoms: C7_7  and  N9_9 
REMARK    2  A    between atoms: N9_9  and  C10_10 
REMARK    3  A    between atoms: C10_10  and  C11_11 
REMARK    4  A    between atoms: C10_10  and  C18_18 
REMARK    5  A    between atoms: C11_11  and  C12_12 
REMARK       I    between atoms: C18_18  and  N20_20 
REMARK    6  A    between atoms: N20_20  and  C21_21 
REMARK    7  A    between atoms: C21_21  and  C22_22 
REMARK    8  A    between atoms: C21_21  and  B26_26 
REMARK    9  A    between atoms: C22_22  and  C23_23 
REMARK   10  A    between atoms: C23_23  and  C24_24 
REMARK   11  A    between atoms: C23_23  and  C25_25 
REMARK   12  A    between atoms: B26_26  and  O27_27 
REMARK   13  A    between atoms: B26_26  and  O28_28 
ROOT
ATOM      1  C10 BO2 d   1      61.287-136.317  39.286  0.00  0.00     0.093 C 
ATOM      2  H   BO2 d   1      60.623-135.526  39.664  0.00  0.00     0.088 H 
ENDROOT
BRANCH   1   3
ATOM      3  N9  BO2 d   1      61.784-135.970  37.951  0.00  0.00    -0.342 N 
ATOM      4  C7  BO2 d   1      61.603-134.744  37.427  0.00  0.00     0.272 C 
ATOM      5  O8  BO2 d   1      60.989-133.839  37.991  0.00  0.00    -0.266 OA
ATOM      6  H   BO2 d   1      62.270-136.662  37.417  0.00  0.00     0.163 HD
BRANCH   4   7
ATOM      7  C2  BO2 d   1      62.170-134.527  36.176  0.00  0.00     0.141 A 
ATOM      8  N1  BO2 d   1      62.618-133.294  35.887  0.00  0.00    -0.253 NA
ATOM      9  C6  BO2 d   1      63.200-133.004  34.647  0.00  0.00     0.020 A 
ATOM     10  C5  BO2 d   1      63.321-134.008  33.694  0.00  0.00     0.019 A 
ATOM     11  H   BO2 d   1      63.554-132.002  34.432  0.00  0.00     0.117 H 
ATOM     12  N4  BO2 d   1      62.858-135.296  33.989  0.00  0.00    -0.269 NA
ATOM     13  H   BO2 d   1      63.770-133.796  32.730  0.00  0.00     0.117 H 
ATOM     14  C3  BO2 d   1      62.278-135.551  35.236  0.00  0.00     0.035 A 
ATOM     15  H   BO2 d   1      61.913-136.544  35.471  0.00  0.00     0.118 H 
ENDBRANCH   4   7
ENDBRANCH   1   3
BRANCH   1  16
ATOM     16  C11 BO2 d   1      60.541-137.629  39.256  0.00  0.00    -0.014 C 
ATOM     17  H   BO2 d   1      60.322-137.964  40.281  0.00  0.00     0.043 H 
ATOM     18  H   BO2 d   1      61.141-138.394  38.741  0.00  0.00     0.043 H 
BRANCH  16  19
ATOM     19  C12 BO2 d   1      59.342-137.401  38.555  0.00  0.00    -0.056 A 
ATOM     20  C13 BO2 d   1      59.147-137.934  37.278  0.00  0.00    -0.077 A 
ATOM     21  C14 BO2 d   1      57.954-137.707  36.594  0.00  0.00    -0.082 A 
ATOM     22  H   BO2 d   1      59.928-138.527  36.817  0.00  0.00     0.084 H 
ATOM     23  C15 BO2 d   1      56.942-136.950  37.180  0.00  0.00    -0.083 A 
ATOM     24  H   BO2 d   1      57.813-138.121  35.602  0.00  0.00     0.083 H 
ATOM     25  C16 BO2 d   1      57.128-136.418  38.452  0.00  0.00    -0.082 A 
ATOM     26  H   BO2 d   1      56.014-136.776  36.647  0.00  0.00     0.083 H 
ATOM     27  C17 BO2 d   1      58.319-136.646  39.137  0.00  0.00    -0.077 A 
ATOM     28  H   BO2 d   1      56.345-135.825  38.911  0.00  0.00     0.083 H 
ATOM     29  H   BO2 d   1      58.454-136.234  40.131  0.00  0.00     0.084 H 
ENDBRANCH  16  19
ENDBRANCH   1  16
BRANCH   1  30
ATOM     30  C18 BO2 d   1      62.526-136.442  40.170  0.00  0.00     0.240 C 
ATOM     31  O19 BO2 d   1      63.588-136.829  39.686  0.00  0.00    -0.271 OA
ATOM     32  N20 BO2 d   1      62.368-136.075  41.451  0.00  0.00    -0.358 N 
ATOM     33  H   BO2 d   1      61.471-135.765  41.765  0.00  0.00     0.162 HD
BRANCH  32  34
ATOM     34  C21 BO2 d   1      63.490-136.120  42.404  0.00  0.00     0.046 C 
ATOM     35  H   BO2 d   1      64.411-136.368  41.856  0.00  0.00     0.064 H 
BRANCH  34  36
ATOM     36  C22 BO2 d   1      63.686-134.798  43.116  0.00  0.00    -0.046 C 
ATOM     37  H   BO2 d   1      64.673-134.791  43.602  0.00  0.00     0.035 H 
ATOM     38  H   BO2 d   1      62.902-134.677  43.878  0.00  0.00     0.035 H 
BRANCH  36  39
ATOM     39  C23 BO2 d   1      63.605-133.629  42.114  0.00  0.00    -0.060 C 
ATOM     40  H   BO2 d   1      62.823-133.848  41.372  0.00  0.00     0.038 H 
BRANCH  39  41
ATOM     41  C24 BO2 d   1      63.227-132.356  42.885  0.00  0.00    -0.073 C 
ATOM     42  H   BO2 d   1      63.164-131.509  42.186  0.00  0.00     0.028 H 
ATOM     43  H   BO2 d   1      63.993-132.147  43.646  0.00  0.00     0.028 H 
ATOM     44  H   BO2 d   1      62.253-132.500  43.375  0.00  0.00     0.028 H 
ENDBRANCH  39  41
BRANCH  39  45
ATOM     45  C25 BO2 d   1      64.938-133.426  41.374  0.00  0.00    -0.073 C 
ATOM     46  H   BO2 d   1      65.197-134.344  40.826  0.00  0.00     0.028 H 
ATOM     47  H   BO2 d   1      65.730-133.197  42.102  0.00  0.00     0.028 H 
ATOM     48  H   BO2 d   1      64.840-132.591  40.664  0.00  0.00     0.028 H 
ENDBRANCH  39  45
ENDBRANCH  36  39
ENDBRANCH  34  36
BRANCH  34  49
ATOM     49  B26 BO2 d   1      63.227-137.183  43.484  0.00  0.00     0.515 B 
BRANCH  49  50
ATOM     50  O27 BO2 d   1      62.000-136.879  44.171  0.00  0.00    -0.436 OA
ATOM     51  H   BO2 d   1      61.847-137.529  44.847  0.00  0.00     0.184 HD
ENDBRANCH  49  50
BRANCH  49  52
ATOM     52  O28 BO2 d   1      63.127-138.480  42.888  0.00  0.00    -0.436 OA
ATOM     53  H   BO2 d   1      63.937-138.682  42.434  0.00  0.00     0.184 HD
ENDBRANCH  49  52
ENDBRANCH  34  49
ENDBRANCH  32  34
ENDBRANCH   1  30
TORSDOF 13
