REMARK  13 active torsions:
REMARK  status: ('A' for Active; 'I' for Inactive)
REMARK    1  A    between atoms: C2_2  and  C7_7 
REMARK       I    between atoms: C7_7  and  N9_9 
REMARK    2  A    between atoms: N9_9  and  C10_10 
REMARK    3  A    between atoms: C10_10  and  C11_11 
REMARK    4  A    between atoms: C10_10  and  C18_18 
REMARK    5  A    between atoms: C11_11  and  C12_12 
REMARK       I    between atoms: C18_18  and  N20_20 
REMARK    6  A    between atoms: N20_20  and  C21_21 
REMARK    7  A    between atoms: C21_21  and  C22_22 
REMARK    8  A    between atoms: C21_21  and  B26_26 
REMARK    9  A    between atoms: C22_22  and  C23_23 
REMARK   10  A    between atoms: C23_23  and  C24_24 
REMARK   11  A    between atoms: C23_23  and  C25_25 
REMARK   12  A    between atoms: B26_26  and  O27_27 
REMARK   13  A    between atoms: B26_26  and  O28_28 
ROOT
ATOM      1  C10 BO2 d   1      61.422-136.094  39.356  0.00  0.00     0.093 C 
ATOM      2  H   BO2 d   1      60.727-135.324  39.724  0.00  0.00     0.088 H 
ENDROOT
BRANCH   1   3
ATOM      3  N9  BO2 d   1      61.919-135.729  38.023  0.00  0.00    -0.342 N 
ATOM      4  C7  BO2 d   1      61.619-134.547  37.456  0.00  0.00     0.272 C 
ATOM      5  O8  BO2 d   1      60.900-133.695  37.978  0.00  0.00    -0.266 OA
ATOM      6  H   BO2 d   1      62.495-136.376  37.524  0.00  0.00     0.163 HD
BRANCH   4   7
ATOM      7  C2  BO2 d   1      62.212-134.307  36.221  0.00  0.00     0.141 A 
ATOM      8  N1  BO2 d   1      62.799-133.115  36.017  0.00  0.00    -0.253 NA
ATOM      9  C6  BO2 d   1      63.420-132.806  34.801  0.00  0.00     0.020 A 
ATOM     10  C5  BO2 d   1      63.435-133.752  33.783  0.00  0.00     0.019 A 
ATOM     11  H   BO2 d   1      63.885-131.838  34.655  0.00  0.00     0.117 H 
ATOM     12  N4  BO2 d   1      62.827-134.999  33.990  0.00  0.00    -0.269 NA
ATOM     13  H   BO2 d   1      63.913-133.528  32.836  0.00  0.00     0.117 H 
ATOM     14  C3  BO2 d   1      62.212-135.275  35.217  0.00  0.00     0.035 A 
ATOM     15  H   BO2 d   1      61.739-136.236  35.386  0.00  0.00     0.118 H 
ENDBRANCH   4   7
ENDBRANCH   1   3
BRANCH   1  16
ATOM     16  C11 BO2 d   1      60.727-137.433  39.336  0.00  0.00    -0.014 C 
ATOM     17  H   BO2 d   1      60.538-137.775  40.364  0.00  0.00     0.043 H 
ATOM     18  H   BO2 d   1      61.350-138.173  38.812  0.00  0.00     0.043 H 
BRANCH  16  19
ATOM     19  C12 BO2 d   1      59.512-137.259  38.656  0.00  0.00    -0.056 A 
ATOM     20  C13 BO2 d   1      59.291-137.868  37.417  0.00  0.00    -0.077 A 
ATOM     21  C14 BO2 d   1      58.077-137.696  36.754  0.00  0.00    -0.082 A 
ATOM     22  H   BO2 d   1      60.068-138.477  36.970  0.00  0.00     0.084 H 
ATOM     23  C15 BO2 d   1      57.073-136.917  37.325  0.00  0.00    -0.083 A 
ATOM     24  H   BO2 d   1      57.914-138.169  35.792  0.00  0.00     0.083 H 
ATOM     25  C16 BO2 d   1      57.286-136.311  38.560  0.00  0.00    -0.082 A 
ATOM     26  H   BO2 d   1      56.129-136.783  36.809  0.00  0.00     0.083 H 
ATOM     27  C17 BO2 d   1      58.498-136.486  39.224  0.00  0.00    -0.077 A 
ATOM     28  H   BO2 d   1      56.508-135.702  39.006  0.00  0.00     0.083 H 
ATOM     29  H   BO2 d   1      58.655-136.018  40.189  0.00  0.00     0.084 H 
ENDBRANCH  16  19
ENDBRANCH   1  16
BRANCH   1  30
ATOM     30  C18 BO2 d   1      62.649-136.185  40.259  0.00  0.00     0.240 C 
ATOM     31  O19 BO2 d   1      63.752-136.444  39.780  0.00  0.00    -0.271 OA
ATOM     32  N20 BO2 d   1      62.430-135.941  41.560  0.00  0.00    -0.358 N 
ATOM     33  H   BO2 d   1      61.503-135.734  41.873  0.00  0.00     0.162 HD
BRANCH  32  34
ATOM     34  C21 BO2 d   1      63.534-135.973  42.535  0.00  0.00     0.046 C 
ATOM     35  H   BO2 d   1      64.478-136.148  41.999  0.00  0.00     0.064 H 
BRANCH  34  36
ATOM     36  C22 BO2 d   1      63.640-134.675  43.303  0.00  0.00    -0.046 C 
ATOM     37  H   BO2 d   1      64.591-134.658  43.856  0.00  0.00     0.035 H 
ATOM     38  H   BO2 d   1      62.802-134.604  44.012  0.00  0.00     0.035 H 
BRANCH  36  39
ATOM     39  C23 BO2 d   1      63.592-133.468  42.335  0.00  0.00    -0.060 C 
ATOM     40  H   BO2 d   1      63.015-133.751  41.443  0.00  0.00     0.038 H 
BRANCH  39  41
ATOM     41  C24 BO2 d   1      62.883-132.303  43.045  0.00  0.00    -0.073 C 
ATOM     42  H   BO2 d   1      62.840-131.435  42.371  0.00  0.00     0.028 H 
ATOM     43  H   BO2 d   1      63.441-132.034  43.954  0.00  0.00     0.028 H 
ATOM     44  H   BO2 d   1      61.862-132.607  43.318  0.00  0.00     0.028 H 
ENDBRANCH  39  41
BRANCH  39  45
ATOM     45  C25 BO2 d   1      64.997-133.040  41.890  0.00  0.00    -0.073 C 
ATOM     46  H   BO2 d   1      65.493-133.881  41.384  0.00  0.00     0.028 H 
ATOM     47  H   BO2 d   1      65.586-132.743  42.770  0.00  0.00     0.028 H 
ATOM     48  H   BO2 d   1      64.919-132.190  41.197  0.00  0.00     0.028 H 
ENDBRANCH  39  45
ENDBRANCH  36  39
ENDBRANCH  34  36
BRANCH  34  49
ATOM     49  B26 BO2 d   1      63.308-137.100  43.563  0.00  0.00     0.515 B 
BRANCH  49  50
ATOM     50  O27 BO2 d   1      62.059-136.891  44.241  0.00  0.00    -0.436 OA
ATOM     51  H   BO2 d   1      61.932-137.576  44.887  0.00  0.00     0.184 HD
ENDBRANCH  49  50
BRANCH  49  52
ATOM     52  O28 BO2 d   1      63.284-138.376  42.912  0.00  0.00    -0.436 OA
ATOM     53  H   BO2 d   1      63.155-139.059  43.560  0.00  0.00     0.184 HD
ENDBRANCH  49  52
ENDBRANCH  34  49
ENDBRANCH  32  34
ENDBRANCH   1  30
TORSDOF 13
