REMARK  13 active torsions:
REMARK  status: ('A' for Active; 'I' for Inactive)
REMARK    1  A    between atoms: C2_2  and  C7_7 
REMARK       I    between atoms: C7_7  and  N9_9 
REMARK    2  A    between atoms: N9_9  and  C10_10 
REMARK    3  A    between atoms: C10_10  and  C11_11 
REMARK    4  A    between atoms: C10_10  and  C18_18 
REMARK    5  A    between atoms: C11_11  and  C12_12 
REMARK       I    between atoms: C18_18  and  N20_20 
REMARK    6  A    between atoms: N20_20  and  C21_21 
REMARK    7  A    between atoms: C21_21  and  C22_22 
REMARK    8  A    between atoms: C21_21  and  B26_26 
REMARK    9  A    between atoms: C22_22  and  C23_23 
REMARK   10  A    between atoms: C23_23  and  C24_24 
REMARK   11  A    between atoms: C23_23  and  C25_25 
REMARK   12  A    between atoms: B26_26  and  O27_27 
REMARK   13  A    between atoms: B26_26  and  O28_28 
ROOT
ATOM      1  C10 BO2 d   1      61.477-136.143  39.347  0.00  0.00     0.093 C 
ATOM      2  H   BO2 d   1      60.800-135.380  39.757  0.00  0.00     0.088 H 
ENDROOT
BRANCH   1   3
ATOM      3  N9  BO2 d   1      61.946-135.739  38.013  0.00  0.00    -0.342 N 
ATOM      4  C7  BO2 d   1      61.498-134.629  37.404  0.00  0.00     0.272 C 
ATOM      5  O8  BO2 d   1      60.655-133.873  37.885  0.00  0.00    -0.266 OA
ATOM      6  H   BO2 d   1      62.620-136.309  37.544  0.00  0.00     0.163 HD
BRANCH   4   7
ATOM      7  C2  BO2 d   1      62.079-134.354  36.167  0.00  0.00     0.141 A 
ATOM      8  N1  BO2 d   1      62.774-133.211  36.018  0.00  0.00    -0.253 NA
ATOM      9  C6  BO2 d   1      63.386-132.881  34.798  0.00  0.00     0.020 A 
ATOM     10  C5  BO2 d   1      63.280-133.755  33.722  0.00  0.00     0.019 A 
ATOM     11  H   BO2 d   1      63.936-131.953  34.696  0.00  0.00     0.117 H 
ATOM     12  N4  BO2 d   1      62.558-134.948  33.869  0.00  0.00    -0.269 NA
ATOM     13  H   BO2 d   1      63.752-133.516  32.776  0.00  0.00     0.117 H 
ATOM     14  C3  BO2 d   1      61.955-135.247  35.101  0.00  0.00     0.035 A 
ATOM     15  H   BO2 d   1      61.395-136.167  35.224  0.00  0.00     0.118 H 
ENDBRANCH   4   7
ENDBRANCH   1   3
BRANCH   1  16
ATOM     16  C11 BO2 d   1      60.775-137.479  39.303  0.00  0.00    -0.014 C 
ATOM     17  H   BO2 d   1      60.575-137.830  40.326  0.00  0.00     0.043 H 
ATOM     18  H   BO2 d   1      61.404-138.214  38.779  0.00  0.00     0.043 H 
BRANCH  16  19
ATOM     19  C12 BO2 d   1      59.563-137.310  38.612  0.00  0.00    -0.056 A 
ATOM     20  C13 BO2 d   1      59.345-137.955  37.390  0.00  0.00    -0.077 A 
ATOM     21  C14 BO2 d   1      58.137-137.794  36.709  0.00  0.00    -0.082 A 
ATOM     22  H   BO2 d   1      60.120-138.585  36.968  0.00  0.00     0.084 H 
ATOM     23  C15 BO2 d   1      57.132-136.991  37.244  0.00  0.00    -0.083 A 
ATOM     24  H   BO2 d   1      57.980-138.295  35.761  0.00  0.00     0.083 H 
ATOM     25  C16 BO2 d   1      57.342-136.350  38.463  0.00  0.00    -0.082 A 
ATOM     26  H   BO2 d   1      56.194-136.866  36.716  0.00  0.00     0.083 H 
ATOM     27  C17 BO2 d   1      58.548-136.512  39.146  0.00  0.00    -0.077 A 
ATOM     28  H   BO2 d   1      56.565-135.722  38.883  0.00  0.00     0.083 H 
ATOM     29  H   BO2 d   1      58.699-136.015  40.098  0.00  0.00     0.084 H 
ENDBRANCH  16  19
ENDBRANCH   1  16
BRANCH   1  30
ATOM     30  C18 BO2 d   1      62.721-136.288  40.220  0.00  0.00     0.240 C 
ATOM     31  O19 BO2 d   1      63.774-136.680  39.718  0.00  0.00    -0.271 OA
ATOM     32  N20 BO2 d   1      62.580-135.945  41.515  0.00  0.00    -0.358 N 
ATOM     33  H   BO2 d   1      61.694-135.620  41.847  0.00  0.00     0.162 HD
BRANCH  32  34
ATOM     34  C21 BO2 d   1      63.721-136.044  42.451  0.00  0.00     0.046 C 
ATOM     35  H   BO2 d   1      64.598-136.399  41.890  0.00  0.00     0.064 H 
BRANCH  34  36
ATOM     36  C22 BO2 d   1      64.084-134.732  43.126  0.00  0.00    -0.046 C 
ATOM     37  H   BO2 d   1      65.152-134.745  43.387  0.00  0.00     0.035 H 
ATOM     38  H   BO2 d   1      63.484-134.620  44.041  0.00  0.00     0.035 H 
BRANCH  36  39
ATOM     39  C23 BO2 d   1      63.806-133.531  42.186  0.00  0.00    -0.060 C 
ATOM     40  H   BO2 d   1      63.196-133.881  41.340  0.00  0.00     0.038 H 
BRANCH  39  41
ATOM     41  C24 BO2 d   1      63.015-132.458  42.957  0.00  0.00    -0.073 C 
ATOM     42  H   BO2 d   1      62.815-131.603  42.294  0.00  0.00     0.028 H 
ATOM     43  H   BO2 d   1      63.603-132.121  43.823  0.00  0.00     0.028 H 
ATOM     44  H   BO2 d   1      62.062-132.884  43.304  0.00  0.00     0.028 H 
ENDBRANCH  39  41
BRANCH  39  45
ATOM     45  C25 BO2 d   1      65.115-132.940  41.629  0.00  0.00    -0.073 C 
ATOM     46  H   BO2 d   1      65.666-133.720  41.082  0.00  0.00     0.028 H 
ATOM     47  H   BO2 d   1      65.733-132.569  42.460  0.00  0.00     0.028 H 
ATOM     48  H   BO2 d   1      64.881-132.109  40.947  0.00  0.00     0.028 H 
ENDBRANCH  39  45
ENDBRANCH  36  39
ENDBRANCH  34  36
BRANCH  34  49
ATOM     49  B26 BO2 d   1      63.407-137.065  43.563  0.00  0.00     0.515 B 
BRANCH  49  50
ATOM     50  O27 BO2 d   1      62.183-136.714  44.226  0.00  0.00    -0.436 OA
ATOM     51  H   BO2 d   1      62.009-137.340  44.919  0.00  0.00     0.184 HD
ENDBRANCH  49  50
BRANCH  49  52
ATOM     52  O28 BO2 d   1      63.285-138.379  43.003  0.00  0.00    -0.436 OA
ATOM     53  H   BO2 d   1      63.109-139.003  43.697  0.00  0.00     0.184 HD
ENDBRANCH  49  52
ENDBRANCH  34  49
ENDBRANCH  32  34
ENDBRANCH   1  30
TORSDOF 13
