REMARK  13 active torsions:
REMARK  status: ('A' for Active; 'I' for Inactive)
REMARK    1  A    between atoms: C2_2  and  C7_7 
REMARK       I    between atoms: C7_7  and  N9_9 
REMARK    2  A    between atoms: N9_9  and  C10_10 
REMARK    3  A    between atoms: C10_10  and  C11_11 
REMARK    4  A    between atoms: C10_10  and  C18_18 
REMARK    5  A    between atoms: C11_11  and  C12_12 
REMARK       I    between atoms: C18_18  and  N20_20 
REMARK    6  A    between atoms: N20_20  and  C21_21 
REMARK    7  A    between atoms: C21_21  and  C22_22 
REMARK    8  A    between atoms: C21_21  and  B26_26 
REMARK    9  A    between atoms: C22_22  and  C23_23 
REMARK   10  A    between atoms: C23_23  and  C24_24 
REMARK   11  A    between atoms: C23_23  and  C25_25 
REMARK   12  A    between atoms: B26_26  and  O27_27 
REMARK   13  A    between atoms: B26_26  and  O28_28 
ROOT
ATOM      1  C10 BO2 d   1      61.177-136.015  39.441  0.00  0.00     0.093 C 
ATOM      2  H   BO2 d   1      60.467-135.260  39.810  0.00  0.00     0.088 H 
ENDROOT
BRANCH   1   3
ATOM      3  N9  BO2 d   1      61.637-135.661  38.093  0.00  0.00    -0.342 N 
ATOM      4  C7  BO2 d   1      61.265-134.522  37.485  0.00  0.00     0.272 C 
ATOM      5  O8  BO2 d   1      60.491-133.698  37.972  0.00  0.00    -0.266 OA
ATOM      6  H   BO2 d   1      62.248-136.289  37.611  0.00  0.00     0.163 HD
BRANCH   4   7
ATOM      7  C2  BO2 d   1      61.851-134.292  36.246  0.00  0.00     0.141 A 
ATOM      8  N1  BO2 d   1      62.391-133.084  36.009  0.00  0.00    -0.253 NA
ATOM      9  C6  BO2 d   1      63.006-132.784  34.784  0.00  0.00     0.020 A 
ATOM     10  C5  BO2 d   1      63.068-133.757  33.794  0.00  0.00     0.019 A 
ATOM     11  H   BO2 d   1      63.429-131.801  34.611  0.00  0.00     0.117 H 
ATOM     12  N4  BO2 d   1      62.510-135.020  34.037  0.00  0.00    -0.269 NA
ATOM     13  H   BO2 d   1      63.543-133.542  32.844  0.00  0.00     0.117 H 
ATOM     14  C3  BO2 d   1      61.900-135.287  35.270  0.00  0.00     0.035 A 
ATOM     15  H   BO2 d   1      61.468-136.262  35.464  0.00  0.00     0.118 H 
ENDBRANCH   4   7
ENDBRANCH   1   3
BRANCH   1  16
ATOM     16  C11 BO2 d   1      60.516-137.372  39.458  0.00  0.00    -0.014 C 
ATOM     17  H   BO2 d   1      60.308-137.680  40.493  0.00  0.00     0.043 H 
ATOM     18  H   BO2 d   1      61.167-138.117  38.978  0.00  0.00     0.043 H 
BRANCH  16  19
ATOM     19  C12 BO2 d   1      59.315-137.243  38.740  0.00  0.00    -0.056 A 
ATOM     20  C13 BO2 d   1      59.114-137.947  37.550  0.00  0.00    -0.077 A 
ATOM     21  C14 BO2 d   1      57.918-137.814  36.846  0.00  0.00    -0.082 A 
ATOM     22  H   BO2 d   1      59.892-138.600  37.172  0.00  0.00     0.084 H 
ATOM     23  C15 BO2 d   1      56.911-136.978  37.322  0.00  0.00    -0.083 A 
ATOM     24  H   BO2 d   1      57.771-138.364  35.923  0.00  0.00     0.083 H 
ATOM     25  C16 BO2 d   1      57.105-136.278  38.506  0.00  0.00    -0.082 A 
ATOM     26  H   BO2 d   1      55.982-136.874  36.772  0.00  0.00     0.083 H 
ATOM     27  C17 BO2 d   1      58.297-136.413  39.213  0.00  0.00    -0.077 A 
ATOM     28  H   BO2 d   1      56.326-135.624  38.881  0.00  0.00     0.083 H 
ATOM     29  H   BO2 d   1      58.436-135.868  40.140  0.00  0.00     0.084 H 
ENDBRANCH  16  19
ENDBRANCH   1  16
BRANCH   1  30
ATOM     30  C18 BO2 d   1      62.432-136.036  40.307  0.00  0.00     0.240 C 
ATOM     31  O19 BO2 d   1      63.546-136.035  39.782  0.00  0.00    -0.271 OA
ATOM     32  N20 BO2 d   1      62.232-136.008  41.631  0.00  0.00    -0.358 N 
ATOM     33  H   BO2 d   1      61.301-135.996  41.995  0.00  0.00     0.162 HD
BRANCH  32  34
ATOM     34  C21 BO2 d   1      63.383-135.995  42.554  0.00  0.00     0.046 C 
ATOM     35  H   BO2 d   1      64.297-136.217  41.983  0.00  0.00     0.064 H 
BRANCH  34  36
ATOM     36  C22 BO2 d   1      63.552-134.657  43.243  0.00  0.00    -0.046 C 
ATOM     37  H   BO2 d   1      64.565-134.600  43.667  0.00  0.00     0.035 H 
ATOM     38  H   BO2 d   1      62.811-134.576  44.052  0.00  0.00     0.035 H 
BRANCH  36  39
ATOM     39  C23 BO2 d   1      63.353-133.486  42.266  0.00  0.00    -0.060 C 
ATOM     40  H   BO2 d   1      62.459-133.666  41.651  0.00  0.00     0.038 H 
BRANCH  39  41
ATOM     41  C24 BO2 d   1      63.157-132.214  43.105  0.00  0.00    -0.073 C 
ATOM     42  H   BO2 d   1      63.011-131.353  42.437  0.00  0.00     0.028 H 
ATOM     43  H   BO2 d   1      64.046-132.046  43.730  0.00  0.00     0.028 H 
ATOM     44  H   BO2 d   1      62.273-132.332  43.749  0.00  0.00     0.028 H 
ENDBRANCH  39  41
BRANCH  39  45
ATOM     45  C25 BO2 d   1      64.574-133.332  41.344  0.00  0.00    -0.073 C 
ATOM     46  H   BO2 d   1      64.703-134.249  40.750  0.00  0.00     0.028 H 
ATOM     47  H   BO2 d   1      65.474-133.161  41.953  0.00  0.00     0.028 H 
ATOM     48  H   BO2 d   1      64.419-132.477  40.670  0.00  0.00     0.028 H 
ENDBRANCH  39  45
ENDBRANCH  36  39
ENDBRANCH  34  36
BRANCH  34  49
ATOM     49  B26 BO2 d   1      63.228-137.039  43.674  0.00  0.00     0.515 B 
BRANCH  49  50
ATOM     50  O27 BO2 d   1      61.901-137.010  44.219  0.00  0.00    -0.436 OA
ATOM     51  H   BO2 d   1      61.836-137.641  44.926  0.00  0.00     0.184 HD
ENDBRANCH  49  50
BRANCH  49  52
ATOM     52  O28 BO2 d   1      63.520-138.345  43.169  0.00  0.00    -0.436 OA
ATOM     53  H   BO2 d   1      63.457-138.978  43.875  0.00  0.00     0.184 HD
ENDBRANCH  49  52
ENDBRANCH  34  49
ENDBRANCH  32  34
ENDBRANCH   1  30
TORSDOF 13
