REMARK  13 active torsions:
REMARK  status: ('A' for Active; 'I' for Inactive)
REMARK    1  A    between atoms: C43_2  and  C44_3 
REMARK    2  A    between atoms: C13_18  and  C1_6 
REMARK    3  A    between atoms: C2_7  and  C29_34 
REMARK    4  A    between atoms: C14_19  and  C23_26 
REMARK    5  A    between atoms: O39_44  and  C18_23 
REMARK    6  A    between atoms: N36_40  and  C22_25 
REMARK       I    between atoms: C23_26  and  N36_40 
REMARK    7  A    between atoms: C30_35  and  C20_30 
REMARK    8  A    between atoms: N37_42  and  C27_32 
REMARK    9  A    between atoms: N37_42  and  C28_33 
REMARK   10  A    between atoms: C29_34  and  N37_42 
REMARK   11  A    between atoms: C31_36  and  C30_35 
REMARK   12  A    between atoms: C32_37  and  C31_36 
REMARK   13  A    between atoms: C32_37  and  O39_44 
ROOT
ATOM      1  N42 3CQ d   1     -16.708   1.129   2.679  0.00  0.00    -0.216 NA
ATOM      2  C43 3CQ d   1     -16.322   2.438   2.809  0.00  0.00     0.149 A 
ATOM      3  C5  3CQ d   1     -21.214  -4.308   4.721  0.00  0.00    -0.081 A 
ATOM      4  C7  3CQ d   1     -21.593  -3.329   5.611  0.00  0.00    -0.067 A 
ATOM      5  C8  3CQ d   1     -20.213  -4.044   3.813  0.00  0.00    -0.076 A 
ATOM      6  C14 3CQ d   1     -20.963  -2.106   5.583  0.00  0.00     0.040 A 
ATOM      7  C15 3CQ d   1     -19.590  -2.816   3.780  0.00  0.00    -0.048 A 
ATOM      8  C16 3CQ d   1     -19.961  -1.825   4.667  0.00  0.00    -0.018 A 
ATOM      9  C24 3CQ d   1     -18.536  -2.580   2.755  0.00  0.00    -0.025 C 
ATOM     10  C25 3CQ d   1     -19.276  -0.499   4.645  0.00  0.00     0.022 C 
ATOM     11  C26 3CQ d   1     -17.569  -1.524   3.241  0.00  0.00     0.001 C 
ATOM     12  C20 3CQ d   1     -17.033   3.215   3.698  0.00  0.00     0.022 A 
ATOM     13  C21 3CQ d   1     -17.719   0.864   3.473  0.00  0.00     0.170 A 
ATOM     14  N35 3CQ d   1     -18.341  -0.343   3.551  0.00  0.00    -0.355 N 
ATOM     15  S41 3CQ d   1     -18.234   2.220   4.407  0.00  0.00    -0.054 SA
ATOM     16  H3  3CQ d   1     -21.699  -5.277   4.735  0.00  0.00     0.083 H 
ATOM     17  H5  3CQ d   1     -22.382  -3.520   6.329  0.00  0.00     0.085 H 
ATOM     18  H6  3CQ d   1     -19.911  -4.815   3.113  0.00  0.00     0.084 H 
ATOM     19  H10 3CQ d   1     -19.006  -2.241   1.820  0.00  0.00     0.042 H 
ATOM     20  H11 3CQ d   1     -17.990  -3.517   2.572  0.00  0.00     0.042 H 
ATOM     21  H12 3CQ d   1     -18.727  -0.376   5.590  0.00  0.00     0.071 H 
ATOM     22  H13 3CQ d   1     -20.042   0.286   4.561  0.00  0.00     0.071 H 
ATOM     23  H14 3CQ d   1     -16.834  -1.297   2.455  0.00  0.00     0.064 H 
ATOM     24  H15 3CQ d   1     -17.046  -1.879   4.141  0.00  0.00     0.064 H 
ENDROOT
BRANCH   2  25
ATOM     25  C44 3CQ d   1     -15.138   3.003   2.023  0.00  0.00     0.230 C 
ATOM     26  O45 3CQ d   1     -14.337   2.140   1.576  0.00  0.00    -0.643 OA
ATOM     27  O46 3CQ d   1     -15.065   4.258   1.957  0.00  0.00    -0.643 OA
ENDBRANCH   2  25
BRANCH  12  28
ATOM     28  C30 3CQ d   1     -16.869   4.637   4.061  0.00  0.00    -0.030 C 
ATOM     29  H24 3CQ d   1     -15.814   4.921   3.932  0.00  0.00     0.041 H 
ATOM     30  H25 3CQ d   1     -17.159   4.774   5.113  0.00  0.00     0.041 H 
BRANCH  28  31
ATOM     31  C31 3CQ d   1     -17.733   5.532   3.188  0.00  0.00    -0.041 C 
ATOM     32  H26 3CQ d   1     -18.792   5.379   3.445  0.00  0.00     0.036 H 
ATOM     33  H27 3CQ d   1     -17.571   5.275   2.131  0.00  0.00     0.036 H 
BRANCH  31  34
ATOM     34  C32 3CQ d   1     -17.367   6.988   3.413  0.00  0.00     0.026 C 
ATOM     35  H28 3CQ d   1     -17.943   7.642   2.741  0.00  0.00     0.075 H 
ATOM     36  H29 3CQ d   1     -16.291   7.149   3.248  0.00  0.00     0.075 H 
BRANCH  34  37
ATOM     37  O39 3CQ d   1     -17.707   7.233   4.760  0.00  0.00    -0.348 OA
BRANCH  37  38
ATOM     38  C18 3CQ d   1     -17.448   8.540   5.124  0.00  0.00     0.107 A 
ATOM     39  C10 3CQ d   1     -17.809   8.894   6.404  0.00  0.00     0.151 A 
ATOM     40  C6  3CQ d   1     -17.590  10.167   6.870  0.00  0.00    -0.025 A 
ATOM     41  F47 3CQ d   1     -18.373   7.990   7.212  0.00  0.00    -0.203 F 
ATOM     42  C13 3CQ d   1     -17.008  11.087   6.031  0.00  0.00     0.020 A 
ATOM     43  H4  3CQ d   1     -17.871  10.441   7.880  0.00  0.00     0.090 H 
ATOM     44  C33 3CQ d   1     -16.648  10.741   4.744  0.00  0.00    -0.062 A 
ATOM     45  C12 3CQ d   1     -16.869   9.460   4.278  0.00  0.00    -0.046 A 
ATOM     46  H30 3CQ d   1     -16.189  11.479   4.096  0.00  0.00     0.085 H 
ATOM     47  H9  3CQ d   1     -16.592   9.184   3.267  0.00  0.00     0.087 H 
BRANCH  42  48
ATOM     48  C1  3CQ d   1     -16.798  12.397   6.552  0.00  0.00    -0.065 C 
ATOM     49  C2  3CQ d   1     -16.637  13.477   7.050  0.00  0.00    -0.073 C 
BRANCH  49  50
ATOM     50  C29 3CQ d   1     -16.449  14.775   7.695  0.00  0.00     0.137 C 
ATOM     51  H22 3CQ d   1     -15.575  14.732   8.361  0.00  0.00     0.095 H 
ATOM     52  H23 3CQ d   1     -17.345  15.028   8.281  0.00  0.00     0.095 H 
BRANCH  50  53
ATOM     53  N37 3CQ d   1     -16.230  15.805   6.655  0.00  0.00    -0.069 N 
ATOM     54  H32 3CQ d   1     -15.790  16.583   7.121  0.00  0.00     0.280 HD
BRANCH  53  55
ATOM     55  C27 3CQ d   1     -15.282  15.362   5.609  0.00  0.00     0.067 C 
ATOM     56  H16 3CQ d   1     -15.157  16.163   4.865  0.00  0.00     0.068 H 
ATOM     57  H17 3CQ d   1     -15.675  14.461   5.115  0.00  0.00     0.068 H 
ATOM     58  H18 3CQ d   1     -14.309  15.133   6.069  0.00  0.00     0.068 H 
ENDBRANCH  53  55
BRANCH  53  59
ATOM     59  C28 3CQ d   1     -17.494  16.327   6.090  0.00  0.00     0.067 C 
ATOM     60  H19 3CQ d   1     -18.159  16.641   6.908  0.00  0.00     0.068 H 
ATOM     61  H20 3CQ d   1     -17.985  15.539   5.500  0.00  0.00     0.068 H 
ATOM     62  H21 3CQ d   1     -17.278  17.189   5.442  0.00  0.00     0.068 H 
ENDBRANCH  53  59
ENDBRANCH  50  53
ENDBRANCH  49  50
ENDBRANCH  42  48
ENDBRANCH  37  38
ENDBRANCH  34  37
ENDBRANCH  31  34
ENDBRANCH  28  31
ENDBRANCH  12  28
BRANCH   6  63
ATOM     63  C23 3CQ d   1     -21.421  -1.126   6.578  0.00  0.00     0.258 C 
ATOM     64  N36 3CQ d   1     -22.637  -1.458   7.131  0.00  0.00    -0.301 N 
ATOM     65  H31 3CQ d   1     -23.117  -2.273   6.805  0.00  0.00     0.171 HD
ATOM     66  O38 3CQ d   1     -20.724  -0.174   6.875  0.00  0.00    -0.267 OA
BRANCH  64  67
ATOM     67  C22 3CQ d   1     -23.211  -0.688   8.130  0.00  0.00     0.174 A 
ATOM     68  N34 3CQ d   1     -24.405  -0.879   8.637  0.00  0.00    -0.223 NA
ATOM     69  C17 3CQ d   1     -24.678   0.049   9.616  0.00  0.00     0.076 A 
ATOM     70  C9  3CQ d   1     -25.859   0.120  10.334  0.00  0.00    -0.054 A 
ATOM     71  C19 3CQ d   1     -23.664   0.956   9.872  0.00  0.00     0.037 A 
ATOM     72  C3  3CQ d   1     -25.967   1.117  11.276  0.00  0.00    -0.081 A 
ATOM     73  H7  3CQ d   1     -26.667  -0.582  10.161  0.00  0.00     0.087 H 
ATOM     74  C4  3CQ d   1     -24.945   2.006  11.512  0.00  0.00    -0.082 A 
ATOM     75  H1  3CQ d   1     -26.884   1.204  11.848  0.00  0.00     0.083 H 
ATOM     76  C11 3CQ d   1     -23.759   1.953  10.819  0.00  0.00    -0.064 A 
ATOM     77  H2  3CQ d   1     -25.079   2.772  12.267  0.00  0.00     0.083 H 
ATOM     78  H8  3CQ d   1     -22.950   2.651  11.005  0.00  0.00     0.085 H 
ATOM     79  S40 3CQ d   1     -22.339   0.617   8.830  0.00  0.00    -0.050 SA
ENDBRANCH  64  67
ENDBRANCH   6  63
TORSDOF 13
