REMARK  13 active torsions:
REMARK  status: ('A' for Active; 'I' for Inactive)
REMARK    1  A    between atoms: C2_2  and  C7_7 
REMARK       I    between atoms: C7_7  and  N9_9 
REMARK    2  A    between atoms: N9_9  and  C10_10 
REMARK    3  A    between atoms: C10_10  and  C11_11 
REMARK    4  A    between atoms: C10_10  and  C18_18 
REMARK    5  A    between atoms: C11_11  and  C12_12 
REMARK       I    between atoms: C18_18  and  N20_20 
REMARK    6  A    between atoms: N20_20  and  C21_21 
REMARK    7  A    between atoms: C21_21  and  C22_22 
REMARK    8  A    between atoms: C21_21  and  B26_26 
REMARK    9  A    between atoms: C22_22  and  C23_23 
REMARK   10  A    between atoms: C23_23  and  C24_24 
REMARK   11  A    between atoms: C23_23  and  C25_25 
REMARK   12  A    between atoms: B26_26  and  O27_27 
REMARK   13  A    between atoms: B26_26  and  O28_28 
ROOT
ATOM      1  C10 BO2 d   1      61.225-136.271  39.327  0.00  0.00     0.093 C 
ATOM      2  H   BO2 d   1      60.555-135.503  39.740  0.00  0.00     0.088 H 
ENDROOT
BRANCH   1   3
ATOM      3  N9  BO2 d   1      61.677-135.892  37.983  0.00  0.00    -0.342 N 
ATOM      4  C7  BO2 d   1      61.315-134.733  37.406  0.00  0.00     0.272 C 
ATOM      5  O8  BO2 d   1      60.561-133.912  37.926  0.00  0.00    -0.266 OA
ATOM      6  H   BO2 d   1      62.274-136.517  37.480  0.00  0.00     0.163 HD
BRANCH   4   7
ATOM      7  C2  BO2 d   1      61.896-134.467  36.169  0.00  0.00     0.141 A 
ATOM      8  N1  BO2 d   1      62.260-133.201  35.899  0.00  0.00    -0.253 NA
ATOM      9  C6  BO2 d   1      62.861-132.855  34.678  0.00  0.00     0.020 A 
ATOM     10  C5  BO2 d   1      63.096-133.838  33.724  0.00  0.00     0.019 A 
ATOM     11  H   BO2 d   1      63.140-131.826  34.480  0.00  0.00     0.117 H 
ATOM     12  N4  BO2 d   1      62.724-135.160  34.000  0.00  0.00    -0.269 NA
ATOM     13  H   BO2 d   1      63.561-133.585  32.778  0.00  0.00     0.117 H 
ATOM     14  C3  BO2 d   1      62.124-135.472  35.229  0.00  0.00     0.035 A 
ATOM     15  H   BO2 d   1      61.837-136.494  35.448  0.00  0.00     0.118 H 
ENDBRANCH   4   7
ENDBRANCH   1   3
BRANCH   1  16
ATOM     16  C11 BO2 d   1      60.527-137.610  39.326  0.00  0.00    -0.014 C 
ATOM     17  H   BO2 d   1      60.334-137.940  40.358  0.00  0.00     0.043 H 
ATOM     18  H   BO2 d   1      61.144-138.361  38.810  0.00  0.00     0.043 H 
BRANCH  16  19
ATOM     19  C12 BO2 d   1      59.317-137.424  38.642  0.00  0.00    -0.056 A 
ATOM     20  C13 BO2 d   1      59.117-137.981  37.375  0.00  0.00    -0.077 A 
ATOM     21  C14 BO2 d   1      57.908-137.792  36.705  0.00  0.00    -0.082 A 
ATOM     22  H   BO2 d   1      59.905-138.563  36.911  0.00  0.00     0.084 H 
ATOM     23  C15 BO2 d   1      56.892-137.047  37.297  0.00  0.00    -0.083 A 
ATOM     24  H   BO2 d   1      57.760-138.226  35.723  0.00  0.00     0.083 H 
ATOM     25  C16 BO2 d   1      57.086-136.492  38.559  0.00  0.00    -0.082 A 
ATOM     26  H   BO2 d   1      55.952-136.899  36.777  0.00  0.00     0.083 H 
ATOM     27  C17 BO2 d   1      58.291-136.683  39.229  0.00  0.00    -0.077 A 
ATOM     28  H   BO2 d   1      56.297-135.910  39.021  0.00  0.00     0.083 H 
ATOM     29  H   BO2 d   1      58.433-136.253  40.214  0.00  0.00     0.084 H 
ENDBRANCH  16  19
ENDBRANCH   1  16
BRANCH   1  30
ATOM     30  C18 BO2 d   1      62.501-136.385  40.147  0.00  0.00     0.240 C 
ATOM     31  O19 BO2 d   1      63.567-136.639  39.586  0.00  0.00    -0.271 OA
ATOM     32  N20 BO2 d   1      62.383-136.150  41.464  0.00  0.00    -0.358 N 
ATOM     33  H   BO2 d   1      61.495-135.901  41.852  0.00  0.00     0.162 HD
BRANCH  32  34
ATOM     34  C21 BO2 d   1      63.568-136.260  42.337  0.00  0.00     0.046 C 
ATOM     35  H   BO2 d   1      64.364-136.765  41.770  0.00  0.00     0.064 H 
BRANCH  34  36
ATOM     36  C22 BO2 d   1      64.119-134.933  42.846  0.00  0.00    -0.046 C 
ATOM     37  H   BO2 d   1      65.209-134.929  42.700  0.00  0.00     0.035 H 
ATOM     38  H   BO2 d   1      63.892-134.849  43.919  0.00  0.00     0.035 H 
BRANCH  36  39
ATOM     39  C23 BO2 d   1      63.520-133.702  42.118  0.00  0.00    -0.060 C 
ATOM     40  H   BO2 d   1      62.967-134.045  41.231  0.00  0.00     0.038 H 
BRANCH  39  41
ATOM     41  C24 BO2 d   1      62.554-132.942  43.051  0.00  0.00    -0.073 C 
ATOM     42  H   BO2 d   1      62.139-132.073  42.520  0.00  0.00     0.028 H 
ATOM     43  H   BO2 d   1      63.099-132.600  43.943  0.00  0.00     0.028 H 
ATOM     44  H   BO2 d   1      61.736-133.611  43.355  0.00  0.00     0.028 H 
ENDBRANCH  39  41
BRANCH  39  45
ATOM     45  C25 BO2 d   1      64.654-132.757  41.675  0.00  0.00    -0.073 C 
ATOM     46  H   BO2 d   1      65.343-133.298  41.010  0.00  0.00     0.028 H 
ATOM     47  H   BO2 d   1      65.202-132.402  42.560  0.00  0.00     0.028 H 
ATOM     48  H   BO2 d   1      64.226-131.897  41.139  0.00  0.00     0.028 H 
ENDBRANCH  39  45
ENDBRANCH  36  39
ENDBRANCH  34  36
BRANCH  34  49
ATOM     49  B26 BO2 d   1      63.248-137.144  43.552  0.00  0.00     0.515 B 
BRANCH  49  50
ATOM     50  O27 BO2 d   1      62.034-136.700  44.183  0.00  0.00    -0.436 OA
ATOM     51  H   BO2 d   1      61.860-137.238  44.947  0.00  0.00     0.184 HD
ENDBRANCH  49  50
BRANCH  49  52
ATOM     52  O28 BO2 d   1      63.119-138.511  43.146  0.00  0.00    -0.436 OA
ATOM     53  H   BO2 d   1      62.947-139.052  43.908  0.00  0.00     0.184 HD
ENDBRANCH  49  52
ENDBRANCH  34  49
ENDBRANCH  32  34
ENDBRANCH   1  30
TORSDOF 13
