REMARK  13 active torsions:
REMARK  status: ('A' for Active; 'I' for Inactive)
REMARK    1  A    between atoms: C2_2  and  C7_7 
REMARK       I    between atoms: C7_7  and  N9_9 
REMARK    2  A    between atoms: N9_9  and  C10_10 
REMARK    3  A    between atoms: C10_10  and  C11_11 
REMARK    4  A    between atoms: C10_10  and  C18_18 
REMARK    5  A    between atoms: C11_11  and  C12_12 
REMARK       I    between atoms: C18_18  and  N20_20 
REMARK    6  A    between atoms: N20_20  and  C21_21 
REMARK    7  A    between atoms: C21_21  and  C22_22 
REMARK    8  A    between atoms: C21_21  and  B26_26 
REMARK    9  A    between atoms: C22_22  and  C23_23 
REMARK   10  A    between atoms: C23_23  and  C24_24 
REMARK   11  A    between atoms: C23_23  and  C25_25 
REMARK   12  A    between atoms: B26_26  and  O27_27 
REMARK   13  A    between atoms: B26_26  and  O28_28 
ROOT
ATOM      1  C10 BO2 d   1      61.548-136.302  39.234  0.00  0.00     0.093 C 
ATOM      2  H   BO2 d   1      60.836-135.542  39.588  0.00  0.00     0.088 H 
ENDROOT
BRANCH   1   3
ATOM      3  N9  BO2 d   1      62.043-135.939  37.902  0.00  0.00    -0.342 N 
ATOM      4  C7  BO2 d   1      61.770-134.735  37.374  0.00  0.00     0.272 C 
ATOM      5  O8  BO2 d   1      61.088-133.884  37.942  0.00  0.00    -0.266 OA
ATOM      6  H   BO2 d   1      62.590-136.595  37.382  0.00  0.00     0.163 HD
BRANCH   4   7
ATOM      7  C2  BO2 d   1      62.333-134.457  36.133  0.00  0.00     0.141 A 
ATOM      8  N1  BO2 d   1      62.719-133.193  35.889  0.00  0.00    -0.253 NA
ATOM      9  C6  BO2 d   1      63.296-132.829  34.668  0.00  0.00     0.020 A 
ATOM     10  C5  BO2 d   1      63.480-133.793  33.686  0.00  0.00     0.019 A 
ATOM     11  H   BO2 d   1      63.597-131.803  34.490  0.00  0.00     0.117 H 
ATOM     12  N4  BO2 d   1      63.081-135.113  33.931  0.00  0.00    -0.269 NA
ATOM     13  H   BO2 d   1      63.929-133.526  32.736  0.00  0.00     0.117 H 
ATOM     14  C3  BO2 d   1      62.503-135.443  35.162  0.00  0.00     0.035 A 
ATOM     15  H   BO2 d   1      62.189-136.461  35.360  0.00  0.00     0.118 H 
ENDBRANCH   4   7
ENDBRANCH   1   3
BRANCH   1  16
ATOM     16  C11 BO2 d   1      60.876-137.650  39.228  0.00  0.00    -0.014 C 
ATOM     17  H   BO2 d   1      60.662-137.973  40.257  0.00  0.00     0.043 H 
ATOM     18  H   BO2 d   1      61.520-138.394  38.736  0.00  0.00     0.043 H 
BRANCH  16  19
ATOM     19  C12 BO2 d   1      59.678-137.492  38.509  0.00  0.00    -0.056 A 
ATOM     20  C13 BO2 d   1      59.490-138.138  37.282  0.00  0.00    -0.077 A 
ATOM     21  C14 BO2 d   1      58.298-137.979  36.578  0.00  0.00    -0.082 A 
ATOM     22  H   BO2 d   1      60.276-138.765  36.877  0.00  0.00     0.084 H 
ATOM     23  C15 BO2 d   1      57.284-137.177  37.090  0.00  0.00    -0.083 A 
ATOM     24  H   BO2 d   1      58.161-138.482  35.628  0.00  0.00     0.083 H 
ATOM     25  C16 BO2 d   1      57.463-136.535  38.311  0.00  0.00    -0.082 A 
ATOM     26  H   BO2 d   1      56.358-137.053  36.540  0.00  0.00     0.083 H 
ATOM     27  C17 BO2 d   1      58.652-136.694  39.019  0.00  0.00    -0.077 A 
ATOM     28  H   BO2 d   1      56.675-135.909  38.713  0.00  0.00     0.083 H 
ATOM     29  H   BO2 d   1      58.782-136.195  39.972  0.00  0.00     0.084 H 
ENDBRANCH  16  19
ENDBRANCH   1  16
BRANCH   1  30
ATOM     30  C18 BO2 d   1      62.762-136.350  40.142  0.00  0.00     0.240 C 
ATOM     31  O19 BO2 d   1      63.896-136.418  39.668  0.00  0.00    -0.271 OA
ATOM     32  N20 BO2 d   1      62.492-136.264  41.450  0.00  0.00    -0.358 N 
ATOM     33  H   BO2 d   1      61.543-136.195  41.757  0.00  0.00     0.162 HD
BRANCH  32  34
ATOM     34  C21 BO2 d   1      63.576-136.270  42.438  0.00  0.00     0.046 C 
ATOM     35  H   BO2 d   1      64.522-136.508  41.929  0.00  0.00     0.064 H 
BRANCH  34  36
ATOM     36  C22 BO2 d   1      63.711-134.928  43.122  0.00  0.00    -0.046 C 
ATOM     37  H   BO2 d   1      64.639-134.912  43.713  0.00  0.00     0.035 H 
ATOM     38  H   BO2 d   1      62.850-134.771  43.788  0.00  0.00     0.035 H 
BRANCH  36  39
ATOM     39  C23 BO2 d   1      63.756-133.803  42.074  0.00  0.00    -0.060 C 
ATOM     40  H   BO2 d   1      62.964-133.970  41.329  0.00  0.00     0.038 H 
BRANCH  39  41
ATOM     41  C24 BO2 d   1      63.498-132.473  42.795  0.00  0.00    -0.073 C 
ATOM     42  H   BO2 d   1      63.525-131.650  42.066  0.00  0.00     0.028 H 
ATOM     43  H   BO2 d   1      64.274-132.313  43.558  0.00  0.00     0.028 H 
ATOM     44  H   BO2 d   1      62.510-132.503  43.278  0.00  0.00     0.028 H 
ENDBRANCH  39  41
BRANCH  39  45
ATOM     45  C25 BO2 d   1      65.112-133.780  41.352  0.00  0.00    -0.073 C 
ATOM     46  H   BO2 d   1      65.273-134.742  40.844  0.00  0.00     0.028 H 
ATOM     47  H   BO2 d   1      65.915-133.613  42.085  0.00  0.00     0.028 H 
ATOM     48  H   BO2 d   1      65.119-132.968  40.610  0.00  0.00     0.028 H 
ENDBRANCH  39  45
ENDBRANCH  36  39
ENDBRANCH  34  36
BRANCH  34  49
ATOM     49  B26 BO2 d   1      63.311-137.305  43.538  0.00  0.00     0.515 B 
BRANCH  49  50
ATOM     50  O27 BO2 d   1      62.089-137.002  44.234  0.00  0.00    -0.436 OA
ATOM     51  H   BO2 d   1      61.960-137.631  44.934  0.00  0.00     0.184 HD
ENDBRANCH  49  50
BRANCH  49  52
ATOM     52  O28 BO2 d   1      63.226-138.626  42.989  0.00  0.00    -0.436 OA
ATOM     53  H   BO2 d   1      62.495-138.670  42.384  0.00  0.00     0.184 HD
ENDBRANCH  49  52
ENDBRANCH  34  49
ENDBRANCH  32  34
ENDBRANCH   1  30
TORSDOF 13
