REMARK  13 active torsions:
REMARK  status: ('A' for Active; 'I' for Inactive)
REMARK    1  A    between atoms: C2_2  and  C7_7 
REMARK       I    between atoms: C7_7  and  N9_9 
REMARK    2  A    between atoms: N9_9  and  C10_10 
REMARK    3  A    between atoms: C10_10  and  C11_11 
REMARK    4  A    between atoms: C10_10  and  C18_18 
REMARK    5  A    between atoms: C11_11  and  C12_12 
REMARK       I    between atoms: C18_18  and  N20_20 
REMARK    6  A    between atoms: N20_20  and  C21_21 
REMARK    7  A    between atoms: C21_21  and  C22_22 
REMARK    8  A    between atoms: C21_21  and  B26_26 
REMARK    9  A    between atoms: C22_22  and  C23_23 
REMARK   10  A    between atoms: C23_23  and  C24_24 
REMARK   11  A    between atoms: C23_23  and  C25_25 
REMARK   12  A    between atoms: B26_26  and  O27_27 
REMARK   13  A    between atoms: B26_26  and  O28_28 
ROOT
ATOM      1  C10 BO2 d   1      61.189-135.895  39.342  0.00  0.00     0.093 C 
ATOM      2  H   BO2 d   1      60.481-135.153  39.739  0.00  0.00     0.088 H 
ENDROOT
BRANCH   1   3
ATOM      3  N9  BO2 d   1      61.616-135.505  37.992  0.00  0.00    -0.342 N 
ATOM      4  C7  BO2 d   1      61.216-134.354  37.429  0.00  0.00     0.272 C 
ATOM      5  O8  BO2 d   1      60.446-133.551  37.956  0.00  0.00    -0.266 OA
ATOM      6  H   BO2 d   1      62.221-136.113  37.478  0.00  0.00     0.163 HD
BRANCH   4   7
ATOM      7  C2  BO2 d   1      61.732-134.103  36.166  0.00  0.00     0.141 A 
ATOM      8  N1  BO2 d   1      62.388-132.949  35.942  0.00  0.00    -0.253 NA
ATOM      9  C6  BO2 d   1      62.924-132.651  34.676  0.00  0.00     0.020 A 
ATOM     10  C5  BO2 d   1      62.779-133.566  33.636  0.00  0.00     0.019 A 
ATOM     11  H   BO2 d   1      63.446-131.716  34.511  0.00  0.00     0.117 H 
ATOM     12  N4  BO2 d   1      62.096-134.768  33.870  0.00  0.00    -0.269 NA
ATOM     13  H   BO2 d   1      63.190-133.351  32.656  0.00  0.00     0.117 H 
ATOM     14  C3  BO2 d   1      61.569-135.034  35.143  0.00  0.00     0.035 A 
ATOM     15  H   BO2 d   1      61.037-135.960  35.329  0.00  0.00     0.118 H 
ENDBRANCH   4   7
ENDBRANCH   1   3
BRANCH   1  16
ATOM     16  C11 BO2 d   1      60.532-137.257  39.334  0.00  0.00    -0.014 C 
ATOM     17  H   BO2 d   1      60.350-137.595  40.365  0.00  0.00     0.043 H 
ATOM     18  H   BO2 d   1      61.176-137.984  38.818  0.00  0.00     0.043 H 
BRANCH  16  19
ATOM     19  C12 BO2 d   1      59.310-137.118  38.647  0.00  0.00    -0.056 A 
ATOM     20  C13 BO2 d   1      59.100-137.754  37.420  0.00  0.00    -0.077 A 
ATOM     21  C14 BO2 d   1      57.884-137.612  36.752  0.00  0.00    -0.082 A 
ATOM     22  H   BO2 d   1      59.886-138.361  36.986  0.00  0.00     0.084 H 
ATOM     23  C15 BO2 d   1      56.865-136.840  37.301  0.00  0.00    -0.083 A 
ATOM     24  H   BO2 d   1      57.732-138.106  35.799  0.00  0.00     0.083 H 
ATOM     25  C16 BO2 d   1      57.065-136.207  38.523  0.00  0.00    -0.082 A 
ATOM     26  H   BO2 d   1      55.921-136.733  36.779  0.00  0.00     0.083 H 
ATOM     27  C17 BO2 d   1      58.279-136.350  39.194  0.00  0.00    -0.077 A 
ATOM     28  H   BO2 d   1      56.276-135.602  38.955  0.00  0.00     0.083 H 
ATOM     29  H   BO2 d   1      58.424-135.860  40.150  0.00  0.00     0.084 H 
ENDBRANCH  16  19
ENDBRANCH   1  16
BRANCH   1  30
ATOM     30  C18 BO2 d   1      62.448-135.932  40.201  0.00  0.00     0.240 C 
ATOM     31  O19 BO2 d   1      63.557-136.003  39.676  0.00  0.00    -0.271 OA
ATOM     32  N20 BO2 d   1      62.254-135.830  41.523  0.00  0.00    -0.358 N 
ATOM     33  H   BO2 d   1      61.324-135.750  41.883  0.00  0.00     0.162 HD
BRANCH  32  34
ATOM     34  C21 BO2 d   1      63.398-135.835  42.452  0.00  0.00     0.046 C 
ATOM     35  H   BO2 d   1      64.306-136.103  41.892  0.00  0.00     0.064 H 
BRANCH  34  36
ATOM     36  C22 BO2 d   1      63.615-134.488  43.113  0.00  0.00    -0.046 C 
ATOM     37  H   BO2 d   1      64.634-134.451  43.526  0.00  0.00     0.035 H 
ATOM     38  H   BO2 d   1      62.885-134.367  43.927  0.00  0.00     0.035 H 
BRANCH  36  39
ATOM     39  C23 BO2 d   1      63.439-133.332  42.103  0.00  0.00    -0.060 C 
ATOM     40  H   BO2 d   1      62.671-133.614  41.368  0.00  0.00     0.038 H 
BRANCH  39  41
ATOM     41  C24 BO2 d   1      62.970-132.087  42.871  0.00  0.00    -0.073 C 
ATOM     42  H   BO2 d   1      62.839-131.251  42.169  0.00  0.00     0.028 H 
ATOM     43  H   BO2 d   1      63.723-131.817  43.626  0.00  0.00     0.028 H 
ATOM     44  H   BO2 d   1      62.013-132.302  43.368  0.00  0.00     0.028 H 
ENDBRANCH  39  41
BRANCH  39  45
ATOM     45  C25 BO2 d   1      64.748-133.033  41.352  0.00  0.00    -0.073 C 
ATOM     46  H   BO2 d   1      65.072-133.932  40.807  0.00  0.00     0.028 H 
ATOM     47  H   BO2 d   1      65.526-132.741  42.073  0.00  0.00     0.028 H 
ATOM     48  H   BO2 d   1      64.582-132.212  40.639  0.00  0.00     0.028 H 
ENDBRANCH  39  45
ENDBRANCH  36  39
ENDBRANCH  34  36
BRANCH  34  49
ATOM     49  B26 BO2 d   1      63.170-136.858  43.579  0.00  0.00     0.515 B 
BRANCH  49  50
ATOM     50  O27 BO2 d   1      61.936-136.569  44.259  0.00  0.00    -0.436 OA
ATOM     51  H   BO2 d   1      61.812-137.191  44.966  0.00  0.00     0.184 HD
ENDBRANCH  49  50
BRANCH  49  52
ATOM     52  O28 BO2 d   1      63.117-138.186  43.047  0.00  0.00    -0.436 OA
ATOM     53  H   BO2 d   1      62.992-138.805  43.756  0.00  0.00     0.184 HD
ENDBRANCH  49  52
ENDBRANCH  34  49
ENDBRANCH  32  34
ENDBRANCH   1  30
TORSDOF 13
