REMARK  13 active torsions:
REMARK  status: ('A' for Active; 'I' for Inactive)
REMARK    1  A    between atoms: C2_2  and  C7_7 
REMARK       I    between atoms: C7_7  and  N9_9 
REMARK    2  A    between atoms: N9_9  and  C10_10 
REMARK    3  A    between atoms: C10_10  and  C11_11 
REMARK    4  A    between atoms: C10_10  and  C18_18 
REMARK    5  A    between atoms: C11_11  and  C12_12 
REMARK       I    between atoms: C18_18  and  N20_20 
REMARK    6  A    between atoms: N20_20  and  C21_21 
REMARK    7  A    between atoms: C21_21  and  C22_22 
REMARK    8  A    between atoms: C21_21  and  B26_26 
REMARK    9  A    between atoms: C22_22  and  C23_23 
REMARK   10  A    between atoms: C23_23  and  C24_24 
REMARK   11  A    between atoms: C23_23  and  C25_25 
REMARK   12  A    between atoms: B26_26  and  O27_27 
REMARK   13  A    between atoms: B26_26  and  O28_28 
ROOT
ATOM      1  C10 BO2 d   1      61.691-135.948  39.657  0.00  0.00     0.093 C 
ATOM      2  H   BO2 d   1      61.014-135.155  40.007  0.00  0.00     0.088 H 
ENDROOT
BRANCH   1   3
ATOM      3  N9  BO2 d   1      62.144-135.645  38.293  0.00  0.00    -0.342 N 
ATOM      4  C7  BO2 d   1      61.983-134.416  37.770  0.00  0.00     0.272 C 
ATOM      5  O8  BO2 d   1      61.435-133.489  38.364  0.00  0.00    -0.266 OA
ATOM      6  H   BO2 d   1      62.578-136.361  37.746  0.00  0.00     0.163 HD
BRANCH   4   7
ATOM      7  C2  BO2 d   1      62.490-134.216  36.491  0.00  0.00     0.141 A 
ATOM      8  N1  BO2 d   1      62.977-133.002  36.180  0.00  0.00    -0.253 NA
ATOM      9  C6  BO2 d   1      63.505-132.732  34.913  0.00  0.00     0.020 A 
ATOM     10  C5  BO2 d   1      63.530-133.737  33.955  0.00  0.00     0.019 A 
ATOM     11  H   BO2 d   1      63.892-131.746  34.681  0.00  0.00     0.117 H 
ATOM     12  N4  BO2 d   1      63.025-135.002  34.271  0.00  0.00    -0.269 NA
ATOM     13  H   BO2 d   1      63.938-133.542  32.970  0.00  0.00     0.117 H 
ATOM     14  C3  BO2 d   1      62.501-135.239  35.546  0.00  0.00     0.035 A 
ATOM     15  H   BO2 d   1      62.105-136.216  35.798  0.00  0.00     0.118 H 
ENDBRANCH   4   7
ENDBRANCH   1   3
BRANCH   1  16
ATOM     16  C11 BO2 d   1      60.979-137.274  39.734  0.00  0.00    -0.014 C 
ATOM     17  H   BO2 d   1      60.699-137.498  40.774  0.00  0.00     0.043 H 
ATOM     18  H   BO2 d   1      61.623-138.077  39.347  0.00  0.00     0.043 H 
BRANCH  16  19
ATOM     19  C12 BO2 d   1      59.830-137.143  38.936  0.00  0.00    -0.056 A 
ATOM     20  C13 BO2 d   1      59.701-137.868  37.748  0.00  0.00    -0.077 A 
ATOM     21  C14 BO2 d   1      58.559-137.735  36.962  0.00  0.00    -0.082 A 
ATOM     22  H   BO2 d   1      60.495-138.538  37.437  0.00  0.00     0.084 H 
ATOM     23  C15 BO2 d   1      57.534-136.882  37.355  0.00  0.00    -0.083 A 
ATOM     24  H   BO2 d   1      58.469-138.299  36.040  0.00  0.00     0.083 H 
ATOM     25  C16 BO2 d   1      57.653-136.160  38.538  0.00  0.00    -0.082 A 
ATOM     26  H   BO2 d   1      56.646-136.780  36.742  0.00  0.00     0.083 H 
ATOM     27  C17 BO2 d   1      58.793-136.291  39.326  0.00  0.00    -0.077 A 
ATOM     28  H   BO2 d   1      56.856-135.494  38.847  0.00  0.00     0.083 H 
ATOM     29  H   BO2 d   1      58.877-135.728  40.249  0.00  0.00     0.084 H 
ENDBRANCH  16  19
ENDBRANCH   1  16
BRANCH   1  30
ATOM     30  C18 BO2 d   1      62.937-135.994  40.524  0.00  0.00     0.240 C 
ATOM     31  O19 BO2 d   1      64.046-136.145  40.012  0.00  0.00    -0.271 OA
ATOM     32  N20 BO2 d   1      62.719-135.830  41.836  0.00  0.00    -0.358 N 
ATOM     33  H   BO2 d   1      61.784-135.714  42.172  0.00  0.00     0.162 HD
BRANCH  32  34
ATOM     34  C21 BO2 d   1      63.838-135.819  42.784  0.00  0.00     0.046 C 
ATOM     35  H   BO2 d   1      64.779-135.978  42.237  0.00  0.00     0.064 H 
BRANCH  34  36
ATOM     36  C22 BO2 d   1      63.900-134.492  43.508  0.00  0.00    -0.046 C 
ATOM     37  H   BO2 d   1      64.800-134.462  44.140  0.00  0.00     0.035 H 
ATOM     38  H   BO2 d   1      63.006-134.377  44.138  0.00  0.00     0.035 H 
BRANCH  36  39
ATOM     39  C23 BO2 d   1      63.955-133.343  42.481  0.00  0.00    -0.060 C 
ATOM     40  H   BO2 d   1      63.117-133.451  41.777  0.00  0.00     0.038 H 
BRANCH  39  41
ATOM     41  C24 BO2 d   1      63.812-132.015  43.235  0.00  0.00    -0.073 C 
ATOM     42  H   BO2 d   1      63.849-131.181  42.519  0.00  0.00     0.028 H 
ATOM     43  H   BO2 d   1      64.634-131.914  43.958  0.00  0.00     0.028 H 
ATOM     44  H   BO2 d   1      62.850-131.998  43.769  0.00  0.00     0.028 H 
ENDBRANCH  39  41
BRANCH  39  45
ATOM     45  C25 BO2 d   1      65.271-133.367  41.686  0.00  0.00    -0.073 C 
ATOM     46  H   BO2 d   1      65.359-134.324  41.151  0.00  0.00     0.028 H 
ATOM     47  H   BO2 d   1      66.119-133.254  42.377  0.00  0.00     0.028 H 
ATOM     48  H   BO2 d   1      65.276-132.540  40.961  0.00  0.00     0.028 H 
ENDBRANCH  39  45
ENDBRANCH  36  39
ENDBRANCH  34  36
BRANCH  34  49
ATOM     49  B26 BO2 d   1      63.693-136.931  43.833  0.00  0.00     0.515 B 
BRANCH  49  50
ATOM     50  O27 BO2 d   1      62.423-136.838  44.484  0.00  0.00    -0.436 OA
ATOM     51  H   BO2 d   1      62.360-137.512  45.150  0.00  0.00     0.184 HD
ENDBRANCH  49  50
BRANCH  49  52
ATOM     52  O28 BO2 d   1      63.812-138.221  43.227  0.00  0.00    -0.436 OA
ATOM     53  H   BO2 d   1      63.745-138.892  43.897  0.00  0.00     0.184 HD
ENDBRANCH  49  52
ENDBRANCH  34  49
ENDBRANCH  32  34
ENDBRANCH   1  30
TORSDOF 13
