REMARK  28 active torsions:
REMARK  status: ('A' for Active; 'I' for Inactive)
REMARK    1  A    between atoms: C7_3  and  C8_1 
REMARK       I    between atoms: C8_1  and  N10_10 
REMARK    2  A    between atoms: N4_4  and  C7_3 
REMARK    3  A    between atoms: N10_10  and  C11_11 
REMARK    4  A    between atoms: C11_11  and  C20_12 
REMARK    5  A    between atoms: C11_11  and  C12_14 
REMARK       I    between atoms: C20_12  and  N22_22 
REMARK    6  A    between atoms: C12_14  and  C13_15 
REMARK    7  A    between atoms: C13_15  and  C14_16 
REMARK    8  A    between atoms: N22_22  and  C23_23 
REMARK    9  A    between atoms: C23_23  and  C28_24 
REMARK   10  A    between atoms: C23_23  and  C24_26 
REMARK       I    between atoms: C28_24  and  N30_30 
REMARK   11  A    between atoms: C24_26  and  C25_27 
REMARK   12  A    between atoms: C25_27  and  C26_28 
REMARK   13  A    between atoms: C25_27  and  C27_29 
REMARK   14  A    between atoms: N30_30  and  C31_31 
REMARK   15  A    between atoms: C31_31  and  C39_32 
REMARK   16  A    between atoms: C31_31  and  C32_34 
REMARK       I    between atoms: C39_32  and  N41_41 
REMARK   17  A    between atoms: C32_34  and  C33_35 
REMARK   18  A    between atoms: N41_41  and  C42_42 
REMARK   19  A    between atoms: C42_42  and  C43_43 
REMARK   20  A    between atoms: C42_42  and  C47_47 
REMARK   21  A    between atoms: C43_43  and  C44_44 
REMARK   22  A    between atoms: C44_44  and  C45_45 
REMARK   23  A    between atoms: C44_44  and  C46_46 
REMARK   24  A    between atoms: C47_47  and  C51_48 
REMARK   25  A    between atoms: C47_47  and  O48_52 
REMARK   26  A    between atoms: C51_48  and  C58_49 
REMARK   27  A    between atoms: C51_48  and  C59_50 
REMARK   28  A    between atoms: C59_50  and  O60_51 
ROOT
ATOM      1  C23 3BV d   1      61.980-133.872  36.260  0.00  0.00     0.089 C 
ATOM      2  H24 3BV d   1      62.452-134.797  35.898  0.00  0.00     0.087 H 
ENDROOT
BRANCH   1   3
ATOM      3  N22 3BV d   1      60.810-133.545  35.436  0.00  0.00    -0.346 N 
ATOM      4  C20 3BV d   1      60.131-134.505  34.796  0.00  0.00     0.241 C 
ATOM      5  O21 3BV d   1      60.417-135.701  34.844  0.00  0.00    -0.271 OA
ATOM      6  H23 3BV d   1      60.516-132.593  35.352  0.00  0.00     0.163 HD
BRANCH   4   7
ATOM      7  C11 3BV d   1      58.901-134.032  34.026  0.00  0.00     0.089 C 
ATOM      8  H13 3BV d   1      59.063-133.033  33.595  0.00  0.00     0.087 H 
BRANCH   7   9
ATOM      9  N10 3BV d   1      58.614-135.012  32.971  0.00  0.00    -0.346 N 
ATOM     10  C8  3BV d   1      59.036-134.864  31.708  0.00  0.00     0.244 C 
ATOM     11  O9  3BV d   1      59.691-133.900  31.309  0.00  0.00    -0.272 OA
ATOM     12  H12 3BV d   1      58.081-135.825  33.205  0.00  0.00     0.163 HD
BRANCH  10  13
ATOM     13  C7  3BV d   1      58.648-136.037  30.782  0.00  0.00     0.156 C 
ATOM     14  H1  3BV d   1      57.779-136.547  31.224  0.00  0.00     0.090 H 
ATOM     15  H2  3BV d   1      59.499-136.733  30.739  0.00  0.00     0.090 H 
BRANCH  13  16
ATOM     16  N4  3BV d   1      58.297-135.652  29.391  0.00  0.00    -0.059 N 
ATOM     17  C5  3BV d   1      59.489-135.375  28.546  0.00  0.00     0.103 C 
ATOM     18  C6  3BV d   1      58.989-135.248  27.149  0.00  0.00     0.042 C 
ATOM     19  H4  3BV d   1      60.209-136.203  28.619  0.00  0.00     0.079 H 
ATOM     20  H5  3BV d   1      59.973-134.440  28.864  0.00  0.00     0.079 H 
ATOM     21  O1  3BV d   1      58.201-134.075  27.212  0.00  0.00    -0.388 OA
ATOM     22  H8  3BV d   1      59.820-135.131  26.438  0.00  0.00     0.076 H 
ATOM     23  H9  3BV d   1      58.382-136.120  26.863  0.00  0.00     0.076 H 
ATOM     24  C2  3BV d   1      56.959-134.268  27.946  0.00  0.00     0.042 C 
ATOM     25  C3  3BV d   1      57.300-134.550  29.333  0.00  0.00     0.103 C 
ATOM     26  H10 3BV d   1      56.400-135.113  27.519  0.00  0.00     0.076 H 
ATOM     27  H11 3BV d   1      56.346-133.357  27.890  0.00  0.00     0.076 H 
ATOM     28  H6  3BV d   1      57.726-133.647  29.795  0.00  0.00     0.079 H 
ATOM     29  H7  3BV d   1      56.393-134.849  29.879  0.00  0.00     0.079 H 
ATOM     30  H3  3BV d   1      57.848-136.458  28.985  0.00  0.00     0.280 HD
ENDBRANCH  13  16
ENDBRANCH  10  13
ENDBRANCH   7   9
BRANCH   7  31
ATOM     31  C12 3BV d   1      57.755-134.017  35.004  0.00  0.00    -0.034 C 
ATOM     32  H14 3BV d   1      58.136-134.047  36.035  0.00  0.00     0.037 H 
ATOM     33  H15 3BV d   1      57.097-134.881  34.831  0.00  0.00     0.037 H 
BRANCH  31  34
ATOM     34  C13 3BV d   1      56.996-132.725  34.764  0.00  0.00    -0.039 C 
ATOM     35  H16 3BV d   1      56.841-132.587  33.684  0.00  0.00     0.040 H 
ATOM     36  H17 3BV d   1      57.577-131.880  35.162  0.00  0.00     0.040 H 
BRANCH  34  37
ATOM     37  C14 3BV d   1      55.735-132.783  35.419  0.00  0.00    -0.058 A 
ATOM     38  C19 3BV d   1      54.661-132.060  34.892  0.00  0.00    -0.077 A 
ATOM     39  C18 3BV d   1      53.410-132.083  35.508  0.00  0.00    -0.082 A 
ATOM     40  H18 3BV d   1      54.803-131.473  33.992  0.00  0.00     0.084 H 
ATOM     41  C17 3BV d   1      53.211-132.827  36.667  0.00  0.00    -0.083 A 
ATOM     42  H20 3BV d   1      52.589-131.518  35.082  0.00  0.00     0.083 H 
ATOM     43  C16 3BV d   1      54.268-133.546  37.208  0.00  0.00    -0.082 A 
ATOM     44  H22 3BV d   1      52.238-132.845  37.144  0.00  0.00     0.083 H 
ATOM     45  C15 3BV d   1      55.517-133.518  36.592  0.00  0.00    -0.077 A 
ATOM     46  H21 3BV d   1      54.121-134.129  38.110  0.00  0.00     0.083 H 
ATOM     47  H19 3BV d   1      56.337-134.076  37.029  0.00  0.00     0.084 H 
ENDBRANCH  34  37
ENDBRANCH  31  34
ENDBRANCH   7  31
ENDBRANCH   4   7
ENDBRANCH   1   3
BRANCH   1  48
ATOM     48  C28 3BV d   1      61.488-134.053  37.697  0.00  0.00     0.241 C 
ATOM     49  O29 3BV d   1      60.751-133.210  38.211  0.00  0.00    -0.271 OA
ATOM     50  N30 3BV d   1      61.891-135.183  38.305  0.00  0.00    -0.346 N 
ATOM     51  H34 3BV d   1      62.451-135.837  37.796  0.00  0.00     0.163 HD
BRANCH  50  52
ATOM     52  C31 3BV d   1      61.529-135.481  39.699  0.00  0.00     0.093 C 
ATOM     53  H35 3BV d   1      60.842-134.706  40.068  0.00  0.00     0.088 H 
BRANCH  52  54
ATOM     54  C39 3BV d   1      62.815-135.459  40.516  0.00  0.00     0.241 C 
ATOM     55  O40 3BV d   1      63.911-135.534  39.961  0.00  0.00    -0.271 OA
ATOM     56  N41 3BV d   1      62.626-135.335  41.839  0.00  0.00    -0.352 N 
ATOM     57  H43 3BV d   1      61.690-135.353  42.190  0.00  0.00     0.163 HD
BRANCH  56  58
ATOM     58  C42 3BV d   1      63.728-135.174  42.794  0.00  0.00     0.037 C 
ATOM     59  H44 3BV d   1      64.698-135.277  42.287  0.00  0.00     0.076 H 
BRANCH  58  60
ATOM     60  C43 3BV d   1      63.521-133.766  43.332  0.00  0.00    -0.041 C 
ATOM     61  H45 3BV d   1      63.528-133.805  44.431  0.00  0.00     0.036 H 
ATOM     62  H46 3BV d   1      62.545-133.397  42.984  0.00  0.00     0.036 H 
BRANCH  60  63
ATOM     63  C44 3BV d   1      64.621-132.775  42.865  0.00  0.00    -0.059 C 
ATOM     64  H47 3BV d   1      65.537-132.985  43.438  0.00  0.00     0.038 H 
BRANCH  63  65
ATOM     65  C45 3BV d   1      64.140-131.345  43.180  0.00  0.00    -0.073 C 
ATOM     66  H48 3BV d   1      64.904-130.622  42.858  0.00  0.00     0.028 H 
ATOM     67  H49 3BV d   1      63.973-131.244  44.263  0.00  0.00     0.028 H 
ATOM     68  H50 3BV d   1      63.200-131.148  42.644  0.00  0.00     0.028 H 
ENDBRANCH  63  65
BRANCH  63  69
ATOM     69  C46 3BV d   1      64.967-132.863  41.364  0.00  0.00    -0.073 C 
ATOM     70  H51 3BV d   1      65.312-133.880  41.126  0.00  0.00     0.028 H 
ATOM     71  H52 3BV d   1      65.763-132.141  41.128  0.00  0.00     0.028 H 
ATOM     72  H53 3BV d   1      64.073-132.630  40.767  0.00  0.00     0.028 H 
ENDBRANCH  63  69
ENDBRANCH  60  63
ENDBRANCH  58  60
BRANCH  58  73
ATOM     73  C47 3BV d   1      63.655-136.163  43.988  0.00  0.00     0.060 C 
ATOM     74  H54 3BV d   1      64.364-135.798  44.745  0.00  0.00     0.086 H 
BRANCH  73  75
ATOM     75  C51 3BV d   1      64.045-137.710  43.711  0.00  0.00    -0.010 C 
ATOM     76  H55 3BV d   1      64.335-138.201  44.651  0.00  0.00     0.046 H 
BRANCH  75  77
ATOM     77  C58 3BV d   1      65.175-137.820  42.653  0.00  0.00    -0.069 C 
ATOM     78  H56 3BV d   1      65.418-138.880  42.486  0.00  0.00     0.028 H 
ATOM     79  H57 3BV d   1      66.069-137.291  43.015  0.00  0.00     0.028 H 
ATOM     80  H58 3BV d   1      64.838-137.367  41.709  0.00  0.00     0.028 H 
ENDBRANCH  75  77
BRANCH  75  81
ATOM     81  C59 3BV d   1      62.855-138.409  43.057  0.00  0.00     0.022 C 
ATOM     82  H59 3BV d   1      63.081-139.472  42.887  0.00  0.00     0.074 H 
ATOM     83  H60 3BV d   1      62.608-137.929  42.099  0.00  0.00     0.074 H 
BRANCH  81  84
ATOM     84  O60 3BV d   1      61.770-138.272  43.977  0.00  0.00    -0.400 OA
ATOM     85  H61 3BV d   1      61.593-137.350  44.121  0.00  0.00     0.209 HD
ENDBRANCH  81  84
ENDBRANCH  75  81
ENDBRANCH  73  75
BRANCH  73  86
ATOM     86  O48 3BV d   1      62.330-136.080  44.535  0.00  0.00    -0.393 OA
ATOM     87  H62 3BV d   1      61.710-136.453  43.919  0.00  0.00     0.210 HD
ENDBRANCH  73  86
ENDBRANCH  58  73
ENDBRANCH  56  58
ENDBRANCH  52  54
BRANCH  52  88
ATOM     88  C32 3BV d   1      60.866-136.817  39.837  0.00  0.00    -0.014 C 
ATOM     89  H36 3BV d   1      60.863-137.140  40.889  0.00  0.00     0.043 H 
ATOM     90  H37 3BV d   1      61.383-137.570  39.224  0.00  0.00     0.043 H 
BRANCH  88  91
ATOM     91  C33 3BV d   1      59.556-136.624  39.378  0.00  0.00    -0.056 A 
ATOM     92  C34 3BV d   1      59.224-136.908  38.054  0.00  0.00    -0.077 A 
ATOM     93  C35 3BV d   1      57.921-136.717  37.600  0.00  0.00    -0.082 A 
ATOM     94  H38 3BV d   1      59.983-137.279  37.375  0.00  0.00     0.084 H 
ATOM     95  C36 3BV d   1      56.942-136.243  38.469  0.00  0.00    -0.083 A 
ATOM     96  H40 3BV d   1      57.669-136.938  36.569  0.00  0.00     0.083 H 
ATOM     97  C37 3BV d   1      57.267-135.953  39.791  0.00  0.00    -0.082 A 
ATOM     98  H42 3BV d   1      55.927-136.100  38.116  0.00  0.00     0.083 H 
ATOM     99  C38 3BV d   1      58.570-136.144  40.244  0.00  0.00    -0.077 A 
ATOM    100  H41 3BV d   1      56.507-135.579  40.467  0.00  0.00     0.083 H 
ATOM    101  H39 3BV d   1      58.821-135.919  41.274  0.00  0.00     0.084 H 
ENDBRANCH  88  91
ENDBRANCH  52  88
ENDBRANCH  50  52
ENDBRANCH   1  48
BRANCH   1 102
ATOM    102  C24 3BV d   1      62.974-132.743  36.220  0.00  0.00    -0.035 C 
ATOM    103  H25 3BV d   1      63.705-132.846  37.036  0.00  0.00     0.037 H 
ATOM    104  H26 3BV d   1      62.459-131.775  36.310  0.00  0.00     0.037 H 
BRANCH 102 105
ATOM    105  C25 3BV d   1      63.679-132.853  34.848  0.00  0.00    -0.059 C 
ATOM    106  H27 3BV d   1      62.928-133.128  34.093  0.00  0.00     0.038 H 
BRANCH 105 107
ATOM    107  C26 3BV d   1      64.299-131.502  34.453  0.00  0.00    -0.073 C 
ATOM    108  H28 3BV d   1      64.796-131.598  33.476  0.00  0.00     0.028 H 
ATOM    109  H29 3BV d   1      65.037-131.201  35.211  0.00  0.00     0.028 H 
ATOM    110  H30 3BV d   1      63.508-130.740  34.389  0.00  0.00     0.028 H 
ENDBRANCH 105 107
BRANCH 105 111
ATOM    111  C27 3BV d   1      64.765-133.942  34.875  0.00  0.00    -0.073 C 
ATOM    112  H31 3BV d   1      64.313-134.904  35.158  0.00  0.00     0.028 H 
ATOM    113  H32 3BV d   1      65.538-133.670  35.608  0.00  0.00     0.028 H 
ATOM    114  H33 3BV d   1      65.220-134.030  33.878  0.00  0.00     0.028 H 
ENDBRANCH 105 111
ENDBRANCH 102 105
ENDBRANCH   1 102
TORSDOF 28
