REMARK  28 active torsions:
REMARK  status: ('A' for Active; 'I' for Inactive)
REMARK    1  A    between atoms: C7_3  and  C8_1 
REMARK       I    between atoms: C8_1  and  N10_10 
REMARK    2  A    between atoms: N4_4  and  C7_3 
REMARK    3  A    between atoms: N10_10  and  C11_11 
REMARK    4  A    between atoms: C11_11  and  C20_12 
REMARK    5  A    between atoms: C11_11  and  C12_14 
REMARK       I    between atoms: C20_12  and  N22_22 
REMARK    6  A    between atoms: C12_14  and  C13_15 
REMARK    7  A    between atoms: C13_15  and  C14_16 
REMARK    8  A    between atoms: N22_22  and  C23_23 
REMARK    9  A    between atoms: C23_23  and  C28_24 
REMARK   10  A    between atoms: C23_23  and  C24_26 
REMARK       I    between atoms: C28_24  and  N30_30 
REMARK   11  A    between atoms: C24_26  and  C25_27 
REMARK   12  A    between atoms: C25_27  and  C26_28 
REMARK   13  A    between atoms: C25_27  and  C27_29 
REMARK   14  A    between atoms: N30_30  and  C31_31 
REMARK   15  A    between atoms: C31_31  and  C39_32 
REMARK   16  A    between atoms: C31_31  and  C32_34 
REMARK       I    between atoms: C39_32  and  N41_41 
REMARK   17  A    between atoms: C32_34  and  C33_35 
REMARK   18  A    between atoms: N41_41  and  C42_42 
REMARK   19  A    between atoms: C42_42  and  C43_43 
REMARK   20  A    between atoms: C42_42  and  C47_47 
REMARK   21  A    between atoms: C43_43  and  C44_44 
REMARK   22  A    between atoms: C44_44  and  C45_45 
REMARK   23  A    between atoms: C44_44  and  C46_46 
REMARK   24  A    between atoms: C47_47  and  C51_48 
REMARK   25  A    between atoms: C47_47  and  O48_52 
REMARK   26  A    between atoms: C51_48  and  C58_49 
REMARK   27  A    between atoms: C51_48  and  C59_50 
REMARK   28  A    between atoms: C59_50  and  O60_51 
ROOT
ATOM      1  C23 3BV d   1      61.684-134.327  36.044  0.00  0.00     0.089 C 
ATOM      2  H24 3BV d   1      62.120-135.269  35.681  0.00  0.00     0.087 H 
ENDROOT
BRANCH   1   3
ATOM      3  N22 3BV d   1      60.551-133.948  35.207  0.00  0.00    -0.346 N 
ATOM      4  C20 3BV d   1      59.829-134.903  34.624  0.00  0.00     0.241 C 
ATOM      5  O21 3BV d   1      60.066-136.106  34.732  0.00  0.00    -0.271 OA
ATOM      6  H23 3BV d   1      60.320-132.984  35.073  0.00  0.00     0.163 HD
BRANCH   4   7
ATOM      7  C11 3BV d   1      58.629-134.434  33.830  0.00  0.00     0.089 C 
ATOM      8  H13 3BV d   1      58.796-133.445  33.377  0.00  0.00     0.087 H 
BRANCH   7   9
ATOM      9  N10 3BV d   1      58.403-135.456  32.818  0.00  0.00    -0.346 N 
ATOM     10  C8  3BV d   1      58.859-135.336  31.573  0.00  0.00     0.244 C 
ATOM     11  O9  3BV d   1      59.470-134.352  31.154  0.00  0.00    -0.272 OA
ATOM     12  H12 3BV d   1      57.888-136.276  33.067  0.00  0.00     0.163 HD
BRANCH  10  13
ATOM     13  C7  3BV d   1      58.554-136.558  30.695  0.00  0.00     0.156 C 
ATOM     14  H1  3BV d   1      57.785-137.163  31.198  0.00  0.00     0.090 H 
ATOM     15  H2  3BV d   1      59.476-137.149  30.591  0.00  0.00     0.090 H 
BRANCH  13  16
ATOM     16  N4  3BV d   1      58.065-136.217  29.341  0.00  0.00    -0.059 N 
ATOM     17  C5  3BV d   1      59.155-135.715  28.460  0.00  0.00     0.103 C 
ATOM     18  C6  3BV d   1      58.592-135.559  27.093  0.00  0.00     0.042 C 
ATOM     19  H4  3BV d   1      59.986-136.436  28.443  0.00  0.00     0.079 H 
ATOM     20  H5  3BV d   1      59.519-134.745  28.829  0.00  0.00     0.079 H 
ATOM     21  O1  3BV d   1      57.581-134.569  27.260  0.00  0.00    -0.388 OA
ATOM     22  H8  3BV d   1      59.363-135.218  26.387  0.00  0.00     0.076 H 
ATOM     23  H9  3BV d   1      58.160-136.505  26.735  0.00  0.00     0.076 H 
ATOM     24  C2  3BV d   1      56.447-135.098  28.005  0.00  0.00     0.042 C 
ATOM     25  C3  3BV d   1      56.892-135.302  29.372  0.00  0.00     0.103 C 
ATOM     26  H10 3BV d   1      56.121-136.053  27.568  0.00  0.00     0.076 H 
ATOM     27  H11 3BV d   1      55.613-134.381  27.983  0.00  0.00     0.076 H 
ATOM     28  H6  3BV d   1      57.181-134.339  29.818  0.00  0.00     0.079 H 
ATOM     29  H7  3BV d   1      56.082-135.753  29.965  0.00  0.00     0.079 H 
ATOM     30  H3  3BV d   1      57.741-137.079  28.930  0.00  0.00     0.280 HD
ENDBRANCH  13  16
ENDBRANCH  10  13
ENDBRANCH   7   9
BRANCH   7  31
ATOM     31  C12 3BV d   1      57.456-134.414  34.769  0.00  0.00    -0.034 C 
ATOM     32  H14 3BV d   1      57.804-134.368  35.812  0.00  0.00     0.037 H 
ATOM     33  H15 3BV d   1      56.840-135.314  34.628  0.00  0.00     0.037 H 
BRANCH  31  34
ATOM     34  C13 3BV d   1      56.657-133.173  34.427  0.00  0.00    -0.039 C 
ATOM     35  H16 3BV d   1      56.503-133.122  33.339  0.00  0.00     0.040 H 
ATOM     36  H17 3BV d   1      57.203-132.279  34.762  0.00  0.00     0.040 H 
BRANCH  34  37
ATOM     37  C14 3BV d   1      55.400-133.235  35.082  0.00  0.00    -0.058 A 
ATOM     38  C19 3BV d   1      55.264-133.690  36.402  0.00  0.00    -0.077 A 
ATOM     39  C18 3BV d   1      54.020-133.733  37.023  0.00  0.00    -0.082 A 
ATOM     40  H18 3BV d   1      56.143-134.014  36.947  0.00  0.00     0.084 H 
ATOM     41  C17 3BV d   1      52.888-133.311  36.338  0.00  0.00    -0.083 A 
ATOM     42  H20 3BV d   1      53.934-134.096  38.041  0.00  0.00     0.083 H 
ATOM     43  C16 3BV d   1      53.007-132.847  35.031  0.00  0.00    -0.082 A 
ATOM     44  H22 3BV d   1      51.917-133.343  36.819  0.00  0.00     0.083 H 
ATOM     45  C15 3BV d   1      54.252-132.807  34.410  0.00  0.00    -0.077 A 
ATOM     46  H21 3BV d   1      52.126-132.515  34.494  0.00  0.00     0.083 H 
ATOM     47  H19 3BV d   1      54.332-132.440  33.393  0.00  0.00     0.084 H 
ENDBRANCH  34  37
ENDBRANCH  31  34
ENDBRANCH   7  31
ENDBRANCH   4   7
ENDBRANCH   1   3
BRANCH   1  48
ATOM     48  C28 3BV d   1      61.149-134.491  37.456  0.00  0.00     0.241 C 
ATOM     49  O29 3BV d   1      60.445-133.616  37.959  0.00  0.00    -0.271 OA
ATOM     50  N30 3BV d   1      61.484-135.644  38.049  0.00  0.00    -0.346 N 
ATOM     51  H34 3BV d   1      62.013-136.321  37.537  0.00  0.00     0.163 HD
BRANCH  50  52
ATOM     52  C31 3BV d   1      61.094-135.936  39.429  0.00  0.00     0.093 C 
ATOM     53  H35 3BV d   1      60.399-135.162  39.787  0.00  0.00     0.088 H 
BRANCH  52  54
ATOM     54  C39 3BV d   1      62.372-135.897  40.246  0.00  0.00     0.241 C 
ATOM     55  O40 3BV d   1      63.469-135.813  39.692  0.00  0.00    -0.271 OA
ATOM     56  N41 3BV d   1      62.187-135.952  41.569  0.00  0.00    -0.352 N 
ATOM     57  H43 3BV d   1      61.270-136.125  41.928  0.00  0.00     0.163 HD
BRANCH  56  58
ATOM     58  C42 3BV d   1      63.292-135.765  42.497  0.00  0.00     0.037 C 
ATOM     59  H44 3BV d   1      64.262-135.838  41.983  0.00  0.00     0.076 H 
BRANCH  58  60
ATOM     60  C43 3BV d   1      63.004-134.361  42.999  0.00  0.00    -0.041 C 
ATOM     61  H45 3BV d   1      62.894-134.392  44.093  0.00  0.00     0.036 H 
ATOM     62  H46 3BV d   1      62.066-134.008  42.546  0.00  0.00     0.036 H 
BRANCH  60  63
ATOM     63  C44 3BV d   1      64.132-133.371  42.640  0.00  0.00    -0.059 C 
ATOM     64  H47 3BV d   1      65.034-133.635  43.212  0.00  0.00     0.038 H 
BRANCH  63  65
ATOM     65  C45 3BV d   1      63.658-131.963  43.034  0.00  0.00    -0.073 C 
ATOM     66  H48 3BV d   1      64.442-131.231  42.790  0.00  0.00     0.028 H 
ATOM     67  H49 3BV d   1      63.452-131.934  44.114  0.00  0.00     0.028 H 
ATOM     68  H50 3BV d   1      62.741-131.716  42.479  0.00  0.00     0.028 H 
ENDBRANCH  63  65
BRANCH  63  69
ATOM     69  C46 3BV d   1      64.479-133.373  41.143  0.00  0.00    -0.073 C 
ATOM     70  H51 3BV d   1      64.820-134.376  40.847  0.00  0.00     0.028 H 
ATOM     71  H52 3BV d   1      65.278-132.642  40.951  0.00  0.00     0.028 H 
ATOM     72  H53 3BV d   1      63.587-133.102  40.559  0.00  0.00     0.028 H 
ENDBRANCH  63  69
ENDBRANCH  60  63
ENDBRANCH  58  60
BRANCH  58  73
ATOM     73  C47 3BV d   1      63.267-136.726  43.706  0.00  0.00     0.060 C 
ATOM     74  H54 3BV d   1      63.910-136.279  44.478  0.00  0.00     0.086 H 
BRANCH  73  75
ATOM     75  C51 3BV d   1      63.805-138.202  43.472  0.00  0.00    -0.010 C 
ATOM     76  H55 3BV d   1      64.036-138.649  44.450  0.00  0.00     0.046 H 
BRANCH  75  77
ATOM     77  C58 3BV d   1      65.098-138.167  42.617  0.00  0.00    -0.069 C 
ATOM     78  H56 3BV d   1      65.462-139.193  42.461  0.00  0.00     0.028 H 
ATOM     79  H57 3BV d   1      65.868-137.580  43.140  0.00  0.00     0.028 H 
ATOM     80  H58 3BV d   1      64.882-137.703  41.644  0.00  0.00     0.028 H 
ENDBRANCH  75  77
BRANCH  75  81
ATOM     81  C59 3BV d   1      62.751-139.073  42.769  0.00  0.00     0.022 C 
ATOM     82  H59 3BV d   1      61.907-139.223  43.458  0.00  0.00     0.074 H 
ATOM     83  H60 3BV d   1      63.206-140.045  42.529  0.00  0.00     0.074 H 
BRANCH  81  84
ATOM     84  O60 3BV d   1      62.259-138.506  41.580  0.00  0.00    -0.400 OA
ATOM     85  H61 3BV d   1      62.977-138.379  40.971  0.00  0.00     0.209 HD
ENDBRANCH  81  84
ENDBRANCH  75  81
ENDBRANCH  73  75
BRANCH  73  86
ATOM     86  O48 3BV d   1      61.934-136.780  44.211  0.00  0.00    -0.393 OA
ATOM     87  H62 3BV d   1      61.927-137.254  45.034  0.00  0.00     0.210 HD
ENDBRANCH  73  86
ENDBRANCH  58  73
ENDBRANCH  56  58
ENDBRANCH  52  54
BRANCH  52  88
ATOM     88  C32 3BV d   1      60.430-137.270  39.553  0.00  0.00    -0.014 C 
ATOM     89  H36 3BV d   1      60.401-137.596  40.603  0.00  0.00     0.043 H 
ATOM     90  H37 3BV d   1      60.955-138.025  38.949  0.00  0.00     0.043 H 
BRANCH  88  91
ATOM     91  C33 3BV d   1      59.144-137.056  39.067  0.00  0.00    -0.056 A 
ATOM     92  C34 3BV d   1      58.161-136.523  39.900  0.00  0.00    -0.077 A 
ATOM     93  C35 3BV d   1      56.878-136.305  39.409  0.00  0.00    -0.082 A 
ATOM     94  H38 3BV d   1      58.397-136.279  40.929  0.00  0.00     0.084 H 
ATOM     95  C36 3BV d   1      56.574-136.619  38.087  0.00  0.00    -0.083 A 
ATOM     96  H40 3BV d   1      56.114-135.890  40.056  0.00  0.00     0.083 H 
ATOM     97  C37 3BV d   1      57.555-137.149  37.255  0.00  0.00    -0.082 A 
ATOM     98  H42 3BV d   1      55.573-136.451  37.706  0.00  0.00     0.083 H 
ATOM     99  C38 3BV d   1      58.839-137.364  37.744  0.00  0.00    -0.077 A 
ATOM    100  H41 3BV d   1      57.319-137.394  36.226  0.00  0.00     0.083 H 
ATOM    101  H39 3BV d   1      59.604-137.772  37.094  0.00  0.00     0.084 H 
ENDBRANCH  88  91
ENDBRANCH  52  88
ENDBRANCH  50  52
ENDBRANCH   1  48
BRANCH   1 102
ATOM    102  C24 3BV d   1      62.739-133.258  36.072  0.00  0.00    -0.035 C 
ATOM    103  H25 3BV d   1      63.529-133.527  36.788  0.00  0.00     0.037 H 
ATOM    104  H26 3BV d   1      62.293-132.296  36.363  0.00  0.00     0.037 H 
BRANCH 102 105
ATOM    105  C25 3BV d   1      63.324-133.159  34.655  0.00  0.00    -0.059 C 
ATOM    106  H27 3BV d   1      62.505-132.974  33.944  0.00  0.00     0.038 H 
BRANCH 105 107
ATOM    107  C26 3BV d   1      64.314-131.985  34.606  0.00  0.00    -0.073 C 
ATOM    108  H28 3BV d   1      64.739-131.906  33.594  0.00  0.00     0.028 H 
ATOM    109  H29 3BV d   1      65.123-132.157  35.331  0.00  0.00     0.028 H 
ATOM    110  H30 3BV d   1      63.789-131.052  34.857  0.00  0.00     0.028 H 
ENDBRANCH 105 107
BRANCH 105 111
ATOM    111  C27 3BV d   1      64.046-134.459  34.252  0.00  0.00    -0.073 C 
ATOM    112  H31 3BV d   1      63.336-135.299  34.288  0.00  0.00     0.028 H 
ATOM    113  H32 3BV d   1      64.875-134.650  34.950  0.00  0.00     0.028 H 
ATOM    114  H33 3BV d   1      64.442-134.357  33.231  0.00  0.00     0.028 H 
ENDBRANCH 105 111
ENDBRANCH 102 105
ENDBRANCH   1 102
TORSDOF 28
