REMARK  28 active torsions:
REMARK  status: ('A' for Active; 'I' for Inactive)
REMARK    1  A    between atoms: C7_3  and  C8_1 
REMARK       I    between atoms: C8_1  and  N10_10 
REMARK    2  A    between atoms: N4_4  and  C7_3 
REMARK    3  A    between atoms: N10_10  and  C11_11 
REMARK    4  A    between atoms: C11_11  and  C20_12 
REMARK    5  A    between atoms: C11_11  and  C12_14 
REMARK       I    between atoms: C20_12  and  N22_22 
REMARK    6  A    between atoms: C12_14  and  C13_15 
REMARK    7  A    between atoms: C13_15  and  C14_16 
REMARK    8  A    between atoms: N22_22  and  C23_23 
REMARK    9  A    between atoms: C23_23  and  C28_24 
REMARK   10  A    between atoms: C23_23  and  C24_26 
REMARK       I    between atoms: C28_24  and  N30_30 
REMARK   11  A    between atoms: C24_26  and  C25_27 
REMARK   12  A    between atoms: C25_27  and  C26_28 
REMARK   13  A    between atoms: C25_27  and  C27_29 
REMARK   14  A    between atoms: N30_30  and  C31_31 
REMARK   15  A    between atoms: C31_31  and  C39_32 
REMARK   16  A    between atoms: C31_31  and  C32_34 
REMARK       I    between atoms: C39_32  and  N41_41 
REMARK   17  A    between atoms: C32_34  and  C33_35 
REMARK   18  A    between atoms: N41_41  and  C42_42 
REMARK   19  A    between atoms: C42_42  and  C43_43 
REMARK   20  A    between atoms: C42_42  and  C47_47 
REMARK   21  A    between atoms: C43_43  and  C44_44 
REMARK   22  A    between atoms: C44_44  and  C45_45 
REMARK   23  A    between atoms: C44_44  and  C46_46 
REMARK   24  A    between atoms: C47_47  and  C51_48 
REMARK   25  A    between atoms: C47_47  and  O48_52 
REMARK   26  A    between atoms: C51_48  and  C58_49 
REMARK   27  A    between atoms: C51_48  and  C59_50 
REMARK   28  A    between atoms: C59_50  and  O60_51 
ROOT
ATOM      1  C23 3BV d   1      61.869-134.133  35.908  0.00  0.00     0.089 C 
ATOM      2  H24 3BV d   1      62.355-135.049  35.541  0.00  0.00     0.087 H 
ENDROOT
BRANCH   1   3
ATOM      3  N22 3BV d   1      60.742-133.777  35.059  0.00  0.00    -0.346 N 
ATOM      4  C20 3BV d   1      60.007-134.728  34.496  0.00  0.00     0.241 C 
ATOM      5  O21 3BV d   1      60.210-135.934  34.634  0.00  0.00    -0.271 OA
ATOM      6  H23 3BV d   1      60.521-132.815  34.900  0.00  0.00     0.163 HD
BRANCH   4   7
ATOM      7  C11 3BV d   1      58.825-134.234  33.694  0.00  0.00     0.089 C 
ATOM      8  H13 3BV d   1      59.004-133.241  33.257  0.00  0.00     0.087 H 
BRANCH   7   9
ATOM      9  N10 3BV d   1      58.595-135.241  32.672  0.00  0.00    -0.346 N 
ATOM     10  C8  3BV d   1      58.964-135.075  31.408  0.00  0.00     0.244 C 
ATOM     11  O9  3BV d   1      59.501-134.055  30.974  0.00  0.00    -0.272 OA
ATOM     12  H12 3BV d   1      58.141-136.093  32.931  0.00  0.00     0.163 HD
BRANCH  10  13
ATOM     13  C7  3BV d   1      58.659-136.302  30.537  0.00  0.00     0.156 C 
ATOM     14  H1  3BV d   1      57.805-136.835  30.980  0.00  0.00     0.090 H 
ATOM     15  H2  3BV d   1      59.543-136.957  30.544  0.00  0.00     0.090 H 
BRANCH  13  16
ATOM     16  N4  3BV d   1      58.328-135.987  29.131  0.00  0.00    -0.059 N 
ATOM     17  C5  3BV d   1      59.528-135.594  28.340  0.00  0.00     0.103 C 
ATOM     18  C6  3BV d   1      59.098-135.445  26.919  0.00  0.00     0.042 C 
ATOM     19  H4  3BV d   1      60.301-136.372  28.419  0.00  0.00     0.079 H 
ATOM     20  H5  3BV d   1      59.928-134.640  28.713  0.00  0.00     0.079 H 
ATOM     21  O1  3BV d   1      58.131-134.399  26.971  0.00  0.00    -0.388 OA
ATOM     22  H8  3BV d   1      59.947-135.164  26.279  0.00  0.00     0.076 H 
ATOM     23  H9  3BV d   1      58.649-136.377  26.544  0.00  0.00     0.076 H 
ATOM     24  C2  3BV d   1      56.906-134.849  27.610  0.00  0.00     0.042 C 
ATOM     25  C3  3BV d   1      57.207-135.015  29.016  0.00  0.00     0.103 C 
ATOM     26  H10 3BV d   1      56.582-135.806  27.176  0.00  0.00     0.076 H 
ATOM     27  H11 3BV d   1      56.112-134.099  27.478  0.00  0.00     0.076 H 
ATOM     28  H6  3BV d   1      57.503-134.049  29.451  0.00  0.00     0.079 H 
ATOM     29  H7  3BV d   1      56.323-135.400  29.545  0.00  0.00     0.079 H 
ATOM     30  H3  3BV d   1      57.994-136.846  28.722  0.00  0.00     0.280 HD
ENDBRANCH  13  16
ENDBRANCH  10  13
ENDBRANCH   7   9
BRANCH   7  31
ATOM     31  C12 3BV d   1      57.652-134.224  34.627  0.00  0.00    -0.034 C 
ATOM     32  H14 3BV d   1      57.997-134.301  35.669  0.00  0.00     0.037 H 
ATOM     33  H15 3BV d   1      56.981-135.066  34.400  0.00  0.00     0.037 H 
BRANCH  31  34
ATOM     34  C13 3BV d   1      56.929-132.912  34.415  0.00  0.00    -0.039 C 
ATOM     35  H16 3BV d   1      56.792-132.731  33.339  0.00  0.00     0.040 H 
ATOM     36  H17 3BV d   1      57.512-132.089  34.854  0.00  0.00     0.040 H 
BRANCH  34  37
ATOM     37  C14 3BV d   1      55.667-133.000  35.052  0.00  0.00    -0.058 A 
ATOM     38  C19 3BV d   1      55.523-133.534  36.338  0.00  0.00    -0.077 A 
ATOM     39  C18 3BV d   1      54.278-133.609  36.950  0.00  0.00    -0.082 A 
ATOM     40  H18 3BV d   1      56.398-133.895  36.866  0.00  0.00     0.084 H 
ATOM     41  C17 3BV d   1      53.150-133.142  36.289  0.00  0.00    -0.083 A 
ATOM     42  H20 3BV d   1      54.187-134.032  37.944  0.00  0.00     0.083 H 
ATOM     43  C16 3BV d   1      53.277-132.601  35.015  0.00  0.00    -0.082 A 
ATOM     44  H22 3BV d   1      52.177-133.199  36.763  0.00  0.00     0.083 H 
ATOM     45  C15 3BV d   1      54.525-132.528  34.402  0.00  0.00    -0.077 A 
ATOM     46  H21 3BV d   1      52.399-132.234  34.496  0.00  0.00     0.083 H 
ATOM     47  H19 3BV d   1      54.611-132.100  33.410  0.00  0.00     0.084 H 
ENDBRANCH  34  37
ENDBRANCH  31  34
ENDBRANCH   7  31
ENDBRANCH   4   7
ENDBRANCH   1   3
BRANCH   1  48
ATOM     48  C28 3BV d   1      61.326-134.337  37.315  0.00  0.00     0.241 C 
ATOM     49  O29 3BV d   1      60.501-133.555  37.786  0.00  0.00    -0.271 OA
ATOM     50  N30 3BV d   1      61.797-135.416  37.951  0.00  0.00    -0.346 N 
ATOM     51  H34 3BV d   1      62.430-136.027  37.475  0.00  0.00     0.163 HD
BRANCH  50  52
ATOM     52  C31 3BV d   1      61.406-135.722  39.330  0.00  0.00     0.093 C 
ATOM     53  H35 3BV d   1      60.705-134.953  39.688  0.00  0.00     0.088 H 
BRANCH  52  54
ATOM     54  C39 3BV d   1      62.675-135.683  40.163  0.00  0.00     0.241 C 
ATOM     55  O40 3BV d   1      63.779-135.620  39.623  0.00  0.00    -0.271 OA
ATOM     56  N41 3BV d   1      62.466-135.697  41.482  0.00  0.00    -0.352 N 
ATOM     57  H43 3BV d   1      61.538-135.846  41.823  0.00  0.00     0.163 HD
BRANCH  56  58
ATOM     58  C42 3BV d   1      63.546-135.502  42.439  0.00  0.00     0.037 C 
ATOM     59  H44 3BV d   1      64.527-135.572  41.946  0.00  0.00     0.076 H 
BRANCH  58  60
ATOM     60  C43 3BV d   1      63.252-134.099  42.941  0.00  0.00    -0.041 C 
ATOM     61  H45 3BV d   1      63.134-134.133  44.034  0.00  0.00     0.036 H 
ATOM     62  H46 3BV d   1      62.316-133.749  42.482  0.00  0.00     0.036 H 
BRANCH  60  63
ATOM     63  C44 3BV d   1      64.377-133.101  42.595  0.00  0.00    -0.059 C 
ATOM     64  H47 3BV d   1      65.236-133.299  43.253  0.00  0.00     0.038 H 
BRANCH  63  65
ATOM     65  C45 3BV d   1      63.844-131.683  42.858  0.00  0.00    -0.073 C 
ATOM     66  H48 3BV d   1      64.626-130.947  42.620  0.00  0.00     0.028 H 
ATOM     67  H49 3BV d   1      63.562-131.588  43.917  0.00  0.00     0.028 H 
ATOM     68  H50 3BV d   1      62.963-131.499  42.226  0.00  0.00     0.028 H 
ENDBRANCH  63  65
BRANCH  63  69
ATOM     69  C46 3BV d   1      64.854-133.191  41.135  0.00  0.00    -0.073 C 
ATOM     70  H51 3BV d   1      65.238-134.203  40.936  0.00  0.00     0.028 H 
ATOM     71  H52 3BV d   1      65.654-132.456  40.965  0.00  0.00     0.028 H 
ATOM     72  H53 3BV d   1      64.011-132.979  40.460  0.00  0.00     0.028 H 
ENDBRANCH  63  69
ENDBRANCH  60  63
ENDBRANCH  58  60
BRANCH  58  73
ATOM     73  C47 3BV d   1      63.502-136.458  43.645  0.00  0.00     0.060 C 
ATOM     74  H54 3BV d   1      64.206-136.068  44.395  0.00  0.00     0.086 H 
BRANCH  73  75
ATOM     75  C51 3BV d   1      63.906-137.966  43.372  0.00  0.00    -0.010 C 
ATOM     76  H55 3BV d   1      64.157-138.478  44.312  0.00  0.00     0.046 H 
BRANCH  75  77
ATOM     77  C58 3BV d   1      65.125-138.015  42.409  0.00  0.00    -0.069 C 
ATOM     78  H56 3BV d   1      65.403-139.063  42.222  0.00  0.00     0.028 H 
ATOM     79  H57 3BV d   1      65.975-137.487  42.866  0.00  0.00     0.028 H 
ATOM     80  H58 3BV d   1      64.861-137.530  41.458  0.00  0.00     0.028 H 
ENDBRANCH  75  77
BRANCH  75  81
ATOM     81  C59 3BV d   1      62.660-138.613  42.718  0.00  0.00     0.022 C 
ATOM     82  H59 3BV d   1      62.078-137.843  42.191  0.00  0.00     0.074 H 
ATOM     83  H60 3BV d   1      62.035-139.078  43.495  0.00  0.00     0.074 H 
BRANCH  81  84
ATOM     84  O60 3BV d   1      63.090-139.613  41.784  0.00  0.00    -0.400 OA
ATOM     85  H61 3BV d   1      62.330-140.014  41.379  0.00  0.00     0.209 HD
ENDBRANCH  81  84
ENDBRANCH  75  81
ENDBRANCH  73  75
BRANCH  73  86
ATOM     86  O48 3BV d   1      62.178-136.415  44.193  0.00  0.00    -0.393 OA
ATOM     87  H62 3BV d   1      62.158-136.903  45.008  0.00  0.00     0.210 HD
ENDBRANCH  73  86
ENDBRANCH  58  73
ENDBRANCH  56  58
ENDBRANCH  52  54
BRANCH  52  88
ATOM     88  C32 3BV d   1      60.747-137.058  39.448  0.00  0.00    -0.014 C 
ATOM     89  H36 3BV d   1      60.733-137.391  40.496  0.00  0.00     0.043 H 
ATOM     90  H37 3BV d   1      61.272-137.804  38.833  0.00  0.00     0.043 H 
BRANCH  88  91
ATOM     91  C33 3BV d   1      59.446-136.863  38.978  0.00  0.00    -0.056 A 
ATOM     92  C34 3BV d   1      58.458-136.349  39.821  0.00  0.00    -0.077 A 
ATOM     93  C35 3BV d   1      57.162-136.158  39.345  0.00  0.00    -0.082 A 
ATOM     94  H38 3BV d   1      58.700-136.098  40.847  0.00  0.00     0.084 H 
ATOM     95  C36 3BV d   1      56.845-136.482  38.029  0.00  0.00    -0.083 A 
ATOM     96  H40 3BV d   1      56.399-135.756  40.002  0.00  0.00     0.083 H 
ATOM     97  C37 3BV d   1      57.830-136.993  37.188  0.00  0.00    -0.082 A 
ATOM     98  H42 3BV d   1      55.836-136.337  37.660  0.00  0.00     0.083 H 
ATOM     99  C38 3BV d   1      59.125-137.182  37.661  0.00  0.00    -0.077 A 
ATOM    100  H41 3BV d   1      57.587-137.244  36.162  0.00  0.00     0.083 H 
ATOM    101  H39 3BV d   1      59.888-137.579  37.001  0.00  0.00     0.084 H 
ENDBRANCH  88  91
ENDBRANCH  52  88
ENDBRANCH  50  52
ENDBRANCH   1  48
BRANCH   1 102
ATOM    102  C24 3BV d   1      62.850-133.001  35.936  0.00  0.00    -0.035 C 
ATOM    103  H25 3BV d   1      63.528-133.104  36.796  0.00  0.00     0.037 H 
ATOM    104  H26 3BV d   1      62.321-132.039  36.000  0.00  0.00     0.037 H 
BRANCH 102 105
ATOM    105  C25 3BV d   1      63.640-133.089  34.621  0.00  0.00    -0.059 C 
ATOM    106  H27 3BV d   1      62.936-133.189  33.782  0.00  0.00     0.038 H 
BRANCH 105 107
ATOM    107  C26 3BV d   1      64.467-131.809  34.444  0.00  0.00    -0.073 C 
ATOM    108  H28 3BV d   1      65.035-131.867  33.504  0.00  0.00     0.028 H 
ATOM    109  H29 3BV d   1      65.165-131.704  35.288  0.00  0.00     0.028 H 
ATOM    110  H30 3BV d   1      63.794-130.939  34.413  0.00  0.00     0.028 H 
ENDBRANCH 105 107
BRANCH 105 111
ATOM    111  C27 3BV d   1      64.581-134.302  34.637  0.00  0.00    -0.073 C 
ATOM    112  H31 3BV d   1      63.991-135.222  34.764  0.00  0.00     0.028 H 
ATOM    113  H32 3BV d   1      65.291-134.204  35.471  0.00  0.00     0.028 H 
ATOM    114  H33 3BV d   1      65.135-134.349  33.688  0.00  0.00     0.028 H 
ENDBRANCH 105 111
ENDBRANCH 102 105
ENDBRANCH   1 102
TORSDOF 28
