REMARK  28 active torsions:
REMARK  status: ('A' for Active; 'I' for Inactive)
REMARK    1  A    between atoms: C7_3  and  C8_1 
REMARK       I    between atoms: C8_1  and  N10_10 
REMARK    2  A    between atoms: N4_4  and  C7_3 
REMARK    3  A    between atoms: N10_10  and  C11_11 
REMARK    4  A    between atoms: C11_11  and  C20_12 
REMARK    5  A    between atoms: C11_11  and  C12_14 
REMARK       I    between atoms: C20_12  and  N22_22 
REMARK    6  A    between atoms: C12_14  and  C13_15 
REMARK    7  A    between atoms: C13_15  and  C14_16 
REMARK    8  A    between atoms: N22_22  and  C23_23 
REMARK    9  A    between atoms: C23_23  and  C28_24 
REMARK   10  A    between atoms: C23_23  and  C24_26 
REMARK       I    between atoms: C28_24  and  N30_30 
REMARK   11  A    between atoms: C24_26  and  C25_27 
REMARK   12  A    between atoms: C25_27  and  C26_28 
REMARK   13  A    between atoms: C25_27  and  C27_29 
REMARK   14  A    between atoms: N30_30  and  C31_31 
REMARK   15  A    between atoms: C31_31  and  C39_32 
REMARK   16  A    between atoms: C31_31  and  C32_34 
REMARK       I    between atoms: C39_32  and  N41_41 
REMARK   17  A    between atoms: C32_34  and  C33_35 
REMARK   18  A    between atoms: N41_41  and  C42_42 
REMARK   19  A    between atoms: C42_42  and  C43_43 
REMARK   20  A    between atoms: C42_42  and  C47_47 
REMARK   21  A    between atoms: C43_43  and  C44_44 
REMARK   22  A    between atoms: C44_44  and  C45_45 
REMARK   23  A    between atoms: C44_44  and  C46_46 
REMARK   24  A    between atoms: C47_47  and  C51_48 
REMARK   25  A    between atoms: C47_47  and  O48_52 
REMARK   26  A    between atoms: C51_48  and  C58_49 
REMARK   27  A    between atoms: C51_48  and  C59_50 
REMARK   28  A    between atoms: C59_50  and  O60_51 
ROOT
ATOM      1  C23 3BV d   1      61.832-134.343  36.010  0.00  0.00     0.089 C 
ATOM      2  H24 3BV d   1      62.301-135.263  35.631  0.00  0.00     0.087 H 
ENDROOT
BRANCH   1   3
ATOM      3  N22 3BV d   1      60.676-133.990  35.184  0.00  0.00    -0.346 N 
ATOM      4  C20 3BV d   1      59.998-134.938  34.537  0.00  0.00     0.241 C 
ATOM      5  O21 3BV d   1      60.286-136.133  34.578  0.00  0.00    -0.271 OA
ATOM      6  H23 3BV d   1      60.394-133.034  35.105  0.00  0.00     0.163 HD
BRANCH   4   7
ATOM      7  C11 3BV d   1      58.775-134.466  33.762  0.00  0.00     0.089 C 
ATOM      8  H13 3BV d   1      58.940-133.478  33.307  0.00  0.00     0.087 H 
BRANCH   7   9
ATOM      9  N10 3BV d   1      58.511-135.483  32.744  0.00  0.00    -0.346 N 
ATOM     10  C8  3BV d   1      59.004-135.421  31.503  0.00  0.00     0.244 C 
ATOM     11  O9  3BV d   1      59.703-134.499  31.078  0.00  0.00    -0.272 OA
ATOM     12  H12 3BV d   1      57.934-136.262  32.988  0.00  0.00     0.163 HD
BRANCH  10  13
ATOM     13  C7  3BV d   1      58.633-136.643  30.642  0.00  0.00     0.156 C 
ATOM     14  H1  3BV d   1      57.778-137.147  31.117  0.00  0.00     0.090 H 
ATOM     15  H2  3BV d   1      59.497-137.323  30.627  0.00  0.00     0.090 H 
BRANCH  13  16
ATOM     16  N4  3BV d   1      58.264-136.338  29.237  0.00  0.00    -0.059 N 
ATOM     17  C5  3BV d   1      59.455-136.253  28.350  0.00  0.00     0.103 C 
ATOM     18  C6  3BV d   1      58.939-136.168  26.950  0.00  0.00     0.042 C 
ATOM     19  H4  3BV d   1      60.082-137.149  28.470  0.00  0.00     0.079 H 
ATOM     20  H5  3BV d   1      60.045-135.357  28.592  0.00  0.00     0.079 H 
ATOM     21  O1  3BV d   1      58.235-134.939  26.941  0.00  0.00    -0.388 OA
ATOM     22  H8  3BV d   1      59.766-136.155  26.225  0.00  0.00     0.076 H 
ATOM     23  H9  3BV d   1      58.267-137.010  26.725  0.00  0.00     0.076 H 
ATOM     24  C2  3BV d   1      57.004-134.982  27.715  0.00  0.00     0.042 C 
ATOM     25  C3  3BV d   1      57.378-135.149  29.109  0.00  0.00     0.103 C 
ATOM     26  H10 3BV d   1      56.383-135.828  27.388  0.00  0.00     0.076 H 
ATOM     27  H11 3BV d   1      56.444-134.044  27.585  0.00  0.00     0.076 H 
ATOM     28  H6  3BV d   1      57.912-134.252  29.457  0.00  0.00     0.079 H 
ATOM     29  H7  3BV d   1      56.474-135.296  29.718  0.00  0.00     0.079 H 
ATOM     30  H3  3BV d   1      57.724-137.125  28.912  0.00  0.00     0.280 HD
ENDBRANCH  13  16
ENDBRANCH  10  13
ENDBRANCH   7   9
BRANCH   7  31
ATOM     31  C12 3BV d   1      57.619-134.434  34.729  0.00  0.00    -0.034 C 
ATOM     32  H14 3BV d   1      57.994-134.430  35.763  0.00  0.00     0.037 H 
ATOM     33  H15 3BV d   1      56.976-135.313  34.575  0.00  0.00     0.037 H 
BRANCH  31  34
ATOM     34  C13 3BV d   1      56.835-133.163  34.457  0.00  0.00    -0.039 C 
ATOM     35  H16 3BV d   1      56.670-133.056  33.375  0.00  0.00     0.040 H 
ATOM     36  H17 3BV d   1      57.399-132.295  34.829  0.00  0.00     0.040 H 
BRANCH  34  37
ATOM     37  C14 3BV d   1      55.584-133.239  35.124  0.00  0.00    -0.058 A 
ATOM     38  C19 3BV d   1      54.446-132.710  34.509  0.00  0.00    -0.077 A 
ATOM     39  C18 3BV d   1      53.206-132.763  35.138  0.00  0.00    -0.082 A 
ATOM     40  H18 3BV d   1      54.530-132.253  33.530  0.00  0.00     0.084 H 
ATOM     41  C17 3BV d   1      53.081-133.339  36.397  0.00  0.00    -0.083 A 
ATOM     42  H20 3BV d   1      52.333-132.353  34.644  0.00  0.00     0.083 H 
ATOM     43  C16 3BV d   1      54.202-133.864  37.025  0.00  0.00    -0.082 A 
ATOM     44  H22 3BV d   1      52.114-133.378  36.885  0.00  0.00     0.083 H 
ATOM     45  C15 3BV d   1      55.441-133.809  36.396  0.00  0.00    -0.077 A 
ATOM     46  H21 3BV d   1      54.112-134.317  38.006  0.00  0.00     0.083 H 
ATOM     47  H19 3BV d   1      56.312-134.214  36.899  0.00  0.00     0.084 H 
ENDBRANCH  34  37
ENDBRANCH  31  34
ENDBRANCH   7  31
ENDBRANCH   4   7
ENDBRANCH   1   3
BRANCH   1  48
ATOM     48  C28 3BV d   1      61.334-134.539  37.434  0.00  0.00     0.241 C 
ATOM     49  O29 3BV d   1      60.553-133.732  37.934  0.00  0.00    -0.271 OA
ATOM     50  N30 3BV d   1      61.803-135.625  38.060  0.00  0.00    -0.346 N 
ATOM     51  H34 3BV d   1      62.415-136.247  37.572  0.00  0.00     0.163 HD
BRANCH  50  52
ATOM     52  C31 3BV d   1      61.436-135.920  39.450  0.00  0.00     0.093 C 
ATOM     53  H35 3BV d   1      60.743-135.147  39.814  0.00  0.00     0.088 H 
BRANCH  52  54
ATOM     54  C39 3BV d   1      62.714-135.888  40.276  0.00  0.00     0.241 C 
ATOM     55  O40 3BV d   1      63.816-135.958  39.736  0.00  0.00    -0.271 OA
ATOM     56  N41 3BV d   1      62.511-135.755  41.590  0.00  0.00    -0.352 N 
ATOM     57  H43 3BV d   1      61.569-135.764  41.927  0.00  0.00     0.163 HD
BRANCH  56  58
ATOM     58  C42 3BV d   1      63.594-135.596  42.563  0.00  0.00     0.037 C 
ATOM     59  H44 3BV d   1      64.576-135.687  42.076  0.00  0.00     0.076 H 
BRANCH  58  60
ATOM     60  C43 3BV d   1      63.373-134.209  43.135  0.00  0.00    -0.041 C 
ATOM     61  H45 3BV d   1      63.410-134.280  44.232  0.00  0.00     0.036 H 
ATOM     62  H46 3BV d   1      62.376-133.864  42.823  0.00  0.00     0.036 H 
BRANCH  60  63
ATOM     63  C44 3BV d   1      64.416-133.152  42.682  0.00  0.00    -0.059 C 
ATOM     64  H47 3BV d   1      65.275-133.208  43.367  0.00  0.00     0.038 H 
BRANCH  63  65
ATOM     65  C45 3BV d   1      63.753-131.770  42.809  0.00  0.00    -0.073 C 
ATOM     66  H48 3BV d   1      64.465-130.992  42.495  0.00  0.00     0.028 H 
ATOM     67  H49 3BV d   1      63.460-131.599  43.855  0.00  0.00     0.028 H 
ATOM     68  H50 3BV d   1      62.861-131.731  42.167  0.00  0.00     0.028 H 
ENDBRANCH  63  65
BRANCH  63  69
ATOM     69  C46 3BV d   1      64.952-133.317  41.245  0.00  0.00    -0.073 C 
ATOM     70  H51 3BV d   1      65.429-134.303  41.142  0.00  0.00     0.028 H 
ATOM     71  H52 3BV d   1      65.691-132.529  41.036  0.00  0.00     0.028 H 
ATOM     72  H53 3BV d   1      64.119-133.237  40.531  0.00  0.00     0.028 H 
ENDBRANCH  63  69
ENDBRANCH  60  63
ENDBRANCH  58  60
BRANCH  58  73
ATOM     73  C47 3BV d   1      63.480-136.601  43.728  0.00  0.00     0.060 C 
ATOM     74  H54 3BV d   1      64.210-136.287  44.489  0.00  0.00     0.086 H 
BRANCH  73  75
ATOM     75  C51 3BV d   1      63.792-138.139  43.416  0.00  0.00    -0.010 C 
ATOM     76  H55 3BV d   1      64.177-138.645  44.313  0.00  0.00     0.046 H 
BRANCH  75  77
ATOM     77  C58 3BV d   1      64.780-138.279  42.221  0.00  0.00    -0.069 C 
ATOM     78  H56 3BV d   1      64.976-139.345  42.030  0.00  0.00     0.028 H 
ATOM     79  H57 3BV d   1      65.725-137.771  42.465  0.00  0.00     0.028 H 
ATOM     80  H58 3BV d   1      64.338-137.821  41.324  0.00  0.00     0.028 H 
ENDBRANCH  75  77
BRANCH  75  81
ATOM     81  C59 3BV d   1      62.496-138.781  42.907  0.00  0.00     0.022 C 
ATOM     82  H59 3BV d   1      62.717-139.563  42.166  0.00  0.00     0.074 H 
ATOM     83  H60 3BV d   1      61.840-138.022  42.455  0.00  0.00     0.074 H 
BRANCH  81  84
ATOM     84  O60 3BV d   1      61.879-139.352  44.078  0.00  0.00    -0.400 OA
ATOM     85  H61 3BV d   1      62.464-139.996  44.461  0.00  0.00     0.209 HD
ENDBRANCH  81  84
ENDBRANCH  75  81
ENDBRANCH  73  75
BRANCH  73  86
ATOM     86  O48 3BV d   1      62.165-136.471  44.286  0.00  0.00    -0.393 OA
ATOM     87  H62 3BV d   1      62.114-136.971  45.092  0.00  0.00     0.210 HD
ENDBRANCH  73  86
ENDBRANCH  58  73
ENDBRANCH  56  58
ENDBRANCH  52  54
BRANCH  52  88
ATOM     88  C32 3BV d   1      60.771-137.260  39.577  0.00  0.00    -0.014 C 
ATOM     89  H36 3BV d   1      60.732-137.572  40.631  0.00  0.00     0.043 H 
ATOM     90  H37 3BV d   1      61.314-138.016  38.991  0.00  0.00     0.043 H 
BRANCH  88  91
ATOM     91  C33 3BV d   1      59.478-137.082  39.070  0.00  0.00    -0.056 A 
ATOM     92  C34 3BV d   1      59.167-137.480  37.773  0.00  0.00    -0.077 A 
ATOM     93  C35 3BV d   1      57.880-137.305  37.271  0.00  0.00    -0.082 A 
ATOM     94  H38 3BV d   1      59.932-137.929  37.150  0.00  0.00     0.084 H 
ATOM     95  C36 3BV d   1      56.894-136.728  38.064  0.00  0.00    -0.083 A 
ATOM     96  H40 3BV d   1      57.646-137.619  36.260  0.00  0.00     0.083 H 
ATOM     97  C37 3BV d   1      57.200-136.325  39.360  0.00  0.00    -0.082 A 
ATOM     98  H42 3BV d   1      55.892-136.593  37.674  0.00  0.00     0.083 H 
ATOM     99  C38 3BV d   1      58.486-136.503  39.861  0.00  0.00    -0.077 A 
ATOM    100  H41 3BV d   1      56.435-135.872  39.980  0.00  0.00     0.083 H 
ATOM    101  H39 3BV d   1      58.718-136.190  40.872  0.00  0.00     0.084 H 
ENDBRANCH  88  91
ENDBRANCH  52  88
ENDBRANCH  50  52
ENDBRANCH   1  48
BRANCH   1 102
ATOM    102  C24 3BV d   1      62.834-133.223  36.029  0.00  0.00    -0.035 C 
ATOM    103  H25 3BV d   1      63.586-133.401  36.812  0.00  0.00     0.037 H 
ATOM    104  H26 3BV d   1      62.328-132.265  36.217  0.00  0.00     0.037 H 
BRANCH 102 105
ATOM    105  C25 3BV d   1      63.506-133.204  34.644  0.00  0.00    -0.059 C 
ATOM    106  H27 3BV d   1      62.729-133.190  33.866  0.00  0.00     0.038 H 
BRANCH 105 107
ATOM    107  C26 3BV d   1      64.372-131.943  34.526  0.00  0.00    -0.073 C 
ATOM    108  H28 3BV d   1      64.856-131.922  33.538  0.00  0.00     0.028 H 
ATOM    109  H29 3BV d   1      65.142-131.952  35.312  0.00  0.00     0.028 H 
ATOM    110  H30 3BV d   1      63.739-131.051  34.643  0.00  0.00     0.028 H 
ENDBRANCH 105 107
BRANCH 105 111
ATOM    111  C27 3BV d   1      64.393-134.445  34.447  0.00  0.00    -0.073 C 
ATOM    112  H31 3BV d   1      63.777-135.353  34.531  0.00  0.00     0.028 H 
ATOM    113  H32 3BV d   1      65.177-134.462  35.218  0.00  0.00     0.028 H 
ATOM    114  H33 3BV d   1      64.859-134.408  33.451  0.00  0.00     0.028 H 
ENDBRANCH 105 111
ENDBRANCH 102 105
ENDBRANCH   1 102
TORSDOF 28
