REMARK  28 active torsions:
REMARK  status: ('A' for Active; 'I' for Inactive)
REMARK    1  A    between atoms: C7_3  and  C8_1 
REMARK       I    between atoms: C8_1  and  N10_10 
REMARK    2  A    between atoms: N4_4  and  C7_3 
REMARK    3  A    between atoms: N10_10  and  C11_11 
REMARK    4  A    between atoms: C11_11  and  C20_12 
REMARK    5  A    between atoms: C11_11  and  C12_14 
REMARK       I    between atoms: C20_12  and  N22_22 
REMARK    6  A    between atoms: C12_14  and  C13_15 
REMARK    7  A    between atoms: C13_15  and  C14_16 
REMARK    8  A    between atoms: N22_22  and  C23_23 
REMARK    9  A    between atoms: C23_23  and  C28_24 
REMARK   10  A    between atoms: C23_23  and  C24_26 
REMARK       I    between atoms: C28_24  and  N30_30 
REMARK   11  A    between atoms: C24_26  and  C25_27 
REMARK   12  A    between atoms: C25_27  and  C26_28 
REMARK   13  A    between atoms: C25_27  and  C27_29 
REMARK   14  A    between atoms: N30_30  and  C31_31 
REMARK   15  A    between atoms: C31_31  and  C39_32 
REMARK   16  A    between atoms: C31_31  and  C32_34 
REMARK       I    between atoms: C39_32  and  N41_41 
REMARK   17  A    between atoms: C32_34  and  C33_35 
REMARK   18  A    between atoms: N41_41  and  C42_42 
REMARK   19  A    between atoms: C42_42  and  C43_43 
REMARK   20  A    between atoms: C42_42  and  C47_47 
REMARK   21  A    between atoms: C43_43  and  C44_44 
REMARK   22  A    between atoms: C44_44  and  C45_45 
REMARK   23  A    between atoms: C44_44  and  C46_46 
REMARK   24  A    between atoms: C47_47  and  C51_48 
REMARK   25  A    between atoms: C47_47  and  O48_52 
REMARK   26  A    between atoms: C51_48  and  C58_49 
REMARK   27  A    between atoms: C51_48  and  C59_50 
REMARK   28  A    between atoms: C59_50  and  O60_51 
ROOT
ATOM      1  C23 3BV d   1      62.127-134.083  36.182  0.00  0.00     0.089 C 
ATOM      2  H24 3BV d   1      62.586-135.017  35.826  0.00  0.00     0.087 H 
ENDROOT
BRANCH   1   3
ATOM      3  N22 3BV d   1      60.986-133.734  35.335  0.00  0.00    -0.346 N 
ATOM      4  C20 3BV d   1      60.317-134.703  34.712  0.00  0.00     0.241 C 
ATOM      5  O21 3BV d   1      60.597-135.897  34.804  0.00  0.00    -0.271 OA
ATOM      6  H23 3BV d   1      60.712-132.779  35.225  0.00  0.00     0.163 HD
BRANCH   4   7
ATOM      7  C11 3BV d   1      59.113-134.263  33.902  0.00  0.00     0.089 C 
ATOM      8  H13 3BV d   1      59.255-133.262  33.468  0.00  0.00     0.087 H 
BRANCH   7   9
ATOM      9  N10 3BV d   1      58.910-135.272  32.866  0.00  0.00    -0.346 N 
ATOM     10  C8  3BV d   1      59.293-135.112  31.597  0.00  0.00     0.244 C 
ATOM     11  O9  3BV d   1      59.851-134.105  31.159  0.00  0.00    -0.272 OA
ATOM     12  H12 3BV d   1      58.460-136.128  33.120  0.00  0.00     0.163 HD
BRANCH  10  13
ATOM     13  C7  3BV d   1      58.998-136.348  30.725  0.00  0.00     0.156 C 
ATOM     14  H1  3BV d   1      58.208-136.931  31.220  0.00  0.00     0.090 H 
ATOM     15  H2  3BV d   1      59.917-136.950  30.669  0.00  0.00     0.090 H 
BRANCH  13  16
ATOM     16  N4  3BV d   1      58.553-136.062  29.336  0.00  0.00    -0.059 N 
ATOM     17  C5  3BV d   1      59.710-135.963  28.408  0.00  0.00     0.103 C 
ATOM     18  C6  3BV d   1      59.153-135.844  27.030  0.00  0.00     0.042 C 
ATOM     19  H4  3BV d   1      60.336-136.864  28.486  0.00  0.00     0.079 H 
ATOM     20  H5  3BV d   1      60.313-135.076  28.650  0.00  0.00     0.079 H 
ATOM     21  O1  3BV d   1      58.480-134.603  27.067  0.00  0.00    -0.388 OA
ATOM     22  H8  3BV d   1      59.956-135.836  26.278  0.00  0.00     0.076 H 
ATOM     23  H9  3BV d   1      58.455-136.666  26.813  0.00  0.00     0.076 H 
ATOM     24  C2  3BV d   1      57.254-134.653  27.846  0.00  0.00     0.042 C 
ATOM     25  C3  3BV d   1      57.620-134.903  29.236  0.00  0.00     0.103 C 
ATOM     26  H10 3BV d   1      56.609-135.464  27.477  0.00  0.00     0.076 H 
ATOM     27  H11 3BV d   1      56.720-133.695  27.766  0.00  0.00     0.076 H 
ATOM     28  H6  3BV d   1      58.111-134.008  29.646  0.00  0.00     0.079 H 
ATOM     29  H7  3BV d   1      56.711-135.121  29.815  0.00  0.00     0.079 H 
ATOM     30  H3  3BV d   1      58.023-136.867  29.040  0.00  0.00     0.280 HD
ENDBRANCH  13  16
ENDBRANCH  10  13
ENDBRANCH   7   9
BRANCH   7  31
ATOM     31  C12 3BV d   1      57.931-134.300  34.830  0.00  0.00    -0.034 C 
ATOM     32  H14 3BV d   1      58.269-134.311  35.877  0.00  0.00     0.037 H 
ATOM     33  H15 3BV d   1      57.320-135.193  34.633  0.00  0.00     0.037 H 
BRANCH  31  34
ATOM     34  C13 3BV d   1      57.131-133.044  34.550  0.00  0.00    -0.039 C 
ATOM     35  H16 3BV d   1      56.942-132.965  33.469  0.00  0.00     0.040 H 
ATOM     36  H17 3BV d   1      57.701-132.166  34.888  0.00  0.00     0.040 H 
BRANCH  34  37
ATOM     37  C14 3BV d   1      55.893-133.095  35.241  0.00  0.00    -0.058 A 
ATOM     38  C19 3BV d   1      54.809-132.387  34.719  0.00  0.00    -0.077 A 
ATOM     39  C18 3BV d   1      53.573-132.396  35.361  0.00  0.00    -0.082 A 
ATOM     40  H18 3BV d   1      54.931-131.823  33.802  0.00  0.00     0.084 H 
ATOM     41  C17 3BV d   1      53.399-133.109  36.542  0.00  0.00    -0.083 A 
ATOM     42  H20 3BV d   1      52.742-131.844  34.938  0.00  0.00     0.083 H 
ATOM     43  C16 3BV d   1      54.467-133.813  37.080  0.00  0.00    -0.082 A 
ATOM     44  H22 3BV d   1      52.436-133.115  37.039  0.00  0.00     0.083 H 
ATOM     45  C15 3BV d   1      55.702-133.801  36.437  0.00  0.00    -0.077 A 
ATOM     46  H21 3BV d   1      54.340-134.372  38.000  0.00  0.00     0.083 H 
ATOM     47  H19 3BV d   1      56.532-134.348  36.870  0.00  0.00     0.084 H 
ENDBRANCH  34  37
ENDBRANCH  31  34
ENDBRANCH   7  31
ENDBRANCH   4   7
ENDBRANCH   1   3
BRANCH   1  48
ATOM     48  C28 3BV d   1      61.605-134.254  37.599  0.00  0.00     0.241 C 
ATOM     49  O29 3BV d   1      60.828-133.429  38.082  0.00  0.00    -0.271 OA
ATOM     50  N30 3BV d   1      62.052-135.357  38.218  0.00  0.00    -0.346 N 
ATOM     51  H34 3BV d   1      62.652-135.981  37.718  0.00  0.00     0.163 HD
BRANCH  50  52
ATOM     52  C31 3BV d   1      61.692-135.679  39.599  0.00  0.00     0.093 C 
ATOM     53  H35 3BV d   1      60.995-134.922  39.988  0.00  0.00     0.088 H 
BRANCH  52  54
ATOM     54  C39 3BV d   1      62.978-135.664  40.403  0.00  0.00     0.241 C 
ATOM     55  O40 3BV d   1      64.072-135.684  39.838  0.00  0.00    -0.271 OA
ATOM     56  N41 3BV d   1      62.794-135.607  41.726  0.00  0.00    -0.352 N 
ATOM     57  H43 3BV d   1      61.863-135.679  42.085  0.00  0.00     0.163 HD
BRANCH  56  58
ATOM     58  C42 3BV d   1      63.897-135.444  42.668  0.00  0.00     0.037 C 
ATOM     59  H44 3BV d   1      64.868-135.566  42.165  0.00  0.00     0.076 H 
BRANCH  58  60
ATOM     60  C43 3BV d   1      63.685-134.026  43.169  0.00  0.00    -0.041 C 
ATOM     61  H45 3BV d   1      63.627-134.043  44.267  0.00  0.00     0.036 H 
ATOM     62  H46 3BV d   1      62.739-133.643  42.758  0.00  0.00     0.036 H 
BRANCH  60  63
ATOM     63  C44 3BV d   1      64.830-133.080  42.747  0.00  0.00    -0.059 C 
ATOM     64  H47 3BV d   1      65.756-133.392  43.252  0.00  0.00     0.038 H 
BRANCH  63  65
ATOM     65  C45 3BV d   1      64.441-131.661  43.197  0.00  0.00    -0.073 C 
ATOM     66  H48 3BV d   1      65.236-130.956  42.913  0.00  0.00     0.028 H 
ATOM     67  H49 3BV d   1      64.310-131.645  44.289  0.00  0.00     0.028 H 
ATOM     68  H50 3BV d   1      63.499-131.368  42.711  0.00  0.00     0.028 H 
ENDBRANCH  63  65
BRANCH  63  69
ATOM     69  C46 3BV d   1      65.076-133.067  41.229  0.00  0.00    -0.073 C 
ATOM     70  H51 3BV d   1      65.355-134.077  40.894  0.00  0.00     0.028 H 
ATOM     71  H52 3BV d   1      65.890-132.365  40.995  0.00  0.00     0.028 H 
ATOM     72  H53 3BV d   1      64.159-132.750  40.712  0.00  0.00     0.028 H 
ENDBRANCH  63  69
ENDBRANCH  60  63
ENDBRANCH  58  60
BRANCH  58  73
ATOM     73  C47 3BV d   1      63.810-136.398  43.884  0.00  0.00     0.060 C 
ATOM     74  H54 3BV d   1      64.515-136.022  44.640  0.00  0.00     0.086 H 
BRANCH  73  75
ATOM     75  C51 3BV d   1      64.182-137.924  43.628  0.00  0.00    -0.010 C 
ATOM     76  H55 3BV d   1      64.427-138.426  44.576  0.00  0.00     0.046 H 
BRANCH  75  77
ATOM     77  C58 3BV d   1      65.399-138.012  42.662  0.00  0.00    -0.069 C 
ATOM     78  H56 3BV d   1      65.653-139.068  42.488  0.00  0.00     0.028 H 
ATOM     79  H57 3BV d   1      66.261-137.497  43.111  0.00  0.00     0.028 H 
ATOM     80  H58 3BV d   1      65.143-137.534  41.705  0.00  0.00     0.028 H 
ENDBRANCH  75  77
BRANCH  75  81
ATOM     81  C59 3BV d   1      62.926-138.565  42.989  0.00  0.00     0.022 C 
ATOM     82  H59 3BV d   1      62.292-137.779  42.553  0.00  0.00     0.074 H 
ATOM     83  H60 3BV d   1      62.358-139.110  43.758  0.00  0.00     0.074 H 
BRANCH  81  84
ATOM     84  O60 3BV d   1      63.338-139.475  41.961  0.00  0.00    -0.400 OA
ATOM     85  H61 3BV d   1      63.829-139.002  41.299  0.00  0.00     0.209 HD
ENDBRANCH  81  84
ENDBRANCH  75  81
ENDBRANCH  73  75
BRANCH  73  86
ATOM     86  O48 3BV d   1      62.487-136.312  44.415  0.00  0.00    -0.393 OA
ATOM     87  H62 3BV d   1      62.444-136.790  45.235  0.00  0.00     0.210 HD
ENDBRANCH  73  86
ENDBRANCH  58  73
ENDBRANCH  56  58
ENDBRANCH  52  54
BRANCH  52  88
ATOM     88  C32 3BV d   1      61.053-137.027  39.692  0.00  0.00    -0.014 C 
ATOM     89  H36 3BV d   1      61.057-137.384  40.732  0.00  0.00     0.043 H 
ATOM     90  H37 3BV d   1      61.583-137.750  39.054  0.00  0.00     0.043 H 
BRANCH  88  91
ATOM     91  C33 3BV d   1      59.743-136.846  39.242  0.00  0.00    -0.056 A 
ATOM     92  C34 3BV d   1      59.392-137.202  37.941  0.00  0.00    -0.077 A 
ATOM     93  C35 3BV d   1      58.086-137.025  37.494  0.00  0.00    -0.082 A 
ATOM     94  H38 3BV d   1      60.139-137.618  37.275  0.00  0.00     0.084 H 
ATOM     95  C36 3BV d   1      57.126-136.489  38.347  0.00  0.00    -0.083 A 
ATOM     96  H40 3BV d   1      57.817-137.304  36.482  0.00  0.00     0.083 H 
ATOM     97  C37 3BV d   1      57.473-136.128  39.645  0.00  0.00    -0.082 A 
ATOM     98  H42 3BV d   1      56.108-136.353  38.000  0.00  0.00     0.083 H 
ATOM     99  C38 3BV d   1      58.778-136.308  40.093  0.00  0.00    -0.077 A 
ATOM    100  H41 3BV d   1      56.726-135.706  40.308  0.00  0.00     0.083 H 
ATOM    101  H39 3BV d   1      59.045-136.029  41.106  0.00  0.00     0.084 H 
ENDBRANCH  88  91
ENDBRANCH  52  88
ENDBRANCH  50  52
ENDBRANCH   1  48
BRANCH   1 102
ATOM    102  C24 3BV d   1      63.149-132.986  36.186  0.00  0.00    -0.035 C 
ATOM    103  H25 3BV d   1      63.852-133.120  37.022  0.00  0.00     0.037 H 
ATOM    104  H26 3BV d   1      62.658-132.005  36.273  0.00  0.00     0.037 H 
BRANCH 102 105
ATOM    105  C25 3BV d   1      63.888-133.098  34.841  0.00  0.00    -0.059 C 
ATOM    106  H27 3BV d   1      63.154-133.290  34.044  0.00  0.00     0.038 H 
BRANCH 105 107
ATOM    107  C26 3BV d   1      64.614-131.778  34.549  0.00  0.00    -0.073 C 
ATOM    108  H28 3BV d   1      65.143-131.856  33.588  0.00  0.00     0.028 H 
ATOM    109  H29 3BV d   1      65.338-131.573  35.351  0.00  0.00     0.028 H 
ATOM    110  H30 3BV d   1      63.881-130.959  34.499  0.00  0.00     0.028 H 
ENDBRANCH 105 107
BRANCH 105 111
ATOM    111  C27 3BV d   1      64.897-134.255  34.876  0.00  0.00    -0.073 C 
ATOM    112  H31 3BV d   1      64.368-135.196  35.086  0.00  0.00     0.028 H 
ATOM    113  H32 3BV d   1      65.641-134.069  35.664  0.00  0.00     0.028 H 
ATOM    114  H33 3BV d   1      65.404-134.328  33.903  0.00  0.00     0.028 H 
ENDBRANCH 105 111
ENDBRANCH 102 105
ENDBRANCH   1 102
TORSDOF 28
