REMARK  28 active torsions:
REMARK  status: ('A' for Active; 'I' for Inactive)
REMARK    1  A    between atoms: C7_3  and  C8_1 
REMARK       I    between atoms: C8_1  and  N10_10 
REMARK    2  A    between atoms: N4_4  and  C7_3 
REMARK    3  A    between atoms: N10_10  and  C11_11 
REMARK    4  A    between atoms: C11_11  and  C20_12 
REMARK    5  A    between atoms: C11_11  and  C12_14 
REMARK       I    between atoms: C20_12  and  N22_22 
REMARK    6  A    between atoms: C12_14  and  C13_15 
REMARK    7  A    between atoms: C13_15  and  C14_16 
REMARK    8  A    between atoms: N22_22  and  C23_23 
REMARK    9  A    between atoms: C23_23  and  C28_24 
REMARK   10  A    between atoms: C23_23  and  C24_26 
REMARK       I    between atoms: C28_24  and  N30_30 
REMARK   11  A    between atoms: C24_26  and  C25_27 
REMARK   12  A    between atoms: C25_27  and  C26_28 
REMARK   13  A    between atoms: C25_27  and  C27_29 
REMARK   14  A    between atoms: N30_30  and  C31_31 
REMARK   15  A    between atoms: C31_31  and  C39_32 
REMARK   16  A    between atoms: C31_31  and  C32_34 
REMARK       I    between atoms: C39_32  and  N41_41 
REMARK   17  A    between atoms: C32_34  and  C33_35 
REMARK   18  A    between atoms: N41_41  and  C42_42 
REMARK   19  A    between atoms: C42_42  and  C43_43 
REMARK   20  A    between atoms: C42_42  and  C47_47 
REMARK   21  A    between atoms: C43_43  and  C44_44 
REMARK   22  A    between atoms: C44_44  and  C45_45 
REMARK   23  A    between atoms: C44_44  and  C46_46 
REMARK   24  A    between atoms: C47_47  and  C51_48 
REMARK   25  A    between atoms: C47_47  and  O48_52 
REMARK   26  A    between atoms: C51_48  and  C58_49 
REMARK   27  A    between atoms: C51_48  and  C59_50 
REMARK   28  A    between atoms: C59_50  and  O60_51 
ROOT
ATOM      1  C23 3BV d   1      62.439-135.405  36.346  0.00  0.00     0.089 C 
ATOM      2  H24 3BV d   1      62.906-136.322  35.956  0.00  0.00     0.087 H 
ENDROOT
BRANCH   1   3
ATOM      3  N22 3BV d   1      61.295-135.034  35.516  0.00  0.00    -0.346 N 
ATOM      4  C20 3BV d   1      60.612-135.964  34.844  0.00  0.00     0.241 C 
ATOM      5  O21 3BV d   1      60.872-137.167  34.856  0.00  0.00    -0.271 OA
ATOM      6  H23 3BV d   1      61.021-134.075  35.451  0.00  0.00     0.163 HD
BRANCH   4   7
ATOM      7  C11 3BV d   1      59.407-135.447  34.088  0.00  0.00     0.089 C 
ATOM      8  H13 3BV d   1      59.606-134.471  33.622  0.00  0.00     0.087 H 
BRANCH   7   9
ATOM      9  N10 3BV d   1      59.081-136.450  33.072  0.00  0.00    -0.346 N 
ATOM     10  C8  3BV d   1      59.675-136.457  31.871  0.00  0.00     0.244 C 
ATOM     11  O9  3BV d   1      60.504-135.623  31.506  0.00  0.00    -0.272 OA
ATOM     12  H12 3BV d   1      58.397-137.149  33.280  0.00  0.00     0.163 HD
BRANCH  10  13
ATOM     13  C7  3BV d   1      59.249-137.628  30.967  0.00  0.00     0.156 C 
ATOM     14  H1  3BV d   1      58.384-138.123  31.431  0.00  0.00     0.090 H 
ATOM     15  H2  3BV d   1      60.088-138.337  30.905  0.00  0.00     0.090 H 
BRANCH  13  16
ATOM     16  N4  3BV d   1      58.872-137.235  29.587  0.00  0.00    -0.059 N 
ATOM     17  C5  3BV d   1      60.048-137.056  28.697  0.00  0.00     0.103 C 
ATOM     18  C6  3BV d   1      59.509-136.928  27.310  0.00  0.00     0.042 C 
ATOM     19  H4  3BV d   1      60.715-137.928  28.767  0.00  0.00     0.079 H 
ATOM     20  H5  3BV d   1      60.602-136.147  28.976  0.00  0.00     0.079 H 
ATOM     21  O1  3BV d   1      58.752-135.729  27.364  0.00  0.00    -0.388 OA
ATOM     22  H8  3BV d   1      60.324-136.847  26.576  0.00  0.00     0.076 H 
ATOM     23  H9  3BV d   1      58.870-137.786  27.055  0.00  0.00     0.076 H 
ATOM     24  C2  3BV d   1      57.547-135.843  28.171  0.00  0.00     0.042 C 
ATOM     25  C3  3BV d   1      57.972-136.052  29.548  0.00  0.00     0.103 C 
ATOM     26  H10 3BV d   1      56.943-136.696  27.829  0.00  0.00     0.076 H 
ATOM     27  H11 3BV d   1      56.953-134.920  28.095  0.00  0.00     0.076 H 
ATOM     28  H6  3BV d   1      58.510-135.163  29.910  0.00  0.00     0.079 H 
ATOM     29  H7  3BV d   1      57.093-136.232  30.185  0.00  0.00     0.079 H 
ATOM     30  H3  3BV d   1      58.344-138.007  29.210  0.00  0.00     0.280 HD
ENDBRANCH  13  16
ENDBRANCH  10  13
ENDBRANCH   7   9
BRANCH   7  31
ATOM     31  C12 3BV d   1      58.303-135.343  35.105  0.00  0.00    -0.034 C 
ATOM     32  H14 3BV d   1      58.712-135.053  36.084  0.00  0.00     0.037 H 
ATOM     33  H15 3BV d   1      57.778-136.305  35.198  0.00  0.00     0.037 H 
BRANCH  31  34
ATOM     34  C13 3BV d   1      57.355-134.274  34.594  0.00  0.00    -0.039 C 
ATOM     35  H16 3BV d   1      57.137-134.460  33.532  0.00  0.00     0.040 H 
ATOM     36  H17 3BV d   1      57.828-133.287  34.704  0.00  0.00     0.040 H 
BRANCH  34  37
ATOM     37  C14 3BV d   1      56.141-134.296  35.332  0.00  0.00    -0.058 A 
ATOM     38  C19 3BV d   1      55.039-133.633  34.787  0.00  0.00    -0.077 A 
ATOM     39  C18 3BV d   1      53.815-133.602  35.452  0.00  0.00    -0.082 A 
ATOM     40  H18 3BV d   1      55.138-133.134  33.830  0.00  0.00     0.084 H 
ATOM     41  C17 3BV d   1      53.673-134.232  36.684  0.00  0.00    -0.083 A 
ATOM     42  H20 3BV d   1      52.971-133.086  35.008  0.00  0.00     0.083 H 
ATOM     43  C16 3BV d   1      54.760-134.891  37.246  0.00  0.00    -0.082 A 
ATOM     44  H22 3BV d   1      52.721-134.209  37.202  0.00  0.00     0.083 H 
ATOM     45  C15 3BV d   1      55.983-134.920  36.581  0.00  0.00    -0.077 A 
ATOM     46  H21 3BV d   1      54.655-135.384  38.206  0.00  0.00     0.083 H 
ATOM     47  H19 3BV d   1      56.825-135.431  37.033  0.00  0.00     0.084 H 
ENDBRANCH  34  37
ENDBRANCH  31  34
ENDBRANCH   7  31
ENDBRANCH   4   7
ENDBRANCH   1   3
BRANCH   1  48
ATOM     48  C28 3BV d   1      61.918-135.633  37.762  0.00  0.00     0.241 C 
ATOM     49  O29 3BV d   1      61.049-134.898  38.233  0.00  0.00    -0.271 OA
ATOM     50  N30 3BV d   1      62.472-136.678  38.399  0.00  0.00    -0.346 N 
ATOM     51  H34 3BV d   1      63.161-137.222  37.921  0.00  0.00     0.163 HD
BRANCH  50  52
ATOM     52  C31 3BV d   1      62.104-137.052  39.772  0.00  0.00     0.093 C 
ATOM     53  H35 3BV d   1      61.413-136.305  40.190  0.00  0.00     0.088 H 
BRANCH  52  54
ATOM     54  C39 3BV d   1      63.388-137.083  40.604  0.00  0.00     0.241 C 
ATOM     55  O40 3BV d   1      64.483-137.207  40.056  0.00  0.00    -0.271 OA
ATOM     56  N41 3BV d   1      63.205-136.939  41.927  0.00  0.00    -0.352 N 
ATOM     57  H43 3BV d   1      62.268-136.925  42.276  0.00  0.00     0.163 HD
BRANCH  56  58
ATOM     58  C42 3BV d   1      64.309-136.801  42.890  0.00  0.00     0.037 C 
ATOM     59  H44 3BV d   1      65.280-136.923  42.388  0.00  0.00     0.076 H 
BRANCH  58  60
ATOM     60  C43 3BV d   1      64.115-135.390  43.426  0.00  0.00    -0.041 C 
ATOM     61  H45 3BV d   1      64.161-135.432  44.524  0.00  0.00     0.036 H 
ATOM     62  H46 3BV d   1      63.121-135.039  43.114  0.00  0.00     0.036 H 
BRANCH  60  63
ATOM     63  C44 3BV d   1      65.170-134.356  42.936  0.00  0.00    -0.059 C 
ATOM     64  H47 3BV d   1      66.027-134.400  43.624  0.00  0.00     0.038 H 
BRANCH  63  65
ATOM     65  C45 3BV d   1      64.528-132.955  43.014  0.00  0.00    -0.073 C 
ATOM     66  H48 3BV d   1      65.252-132.200  42.673  0.00  0.00     0.028 H 
ATOM     67  H49 3BV d   1      64.239-132.742  44.053  0.00  0.00     0.028 H 
ATOM     68  H50 3BV d   1      63.636-132.924  42.371  0.00  0.00     0.028 H 
ENDBRANCH  63  65
BRANCH  63  69
ATOM     69  C46 3BV d   1      65.710-134.572  41.505  0.00  0.00    -0.073 C 
ATOM     70  H51 3BV d   1      66.171-135.568  41.434  0.00  0.00     0.028 H 
ATOM     71  H52 3BV d   1      66.462-133.802  41.277  0.00  0.00     0.028 H 
ATOM     72  H53 3BV d   1      64.881-134.500  40.785  0.00  0.00     0.028 H 
ENDBRANCH  63  69
ENDBRANCH  60  63
ENDBRANCH  58  60
BRANCH  58  73
ATOM     73  C47 3BV d   1      64.217-137.769  44.099  0.00  0.00     0.060 C 
ATOM     74  H54 3BV d   1      64.942-137.411  44.844  0.00  0.00     0.086 H 
BRANCH  73  75
ATOM     75  C51 3BV d   1      64.555-139.344  43.865  0.00  0.00    -0.010 C 
ATOM     76  H55 3BV d   1      65.138-139.744  44.708  0.00  0.00     0.046 H 
BRANCH  75  77
ATOM     77  C58 3BV d   1      65.289-139.573  42.504  0.00  0.00    -0.069 C 
ATOM     78  H56 3BV d   1      65.502-140.645  42.378  0.00  0.00     0.028 H 
ATOM     79  H57 3BV d   1      66.233-139.008  42.497  0.00  0.00     0.028 H 
ATOM     80  H58 3BV d   1      64.649-139.227  41.679  0.00  0.00     0.028 H 
ENDBRANCH  75  77
BRANCH  75  81
ATOM     81  C59 3BV d   1      63.227-140.082  43.678  0.00  0.00     0.022 C 
ATOM     82  H59 3BV d   1      63.373-141.008  43.102  0.00  0.00     0.074 H 
ATOM     83  H60 3BV d   1      62.495-139.442  43.164  0.00  0.00     0.074 H 
BRANCH  81  84
ATOM     84  O60 3BV d   1      62.793-140.378  45.018  0.00  0.00    -0.400 OA
ATOM     85  H61 3BV d   1      62.685-139.567  45.501  0.00  0.00     0.209 HD
ENDBRANCH  81  84
ENDBRANCH  75  81
ENDBRANCH  73  75
BRANCH  73  86
ATOM     86  O48 3BV d   1      62.895-137.624  44.647  0.00  0.00    -0.393 OA
ATOM     87  H62 3BV d   1      62.846-138.081  45.478  0.00  0.00     0.210 HD
ENDBRANCH  73  86
ENDBRANCH  58  73
ENDBRANCH  56  58
ENDBRANCH  52  54
BRANCH  52  88
ATOM     88  C32 3BV d   1      61.430-138.396  39.761  0.00  0.00    -0.014 C 
ATOM     89  H36 3BV d   1      61.456-138.845  40.765  0.00  0.00     0.043 H 
ATOM     90  H37 3BV d   1      61.927-139.068  39.046  0.00  0.00     0.043 H 
BRANCH  88  91
ATOM     91  C33 3BV d   1      60.103-138.158  39.366  0.00  0.00    -0.056 A 
ATOM     92  C34 3BV d   1      59.650-138.533  38.098  0.00  0.00    -0.077 A 
ATOM     93  C35 3BV d   1      58.329-138.292  37.723  0.00  0.00    -0.082 A 
ATOM     94  H38 3BV d   1      60.329-139.013  37.403  0.00  0.00     0.084 H 
ATOM     95  C36 3BV d   1      57.450-137.676  38.608  0.00  0.00    -0.083 A 
ATOM     96  H40 3BV d   1      57.985-138.586  36.738  0.00  0.00     0.083 H 
ATOM     97  C37 3BV d   1      57.896-137.301  39.870  0.00  0.00    -0.082 A 
ATOM     98  H42 3BV d   1      56.423-137.489  38.315  0.00  0.00     0.083 H 
ATOM     99  C38 3BV d   1      59.214-137.543  40.247  0.00  0.00    -0.077 A 
ATOM    100  H41 3BV d   1      57.216-136.819  40.562  0.00  0.00     0.083 H 
ATOM    101  H39 3BV d   1      59.552-137.251  41.234  0.00  0.00     0.084 H 
ENDBRANCH  88  91
ENDBRANCH  52  88
ENDBRANCH  50  52
ENDBRANCH   1  48
BRANCH   1 102
ATOM    102  C24 3BV d   1      63.452-134.294  36.380  0.00  0.00    -0.035 C 
ATOM    103  H25 3BV d   1      64.159-134.453  37.207  0.00  0.00     0.037 H 
ATOM    104  H26 3BV d   1      62.946-133.326  36.511  0.00  0.00     0.037 H 
BRANCH 102 105
ATOM    105  C25 3BV d   1      64.198-134.322  35.034  0.00  0.00    -0.059 C 
ATOM    106  H27 3BV d   1      63.467-134.240  34.216  0.00  0.00     0.038 H 
BRANCH 105 107
ATOM    107  C26 3BV d   1      65.160-133.126  34.983  0.00  0.00    -0.073 C 
ATOM    108  H28 3BV d   1      65.702-133.132  34.026  0.00  0.00     0.028 H 
ATOM    109  H29 3BV d   1      65.880-133.199  35.812  0.00  0.00     0.028 H 
ATOM    110  H30 3BV d   1      64.588-132.191  35.075  0.00  0.00     0.028 H 
ENDBRANCH 105 107
BRANCH 105 111
ATOM    111  C27 3BV d   1      64.999-135.625  34.859  0.00  0.00    -0.073 C 
ATOM    112  H31 3BV d   1      64.313-136.484  34.895  0.00  0.00     0.028 H 
ATOM    113  H32 3BV d   1      65.739-135.712  35.668  0.00  0.00     0.028 H 
ATOM    114  H33 3BV d   1      65.517-135.609  33.889  0.00  0.00     0.028 H 
ENDBRANCH 105 111
ENDBRANCH 102 105
ENDBRANCH   1 102
TORSDOF 28
