REMARK  28 active torsions:
REMARK  status: ('A' for Active; 'I' for Inactive)
REMARK    1  A    between atoms: C7_3  and  C8_1 
REMARK       I    between atoms: C8_1  and  N10_10 
REMARK    2  A    between atoms: N4_4  and  C7_3 
REMARK    3  A    between atoms: N10_10  and  C11_11 
REMARK    4  A    between atoms: C11_11  and  C20_12 
REMARK    5  A    between atoms: C11_11  and  C12_14 
REMARK       I    between atoms: C20_12  and  N22_22 
REMARK    6  A    between atoms: C12_14  and  C13_15 
REMARK    7  A    between atoms: C13_15  and  C14_16 
REMARK    8  A    between atoms: N22_22  and  C23_23 
REMARK    9  A    between atoms: C23_23  and  C28_24 
REMARK   10  A    between atoms: C23_23  and  C24_26 
REMARK       I    between atoms: C28_24  and  N30_30 
REMARK   11  A    between atoms: C24_26  and  C25_27 
REMARK   12  A    between atoms: C25_27  and  C26_28 
REMARK   13  A    between atoms: C25_27  and  C27_29 
REMARK   14  A    between atoms: N30_30  and  C31_31 
REMARK   15  A    between atoms: C31_31  and  C39_32 
REMARK   16  A    between atoms: C31_31  and  C32_34 
REMARK       I    between atoms: C39_32  and  N41_41 
REMARK   17  A    between atoms: C32_34  and  C33_35 
REMARK   18  A    between atoms: N41_41  and  C42_42 
REMARK   19  A    between atoms: C42_42  and  C43_43 
REMARK   20  A    between atoms: C42_42  and  C47_47 
REMARK   21  A    between atoms: C43_43  and  C44_44 
REMARK   22  A    between atoms: C44_44  and  C45_45 
REMARK   23  A    between atoms: C44_44  and  C46_46 
REMARK   24  A    between atoms: C47_47  and  C51_48 
REMARK   25  A    between atoms: C47_47  and  O48_52 
REMARK   26  A    between atoms: C51_48  and  C58_49 
REMARK   27  A    between atoms: C51_48  and  C59_50 
REMARK   28  A    between atoms: C59_50  and  O60_51 
ROOT
ATOM      1  C23 3BV d   1      61.952-134.385  36.087  0.00  0.00     0.089 C 
ATOM      2  H24 3BV d   1      62.452-135.279  35.685  0.00  0.00     0.087 H 
ENDROOT
BRANCH   1   3
ATOM      3  N22 3BV d   1      60.766-134.068  35.292  0.00  0.00    -0.346 N 
ATOM      4  C20 3BV d   1      60.109-135.029  34.638  0.00  0.00     0.241 C 
ATOM      5  O21 3BV d   1      60.446-136.213  34.627  0.00  0.00    -0.271 OA
ATOM      6  H23 3BV d   1      60.444-133.123  35.238  0.00  0.00     0.163 HD
BRANCH   4   7
ATOM      7  C11 3BV d   1      58.855-134.574  33.905  0.00  0.00     0.089 C 
ATOM      8  H13 3BV d   1      59.003-133.591  33.435  0.00  0.00     0.087 H 
BRANCH   7   9
ATOM      9  N10 3BV d   1      58.555-135.592  32.901  0.00  0.00    -0.346 N 
ATOM     10  C8  3BV d   1      59.138-135.593  31.700  0.00  0.00     0.244 C 
ATOM     11  O9  3BV d   1      59.945-134.741  31.329  0.00  0.00    -0.272 OA
ATOM     12  H12 3BV d   1      57.893-136.309  33.120  0.00  0.00     0.163 HD
BRANCH  10  13
ATOM     13  C7  3BV d   1      58.729-136.784  30.815  0.00  0.00     0.156 C 
ATOM     14  H1  3BV d   1      57.831-137.245  31.253  0.00  0.00     0.090 H 
ATOM     15  H2  3BV d   1      59.553-137.512  30.817  0.00  0.00     0.090 H 
BRANCH  13  16
ATOM     16  N4  3BV d   1      58.427-136.432  29.406  0.00  0.00    -0.059 N 
ATOM     17  C5  3BV d   1      59.652-136.330  28.569  0.00  0.00     0.103 C 
ATOM     18  C6  3BV d   1      59.185-136.243  27.151  0.00  0.00     0.042 C 
ATOM     19  H4  3BV d   1      60.284-137.220  28.708  0.00  0.00     0.079 H 
ATOM     20  H5  3BV d   1      60.223-135.429  28.838  0.00  0.00     0.079 H 
ATOM     21  O1  3BV d   1      58.460-135.023  27.119  0.00  0.00    -0.388 OA
ATOM     22  H8  3BV d   1      60.038-136.213  26.457  0.00  0.00     0.076 H 
ATOM     23  H9  3BV d   1      58.536-137.094  26.897  0.00  0.00     0.076 H 
ATOM     24  C2  3BV d   1      57.216-135.058  27.874  0.00  0.00     0.042 C 
ATOM     25  C3  3BV d   1      57.575-135.220  29.276  0.00  0.00     0.103 C 
ATOM     26  H10 3BV d   1      56.596-135.904  27.542  0.00  0.00     0.076 H 
ATOM     27  H11 3BV d   1      56.661-134.119  27.732  0.00  0.00     0.076 H 
ATOM     28  H6  3BV d   1      58.131-134.336  29.621  0.00  0.00     0.079 H 
ATOM     29  H7  3BV d   1      56.664-135.340  29.881  0.00  0.00     0.079 H 
ATOM     30  H3  3BV d   1      57.889-137.199  29.034  0.00  0.00     0.280 HD
ENDBRANCH  13  16
ENDBRANCH  10  13
ENDBRANCH   7   9
BRANCH   7  31
ATOM     31  C12 3BV d   1      57.731-134.523  34.909  0.00  0.00    -0.034 C 
ATOM     32  H14 3BV d   1      58.134-134.488  35.932  0.00  0.00     0.037 H 
ATOM     33  H15 3BV d   1      57.082-135.404  34.801  0.00  0.00     0.037 H 
BRANCH  31  34
ATOM     34  C13 3BV d   1      56.954-133.257  34.606  0.00  0.00    -0.039 C 
ATOM     35  H16 3BV d   1      56.828-133.155  33.518  0.00  0.00     0.040 H 
ATOM     36  H17 3BV d   1      57.503-132.387  34.995  0.00  0.00     0.040 H 
BRANCH  34  37
ATOM     37  C14 3BV d   1      55.680-133.328  35.225  0.00  0.00    -0.058 A 
ATOM     38  C19 3BV d   1      54.565-132.824  34.551  0.00  0.00    -0.077 A 
ATOM     39  C18 3BV d   1      53.299-132.868  35.132  0.00  0.00    -0.082 A 
ATOM     40  H18 3BV d   1      54.686-132.393  33.564  0.00  0.00     0.084 H 
ATOM     41  C17 3BV d   1      53.129-133.410  36.401  0.00  0.00    -0.083 A 
ATOM     42  H20 3BV d   1      52.444-132.478  34.592  0.00  0.00     0.083 H 
ATOM     43  C16 3BV d   1      54.229-133.908  37.086  0.00  0.00    -0.082 A 
ATOM     44  H22 3BV d   1      52.144-133.444  36.852  0.00  0.00     0.083 H 
ATOM     45  C15 3BV d   1      55.493-133.862  36.508  0.00  0.00    -0.077 A 
ATOM     46  H21 3BV d   1      54.102-134.334  38.075  0.00  0.00     0.083 H 
ATOM     47  H19 3BV d   1      56.346-134.244  37.057  0.00  0.00     0.084 H 
ENDBRANCH  34  37
ENDBRANCH  31  34
ENDBRANCH   7  31
ENDBRANCH   4   7
ENDBRANCH   1   3
BRANCH   1  48
ATOM     48  C28 3BV d   1      61.484-134.628  37.516  0.00  0.00     0.241 C 
ATOM     49  O29 3BV d   1      60.670-133.871  38.043  0.00  0.00    -0.271 OA
ATOM     50  N30 3BV d   1      62.007-135.708  38.111  0.00  0.00    -0.346 N 
ATOM     51  H34 3BV d   1      62.647-136.286  37.605  0.00  0.00     0.163 HD
BRANCH  50  52
ATOM     52  C31 3BV d   1      61.657-136.057  39.493  0.00  0.00     0.093 C 
ATOM     53  H35 3BV d   1      60.950-135.313  39.887  0.00  0.00     0.088 H 
BRANCH  52  54
ATOM     54  C39 3BV d   1      62.933-136.019  40.321  0.00  0.00     0.241 C 
ATOM     55  O40 3BV d   1      64.037-136.017  39.779  0.00  0.00    -0.271 OA
ATOM     56  N41 3BV d   1      62.723-135.958  41.640  0.00  0.00    -0.352 N 
ATOM     57  H43 3BV d   1      61.785-136.045  41.976  0.00  0.00     0.163 HD
BRANCH  56  58
ATOM     58  C42 3BV d   1      63.795-135.770  42.617  0.00  0.00     0.037 C 
ATOM     59  H44 3BV d   1      64.784-135.845  42.142  0.00  0.00     0.076 H 
BRANCH  58  60
ATOM     60  C43 3BV d   1      63.507-134.370  43.135  0.00  0.00    -0.041 C 
ATOM     61  H45 3BV d   1      63.419-134.417  44.230  0.00  0.00     0.036 H 
ATOM     62  H46 3BV d   1      62.553-134.031  42.705  0.00  0.00     0.036 H 
BRANCH  60  63
ATOM     63  C44 3BV d   1      64.599-133.331  42.778  0.00  0.00    -0.059 C 
ATOM     64  H47 3BV d   1      65.437-133.457  43.479  0.00  0.00     0.038 H 
BRANCH  63  65
ATOM     65  C45 3BV d   1      63.983-131.931  42.961  0.00  0.00    -0.073 C 
ATOM     66  H48 3BV d   1      64.734-131.165  42.715  0.00  0.00     0.028 H 
ATOM     67  H49 3BV d   1      63.660-131.806  44.005  0.00  0.00     0.028 H 
ATOM     68  H50 3BV d   1      63.116-131.822  42.293  0.00  0.00     0.028 H 
ENDBRANCH  63  65
BRANCH  63  69
ATOM     69  C46 3BV d   1      65.156-133.447  41.345  0.00  0.00    -0.073 C 
ATOM     70  H51 3BV d   1      65.599-134.444  41.203  0.00  0.00     0.028 H 
ATOM     71  H52 3BV d   1      65.927-132.678  41.188  0.00  0.00     0.028 H 
ATOM     72  H53 3BV d   1      64.340-133.302  40.622  0.00  0.00     0.028 H 
ENDBRANCH  63  69
ENDBRANCH  60  63
ENDBRANCH  58  60
BRANCH  58  73
ATOM     73  C47 3BV d   1      63.707-136.744  43.813  0.00  0.00     0.060 C 
ATOM     74  H54 3BV d   1      64.412-136.378  44.573  0.00  0.00     0.086 H 
BRANCH  73  75
ATOM     75  C51 3BV d   1      64.088-138.298  43.553  0.00  0.00    -0.010 C 
ATOM     76  H55 3BV d   1      64.467-138.756  44.478  0.00  0.00     0.046 H 
BRANCH  75  77
ATOM     77  C58 3BV d   1      65.119-138.431  42.393  0.00  0.00    -0.069 C 
ATOM     78  H56 3BV d   1      65.360-139.493  42.237  0.00  0.00     0.028 H 
ATOM     79  H57 3BV d   1      66.036-137.881  42.652  0.00  0.00     0.028 H 
ATOM     80  H58 3BV d   1      64.689-138.013  41.471  0.00  0.00     0.028 H 
ENDBRANCH  75  77
BRANCH  75  81
ATOM     81  C59 3BV d   1      62.849-139.034  43.023  0.00  0.00     0.022 C 
ATOM     82  H59 3BV d   1      63.041-140.116  42.984  0.00  0.00     0.074 H 
ATOM     83  H60 3BV d   1      62.595-138.670  42.017  0.00  0.00     0.074 H 
BRANCH  81  84
ATOM     84  O60 3BV d   1      61.775-138.758  43.931  0.00  0.00    -0.400 OA
ATOM     85  H61 3BV d   1      61.621-137.821  43.962  0.00  0.00     0.209 HD
ENDBRANCH  81  84
ENDBRANCH  75  81
ENDBRANCH  73  75
BRANCH  73  86
ATOM     86  O48 3BV d   1      62.378-136.642  44.344  0.00  0.00    -0.393 OA
ATOM     87  H62 3BV d   1      61.761-137.015  43.725  0.00  0.00     0.210 HD
ENDBRANCH  73  86
ENDBRANCH  58  73
ENDBRANCH  56  58
ENDBRANCH  52  54
BRANCH  52  88
ATOM     88  C32 3BV d   1      61.008-137.410  39.550  0.00  0.00    -0.014 C 
ATOM     89  H36 3BV d   1      61.019-137.802  40.578  0.00  0.00     0.043 H 
ATOM     90  H37 3BV d   1      61.524-138.116  38.883  0.00  0.00     0.043 H 
BRANCH  88  91
ATOM     91  C33 3BV d   1      59.690-137.193  39.117  0.00  0.00    -0.056 A 
ATOM     92  C34 3BV d   1      59.302-137.521  37.815  0.00  0.00    -0.077 A 
ATOM     93  C35 3BV d   1      57.990-137.301  37.395  0.00  0.00    -0.082 A 
ATOM     94  H38 3BV d   1      60.024-137.948  37.128  0.00  0.00     0.084 H 
ATOM     95  C36 3BV d   1      57.061-136.749  38.273  0.00  0.00    -0.083 A 
ATOM     96  H40 3BV d   1      57.694-137.560  36.385  0.00  0.00     0.083 H 
ATOM     97  C37 3BV d   1      57.444-136.417  39.570  0.00  0.00    -0.082 A 
ATOM     98  H42 3BV d   1      56.041-136.578  37.947  0.00  0.00     0.083 H 
ATOM     99  C38 3BV d   1      58.752-136.640  39.990  0.00  0.00    -0.077 A 
ATOM    100  H41 3BV d   1      56.722-135.984  40.253  0.00  0.00     0.083 H 
ATOM    101  H39 3BV d   1      59.044-136.382  41.002  0.00  0.00     0.084 H 
ENDBRANCH  88  91
ENDBRANCH  52  88
ENDBRANCH  50  52
ENDBRANCH   1  48
BRANCH   1 102
ATOM    102  C24 3BV d   1      62.904-133.224  36.096  0.00  0.00    -0.035 C 
ATOM    103  H25 3BV d   1      63.583-133.297  36.959  0.00  0.00     0.037 H 
ATOM    104  H26 3BV d   1      62.347-132.277  36.147  0.00  0.00     0.037 H 
BRANCH 102 105
ATOM    105  C25 3BV d   1      63.705-133.299  34.783  0.00  0.00    -0.059 C 
ATOM    106  H27 3BV d   1      63.005-133.434  33.945  0.00  0.00     0.038 H 
BRANCH 105 107
ATOM    107  C26 3BV d   1      64.473-131.983  34.594  0.00  0.00    -0.073 C 
ATOM    108  H28 3BV d   1      65.049-132.026  33.658  0.00  0.00     0.028 H 
ATOM    109  H29 3BV d   1      65.159-131.834  35.441  0.00  0.00     0.028 H 
ATOM    110  H30 3BV d   1      63.761-131.146  34.548  0.00  0.00     0.028 H 
ENDBRANCH 105 107
BRANCH 105 111
ATOM    111  C27 3BV d   1      64.693-134.479  34.799  0.00  0.00    -0.073 C 
ATOM    112  H31 3BV d   1      64.139-135.419  34.935  0.00  0.00     0.028 H 
ATOM    113  H32 3BV d   1      65.405-134.350  35.628  0.00  0.00     0.028 H 
ATOM    114  H33 3BV d   1      65.242-134.511  33.846  0.00  0.00     0.028 H 
ENDBRANCH 105 111
ENDBRANCH 102 105
ENDBRANCH   1 102
TORSDOF 28
