REMARK  28 active torsions:
REMARK  status: ('A' for Active; 'I' for Inactive)
REMARK    1  A    between atoms: C7_3  and  C8_1 
REMARK       I    between atoms: C8_1  and  N10_10 
REMARK    2  A    between atoms: N4_4  and  C7_3 
REMARK    3  A    between atoms: N10_10  and  C11_11 
REMARK    4  A    between atoms: C11_11  and  C20_12 
REMARK    5  A    between atoms: C11_11  and  C12_14 
REMARK       I    between atoms: C20_12  and  N22_22 
REMARK    6  A    between atoms: C12_14  and  C13_15 
REMARK    7  A    between atoms: C13_15  and  C14_16 
REMARK    8  A    between atoms: N22_22  and  C23_23 
REMARK    9  A    between atoms: C23_23  and  C28_24 
REMARK   10  A    between atoms: C23_23  and  C24_26 
REMARK       I    between atoms: C28_24  and  N30_30 
REMARK   11  A    between atoms: C24_26  and  C25_27 
REMARK   12  A    between atoms: C25_27  and  C26_28 
REMARK   13  A    between atoms: C25_27  and  C27_29 
REMARK   14  A    between atoms: N30_30  and  C31_31 
REMARK   15  A    between atoms: C31_31  and  C39_32 
REMARK   16  A    between atoms: C31_31  and  C32_34 
REMARK       I    between atoms: C39_32  and  N41_41 
REMARK   17  A    between atoms: C32_34  and  C33_35 
REMARK   18  A    between atoms: N41_41  and  C42_42 
REMARK   19  A    between atoms: C42_42  and  C43_43 
REMARK   20  A    between atoms: C42_42  and  C47_47 
REMARK   21  A    between atoms: C43_43  and  C44_44 
REMARK   22  A    between atoms: C44_44  and  C45_45 
REMARK   23  A    between atoms: C44_44  and  C46_46 
REMARK   24  A    between atoms: C47_47  and  C51_48 
REMARK   25  A    between atoms: C47_47  and  O48_52 
REMARK   26  A    between atoms: C51_48  and  C58_49 
REMARK   27  A    between atoms: C51_48  and  C59_50 
REMARK   28  A    between atoms: C59_50  and  O60_51 
ROOT
ATOM      1  C23 3BV d   1      62.304-134.528  35.974  0.00  0.00     0.089 C 
ATOM      2  H24 3BV d   1      62.822-135.412  35.574  0.00  0.00     0.087 H 
ENDROOT
BRANCH   1   3
ATOM      3  N22 3BV d   1      61.126-134.215  35.172  0.00  0.00    -0.346 N 
ATOM      4  C20 3BV d   1      60.427-135.189  34.580  0.00  0.00     0.241 C 
ATOM      5  O21 3BV d   1      60.726-136.384  34.608  0.00  0.00    -0.271 OA
ATOM      6  H23 3BV d   1      60.839-133.263  35.064  0.00  0.00     0.163 HD
BRANCH   4   7
ATOM      7  C11 3BV d   1      59.171-134.708  33.872  0.00  0.00     0.089 C 
ATOM      8  H13 3BV d   1      59.355-133.749  33.365  0.00  0.00     0.087 H 
BRANCH   7   9
ATOM      9  N10 3BV d   1      58.762-135.724  32.902  0.00  0.00    -0.346 N 
ATOM     10  C8  3BV d   1      59.214-135.698  31.646  0.00  0.00     0.244 C 
ATOM     11  O9  3BV d   1      59.989-134.840  31.217  0.00  0.00    -0.272 OA
ATOM     12  H12 3BV d   1      58.134-136.449  33.184  0.00  0.00     0.163 HD
BRANCH  10  13
ATOM     13  C7  3BV d   1      58.690-136.848  30.767  0.00  0.00     0.156 C 
ATOM     14  H1  3BV d   1      57.768-137.238  31.222  0.00  0.00     0.090 H 
ATOM     15  H2  3BV d   1      59.452-137.641  30.745  0.00  0.00     0.090 H 
BRANCH  13  16
ATOM     16  N4  3BV d   1      58.388-136.452  29.366  0.00  0.00    -0.059 N 
ATOM     17  C5  3BV d   1      59.616-136.395  28.532  0.00  0.00     0.103 C 
ATOM     18  C6  3BV d   1      59.157-136.207  27.125  0.00  0.00     0.042 C 
ATOM     19  H4  3BV d   1      60.184-137.332  28.625  0.00  0.00     0.079 H 
ATOM     20  H5  3BV d   1      60.249-135.550  28.843  0.00  0.00     0.079 H 
ATOM     21  O1  3BV d   1      58.574-134.915  27.158  0.00  0.00    -0.388 OA
ATOM     22  H8  3BV d   1      60.004-136.243  26.424  0.00  0.00     0.076 H 
ATOM     23  H9  3BV d   1      58.416-136.970  26.844  0.00  0.00     0.076 H 
ATOM     24  C2  3BV d   1      57.315-134.859  27.887  0.00  0.00     0.042 C 
ATOM     25  C3  3BV d   1      57.598-135.192  29.282  0.00  0.00     0.103 C 
ATOM     26  H10 3BV d   1      56.604-135.585  27.465  0.00  0.00     0.076 H 
ATOM     27  H11 3BV d   1      56.888-133.847  27.822  0.00  0.00     0.076 H 
ATOM     28  H6  3BV d   1      58.172-134.373  29.741  0.00  0.00     0.079 H 
ATOM     29  H7  3BV d   1      56.649-135.322  29.823  0.00  0.00     0.079 H 
ATOM     30  H3  3BV d   1      57.808-137.180  28.980  0.00  0.00     0.280 HD
ENDBRANCH  13  16
ENDBRANCH  10  13
ENDBRANCH   7   9
BRANCH   7  31
ATOM     31  C12 3BV d   1      58.091-134.556  34.917  0.00  0.00    -0.034 C 
ATOM     32  H14 3BV d   1      58.539-134.356  35.901  0.00  0.00     0.037 H 
ATOM     33  H15 3BV d   1      57.481-135.470  34.970  0.00  0.00     0.037 H 
BRANCH  31  34
ATOM     34  C13 3BV d   1      57.236-133.378  34.479  0.00  0.00    -0.039 C 
ATOM     35  H16 3BV d   1      57.171-133.360  33.381  0.00  0.00     0.040 H 
ATOM     36  H17 3BV d   1      57.691-132.442  34.835  0.00  0.00     0.040 H 
BRANCH  34  37
ATOM     37  C14 3BV d   1      55.933-133.510  35.028  0.00  0.00    -0.058 A 
ATOM     38  C19 3BV d   1      54.819-133.136  34.266  0.00  0.00    -0.077 A 
ATOM     39  C18 3BV d   1      53.527-133.244  34.781  0.00  0.00    -0.082 A 
ATOM     40  H18 3BV d   1      54.963-132.757  33.261  0.00  0.00     0.084 H 
ATOM     41  C17 3BV d   1      53.323-133.722  36.073  0.00  0.00    -0.083 A 
ATOM     42  H20 3BV d   1      52.678-132.954  34.173  0.00  0.00     0.083 H 
ATOM     43  C16 3BV d   1      54.419-134.091  36.847  0.00  0.00    -0.082 A 
ATOM     44  H22 3BV d   1      52.319-133.806  36.472  0.00  0.00     0.083 H 
ATOM     45  C15 3BV d   1      55.712-133.980  36.333  0.00  0.00    -0.077 A 
ATOM     46  H21 3BV d   1      54.268-134.466  37.853  0.00  0.00     0.083 H 
ATOM     47  H19 3BV d   1      56.558-134.261  36.950  0.00  0.00     0.084 H 
ENDBRANCH  34  37
ENDBRANCH  31  34
ENDBRANCH   7  31
ENDBRANCH   4   7
ENDBRANCH   1   3
BRANCH   1  48
ATOM     48  C28 3BV d   1      61.768-134.799  37.381  0.00  0.00     0.241 C 
ATOM     49  O29 3BV d   1      60.871-134.097  37.852  0.00  0.00    -0.271 OA
ATOM     50  N30 3BV d   1      62.295-135.866  38.000  0.00  0.00    -0.346 N 
ATOM     51  H34 3BV d   1      62.970-136.426  37.520  0.00  0.00     0.163 HD
BRANCH  50  52
ATOM     52  C31 3BV d   1      61.901-136.231  39.372  0.00  0.00     0.093 C 
ATOM     53  H35 3BV d   1      61.196-135.482  39.760  0.00  0.00     0.088 H 
BRANCH  52  54
ATOM     54  C39 3BV d   1      63.175-136.218  40.199  0.00  0.00     0.241 C 
ATOM     55  O40 3BV d   1      64.275-136.249  39.644  0.00  0.00    -0.271 OA
ATOM     56  N41 3BV d   1      62.980-136.150  41.524  0.00  0.00    -0.352 N 
ATOM     57  H43 3BV d   1      62.049-136.215  41.882  0.00  0.00     0.163 HD
BRANCH  56  58
ATOM     58  C42 3BV d   1      64.094-135.983  42.461  0.00  0.00     0.037 C 
ATOM     59  H44 3BV d   1      65.055-136.081  41.935  0.00  0.00     0.076 H 
BRANCH  58  60
ATOM     60  C43 3BV d   1      63.884-134.565  42.980  0.00  0.00    -0.041 C 
ATOM     61  H45 3BV d   1      63.891-134.591  44.080  0.00  0.00     0.036 H 
ATOM     62  H46 3BV d   1      62.905-134.206  42.628  0.00  0.00     0.036 H 
BRANCH  60  63
ATOM     63  C44 3BV d   1      64.979-133.563  42.502  0.00  0.00    -0.059 C 
ATOM     64  H47 3BV d   1      65.825-133.634  43.201  0.00  0.00     0.038 H 
BRANCH  63  65
ATOM     65  C45 3BV d   1      64.389-132.138  42.565  0.00  0.00    -0.073 C 
ATOM     66  H48 3BV d   1      65.146-131.413  42.231  0.00  0.00     0.028 H 
ATOM     67  H49 3BV d   1      64.093-131.909  43.599  0.00  0.00     0.028 H 
ATOM     68  H50 3BV d   1      63.508-132.077  41.909  0.00  0.00     0.028 H 
ENDBRANCH  63  65
BRANCH  63  69
ATOM     69  C46 3BV d   1      65.528-133.805  41.077  0.00  0.00    -0.073 C 
ATOM     70  H51 3BV d   1      65.953-134.818  41.015  0.00  0.00     0.028 H 
ATOM     71  H52 3BV d   1      66.311-133.065  40.855  0.00  0.00     0.028 H 
ATOM     72  H53 3BV d   1      64.711-133.705  40.347  0.00  0.00     0.028 H 
ENDBRANCH  63  69
ENDBRANCH  60  63
ENDBRANCH  58  60
BRANCH  58  73
ATOM     73  C47 3BV d   1      64.067-136.966  43.661  0.00  0.00     0.060 C 
ATOM     74  H54 3BV d   1      64.699-136.523  44.445  0.00  0.00     0.086 H 
BRANCH  73  75
ATOM     75  C51 3BV d   1      64.646-138.452  43.403  0.00  0.00    -0.010 C 
ATOM     76  H55 3BV d   1      64.887-138.925  44.366  0.00  0.00     0.046 H 
BRANCH  75  77
ATOM     77  C58 3BV d   1      65.904-138.400  42.493  0.00  0.00    -0.069 C 
ATOM     78  H56 3BV d   1      66.281-139.420  42.330  0.00  0.00     0.028 H 
ATOM     79  H57 3BV d   1      66.683-137.794  42.979  0.00  0.00     0.028 H 
ATOM     80  H58 3BV d   1      65.638-137.949  41.526  0.00  0.00     0.028 H 
ENDBRANCH  75  77
BRANCH  75  81
ATOM     81  C59 3BV d   1      63.619-139.293  42.630  0.00  0.00     0.022 C 
ATOM     82  H59 3BV d   1      63.975-140.329  42.530  0.00  0.00     0.074 H 
ATOM     83  H60 3BV d   1      63.453-138.865  41.631  0.00  0.00     0.074 H 
BRANCH  81  84
ATOM     84  O60 3BV d   1      62.407-139.258  43.390  0.00  0.00    -0.400 OA
ATOM     85  H61 3BV d   1      62.114-138.358  43.475  0.00  0.00     0.209 HD
ENDBRANCH  81  84
ENDBRANCH  75  81
ENDBRANCH  73  75
BRANCH  73  86
ATOM     86  O48 3BV d   1      62.718-137.031  44.164  0.00  0.00    -0.393 OA
ATOM     87  H62 3BV d   1      62.166-137.472  43.530  0.00  0.00     0.210 HD
ENDBRANCH  73  86
ENDBRANCH  58  73
ENDBRANCH  56  58
ENDBRANCH  52  54
BRANCH  52  88
ATOM     88  C32 3BV d   1      61.252-137.584  39.446  0.00  0.00    -0.014 C 
ATOM     89  H36 3BV d   1      61.228-137.943  40.486  0.00  0.00     0.043 H 
ATOM     90  H37 3BV d   1      61.797-138.306  38.821  0.00  0.00     0.043 H 
BRANCH  88  91
ATOM     91  C33 3BV d   1      59.949-137.402  38.961  0.00  0.00    -0.056 A 
ATOM     92  C34 3BV d   1      59.614-137.808  37.667  0.00  0.00    -0.077 A 
ATOM     93  C35 3BV d   1      58.317-137.628  37.187  0.00  0.00    -0.082 A 
ATOM     94  H38 3BV d   1      60.365-138.265  37.033  0.00  0.00     0.084 H 
ATOM     95  C36 3BV d   1      57.346-137.041  37.998  0.00  0.00    -0.083 A 
ATOM     96  H40 3BV d   1      58.063-137.945  36.182  0.00  0.00     0.083 H 
ATOM     97  C37 3BV d   1      57.675-136.634  39.290  0.00  0.00    -0.082 A 
ATOM     98  H42 3BV d   1      56.338-136.902  37.625  0.00  0.00     0.083 H 
ATOM     99  C38 3BV d   1      58.971-136.816  39.770  0.00  0.00    -0.077 A 
ATOM    100  H41 3BV d   1      56.923-136.176  39.922  0.00  0.00     0.083 H 
ATOM    101  H39 3BV d   1      59.222-136.501  40.776  0.00  0.00     0.084 H 
ENDBRANCH  88  91
ENDBRANCH  52  88
ENDBRANCH  50  52
ENDBRANCH   1  48
BRANCH   1 102
ATOM    102  C24 3BV d   1      63.256-133.353  36.017  0.00  0.00    -0.035 C 
ATOM    103  H25 3BV d   1      63.920-133.438  36.890  0.00  0.00     0.037 H 
ATOM    104  H26 3BV d   1      62.690-132.411  36.076  0.00  0.00     0.037 H 
BRANCH 102 105
ATOM    105  C25 3BV d   1      64.086-133.390  34.716  0.00  0.00    -0.059 C 
ATOM    106  H27 3BV d   1      63.398-133.388  33.858  0.00  0.00     0.038 H 
BRANCH 105 107
ATOM    107  C26 3BV d   1      64.984-132.141  34.647  0.00  0.00    -0.073 C 
ATOM    108  H28 3BV d   1      65.576-132.166  33.720  0.00  0.00     0.028 H 
ATOM    109  H29 3BV d   1      65.661-132.127  35.514  0.00  0.00     0.028 H 
ATOM    110  H30 3BV d   1      64.357-131.237  34.657  0.00  0.00     0.028 H 
ENDBRANCH 105 107
BRANCH 105 111
ATOM    111  C27 3BV d   1      64.964-134.655  34.645  0.00  0.00    -0.073 C 
ATOM    112  H31 3BV d   1      64.324-135.548  34.694  0.00  0.00     0.028 H 
ATOM    113  H32 3BV d   1      65.668-134.661  35.490  0.00  0.00     0.028 H 
ATOM    114  H33 3BV d   1      65.526-134.658  33.700  0.00  0.00     0.028 H 
ENDBRANCH 105 111
ENDBRANCH 102 105
ENDBRANCH   1 102
TORSDOF 28
