REMARK  28 active torsions:
REMARK  status: ('A' for Active; 'I' for Inactive)
REMARK    1  A    between atoms: C7_3  and  C8_1 
REMARK       I    between atoms: C8_1  and  N10_10 
REMARK    2  A    between atoms: N4_4  and  C7_3 
REMARK    3  A    between atoms: N10_10  and  C11_11 
REMARK    4  A    between atoms: C11_11  and  C20_12 
REMARK    5  A    between atoms: C11_11  and  C12_14 
REMARK       I    between atoms: C20_12  and  N22_22 
REMARK    6  A    between atoms: C12_14  and  C13_15 
REMARK    7  A    between atoms: C13_15  and  C14_16 
REMARK    8  A    between atoms: N22_22  and  C23_23 
REMARK    9  A    between atoms: C23_23  and  C28_24 
REMARK   10  A    between atoms: C23_23  and  C24_26 
REMARK       I    between atoms: C28_24  and  N30_30 
REMARK   11  A    between atoms: C24_26  and  C25_27 
REMARK   12  A    between atoms: C25_27  and  C26_28 
REMARK   13  A    between atoms: C25_27  and  C27_29 
REMARK   14  A    between atoms: N30_30  and  C31_31 
REMARK   15  A    between atoms: C31_31  and  C39_32 
REMARK   16  A    between atoms: C31_31  and  C32_34 
REMARK       I    between atoms: C39_32  and  N41_41 
REMARK   17  A    between atoms: C32_34  and  C33_35 
REMARK   18  A    between atoms: N41_41  and  C42_42 
REMARK   19  A    between atoms: C42_42  and  C43_43 
REMARK   20  A    between atoms: C42_42  and  C47_47 
REMARK   21  A    between atoms: C43_43  and  C44_44 
REMARK   22  A    between atoms: C44_44  and  C45_45 
REMARK   23  A    between atoms: C44_44  and  C46_46 
REMARK   24  A    between atoms: C47_47  and  C51_48 
REMARK   25  A    between atoms: C47_47  and  O48_52 
REMARK   26  A    between atoms: C51_48  and  C58_49 
REMARK   27  A    between atoms: C51_48  and  C59_50 
REMARK   28  A    between atoms: C59_50  and  O60_51 
ROOT
ATOM      1  C23 3BV d   1      62.277-134.586  36.236  0.00  0.00     0.089 C 
ATOM      2  H24 3BV d   1      62.761-135.498  35.855  0.00  0.00     0.087 H 
ENDROOT
BRANCH   1   3
ATOM      3  N22 3BV d   1      61.108-134.250  35.419  0.00  0.00    -0.346 N 
ATOM      4  C20 3BV d   1      60.454-135.195  34.742  0.00  0.00     0.241 C 
ATOM      5  O21 3BV d   1      60.766-136.385  34.738  0.00  0.00    -0.271 OA
ATOM      6  H23 3BV d   1      60.797-133.301  35.368  0.00  0.00     0.163 HD
BRANCH   4   7
ATOM      7  C11 3BV d   1      59.227-134.709  33.984  0.00  0.00     0.089 C 
ATOM      8  H13 3BV d   1      59.400-133.719  33.537  0.00  0.00     0.087 H 
BRANCH   7   9
ATOM      9  N10 3BV d   1      58.938-135.703  32.949  0.00  0.00    -0.346 N 
ATOM     10  C8  3BV d   1      59.452-135.620  31.716  0.00  0.00     0.244 C 
ATOM     11  O9  3BV d   1      60.185-134.708  31.333  0.00  0.00    -0.272 OA
ATOM     12  H12 3BV d   1      58.336-136.470  33.171  0.00  0.00     0.163 HD
BRANCH  10  13
ATOM     13  C7  3BV d   1      59.061-136.795  30.801  0.00  0.00     0.156 C 
ATOM     14  H1  3BV d   1      58.229-137.336  31.275  0.00  0.00     0.090 H 
ATOM     15  H2  3BV d   1      59.930-137.464  30.713  0.00  0.00     0.090 H 
BRANCH  13  16
ATOM     16  N4  3BV d   1      58.638-136.404  29.432  0.00  0.00    -0.059 N 
ATOM     17  C5  3BV d   1      59.785-136.342  28.489  0.00  0.00     0.103 C 
ATOM     18  C6  3BV d   1      59.196-136.203  27.122  0.00  0.00     0.042 C 
ATOM     19  H4  3BV d   1      60.383-137.263  28.555  0.00  0.00     0.079 H 
ATOM     20  H5  3BV d   1      60.422-135.475  28.720  0.00  0.00     0.079 H 
ATOM     21  O1  3BV d   1      58.563-134.938  27.171  0.00  0.00    -0.388 OA
ATOM     22  H8  3BV d   1      59.980-136.222  26.351  0.00  0.00     0.076 H 
ATOM     23  H9  3BV d   1      58.467-137.002  26.924  0.00  0.00     0.076 H 
ATOM     24  C2  3BV d   1      57.379-134.914  28.019  0.00  0.00     0.042 C 
ATOM     25  C3  3BV d   1      57.820-135.159  29.387  0.00  0.00     0.103 C 
ATOM     26  H10 3BV d   1      56.675-135.698  27.704  0.00  0.00     0.076 H 
ATOM     27  H11 3BV d   1      56.888-133.932  27.952  0.00  0.00     0.076 H 
ATOM     28  H6  3BV d   1      58.426-134.310  29.734  0.00  0.00     0.079 H 
ATOM     29  H7  3BV d   1      56.942-135.274  30.040  0.00  0.00     0.079 H 
ATOM     30  H3  3BV d   1      58.038-137.145  29.104  0.00  0.00     0.280 HD
ENDBRANCH  13  16
ENDBRANCH  10  13
ENDBRANCH   7   9
BRANCH   7  31
ATOM     31  C12 3BV d   1      58.086-134.660  34.967  0.00  0.00    -0.034 C 
ATOM     32  H14 3BV d   1      58.474-134.594  35.994  0.00  0.00     0.037 H 
ATOM     33  H15 3BV d   1      57.462-135.560  34.868  0.00  0.00     0.037 H 
BRANCH  31  34
ATOM     34  C13 3BV d   1      57.273-133.422  34.635  0.00  0.00    -0.039 C 
ATOM     35  H16 3BV d   1      57.163-133.339  33.544  0.00  0.00     0.040 H 
ATOM     36  H17 3BV d   1      57.790-132.531  35.020  0.00  0.00     0.040 H 
BRANCH  34  37
ATOM     37  C14 3BV d   1      55.987-133.518  35.234  0.00  0.00    -0.058 A 
ATOM     38  C19 3BV d   1      54.909-132.870  34.623  0.00  0.00    -0.077 A 
ATOM     39  C18 3BV d   1      53.631-132.927  35.173  0.00  0.00    -0.082 A 
ATOM     40  H18 3BV d   1      55.071-132.314  33.706  0.00  0.00     0.084 H 
ATOM     41  C17 3BV d   1      53.406-133.628  36.353  0.00  0.00    -0.083 A 
ATOM     42  H20 3BV d   1      52.808-132.423  34.679  0.00  0.00     0.083 H 
ATOM     43  C16 3BV d   1      54.465-134.273  36.978  0.00  0.00    -0.082 A 
ATOM     44  H22 3BV d   1      52.411-133.671  36.782  0.00  0.00     0.083 H 
ATOM     45  C15 3BV d   1      55.743-134.214  36.429  0.00  0.00    -0.077 A 
ATOM     46  H21 3BV d   1      54.296-134.824  37.896  0.00  0.00     0.083 H 
ATOM     47  H19 3BV d   1      56.563-134.713  36.932  0.00  0.00     0.084 H 
ENDBRANCH  34  37
ENDBRANCH  31  34
ENDBRANCH   7  31
ENDBRANCH   4   7
ENDBRANCH   1   3
BRANCH   1  48
ATOM     48  C28 3BV d   1      61.783-134.809  37.662  0.00  0.00     0.241 C 
ATOM     49  O29 3BV d   1      60.936-134.064  38.156  0.00  0.00    -0.271 OA
ATOM     50  N30 3BV d   1      62.309-135.879  38.277  0.00  0.00    -0.346 N 
ATOM     51  H34 3BV d   1      62.959-136.456  37.783  0.00  0.00     0.163 HD
BRANCH  50  52
ATOM     52  C31 3BV d   1      61.952-136.223  39.660  0.00  0.00     0.093 C 
ATOM     53  H35 3BV d   1      61.236-135.483  40.048  0.00  0.00     0.088 H 
BRANCH  52  54
ATOM     54  C39 3BV d   1      63.229-136.171  40.483  0.00  0.00     0.241 C 
ATOM     55  O40 3BV d   1      64.322-136.107  39.922  0.00  0.00    -0.271 OA
ATOM     56  N41 3BV d   1      63.037-136.178  41.812  0.00  0.00    -0.352 N 
ATOM     57  H43 3BV d   1      62.111-136.324  42.161  0.00  0.00     0.163 HD
BRANCH  56  58
ATOM     58  C42 3BV d   1      64.127-135.981  42.773  0.00  0.00     0.037 C 
ATOM     59  H44 3BV d   1      65.105-136.077  42.279  0.00  0.00     0.076 H 
BRANCH  58  60
ATOM     60  C43 3BV d   1      63.869-134.568  43.268  0.00  0.00    -0.041 C 
ATOM     61  H45 3BV d   1      63.813-134.591  44.366  0.00  0.00     0.036 H 
ATOM     62  H46 3BV d   1      62.906-134.229  42.859  0.00  0.00     0.036 H 
BRANCH  60  63
ATOM     63  C44 3BV d   1      64.961-133.546  42.856  0.00  0.00    -0.059 C 
ATOM     64  H47 3BV d   1      65.781-133.610  43.587  0.00  0.00     0.038 H 
BRANCH  63  65
ATOM     65  C45 3BV d   1      64.328-132.142  42.921  0.00  0.00    -0.073 C 
ATOM     66  H48 3BV d   1      65.076-131.389  42.634  0.00  0.00     0.028 H 
ATOM     67  H49 3BV d   1      63.982-131.943  43.946  0.00  0.00     0.028 H 
ATOM     68  H50 3BV d   1      63.474-132.092  42.229  0.00  0.00     0.028 H 
ENDBRANCH  63  65
BRANCH  63  69
ATOM     69  C46 3BV d   1      65.564-133.757  41.452  0.00  0.00    -0.073 C 
ATOM     70  H51 3BV d   1      66.019-134.757  41.395  0.00  0.00     0.028 H 
ATOM     71  H52 3BV d   1      66.333-132.993  41.265  0.00  0.00     0.028 H 
ATOM     72  H53 3BV d   1      64.770-133.672  40.695  0.00  0.00     0.028 H 
ENDBRANCH  63  69
ENDBRANCH  60  63
ENDBRANCH  58  60
BRANCH  58  73
ATOM     73  C47 3BV d   1      64.068-136.917  44.000  0.00  0.00     0.060 C 
ATOM     74  H54 3BV d   1      64.807-136.543  44.724  0.00  0.00     0.086 H 
BRANCH  73  75
ATOM     75  C51 3BV d   1      64.412-138.475  43.758  0.00  0.00    -0.010 C 
ATOM     76  H55 3BV d   1      64.794-138.926  44.686  0.00  0.00     0.046 H 
BRANCH  75  77
ATOM     77  C58 3BV d   1      65.433-138.646  42.598  0.00  0.00    -0.069 C 
ATOM     78  H56 3BV d   1      65.649-139.715  42.455  0.00  0.00     0.028 H 
ATOM     79  H57 3BV d   1      66.363-138.114  42.847  0.00  0.00     0.028 H 
ATOM     80  H58 3BV d   1      65.009-138.230  41.672  0.00  0.00     0.028 H 
ENDBRANCH  75  77
BRANCH  75  81
ATOM     81  C59 3BV d   1      63.145-139.191  43.270  0.00  0.00     0.022 C 
ATOM     82  H59 3BV d   1      63.324-140.274  43.205  0.00  0.00     0.074 H 
ATOM     83  H60 3BV d   1      62.851-138.808  42.282  0.00  0.00     0.074 H 
BRANCH  81  84
ATOM     84  O60 3BV d   1      62.113-138.918  44.232  0.00  0.00    -0.400 OA
ATOM     85  H61 3BV d   1      61.971-137.980  44.285  0.00  0.00     0.209 HD
ENDBRANCH  81  84
ENDBRANCH  75  81
ENDBRANCH  73  75
BRANCH  73  86
ATOM     86  O48 3BV d   1      62.758-136.790  44.580  0.00  0.00    -0.393 OA
ATOM     87  H62 3BV d   1      62.114-137.166  43.991  0.00  0.00     0.210 HD
ENDBRANCH  73  86
ENDBRANCH  58  73
ENDBRANCH  56  58
ENDBRANCH  52  54
BRANCH  52  88
ATOM     88  C32 3BV d   1      61.322-137.584  39.729  0.00  0.00    -0.014 C 
ATOM     89  H36 3BV d   1      61.388-137.990  40.749  0.00  0.00     0.043 H 
ATOM     90  H37 3BV d   1      61.813-138.274  39.028  0.00  0.00     0.043 H 
BRANCH  88  91
ATOM     91  C33 3BV d   1      59.983-137.379  39.364  0.00  0.00    -0.056 A 
ATOM     92  C34 3BV d   1      59.562-137.608  38.054  0.00  0.00    -0.077 A 
ATOM     93  C35 3BV d   1      58.230-137.402  37.697  0.00  0.00    -0.082 A 
ATOM     94  H38 3BV d   1      60.274-137.948  37.310  0.00  0.00     0.084 H 
ATOM     95  C36 3BV d   1      57.311-136.962  38.646  0.00  0.00    -0.083 A 
ATOM     96  H40 3BV d   1      57.909-137.585  36.678  0.00  0.00     0.083 H 
ATOM     97  C37 3BV d   1      57.728-136.729  39.954  0.00  0.00    -0.082 A 
ATOM     98  H42 3BV d   1      56.276-136.802  38.368  0.00  0.00     0.083 H 
ATOM     99  C38 3BV d   1      59.058-136.937  40.311  0.00  0.00    -0.077 A 
ATOM    100  H41 3BV d   1      57.016-136.385  40.696  0.00  0.00     0.083 H 
ATOM    101  H39 3BV d   1      59.377-136.754  41.331  0.00  0.00     0.084 H 
ENDBRANCH  88  91
ENDBRANCH  52  88
ENDBRANCH  50  52
ENDBRANCH   1  48
BRANCH   1 102
ATOM    102  C24 3BV d   1      63.249-133.442  36.201  0.00  0.00    -0.035 C 
ATOM    103  H25 3BV d   1      63.930-133.483  37.064  0.00  0.00     0.037 H 
ATOM    104  H26 3BV d   1      62.717-132.479  36.199  0.00  0.00     0.037 H 
BRANCH 102 105
ATOM    105  C25 3BV d   1      64.027-133.641  34.879  0.00  0.00    -0.059 C 
ATOM    106  H27 3BV d   1      63.349-134.091  34.139  0.00  0.00     0.038 H 
BRANCH 105 107
ATOM    107  C26 3BV d   1      64.517-132.288  34.336  0.00  0.00    -0.073 C 
ATOM    108  H28 3BV d   1      65.067-132.447  33.397  0.00  0.00     0.028 H 
ATOM    109  H29 3BV d   1      65.181-131.815  35.075  0.00  0.00     0.028 H 
ATOM    110  H30 3BV d   1      63.653-131.634  34.148  0.00  0.00     0.028 H 
ENDBRANCH 105 107
BRANCH 105 111
ATOM    111  C27 3BV d   1      65.222-134.593  35.094  0.00  0.00    -0.073 C 
ATOM    112  H31 3BV d   1      64.858-135.556  35.482  0.00  0.00     0.028 H 
ATOM    113  H32 3BV d   1      65.921-134.147  35.817  0.00  0.00     0.028 H 
ATOM    114  H33 3BV d   1      65.739-134.755  34.136  0.00  0.00     0.028 H 
ENDBRANCH 105 111
ENDBRANCH 102 105
ENDBRANCH   1 102
TORSDOF 28
