REMARK  28 active torsions:
REMARK  status: ('A' for Active; 'I' for Inactive)
REMARK    1  A    between atoms: C7_3  and  C8_1 
REMARK       I    between atoms: C8_1  and  N10_10 
REMARK    2  A    between atoms: N4_4  and  C7_3 
REMARK    3  A    between atoms: N10_10  and  C11_11 
REMARK    4  A    between atoms: C11_11  and  C20_12 
REMARK    5  A    between atoms: C11_11  and  C12_14 
REMARK       I    between atoms: C20_12  and  N22_22 
REMARK    6  A    between atoms: C12_14  and  C13_15 
REMARK    7  A    between atoms: C13_15  and  C14_16 
REMARK    8  A    between atoms: N22_22  and  C23_23 
REMARK    9  A    between atoms: C23_23  and  C28_24 
REMARK   10  A    between atoms: C23_23  and  C24_26 
REMARK       I    between atoms: C28_24  and  N30_30 
REMARK   11  A    between atoms: C24_26  and  C25_27 
REMARK   12  A    between atoms: C25_27  and  C26_28 
REMARK   13  A    between atoms: C25_27  and  C27_29 
REMARK   14  A    between atoms: N30_30  and  C31_31 
REMARK   15  A    between atoms: C31_31  and  C39_32 
REMARK   16  A    between atoms: C31_31  and  C32_34 
REMARK       I    between atoms: C39_32  and  N41_41 
REMARK   17  A    between atoms: C32_34  and  C33_35 
REMARK   18  A    between atoms: N41_41  and  C42_42 
REMARK   19  A    between atoms: C42_42  and  C43_43 
REMARK   20  A    between atoms: C42_42  and  C47_47 
REMARK   21  A    between atoms: C43_43  and  C44_44 
REMARK   22  A    between atoms: C44_44  and  C45_45 
REMARK   23  A    between atoms: C44_44  and  C46_46 
REMARK   24  A    between atoms: C47_47  and  C51_48 
REMARK   25  A    between atoms: C47_47  and  O48_52 
REMARK   26  A    between atoms: C51_48  and  C58_49 
REMARK   27  A    between atoms: C51_48  and  C59_50 
REMARK   28  A    between atoms: C59_50  and  O60_51 
ROOT
ATOM      1  C23 3BV d   1      61.462-134.459  35.867  0.00  0.00     0.089 C 
ATOM      2  H24 3BV d   1      61.946-135.362  35.467  0.00  0.00     0.087 H 
ENDROOT
BRANCH   1   3
ATOM      3  N22 3BV d   1      60.272-134.133  35.076  0.00  0.00    -0.346 N 
ATOM      4  C20 3BV d   1      59.680-135.059  34.318  0.00  0.00     0.241 C 
ATOM      5  O21 3BV d   1      60.077-136.220  34.209  0.00  0.00    -0.271 OA
ATOM      6  H23 3BV d   1      59.899-133.206  35.104  0.00  0.00     0.163 HD
BRANCH   4   7
ATOM      7  C11 3BV d   1      58.422-134.598  33.591  0.00  0.00     0.089 C 
ATOM      8  H13 3BV d   1      58.559-133.603  33.143  0.00  0.00     0.087 H 
BRANCH   7   9
ATOM      9  N10 3BV d   1      58.146-135.610  32.575  0.00  0.00    -0.346 N 
ATOM     10  C8  3BV d   1      58.659-135.554  31.345  0.00  0.00     0.244 C 
ATOM     11  O9  3BV d   1      59.378-134.644  30.933  0.00  0.00    -0.272 OA
ATOM     12  H12 3BV d   1      57.548-136.376  32.811  0.00  0.00     0.163 HD
BRANCH  10  13
ATOM     13  C7  3BV d   1      58.272-136.766  30.482  0.00  0.00     0.156 C 
ATOM     14  H1  3BV d   1      57.347-137.198  30.892  0.00  0.00     0.090 H 
ATOM     15  H2  3BV d   1      59.083-137.506  30.546  0.00  0.00     0.090 H 
BRANCH  13  16
ATOM     16  N4  3BV d   1      58.043-136.455  29.055  0.00  0.00    -0.059 N 
ATOM     17  C5  3BV d   1      59.296-136.194  28.297  0.00  0.00     0.103 C 
ATOM     18  C6  3BV d   1      58.921-136.185  26.851  0.00  0.00     0.042 C 
ATOM     19  H4  3BV d   1      60.032-136.987  28.494  0.00  0.00     0.079 H 
ATOM     20  H5  3BV d   1      59.720-135.221  28.586  0.00  0.00     0.079 H 
ATOM     21  O1  3BV d   1      58.002-135.102  26.742  0.00  0.00    -0.388 OA
ATOM     22  H8  3BV d   1      59.805-136.014  26.219  0.00  0.00     0.076 H 
ATOM     23  H9  3BV d   1      58.444-137.134  26.565  0.00  0.00     0.076 H 
ATOM     24  C2  3BV d   1      56.743-135.341  27.433  0.00  0.00     0.042 C 
ATOM     25  C3  3BV d   1      57.045-135.372  28.850  0.00  0.00     0.103 C 
ATOM     26  H10 3BV d   1      56.313-136.303  27.116  0.00  0.00     0.076 H 
ATOM     27  H11 3BV d   1      56.031-134.531  27.215  0.00  0.00     0.076 H 
ATOM     28  H6  3BV d   1      57.464-134.406  29.169  0.00  0.00     0.079 H 
ATOM     29  H7  3BV d   1      56.133-135.584  29.427  0.00  0.00     0.079 H 
ATOM     30  H3  3BV d   1      57.641-137.287  28.653  0.00  0.00     0.280 HD
ENDBRANCH  13  16
ENDBRANCH  10  13
ENDBRANCH   7   9
BRANCH   7  31
ATOM     31  C12 3BV d   1      57.274-134.599  34.568  0.00  0.00    -0.034 C 
ATOM     32  H14 3BV d   1      57.644-134.799  35.584  0.00  0.00     0.037 H 
ATOM     33  H15 3BV d   1      56.540-135.369  34.287  0.00  0.00     0.037 H 
BRANCH  31  34
ATOM     34  C13 3BV d   1      56.633-133.222  34.508  0.00  0.00    -0.039 C 
ATOM     35  H16 3BV d   1      56.589-132.878  33.464  0.00  0.00     0.040 H 
ATOM     36  H17 3BV d   1      57.224-132.511  35.104  0.00  0.00     0.040 H 
BRANCH  34  37
ATOM     37  C14 3BV d   1      55.322-133.316  35.037  0.00  0.00    -0.058 A 
ATOM     38  C19 3BV d   1      54.264-132.662  34.397  0.00  0.00    -0.077 A 
ATOM     39  C18 3BV d   1      52.968-132.740  34.908  0.00  0.00    -0.082 A 
ATOM     40  H18 3BV d   1      54.453-132.089  33.496  0.00  0.00     0.084 H 
ATOM     41  C17 3BV d   1      52.709-133.466  36.067  0.00  0.00    -0.083 A 
ATOM     42  H20 3BV d   1      52.157-132.232  34.399  0.00  0.00     0.083 H 
ATOM     43  C16 3BV d   1      53.753-134.117  36.715  0.00  0.00    -0.082 A 
ATOM     44  H22 3BV d   1      51.701-133.524  36.462  0.00  0.00     0.083 H 
ATOM     45  C15 3BV d   1      55.046-134.036  36.206  0.00  0.00    -0.077 A 
ATOM     46  H21 3BV d   1      53.560-134.687  37.616  0.00  0.00     0.083 H 
ATOM     47  H19 3BV d   1      55.854-134.540  36.724  0.00  0.00     0.084 H 
ENDBRANCH  34  37
ENDBRANCH  31  34
ENDBRANCH   7  31
ENDBRANCH   4   7
ENDBRANCH   1   3
BRANCH   1  48
ATOM     48  C28 3BV d   1      61.027-134.673  37.304  0.00  0.00     0.241 C 
ATOM     49  O29 3BV d   1      60.226-133.901  37.832  0.00  0.00    -0.271 OA
ATOM     50  N30 3BV d   1      61.584-135.731  37.910  0.00  0.00    -0.346 N 
ATOM     51  H34 3BV d   1      62.219-136.313  37.402  0.00  0.00     0.163 HD
BRANCH  50  52
ATOM     52  C31 3BV d   1      61.273-136.045  39.309  0.00  0.00     0.093 C 
ATOM     53  H35 3BV d   1      60.598-135.273  39.707  0.00  0.00     0.088 H 
BRANCH  52  54
ATOM     54  C39 3BV d   1      62.574-136.028  40.095  0.00  0.00     0.241 C 
ATOM     55  O40 3BV d   1      63.663-136.119  39.528  0.00  0.00    -0.271 OA
ATOM     56  N41 3BV d   1      62.393-135.886  41.412  0.00  0.00    -0.352 N 
ATOM     57  H43 3BV d   1      61.458-135.897  41.765  0.00  0.00     0.163 HD
BRANCH  56  58
ATOM     58  C42 3BV d   1      63.488-135.716  42.362  0.00  0.00     0.037 C 
ATOM     59  H44 3BV d   1      64.465-135.876  41.882  0.00  0.00     0.076 H 
BRANCH  58  60
ATOM     60  C43 3BV d   1      63.305-134.280  42.829  0.00  0.00    -0.041 C 
ATOM     61  H45 3BV d   1      63.300-134.270  43.929  0.00  0.00     0.036 H 
ATOM     62  H46 3BV d   1      62.338-133.914  42.455  0.00  0.00     0.036 H 
BRANCH  60  63
ATOM     63  C44 3BV d   1      64.417-133.318  42.336  0.00  0.00    -0.059 C 
ATOM     64  H47 3BV d   1      65.300-133.460  42.976  0.00  0.00     0.038 H 
BRANCH  63  65
ATOM     65  C45 3BV d   1      63.892-131.878  42.502  0.00  0.00    -0.073 C 
ATOM     66  H48 3BV d   1      64.658-131.167  42.160  0.00  0.00     0.028 H 
ATOM     67  H49 3BV d   1      63.664-131.691  43.562  0.00  0.00     0.028 H 
ATOM     68  H50 3BV d   1      62.979-131.749  41.902  0.00  0.00     0.028 H 
ENDBRANCH  63  65
BRANCH  63  69
ATOM     69  C46 3BV d   1      64.858-133.524  40.871  0.00  0.00    -0.073 C 
ATOM     70  H51 3BV d   1      65.235-134.549  40.742  0.00  0.00     0.028 H 
ATOM     71  H52 3BV d   1      65.655-132.807  40.624  0.00  0.00     0.028 H 
ATOM     72  H53 3BV d   1      63.999-133.362  40.203  0.00  0.00     0.028 H 
ENDBRANCH  63  69
ENDBRANCH  60  63
ENDBRANCH  58  60
BRANCH  58  73
ATOM     73  C47 3BV d   1      63.335-136.641  43.586  0.00  0.00     0.060 C 
ATOM     74  H54 3BV d   1      64.084-136.324  44.327  0.00  0.00     0.086 H 
BRANCH  73  75
ATOM     75  C51 3BV d   1      63.549-138.240  43.364  0.00  0.00    -0.010 C 
ATOM     76  H55 3BV d   1      64.063-138.680  44.231  0.00  0.00     0.046 H 
BRANCH  75  77
ATOM     77  C58 3BV d   1      64.322-138.524  42.039  0.00  0.00    -0.069 C 
ATOM     78  H56 3BV d   1      64.452-139.609  41.916  0.00  0.00     0.028 H 
ATOM     79  H57 3BV d   1      65.308-138.039  42.079  0.00  0.00     0.028 H 
ATOM     80  H58 3BV d   1      63.751-138.124  41.188  0.00  0.00     0.028 H 
ENDBRANCH  75  77
BRANCH  75  81
ATOM     81  C59 3BV d   1      62.176-138.896  43.117  0.00  0.00     0.022 C 
ATOM     82  H59 3BV d   1      62.290-139.988  43.058  0.00  0.00     0.074 H 
ATOM     83  H60 3BV d   1      61.747-138.521  42.176  0.00  0.00     0.074 H 
BRANCH  81  84
ATOM     84  O60 3BV d   1      61.313-138.553  44.219  0.00  0.00    -0.400 OA
ATOM     85  H61 3BV d   1      61.222-137.609  44.266  0.00  0.00     0.209 HD
ENDBRANCH  81  84
ENDBRANCH  75  81
ENDBRANCH  73  75
BRANCH  73  86
ATOM     86  O48 3BV d   1      62.019-136.399  44.123  0.00  0.00    -0.393 OA
ATOM     87  H62 3BV d   1      61.930-136.848  44.955  0.00  0.00     0.210 HD
ENDBRANCH  73  86
ENDBRANCH  58  73
ENDBRANCH  56  58
ENDBRANCH  52  54
BRANCH  52  88
ATOM     88  C32 3BV d   1      60.603-137.379  39.445  0.00  0.00    -0.014 C 
ATOM     89  H36 3BV d   1      60.559-137.685  40.501  0.00  0.00     0.043 H 
ATOM     90  H37 3BV d   1      61.140-138.143  38.864  0.00  0.00     0.043 H 
BRANCH  88  91
ATOM     91  C33 3BV d   1      59.314-137.186  38.933  0.00  0.00    -0.056 A 
ATOM     92  C34 3BV d   1      59.032-137.490  37.601  0.00  0.00    -0.077 A 
ATOM     93  C35 3BV d   1      57.750-137.296  37.094  0.00  0.00    -0.082 A 
ATOM     94  H38 3BV d   1      59.814-137.879  36.959  0.00  0.00     0.084 H 
ATOM     95  C36 3BV d   1      56.743-136.797  37.915  0.00  0.00    -0.083 A 
ATOM     96  H40 3BV d   1      57.536-137.534  36.058  0.00  0.00     0.083 H 
ATOM     97  C37 3BV d   1      57.019-136.487  39.243  0.00  0.00    -0.082 A 
ATOM     98  H42 3BV d   1      55.744-136.650  37.520  0.00  0.00     0.083 H 
ATOM     99  C38 3BV d   1      58.301-136.682  39.751  0.00  0.00    -0.077 A 
ATOM    100  H41 3BV d   1      56.236-136.094  39.882  0.00  0.00     0.083 H 
ATOM    101  H39 3BV d   1      58.513-136.441  40.786  0.00  0.00     0.084 H 
ENDBRANCH  88  91
ENDBRANCH  52  88
ENDBRANCH  50  52
ENDBRANCH   1  48
BRANCH   1 102
ATOM    102  C24 3BV d   1      62.424-133.310  35.865  0.00  0.00    -0.035 C 
ATOM    103  H25 3BV d   1      62.911-133.218  36.847  0.00  0.00     0.037 H 
ATOM    104  H26 3BV d   1      61.900-132.373  35.627  0.00  0.00     0.037 H 
BRANCH 102 105
ATOM    105  C25 3BV d   1      63.468-133.631  34.777  0.00  0.00    -0.059 C 
ATOM    106  H27 3BV d   1      63.626-134.719  34.737  0.00  0.00     0.038 H 
BRANCH 105 107
ATOM    107  C26 3BV d   1      62.941-133.150  33.417  0.00  0.00    -0.073 C 
ATOM    108  H28 3BV d   1      63.682-133.376  32.636  0.00  0.00     0.028 H 
ATOM    109  H29 3BV d   1      62.767-132.064  33.454  0.00  0.00     0.028 H 
ATOM    110  H30 3BV d   1      61.997-133.665  33.187  0.00  0.00     0.028 H 
ENDBRANCH 105 107
BRANCH 105 111
ATOM    111  C27 3BV d   1      64.805-132.944  35.113  0.00  0.00    -0.073 C 
ATOM    112  H31 3BV d   1      65.165-133.301  36.089  0.00  0.00     0.028 H 
ATOM    113  H32 3BV d   1      64.658-131.855  35.153  0.00  0.00     0.028 H 
ATOM    114  H33 3BV d   1      65.547-133.186  34.337  0.00  0.00     0.028 H 
ENDBRANCH 105 111
ENDBRANCH 102 105
ENDBRANCH   1 102
TORSDOF 28
