REMARK  28 active torsions:
REMARK  status: ('A' for Active; 'I' for Inactive)
REMARK    1  A    between atoms: C7_3  and  C8_1 
REMARK       I    between atoms: C8_1  and  N10_10 
REMARK    2  A    between atoms: N4_4  and  C7_3 
REMARK    3  A    between atoms: N10_10  and  C11_11 
REMARK    4  A    between atoms: C11_11  and  C20_12 
REMARK    5  A    between atoms: C11_11  and  C12_14 
REMARK       I    between atoms: C20_12  and  N22_22 
REMARK    6  A    between atoms: C12_14  and  C13_15 
REMARK    7  A    between atoms: C13_15  and  C14_16 
REMARK    8  A    between atoms: N22_22  and  C23_23 
REMARK    9  A    between atoms: C23_23  and  C28_24 
REMARK   10  A    between atoms: C23_23  and  C24_26 
REMARK       I    between atoms: C28_24  and  N30_30 
REMARK   11  A    between atoms: C24_26  and  C25_27 
REMARK   12  A    between atoms: C25_27  and  C26_28 
REMARK   13  A    between atoms: C25_27  and  C27_29 
REMARK   14  A    between atoms: N30_30  and  C31_31 
REMARK   15  A    between atoms: C31_31  and  C39_32 
REMARK   16  A    between atoms: C31_31  and  C32_34 
REMARK       I    between atoms: C39_32  and  N41_41 
REMARK   17  A    between atoms: C32_34  and  C33_35 
REMARK   18  A    between atoms: N41_41  and  C42_42 
REMARK   19  A    between atoms: C42_42  and  C43_43 
REMARK   20  A    between atoms: C42_42  and  C47_47 
REMARK   21  A    between atoms: C43_43  and  C44_44 
REMARK   22  A    between atoms: C44_44  and  C45_45 
REMARK   23  A    between atoms: C44_44  and  C46_46 
REMARK   24  A    between atoms: C47_47  and  C51_48 
REMARK   25  A    between atoms: C47_47  and  O48_52 
REMARK   26  A    between atoms: C51_48  and  C58_49 
REMARK   27  A    between atoms: C51_48  and  C59_50 
REMARK   28  A    between atoms: C59_50  and  O60_51 
ROOT
ATOM      1  C23 3BV d   1      61.746-135.159  35.763  0.00  0.00     0.089 C 
ATOM      2  H24 3BV d   1      62.142-136.116  35.392  0.00  0.00     0.087 H 
ENDROOT
BRANCH   1   3
ATOM      3  N22 3BV d   1      60.615-134.727  34.943  0.00  0.00    -0.346 N 
ATOM      4  C20 3BV d   1      59.887-135.632  34.286  0.00  0.00     0.241 C 
ATOM      5  O21 3BV d   1      60.088-136.845  34.319  0.00  0.00    -0.271 OA
ATOM      6  H23 3BV d   1      60.388-133.756  34.875  0.00  0.00     0.163 HD
BRANCH   4   7
ATOM      7  C11 3BV d   1      58.695-135.075  33.542  0.00  0.00     0.089 C 
ATOM      8  H13 3BV d   1      58.907-134.084  33.114  0.00  0.00     0.087 H 
BRANCH   7   9
ATOM      9  N10 3BV d   1      58.332-136.031  32.500  0.00  0.00    -0.346 N 
ATOM     10  C8  3BV d   1      58.852-135.981  31.273  0.00  0.00     0.244 C 
ATOM     11  O9  3BV d   1      59.662-135.131  30.900  0.00  0.00    -0.272 OA
ATOM     12  H12 3BV d   1      57.670-136.749  32.714  0.00  0.00     0.163 HD
BRANCH  10  13
ATOM     13  C7  3BV d   1      58.349-137.108  30.356  0.00  0.00     0.156 C 
ATOM     14  H1  3BV d   1      57.378-137.456  30.739  0.00  0.00     0.090 H 
ATOM     15  H2  3BV d   1      59.076-137.933  30.394  0.00  0.00     0.090 H 
BRANCH  13  16
ATOM     16  N4  3BV d   1      58.173-136.710  28.940  0.00  0.00    -0.059 N 
ATOM     17  C5  3BV d   1      59.460-136.664  28.200  0.00  0.00     0.103 C 
ATOM     18  C6  3BV d   1      59.097-136.543  26.757  0.00  0.00     0.042 C 
ATOM     19  H4  3BV d   1      60.035-137.585  28.374  0.00  0.00     0.079 H 
ATOM     20  H5  3BV d   1      60.054-135.795  28.519  0.00  0.00     0.079 H 
ATOM     21  O1  3BV d   1      58.463-135.272  26.692  0.00  0.00    -0.388 OA
ATOM     22  H8  3BV d   1      59.993-136.571  26.120  0.00  0.00     0.076 H 
ATOM     23  H9  3BV d   1      58.407-137.345  26.454  0.00  0.00     0.076 H 
ATOM     24  C2  3BV d   1      57.172-135.205  27.363  0.00  0.00     0.042 C 
ATOM     25  C3  3BV d   1      57.410-135.444  28.782  0.00  0.00     0.103 C 
ATOM     26  H10 3BV d   1      56.497-135.974  26.959  0.00  0.00     0.076 H 
ATOM     27  H11 3BV d   1      56.723-134.211  27.218  0.00  0.00     0.076 H 
ATOM     28  H6  3BV d   1      57.989-134.609  29.204  0.00  0.00     0.079 H 
ATOM     29  H7  3BV d   1      56.448-135.526  29.308  0.00  0.00     0.079 H 
ATOM     30  H3  3BV d   1      57.619-137.434  28.510  0.00  0.00     0.280 HD
ENDBRANCH  13  16
ENDBRANCH  10  13
ENDBRANCH   7   9
BRANCH   7  31
ATOM     31  C12 3BV d   1      57.590-135.014  34.555  0.00  0.00    -0.034 C 
ATOM     32  H14 3BV d   1      58.009-134.952  35.570  0.00  0.00     0.037 H 
ATOM     33  H15 3BV d   1      56.952-135.907  34.476  0.00  0.00     0.037 H 
BRANCH  31  34
ATOM     34  C13 3BV d   1      56.788-133.771  34.244  0.00  0.00    -0.039 C 
ATOM     35  H16 3BV d   1      56.662-133.670  33.156  0.00  0.00     0.040 H 
ATOM     36  H17 3BV d   1      57.306-132.884  34.637  0.00  0.00     0.040 H 
BRANCH  34  37
ATOM     37  C14 3BV d   1      55.522-133.902  34.864  0.00  0.00    -0.058 A 
ATOM     38  C19 3BV d   1      54.369-133.547  34.163  0.00  0.00    -0.077 A 
ATOM     39  C18 3BV d   1      53.116-133.662  34.758  0.00  0.00    -0.082 A 
ATOM     40  H18 3BV d   1      54.450-133.179  33.147  0.00  0.00     0.084 H 
ATOM     41  C17 3BV d   1      52.997-134.128  36.063  0.00  0.00    -0.083 A 
ATOM     42  H20 3BV d   1      52.228-133.387  34.201  0.00  0.00     0.083 H 
ATOM     43  C16 3BV d   1      54.136-134.479  36.774  0.00  0.00    -0.082 A 
ATOM     44  H22 3BV d   1      52.019-134.217  36.523  0.00  0.00     0.083 H 
ATOM     45  C15 3BV d   1      55.389-134.361  36.181  0.00  0.00    -0.077 A 
ATOM     46  H21 3BV d   1      54.049-134.845  37.791  0.00  0.00     0.083 H 
ATOM     47  H19 3BV d   1      56.275-134.628  36.746  0.00  0.00     0.084 H 
ENDBRANCH  34  37
ENDBRANCH  31  34
ENDBRANCH   7  31
ENDBRANCH   4   7
ENDBRANCH   1   3
BRANCH   1  48
ATOM     48  C28 3BV d   1      61.226-135.288  37.179  0.00  0.00     0.241 C 
ATOM     49  O29 3BV d   1      60.477-134.433  37.652  0.00  0.00    -0.271 OA
ATOM     50  N30 3BV d   1      61.657-136.370  37.826  0.00  0.00    -0.346 N 
ATOM     51  H34 3BV d   1      62.247-137.022  37.350  0.00  0.00     0.163 HD
BRANCH  50  52
ATOM     52  C31 3BV d   1      61.287-136.625  39.215  0.00  0.00     0.093 C 
ATOM     53  H35 3BV d   1      60.616-135.832  39.576  0.00  0.00     0.088 H 
BRANCH  52  54
ATOM     54  C39 3BV d   1      62.582-136.608  40.006  0.00  0.00     0.241 C 
ATOM     55  O40 3BV d   1      63.668-136.619  39.425  0.00  0.00    -0.271 OA
ATOM     56  N41 3BV d   1      62.418-136.559  41.332  0.00  0.00    -0.352 N 
ATOM     57  H43 3BV d   1      61.494-136.640  41.706  0.00  0.00     0.163 HD
BRANCH  56  58
ATOM     58  C42 3BV d   1      63.537-136.392  42.254  0.00  0.00     0.037 C 
ATOM     59  H44 3BV d   1      64.499-136.529  41.738  0.00  0.00     0.076 H 
BRANCH  58  60
ATOM     60  C43 3BV d   1      63.345-134.959  42.735  0.00  0.00    -0.041 C 
ATOM     61  H45 3BV d   1      63.370-134.957  43.835  0.00  0.00     0.036 H 
ATOM     62  H46 3BV d   1      62.361-134.607  42.390  0.00  0.00     0.036 H 
BRANCH  60  63
ATOM     63  C44 3BV d   1      64.427-133.967  42.220  0.00  0.00    -0.059 C 
ATOM     64  H47 3BV d   1      65.311-134.063  42.867  0.00  0.00     0.038 H 
BRANCH  63  65
ATOM     65  C45 3BV d   1      63.859-132.541  42.341  0.00  0.00    -0.073 C 
ATOM     66  H48 3BV d   1      64.606-131.817  41.983  0.00  0.00     0.028 H 
ATOM     67  H49 3BV d   1      63.620-132.330  43.394  0.00  0.00     0.028 H 
ATOM     68  H50 3BV d   1      62.946-132.457  41.733  0.00  0.00     0.028 H 
ENDBRANCH  63  65
BRANCH  63  69
ATOM     69  C46 3BV d   1      64.879-134.187  40.764  0.00  0.00    -0.073 C 
ATOM     70  H51 3BV d   1      65.289-135.202  40.657  0.00  0.00     0.028 H 
ATOM     71  H52 3BV d   1      65.653-133.450  40.505  0.00  0.00     0.028 H 
ATOM     72  H53 3BV d   1      64.018-134.066  40.090  0.00  0.00     0.028 H 
ENDBRANCH  63  69
ENDBRANCH  60  63
ENDBRANCH  58  60
BRANCH  58  73
ATOM     73  C47 3BV d   1      63.460-137.333  43.479  0.00  0.00     0.060 C 
ATOM     74  H54 3BV d   1      64.173-136.942  44.220  0.00  0.00     0.086 H 
BRANCH  73  75
ATOM     75  C51 3BV d   1      63.852-138.880  43.250  0.00  0.00    -0.010 C 
ATOM     76  H55 3BV d   1      64.108-139.336  44.218  0.00  0.00     0.046 H 
BRANCH  75  77
ATOM     77  C58 3BV d   1      65.049-138.996  42.270  0.00  0.00    -0.069 C 
ATOM     78  H56 3BV d   1      65.303-140.056  42.125  0.00  0.00     0.028 H 
ATOM     79  H57 3BV d   1      65.917-138.465  42.687  0.00  0.00     0.028 H 
ATOM     80  H58 3BV d   1      64.776-138.549  41.303  0.00  0.00     0.028 H 
ENDBRANCH  75  77
BRANCH  75  81
ATOM     81  C59 3BV d   1      62.687-139.651  42.593  0.00  0.00     0.022 C 
ATOM     82  H59 3BV d   1      62.549-140.620  43.095  0.00  0.00     0.074 H 
ATOM     83  H60 3BV d   1      62.902-139.817  41.527  0.00  0.00     0.074 H 
BRANCH  81  84
ATOM     84  O60 3BV d   1      61.501-138.854  42.734  0.00  0.00    -0.400 OA
ATOM     85  H61 3BV d   1      61.325-138.711  43.657  0.00  0.00     0.209 HD
ENDBRANCH  81  84
ENDBRANCH  75  81
ENDBRANCH  73  75
BRANCH  73  86
ATOM     86  O48 3BV d   1      62.144-137.237  44.036  0.00  0.00    -0.393 OA
ATOM     87  H62 3BV d   1      61.519-137.633  43.440  0.00  0.00     0.210 HD
ENDBRANCH  73  86
ENDBRANCH  58  73
ENDBRANCH  56  58
ENDBRANCH  52  54
BRANCH  52  88
ATOM     88  C32 3BV d   1      60.600-137.943  39.352  0.00  0.00    -0.014 C 
ATOM     89  H36 3BV d   1      60.523-138.231  40.411  0.00  0.00     0.043 H 
ATOM     90  H37 3BV d   1      61.144-138.722  38.798  0.00  0.00     0.043 H 
BRANCH  88  91
ATOM     91  C33 3BV d   1      59.328-137.745  38.802  0.00  0.00    -0.056 A 
ATOM     92  C34 3BV d   1      59.089-138.034  37.458  0.00  0.00    -0.077 A 
ATOM     93  C35 3BV d   1      57.824-137.838  36.911  0.00  0.00    -0.082 A 
ATOM     94  H38 3BV d   1      59.892-138.413  36.837  0.00  0.00     0.084 H 
ATOM     95  C36 3BV d   1      56.791-137.351  37.706  0.00  0.00    -0.083 A 
ATOM     96  H40 3BV d   1      57.644-138.065  35.866  0.00  0.00     0.083 H 
ATOM     97  C37 3BV d   1      57.025-137.058  39.047  0.00  0.00    -0.082 A 
ATOM     98  H42 3BV d   1      55.805-137.200  37.282  0.00  0.00     0.083 H 
ATOM     99  C38 3BV d   1      58.290-137.255  39.595  0.00  0.00    -0.077 A 
ATOM    100  H41 3BV d   1      56.221-136.676  39.666  0.00  0.00     0.083 H 
ATOM    101  H39 3BV d   1      58.468-137.027  40.640  0.00  0.00     0.084 H 
ENDBRANCH  88  91
ENDBRANCH  52  88
ENDBRANCH  50  52
ENDBRANCH   1  48
BRANCH   1 102
ATOM    102  C24 3BV d   1      62.826-134.136  35.807  0.00  0.00    -0.035 C 
ATOM    103  H25 3BV d   1      63.651-134.482  36.447  0.00  0.00     0.037 H 
ATOM    104  H26 3BV d   1      62.433-133.185  36.197  0.00  0.00     0.037 H 
BRANCH 102 105
ATOM    105  C25 3BV d   1      63.317-133.954  34.356  0.00  0.00    -0.059 C 
ATOM    106  H27 3BV d   1      62.636-134.486  33.675  0.00  0.00     0.038 H 
BRANCH 105 107
ATOM    107  C26 3BV d   1      63.315-132.453  34.029  0.00  0.00    -0.073 C 
ATOM    108  H28 3BV d   1      63.663-132.302  32.996  0.00  0.00     0.028 H 
ATOM    109  H29 3BV d   1      63.986-131.926  34.723  0.00  0.00     0.028 H 
ATOM    110  H30 3BV d   1      62.294-132.056  34.134  0.00  0.00     0.028 H 
ENDBRANCH 105 107
BRANCH 105 111
ATOM    111  C27 3BV d   1      64.746-134.489  34.162  0.00  0.00    -0.073 C 
ATOM    112  H31 3BV d   1      64.769-135.565  34.392  0.00  0.00     0.028 H 
ATOM    113  H32 3BV d   1      65.432-133.955  34.836  0.00  0.00     0.028 H 
ATOM    114  H33 3BV d   1      65.059-134.330  33.120  0.00  0.00     0.028 H 
ENDBRANCH 105 111
ENDBRANCH 102 105
ENDBRANCH   1 102
TORSDOF 28
