REMARK  28 active torsions:
REMARK  status: ('A' for Active; 'I' for Inactive)
REMARK    1  A    between atoms: C7_3  and  C8_1 
REMARK       I    between atoms: C8_1  and  N10_10 
REMARK    2  A    between atoms: N4_4  and  C7_3 
REMARK    3  A    between atoms: N10_10  and  C11_11 
REMARK    4  A    between atoms: C11_11  and  C20_12 
REMARK    5  A    between atoms: C11_11  and  C12_14 
REMARK       I    between atoms: C20_12  and  N22_22 
REMARK    6  A    between atoms: C12_14  and  C13_15 
REMARK    7  A    between atoms: C13_15  and  C14_16 
REMARK    8  A    between atoms: N22_22  and  C23_23 
REMARK    9  A    between atoms: C23_23  and  C28_24 
REMARK   10  A    between atoms: C23_23  and  C24_26 
REMARK       I    between atoms: C28_24  and  N30_30 
REMARK   11  A    between atoms: C24_26  and  C25_27 
REMARK   12  A    between atoms: C25_27  and  C26_28 
REMARK   13  A    between atoms: C25_27  and  C27_29 
REMARK   14  A    between atoms: N30_30  and  C31_31 
REMARK   15  A    between atoms: C31_31  and  C39_32 
REMARK   16  A    between atoms: C31_31  and  C32_34 
REMARK       I    between atoms: C39_32  and  N41_41 
REMARK   17  A    between atoms: C32_34  and  C33_35 
REMARK   18  A    between atoms: N41_41  and  C42_42 
REMARK   19  A    between atoms: C42_42  and  C43_43 
REMARK   20  A    between atoms: C42_42  and  C47_47 
REMARK   21  A    between atoms: C43_43  and  C44_44 
REMARK   22  A    between atoms: C44_44  and  C45_45 
REMARK   23  A    between atoms: C44_44  and  C46_46 
REMARK   24  A    between atoms: C47_47  and  C51_48 
REMARK   25  A    between atoms: C47_47  and  O48_52 
REMARK   26  A    between atoms: C51_48  and  C58_49 
REMARK   27  A    between atoms: C51_48  and  C59_50 
REMARK   28  A    between atoms: C59_50  and  O60_51 
ROOT
ATOM      1  C23 3BV d   1      62.536-134.653  36.137  0.00  0.00     0.089 C 
ATOM      2  H24 3BV d   1      63.007-135.577  35.772  0.00  0.00     0.087 H 
ENDROOT
BRANCH   1   3
ATOM      3  N22 3BV d   1      61.375-134.314  35.314  0.00  0.00    -0.346 N 
ATOM      4  C20 3BV d   1      60.652-135.283  34.759  0.00  0.00     0.241 C 
ATOM      5  O21 3BV d   1      60.898-136.482  34.880  0.00  0.00    -0.271 OA
ATOM      6  H23 3BV d   1      61.126-133.357  35.169  0.00  0.00     0.163 HD
BRANCH   4   7
ATOM      7  C11 3BV d   1      59.452-134.825  33.951  0.00  0.00     0.089 C 
ATOM      8  H13 3BV d   1      59.625-133.843  33.486  0.00  0.00     0.087 H 
BRANCH   7   9
ATOM      9  N10 3BV d   1      59.245-135.862  32.953  0.00  0.00    -0.346 N 
ATOM     10  C8  3BV d   1      59.653-135.720  31.699  0.00  0.00     0.244 C 
ATOM     11  O9  3BV d   1      60.192-134.703  31.263  0.00  0.00    -0.272 OA
ATOM     12  H12 3BV d   1      58.782-136.707  33.220  0.00  0.00     0.163 HD
BRANCH  10  13
ATOM     13  C7  3BV d   1      59.376-136.949  30.828  0.00  0.00     0.156 C 
ATOM     14  H1  3BV d   1      58.599-137.555  31.316  0.00  0.00     0.090 H 
ATOM     15  H2  3BV d   1      60.302-137.536  30.747  0.00  0.00     0.090 H 
BRANCH  13  16
ATOM     16  N4  3BV d   1      58.917-136.604  29.464  0.00  0.00    -0.059 N 
ATOM     17  C5  3BV d   1      60.016-136.082  28.607  0.00  0.00     0.103 C 
ATOM     18  C6  3BV d   1      59.480-135.976  27.224  0.00  0.00     0.042 C 
ATOM     19  H4  3BV d   1      60.871-136.773  28.628  0.00  0.00     0.079 H 
ATOM     20  H5  3BV d   1      60.336-135.092  28.965  0.00  0.00     0.079 H 
ATOM     21  O1  3BV d   1      58.439-135.009  27.339  0.00  0.00    -0.388 OA
ATOM     22  H8  3BV d   1      60.259-135.633  26.527  0.00  0.00     0.076 H 
ATOM     23  H9  3BV d   1      59.082-136.943  26.883  0.00  0.00     0.076 H 
ATOM     24  C2  3BV d   1      57.301-135.531  28.090  0.00  0.00     0.042 C 
ATOM     25  C3  3BV d   1      57.735-135.697  29.467  0.00  0.00     0.103 C 
ATOM     26  H10 3BV d   1      56.987-136.500  27.674  0.00  0.00     0.076 H 
ATOM     27  H11 3BV d   1      56.461-134.822  28.042  0.00  0.00     0.076 H 
ATOM     28  H6  3BV d   1      58.013-134.721  29.892  0.00  0.00     0.079 H 
ATOM     29  H7  3BV d   1      56.925-136.140  30.064  0.00  0.00     0.079 H 
ATOM     30  H3  3BV d   1      58.612-137.467  29.042  0.00  0.00     0.280 HD
ENDBRANCH  13  16
ENDBRANCH  10  13
ENDBRANCH   7   9
BRANCH   7  31
ATOM     31  C12 3BV d   1      58.257-134.788  34.858  0.00  0.00    -0.034 C 
ATOM     32  H14 3BV d   1      58.579-134.697  35.906  0.00  0.00     0.037 H 
ATOM     33  H15 3BV d   1      57.660-135.704  34.736  0.00  0.00     0.037 H 
BRANCH  31  34
ATOM     34  C13 3BV d   1      57.440-133.575  34.455  0.00  0.00    -0.039 C 
ATOM     35  H16 3BV d   1      57.293-133.572  33.365  0.00  0.00     0.040 H 
ATOM     36  H17 3BV d   1      57.965-132.657  34.756  0.00  0.00     0.040 H 
BRANCH  34  37
ATOM     37  C14 3BV d   1      56.184-133.643  35.107  0.00  0.00    -0.058 A 
ATOM     38  C19 3BV d   1      55.016-133.327  34.409  0.00  0.00    -0.077 A 
ATOM     39  C18 3BV d   1      53.774-133.381  35.037  0.00  0.00    -0.082 A 
ATOM     40  H18 3BV d   1      55.077-133.036  33.367  0.00  0.00     0.084 H 
ATOM     41  C17 3BV d   1      53.678-133.746  36.375  0.00  0.00    -0.083 A 
ATOM     42  H20 3BV d   1      52.877-133.137  34.479  0.00  0.00     0.083 H 
ATOM     43  C16 3BV d   1      54.831-134.056  37.082  0.00  0.00    -0.082 A 
ATOM     44  H22 3BV d   1      52.710-133.788  36.862  0.00  0.00     0.083 H 
ATOM     45  C15 3BV d   1      56.071-133.999  36.456  0.00  0.00    -0.077 A 
ATOM     46  H21 3BV d   1      54.765-134.343  38.125  0.00  0.00     0.083 H 
ATOM     47  H19 3BV d   1      56.965-134.234  37.022  0.00  0.00     0.084 H 
ENDBRANCH  34  37
ENDBRANCH  31  34
ENDBRANCH   7  31
ENDBRANCH   4   7
ENDBRANCH   1   3
BRANCH   1  48
ATOM     48  C28 3BV d   1      62.056-134.829  37.567  0.00  0.00     0.241 C 
ATOM     49  O29 3BV d   1      61.361-133.961  38.096  0.00  0.00    -0.271 OA
ATOM     50  N30 3BV d   1      62.433-135.975  38.154  0.00  0.00    -0.346 N 
ATOM     51  H34 3BV d   1      62.970-136.638  37.633  0.00  0.00     0.163 HD
BRANCH  50  52
ATOM     52  C31 3BV d   1      62.073-136.275  39.545  0.00  0.00     0.093 C 
ATOM     53  H35 3BV d   1      61.405-135.487  39.923  0.00  0.00     0.088 H 
BRANCH  52  54
ATOM     54  C39 3BV d   1      63.357-136.289  40.361  0.00  0.00     0.241 C 
ATOM     55  O40 3BV d   1      64.461-136.312  39.812  0.00  0.00    -0.271 OA
ATOM     56  N41 3BV d   1      63.153-136.233  41.686  0.00  0.00    -0.352 N 
ATOM     57  H43 3BV d   1      62.218-136.305  42.035  0.00  0.00     0.163 HD
BRANCH  56  58
ATOM     58  C42 3BV d   1      64.249-136.070  42.635  0.00  0.00     0.037 C 
ATOM     59  H44 3BV d   1      65.219-136.165  42.125  0.00  0.00     0.076 H 
BRANCH  58  60
ATOM     60  C43 3BV d   1      64.017-134.667  43.175  0.00  0.00    -0.041 C 
ATOM     61  H45 3BV d   1      64.064-134.692  44.274  0.00  0.00     0.036 H 
ATOM     62  H46 3BV d   1      63.023-134.320  42.858  0.00  0.00     0.036 H 
BRANCH  60  63
ATOM     63  C44 3BV d   1      65.083-133.688  42.649  0.00  0.00    -0.059 C 
ATOM     64  H47 3BV d   1      66.059-133.951  43.083  0.00  0.00     0.038 H 
BRANCH  63  65
ATOM     65  C45 3BV d   1      64.684-132.271  43.086  0.00  0.00    -0.073 C 
ATOM     66  H48 3BV d   1      65.431-131.551  42.722  0.00  0.00     0.028 H 
ATOM     67  H49 3BV d   1      64.636-132.226  44.184  0.00  0.00     0.028 H 
ATOM     68  H50 3BV d   1      63.699-132.021  42.665  0.00  0.00     0.028 H 
ENDBRANCH  63  65
BRANCH  63  69
ATOM     69  C46 3BV d   1      65.194-133.718  41.120  0.00  0.00    -0.073 C 
ATOM     70  H51 3BV d   1      65.480-134.729  40.793  0.00  0.00     0.028 H 
ATOM     71  H52 3BV d   1      65.958-132.997  40.794  0.00  0.00     0.028 H 
ATOM     72  H53 3BV d   1      64.224-133.450  40.677  0.00  0.00     0.028 H 
ENDBRANCH  63  69
ENDBRANCH  60  63
ENDBRANCH  58  60
BRANCH  58  73
ATOM     73  C47 3BV d   1      64.200-137.024  43.844  0.00  0.00     0.060 C 
ATOM     74  H54 3BV d   1      64.946-136.652  44.562  0.00  0.00     0.086 H 
BRANCH  73  75
ATOM     75  C51 3BV d   1      64.563-138.547  43.585  0.00  0.00    -0.010 C 
ATOM     76  H55 3BV d   1      64.761-139.051  44.542  0.00  0.00     0.046 H 
BRANCH  75  77
ATOM     77  C58 3BV d   1      65.789-138.658  42.645  0.00  0.00    -0.069 C 
ATOM     78  H56 3BV d   1      66.027-139.719  42.476  0.00  0.00     0.028 H 
ATOM     79  H57 3BV d   1      66.653-138.158  43.108  0.00  0.00     0.028 H 
ATOM     80  H58 3BV d   1      65.558-138.176  41.683  0.00  0.00     0.028 H 
ENDBRANCH  75  77
BRANCH  75  81
ATOM     81  C59 3BV d   1      63.411-139.230  42.838  0.00  0.00     0.022 C 
ATOM     82  H59 3BV d   1      63.584-140.315  42.779  0.00  0.00     0.074 H 
ATOM     83  H60 3BV d   1      63.317-138.818  41.822  0.00  0.00     0.074 H 
BRANCH  81  84
ATOM     84  O60 3BV d   1      62.231-138.956  43.595  0.00  0.00    -0.400 OA
ATOM     85  H61 3BV d   1      62.099-138.017  43.644  0.00  0.00     0.209 HD
ENDBRANCH  81  84
ENDBRANCH  75  81
ENDBRANCH  73  75
BRANCH  73  86
ATOM     86  O48 3BV d   1      62.911-136.919  44.461  0.00  0.00    -0.393 OA
ATOM     87  H62 3BV d   1      62.256-137.302  43.890  0.00  0.00     0.210 HD
ENDBRANCH  73  86
ENDBRANCH  58  73
ENDBRANCH  56  58
ENDBRANCH  52  54
BRANCH  52  88
ATOM     88  C32 3BV d   1      61.379-137.591  39.668  0.00  0.00    -0.014 C 
ATOM     89  H36 3BV d   1      61.338-137.908  40.721  0.00  0.00     0.043 H 
ATOM     90  H37 3BV d   1      61.898-138.357  39.074  0.00  0.00     0.043 H 
BRANCH  88  91
ATOM     91  C33 3BV d   1      60.090-137.377  39.171  0.00  0.00    -0.056 A 
ATOM     92  C34 3BV d   1      59.783-137.710  37.853  0.00  0.00    -0.077 A 
ATOM     93  C35 3BV d   1      58.500-137.501  37.358  0.00  0.00    -0.082 A 
ATOM     94  H38 3BV d   1      60.547-138.133  37.211  0.00  0.00     0.084 H 
ATOM     95  C36 3BV d   1      57.516-136.958  38.178  0.00  0.00    -0.083 A 
ATOM     96  H40 3BV d   1      58.267-137.762  36.332  0.00  0.00     0.083 H 
ATOM     97  C37 3BV d   1      57.819-136.624  39.495  0.00  0.00    -0.082 A 
ATOM     98  H42 3BV d   1      56.516-136.795  37.792  0.00  0.00     0.083 H 
ATOM     99  C38 3BV d   1      59.102-136.832  39.991  0.00  0.00    -0.077 A 
ATOM    100  H41 3BV d   1      57.054-136.201  40.136  0.00  0.00     0.083 H 
ATOM    101  H39 3BV d   1      59.334-136.570  41.017  0.00  0.00     0.084 H 
ENDBRANCH  88  91
ENDBRANCH  52  88
ENDBRANCH  50  52
ENDBRANCH   1  48
BRANCH   1 102
ATOM    102  C24 3BV d   1      63.516-133.525  36.101  0.00  0.00    -0.035 C 
ATOM    103  H25 3BV d   1      64.239-133.613  36.926  0.00  0.00     0.037 H 
ATOM    104  H26 3BV d   1      62.997-132.558  36.170  0.00  0.00     0.037 H 
BRANCH 102 105
ATOM    105  C25 3BV d   1      64.225-133.665  34.741  0.00  0.00    -0.059 C 
ATOM    106  H27 3BV d   1      63.504-134.034  33.996  0.00  0.00     0.038 H 
BRANCH 105 107
ATOM    107  C26 3BV d   1      64.750-132.295  34.295  0.00  0.00    -0.073 C 
ATOM    108  H28 3BV d   1      65.256-132.395  33.324  0.00  0.00     0.028 H 
ATOM    109  H29 3BV d   1      65.462-131.914  35.042  0.00  0.00     0.028 H 
ATOM    110  H30 3BV d   1      63.908-131.593  34.199  0.00  0.00     0.028 H 
ENDBRANCH 105 107
BRANCH 105 111
ATOM    111  C27 3BV d   1      65.387-134.668  34.850  0.00  0.00    -0.073 C 
ATOM    112  H31 3BV d   1      64.998-135.646  35.170  0.00  0.00     0.028 H 
ATOM    113  H32 3BV d   1      66.117-134.304  35.588  0.00  0.00     0.028 H 
ATOM    114  H33 3BV d   1      65.876-134.771  33.870  0.00  0.00     0.028 H 
ENDBRANCH 105 111
ENDBRANCH 102 105
ENDBRANCH   1 102
TORSDOF 28
