REMARK  13 active torsions:
REMARK  status: ('A' for Active; 'I' for Inactive)
REMARK    1  A    between atoms: C2_2  and  C7_7 
REMARK       I    between atoms: C7_7  and  N9_9 
REMARK    2  A    between atoms: N9_9  and  C10_10 
REMARK    3  A    between atoms: C10_10  and  C11_11 
REMARK    4  A    between atoms: C10_10  and  C18_18 
REMARK    5  A    between atoms: C11_11  and  C12_12 
REMARK       I    between atoms: C18_18  and  N20_20 
REMARK    6  A    between atoms: N20_20  and  C21_21 
REMARK    7  A    between atoms: C21_21  and  C22_22 
REMARK    8  A    between atoms: C21_21  and  B26_26 
REMARK    9  A    between atoms: C22_22  and  C23_23 
REMARK   10  A    between atoms: C23_23  and  C24_24 
REMARK   11  A    between atoms: C23_23  and  C25_25 
REMARK   12  A    between atoms: B26_26  and  O27_27 
REMARK   13  A    between atoms: B26_26  and  O28_28 
ROOT
ATOM      1  C10 BO2 d   1      60.832-135.484  39.078  0.00  0.00     0.093 C 
ATOM      2  H   BO2 d   1      60.148-134.696  39.425  0.00  0.00     0.088 H 
ENDROOT
BRANCH   1   3
ATOM      3  N9  BO2 d   1      61.302-135.171  37.721  0.00  0.00    -0.342 N 
ATOM      4  C7  BO2 d   1      61.064-133.972  37.167  0.00  0.00     0.272 C 
ATOM      5  O8  BO2 d   1      60.425-133.080  37.720  0.00  0.00    -0.266 OA
ATOM      6  H   BO2 d   1      61.807-135.862  37.203  0.00  0.00     0.163 HD
BRANCH   4   7
ATOM      7  C2  BO2 d   1      61.613-133.760  35.909  0.00  0.00     0.141 A 
ATOM      8  N1  BO2 d   1      62.373-132.665  35.725  0.00  0.00    -0.253 NA
ATOM      9  C6  BO2 d   1      62.962-132.383  34.489  0.00  0.00     0.020 A 
ATOM     10  C5  BO2 d   1      62.760-133.256  33.427  0.00  0.00     0.019 A 
ATOM     11  H   BO2 d   1      63.569-131.494  34.361  0.00  0.00     0.117 H 
ATOM     12  N4  BO2 d   1      61.969-134.399  33.613  0.00  0.00    -0.269 NA
ATOM     13  H   BO2 d   1      63.211-133.055  32.462  0.00  0.00     0.117 H 
ATOM     14  C3  BO2 d   1      61.391-134.653  34.862  0.00  0.00     0.035 A 
ATOM     15  H   BO2 d   1      60.778-135.534  35.013  0.00  0.00     0.118 H 
ENDBRANCH   4   7
ENDBRANCH   1   3
BRANCH   1  16
ATOM     16  C11 BO2 d   1      60.115-136.815  39.137  0.00  0.00    -0.014 C 
ATOM     17  H   BO2 d   1      59.874-137.071  40.179  0.00  0.00     0.043 H 
ATOM     18  H   BO2 d   1      60.744-137.605  38.702  0.00  0.00     0.043 H 
BRANCH  16  19
ATOM     19  C12 BO2 d   1      58.933-136.666  38.387  0.00  0.00    -0.056 A 
ATOM     20  C13 BO2 d   1      58.735-137.388  37.205  0.00  0.00    -0.077 A 
ATOM     21  C14 BO2 d   1      57.559-137.233  36.472  0.00  0.00    -0.082 A 
ATOM     22  H   BO2 d   1      59.501-138.072  36.857  0.00  0.00     0.084 H 
ATOM     23  C15 BO2 d   1      56.568-136.359  36.912  0.00  0.00    -0.083 A 
ATOM     24  H   BO2 d   1      57.416-137.795  35.556  0.00  0.00     0.083 H 
ATOM     25  C16 BO2 d   1      56.755-135.640  38.088  0.00  0.00    -0.082 A 
ATOM     26  H   BO2 d   1      55.655-136.239  36.340  0.00  0.00     0.083 H 
ATOM     27  C17 BO2 d   1      57.929-135.795  38.823  0.00  0.00    -0.077 A 
ATOM     28  H   BO2 d   1      55.986-134.958  38.433  0.00  0.00     0.083 H 
ATOM     29  H   BO2 d   1      58.065-135.235  39.741  0.00  0.00     0.084 H 
ENDBRANCH  16  19
ENDBRANCH   1  16
BRANCH   1  30
ATOM     30  C18 BO2 d   1      62.078-135.518  39.954  0.00  0.00     0.240 C 
ATOM     31  O19 BO2 d   1      63.196-135.558  39.440  0.00  0.00    -0.271 OA
ATOM     32  N20 BO2 d   1      61.860-135.457  41.276  0.00  0.00    -0.358 N 
ATOM     33  H   BO2 d   1      60.922-135.425  41.622  0.00  0.00     0.162 HD
BRANCH  32  34
ATOM     34  C21 BO2 d   1      62.987-135.437  42.221  0.00  0.00     0.046 C 
ATOM     35  H   BO2 d   1      63.928-135.563  41.665  0.00  0.00     0.064 H 
BRANCH  34  36
ATOM     36  C22 BO2 d   1      63.024-134.126  42.971  0.00  0.00    -0.046 C 
ATOM     37  H   BO2 d   1      63.952-134.069  43.558  0.00  0.00     0.035 H 
ATOM     38  H   BO2 d   1      62.158-134.069  43.647  0.00  0.00     0.035 H 
BRANCH  36  39
ATOM     39  C23 BO2 d   1      62.975-132.949  41.981  0.00  0.00    -0.060 C 
ATOM     40  H   BO2 d   1      62.172-133.124  41.250  0.00  0.00     0.038 H 
BRANCH  39  41
ATOM     41  C24 BO2 d   1      62.664-131.677  42.778  0.00  0.00    -0.073 C 
ATOM     42  H   BO2 d   1      62.623-130.817  42.094  0.00  0.00     0.028 H 
ATOM     43  H   BO2 d   1      63.452-131.512  43.528  0.00  0.00     0.028 H 
ATOM     44  H   BO2 d   1      61.694-131.790  43.285  0.00  0.00     0.028 H 
ENDBRANCH  39  41
BRANCH  39  45
ATOM     45  C25 BO2 d   1      64.305-132.808  41.223  0.00  0.00    -0.073 C 
ATOM     46  H   BO2 d   1      64.506-133.731  40.660  0.00  0.00     0.028 H 
ATOM     47  H   BO2 d   1      65.120-132.632  41.941  0.00  0.00     0.028 H 
ATOM     48  H   BO2 d   1      64.241-131.960  40.526  0.00  0.00     0.028 H 
ENDBRANCH  39  45
ENDBRANCH  36  39
ENDBRANCH  34  36
BRANCH  34  49
ATOM     49  B26 BO2 d   1      62.869-136.552  43.274  0.00  0.00     0.515 B 
BRANCH  49  50
ATOM     50  O27 BO2 d   1      61.573-136.514  43.893  0.00  0.00    -0.436 OA
ATOM     51  H   BO2 d   1      61.522-137.188  44.561  0.00  0.00     0.184 HD
ENDBRANCH  49  50
BRANCH  49  52
ATOM     52  O28 BO2 d   1      63.068-137.837  42.677  0.00  0.00    -0.436 OA
ATOM     53  H   BO2 d   1      63.014-138.508  43.347  0.00  0.00     0.184 HD
ENDBRANCH  49  52
ENDBRANCH  34  49
ENDBRANCH  32  34
ENDBRANCH   1  30
TORSDOF 13
