REMARK  20 active torsions:
REMARK  status: ('A' for Active; 'I' for Inactive)
REMARK    1  A    between atoms: C30_3  and  C29_1 
REMARK       I    between atoms: C29_1  and  N28_10 
REMARK    2  A    between atoms: N31_4  and  C30_3 
REMARK    3  A    between atoms: N28_10  and  C27_11 
REMARK    4  A    between atoms: C27_11  and  C26_12 
REMARK    5  A    between atoms: C27_11  and  C38_14 
REMARK       I    between atoms: C26_12  and  N25_15 
REMARK    6  A    between atoms: N25_15  and  C24_16 
REMARK    7  A    between atoms: C24_16  and  C40_17 
REMARK    8  A    between atoms: C24_16  and  C23_26 
REMARK    9  A    between atoms: C40_17  and  C41_18 
REMARK   10  A    between atoms: C44_21  and  O45_22 
REMARK   11  A    between atoms: O45_22  and  C46_23 
REMARK       I    between atoms: C23_26  and  N22_28 
REMARK   12  A    between atoms: N22_28  and  C8_29 
REMARK   13  A    between atoms: C8_29  and  C9_30 
REMARK   14  A    between atoms: C8_29  and  C7_36 
REMARK   15  A    between atoms: C9_30  and  O21_31 
REMARK   16  A    between atoms: C9_30  and  C10_32 
REMARK   17  A    between atoms: C10_32  and  C11_33 
REMARK   18  A    between atoms: C10_32  and  C12_34 
REMARK   19  A    between atoms: C12_34  and  O13_35 
REMARK   20  A    between atoms: C7_36  and  C6_37 
ROOT
ATOM      1  C24 04C d   1      61.239-135.625  39.519  0.00  0.00     0.093 C 
ATOM      2  H18 04C d   1      60.485-134.910  39.879  0.00  0.00     0.088 H 
ENDROOT
BRANCH   1   3
ATOM      3  N25 04C d   1      61.554-135.354  38.117  0.00  0.00    -0.346 N 
ATOM      4  C26 04C d   1      60.974-134.345  37.461  0.00  0.00     0.240 C 
ATOM      5  O39 04C d   1      60.144-133.582  37.957  0.00  0.00    -0.271 OA
ATOM      6  H17 04C d   1      62.215-135.934  37.641  0.00  0.00     0.163 HD
BRANCH   4   7
ATOM      7  C27 04C d   1      61.420-134.189  36.007  0.00  0.00     0.086 C 
ATOM      8  H13 04C d   1      61.727-135.167  35.608  0.00  0.00     0.086 H 
BRANCH   7   9
ATOM      9  N28 04C d   1      60.278-133.683  35.224  0.00  0.00    -0.347 N 
ATOM     10  C29 04C d   1      59.346-134.520  34.728  0.00  0.00     0.244 C 
ATOM     11  O37 04C d   1      59.375-135.742  34.871  0.00  0.00    -0.272 OA
ATOM     12  H12 04C d   1      60.194-132.701  35.058  0.00  0.00     0.163 HD
BRANCH  10  13
ATOM     13  C30 04C d   1      58.187-133.855  33.959  0.00  0.00     0.156 C 
ATOM     14  H1  04C d   1      57.927-134.442  33.066  0.00  0.00     0.090 H 
ATOM     15  H2  04C d   1      58.458-132.832  33.659  0.00  0.00     0.090 H 
BRANCH  13  16
ATOM     16  N31 04C d   1      57.074-133.836  34.904  0.00  0.00    -0.059 N 
ATOM     17  C36 04C d   1      56.135-134.954  34.660  0.00  0.00     0.103 C 
ATOM     18  C35 04C d   1      54.942-134.766  35.509  0.00  0.00     0.042 C 
ATOM     19  H4  04C d   1      56.622-135.908  34.912  0.00  0.00     0.079 H 
ATOM     20  H5  04C d   1      55.838-134.963  33.601  0.00  0.00     0.079 H 
ATOM     21  O34 04C d   1      54.361-133.455  35.362  0.00  0.00    -0.388 OA
ATOM     22  H8  04C d   1      54.189-135.519  35.231  0.00  0.00     0.076 H 
ATOM     23  H9  04C d   1      55.232-134.908  36.561  0.00  0.00     0.076 H 
ATOM     24  C33 04C d   1      55.286-132.463  35.828  0.00  0.00     0.042 C 
ATOM     25  C32 04C d   1      56.394-132.537  34.845  0.00  0.00     0.103 C 
ATOM     26  H10 04C d   1      55.642-132.702  36.841  0.00  0.00     0.076 H 
ATOM     27  H11 04C d   1      54.825-131.464  35.827  0.00  0.00     0.076 H 
ATOM     28  H6  04C d   1      55.986-132.392  33.834  0.00  0.00     0.079 H 
ATOM     29  H7  04C d   1      57.121-131.742  35.065  0.00  0.00     0.079 H 
ATOM     30  H3  04C d   1      57.450-133.949  35.832  0.00  0.00     0.280 HD
ENDBRANCH  13  16
ENDBRANCH  10  13
ENDBRANCH   7   9
BRANCH   7  31
ATOM     31  C38 04C d   1      62.613-133.228  35.946  0.00  0.00    -0.049 C 
ATOM     32  H14 04C d   1      63.444-133.637  36.540  0.00  0.00     0.030 H 
ATOM     33  H15 04C d   1      62.317-132.250  36.354  0.00  0.00     0.030 H 
ATOM     34  H16 04C d   1      62.934-133.108  34.901  0.00  0.00     0.030 H 
ENDBRANCH   7  31
ENDBRANCH   4   7
ENDBRANCH   1   3
BRANCH   1  35
ATOM     35  C40 04C d   1      60.722-137.023  39.656  0.00  0.00    -0.014 C 
ATOM     36  H19 04C d   1      60.936-137.414  40.662  0.00  0.00     0.043 H 
ATOM     37  H20 04C d   1      61.184-137.678  38.902  0.00  0.00     0.043 H 
BRANCH  35  38
ATOM     38  C41 04C d   1      59.346-136.942  39.450  0.00  0.00    -0.056 A 
ATOM     39  C48 04C d   1      58.828-136.991  38.162  0.00  0.00    -0.074 A 
ATOM     40  C47 04C d   1      57.454-136.916  37.954  0.00  0.00    -0.050 A 
ATOM     41  H21 04C d   1      59.497-137.088  37.315  0.00  0.00     0.084 H 
ATOM     42  C44 04C d   1      56.577-136.796  39.037  0.00  0.00     0.068 A 
ATOM     43  H22 04C d   1      57.060-136.951  36.945  0.00  0.00     0.087 H 
ATOM     44  C43 04C d   1      57.106-136.745  40.325  0.00  0.00    -0.050 A 
ATOM     45  C42 04C d   1      58.479-136.818  40.534  0.00  0.00    -0.074 A 
ATOM     46  H26 04C d   1      56.439-136.647  41.174  0.00  0.00     0.087 H 
ATOM     47  H27 04C d   1      58.876-136.778  41.542  0.00  0.00     0.084 H 
BRANCH  42  48
ATOM     48  O45 04C d   1      55.213-136.711  38.920  0.00  0.00    -0.356 OA
BRANCH  48  49
ATOM     49  C46 04C d   1      54.536-137.129  37.726  0.00  0.00     0.010 C 
ATOM     50  H23 04C d   1      53.453-136.976  37.846  0.00  0.00     0.066 H 
ATOM     51  H24 04C d   1      54.737-138.195  37.544  0.00  0.00     0.066 H 
ATOM     52  H25 04C d   1      54.898-136.537  36.873  0.00  0.00     0.066 H 
ENDBRANCH  48  49
ENDBRANCH  42  48
ENDBRANCH  35  38
ENDBRANCH   1  35
BRANCH   1  53
ATOM     53  C23 04C d   1      62.516-135.496  40.339  0.00  0.00     0.241 C 
ATOM     54  O49 04C d   1      63.622-135.559  39.801  0.00  0.00    -0.271 OA
ATOM     55  N22 04C d   1      62.297-135.331  41.652  0.00  0.00    -0.352 N 
ATOM     56  H28 04C d   1      61.353-135.320  41.981  0.00  0.00     0.163 HD
BRANCH  55  57
ATOM     57  C8  04C d   1      63.380-135.167  42.624  0.00  0.00     0.041 C 
ATOM     58  H29 04C d   1      64.353-135.266  42.120  0.00  0.00     0.076 H 
BRANCH  57  59
ATOM     59  C9  04C d   1      63.258-136.207  43.753  0.00  0.00     0.060 C 
ATOM     60  H30 04C d   1      63.971-135.912  44.537  0.00  0.00     0.086 H 
BRANCH  59  61
ATOM     61  O21 04C d   1      61.937-136.138  44.295  0.00  0.00    -0.393 OA
ATOM     62  H31 04C d   1      61.782-135.266  44.639  0.00  0.00     0.210 HD
ENDBRANCH  59  61
BRANCH  59  63
ATOM     63  C10 04C d   1      63.586-137.712  43.380  0.00  0.00    -0.010 C 
ATOM     64  H32 04C d   1      63.915-138.257  44.277  0.00  0.00     0.046 H 
BRANCH  63  65
ATOM     65  C11 04C d   1      64.693-137.809  42.259  0.00  0.00    -0.069 C 
ATOM     66  H33 04C d   1      64.891-138.867  42.030  0.00  0.00     0.028 H 
ATOM     67  H34 04C d   1      65.618-137.332  42.615  0.00  0.00     0.028 H 
ATOM     68  H35 04C d   1      64.342-137.297  41.351  0.00  0.00     0.028 H 
ENDBRANCH  63  65
BRANCH  63  69
ATOM     69  C12 04C d   1      62.305-138.323  42.815  0.00  0.00     0.022 C 
ATOM     70  H36 04C d   1      61.833-137.619  42.114  0.00  0.00     0.074 H 
ATOM     71  H37 04C d   1      61.606-138.550  43.634  0.00  0.00     0.074 H 
BRANCH  69  72
ATOM     72  O13 04C d   1      62.658-139.533  42.126  0.00  0.00    -0.400 OA
ATOM     73  H38 04C d   1      63.264-139.331  41.423  0.00  0.00     0.209 HD
ENDBRANCH  69  72
ENDBRANCH  63  69
ENDBRANCH  59  63
ENDBRANCH  57  59
BRANCH  57  74
ATOM     74  C7  04C d   1      63.248-133.793  43.270  0.00  0.00    -0.020 C 
ATOM     75  H39 04C d   1      63.596-133.865  44.311  0.00  0.00     0.043 H 
ATOM     76  H40 04C d   1      62.187-133.505  43.257  0.00  0.00     0.043 H 
BRANCH  74  77
ATOM     77  C6  04C d   1      63.995-132.776  42.619  0.00  0.00    -0.056 A 
ATOM     78  C5  04C d   1      64.827-132.964  41.502  0.00  0.00    -0.077 A 
ATOM     79  C4  04C d   1      65.509-131.884  40.944  0.00  0.00    -0.082 A 
ATOM     80  H41 04C d   1      64.939-133.953  41.073  0.00  0.00     0.084 H 
ATOM     81  C3  04C d   1      65.374-130.606  41.479  0.00  0.00    -0.083 A 
ATOM     82  H42 04C d   1      66.151-132.041  40.085  0.00  0.00     0.083 H 
ATOM     83  C2  04C d   1      64.552-130.402  42.582  0.00  0.00    -0.082 A 
ATOM     84  H43 04C d   1      65.908-129.772  41.037  0.00  0.00     0.083 H 
ATOM     85  C1  04C d   1      63.873-131.483  43.140  0.00  0.00    -0.077 A 
ATOM     86  H44 04C d   1      64.441-129.410  43.004  0.00  0.00     0.083 H 
ATOM     87  H45 04C d   1      63.234-131.318  44.000  0.00  0.00     0.084 H 
ENDBRANCH  74  77
ENDBRANCH  57  74
ENDBRANCH  55  57
ENDBRANCH   1  53
TORSDOF 20
