REMARK  20 active torsions:
REMARK  status: ('A' for Active; 'I' for Inactive)
REMARK    1  A    between atoms: C30_3  and  C29_1 
REMARK       I    between atoms: C29_1  and  N28_10 
REMARK    2  A    between atoms: N31_4  and  C30_3 
REMARK    3  A    between atoms: N28_10  and  C27_11 
REMARK    4  A    between atoms: C27_11  and  C26_12 
REMARK    5  A    between atoms: C27_11  and  C38_14 
REMARK       I    between atoms: C26_12  and  N25_15 
REMARK    6  A    between atoms: N25_15  and  C24_16 
REMARK    7  A    between atoms: C24_16  and  C40_17 
REMARK    8  A    between atoms: C24_16  and  C23_26 
REMARK    9  A    between atoms: C40_17  and  C41_18 
REMARK   10  A    between atoms: C44_21  and  O45_22 
REMARK   11  A    between atoms: O45_22  and  C46_23 
REMARK       I    between atoms: C23_26  and  N22_28 
REMARK   12  A    between atoms: N22_28  and  C8_29 
REMARK   13  A    between atoms: C8_29  and  C9_30 
REMARK   14  A    between atoms: C8_29  and  C7_36 
REMARK   15  A    between atoms: C9_30  and  O21_31 
REMARK   16  A    between atoms: C9_30  and  C10_32 
REMARK   17  A    between atoms: C10_32  and  C11_33 
REMARK   18  A    between atoms: C10_32  and  C12_34 
REMARK   19  A    between atoms: C12_34  and  O13_35 
REMARK   20  A    between atoms: C7_36  and  C6_37 
ROOT
ATOM      1  C24 04C d   1      61.732-135.476  39.508  0.00  0.00     0.093 C 
ATOM      2  H18 04C d   1      61.003-134.745  39.889  0.00  0.00     0.088 H 
ENDROOT
BRANCH   1   3
ATOM      3  N25 04C d   1      62.033-135.213  38.103  0.00  0.00    -0.346 N 
ATOM      4  C26 04C d   1      61.441-134.222  37.427  0.00  0.00     0.240 C 
ATOM      5  O39 04C d   1      60.604-133.453  37.904  0.00  0.00    -0.271 OA
ATOM      6  H17 04C d   1      62.701-135.790  37.633  0.00  0.00     0.163 HD
BRANCH   4   7
ATOM      7  C27 04C d   1      61.881-134.118  35.964  0.00  0.00     0.086 C 
ATOM      8  H13 04C d   1      62.256-135.096  35.629  0.00  0.00     0.086 H 
BRANCH   7   9
ATOM      9  N28 04C d   1      60.724-133.738  35.140  0.00  0.00    -0.347 N 
ATOM     10  C29 04C d   1      59.884-134.661  34.646  0.00  0.00     0.244 C 
ATOM     11  O37 04C d   1      60.005-135.873  34.826  0.00  0.00    -0.272 OA
ATOM     12  H12 04C d   1      60.559-132.771  34.944  0.00  0.00     0.163 HD
BRANCH  10  13
ATOM     13  C30 04C d   1      58.714-134.104  33.818  0.00  0.00     0.156 C 
ATOM     14  H1  04C d   1      58.340-134.868  33.120  0.00  0.00     0.090 H 
ATOM     15  H2  04C d   1      59.032-133.215  33.253  0.00  0.00     0.090 H 
BRANCH  13  16
ATOM     16  N31 04C d   1      57.679-133.748  34.788  0.00  0.00    -0.059 N 
ATOM     17  C36 04C d   1      56.698-134.845  34.945  0.00  0.00     0.103 C 
ATOM     18  C35 04C d   1      55.585-134.371  35.800  0.00  0.00     0.042 C 
ATOM     19  H4  04C d   1      57.184-135.711  35.418  0.00  0.00     0.079 H 
ATOM     20  H5  04C d   1      56.308-135.136  33.959  0.00  0.00     0.079 H 
ATOM     21  O34 04C d   1      55.041-133.112  35.372  0.00  0.00    -0.388 OA
ATOM     22  H8  04C d   1      54.783-135.124  35.780  0.00  0.00     0.076 H 
ATOM     23  H9  04C d   1      55.957-134.260  36.829  0.00  0.00     0.076 H 
ATOM     24  C33 04C d   1      56.028-132.071  35.380  0.00  0.00     0.042 C 
ATOM     25  C32 04C d   1      57.022-132.505  34.372  0.00  0.00     0.103 C 
ATOM     26  H10 04C d   1      56.493-131.982  36.373  0.00  0.00     0.076 H 
ATOM     27  H11 04C d   1      55.581-131.107  35.097  0.00  0.00     0.076 H 
ATOM     28  H6  04C d   1      56.512-132.671  33.411  0.00  0.00     0.079 H 
ATOM     29  H7  04C d   1      57.782-131.718  34.253  0.00  0.00     0.079 H 
ATOM     30  H3  04C d   1      58.120-133.591  35.681  0.00  0.00     0.280 HD
ENDBRANCH  13  16
ENDBRANCH  10  13
ENDBRANCH   7   9
BRANCH   7  31
ATOM     31  C38 04C d   1      63.000-133.083  35.824  0.00  0.00    -0.049 C 
ATOM     32  H14 04C d   1      63.856-133.382  36.446  0.00  0.00     0.030 H 
ATOM     33  H15 04C d   1      62.633-132.100  36.154  0.00  0.00     0.030 H 
ATOM     34  H16 04C d   1      63.315-133.023  34.772  0.00  0.00     0.030 H 
ENDBRANCH   7  31
ENDBRANCH   4   7
ENDBRANCH   1   3
BRANCH   1  35
ATOM     35  C40 04C d   1      61.192-136.872  39.635  0.00  0.00    -0.014 C 
ATOM     36  H19 04C d   1      61.440-137.281  40.626  0.00  0.00     0.043 H 
ATOM     37  H20 04C d   1      61.625-137.514  38.854  0.00  0.00     0.043 H 
BRANCH  35  38
ATOM     38  C41 04C d   1      59.807-136.805  39.481  0.00  0.00    -0.056 A 
ATOM     39  C48 04C d   1      59.216-137.009  38.237  0.00  0.00    -0.074 A 
ATOM     40  C47 04C d   1      57.831-136.956  38.096  0.00  0.00    -0.050 A 
ATOM     41  H21 04C d   1      59.838-137.210  37.372  0.00  0.00     0.084 H 
ATOM     42  C44 04C d   1      57.018-136.696  39.208  0.00  0.00     0.068 A 
ATOM     43  H22 04C d   1      57.380-137.116  37.123  0.00  0.00     0.087 H 
ATOM     44  C43 04C d   1      57.619-136.503  40.447  0.00  0.00    -0.050 A 
ATOM     45  C42 04C d   1      58.999-136.556  40.587  0.00  0.00    -0.074 A 
ATOM     46  H26 04C d   1      57.001-136.308  41.316  0.00  0.00     0.087 H 
ATOM     47  H27 04C d   1      59.449-136.403  41.561  0.00  0.00     0.084 H 
BRANCH  42  48
ATOM     48  O45 04C d   1      55.646-136.630  39.187  0.00  0.00    -0.356 OA
BRANCH  48  49
ATOM     49  C46 04C d   1      54.925-136.593  37.952  0.00  0.00     0.010 C 
ATOM     50  H23 04C d   1      53.846-136.542  38.159  0.00  0.00     0.066 H 
ATOM     51  H24 04C d   1      55.144-137.502  37.372  0.00  0.00     0.066 H 
ATOM     52  H25 04C d   1      55.230-135.707  37.376  0.00  0.00     0.066 H 
ENDBRANCH  48  49
ENDBRANCH  42  48
ENDBRANCH  35  38
ENDBRANCH   1  35
BRANCH   1  53
ATOM     53  C23 04C d   1      63.035-135.395  40.295  0.00  0.00     0.241 C 
ATOM     54  O49 04C d   1      64.123-135.550  39.737  0.00  0.00    -0.271 OA
ATOM     55  N22 04C d   1      62.861-135.169  41.605  0.00  0.00    -0.352 N 
ATOM     56  H28 04C d   1      61.929-135.076  41.954  0.00  0.00     0.163 HD
BRANCH  55  57
ATOM     57  C8  04C d   1      63.975-135.053  42.546  0.00  0.00     0.041 C 
ATOM     58  H29 04C d   1      64.932-135.196  42.023  0.00  0.00     0.076 H 
BRANCH  57  59
ATOM     59  C9  04C d   1      63.810-136.096  43.672  0.00  0.00     0.060 C 
ATOM     60  H30 04C d   1      64.477-135.790  44.491  0.00  0.00     0.086 H 
BRANCH  59  61
ATOM     61  O21 04C d   1      62.462-136.038  44.146  0.00  0.00    -0.393 OA
ATOM     62  H31 04C d   1      62.282-135.167  44.480  0.00  0.00     0.210 HD
ENDBRANCH  59  61
BRANCH  59  63
ATOM     63  C10 04C d   1      64.190-137.609  43.314  0.00  0.00    -0.010 C 
ATOM     64  H32 04C d   1      64.524-138.137  44.220  0.00  0.00     0.046 H 
BRANCH  63  65
ATOM     65  C11 04C d   1      65.318-137.676  42.219  0.00  0.00    -0.069 C 
ATOM     66  H33 04C d   1      65.553-138.728  41.998  0.00  0.00     0.028 H 
ATOM     67  H34 04C d   1      66.221-137.169  42.591  0.00  0.00     0.028 H 
ATOM     68  H35 04C d   1      64.969-137.178  41.302  0.00  0.00     0.028 H 
ENDBRANCH  63  65
BRANCH  63  69
ATOM     69  C12 04C d   1      62.924-138.258  42.751  0.00  0.00     0.022 C 
ATOM     70  H36 04C d   1      62.372-137.532  42.136  0.00  0.00     0.074 H 
ATOM     71  H37 04C d   1      62.282-138.605  43.574  0.00  0.00     0.074 H 
BRANCH  69  72
ATOM     72  O13 04C d   1      63.333-139.374  41.945  0.00  0.00    -0.400 OA
ATOM     73  H38 04C d   1      63.891-139.067  41.240  0.00  0.00     0.209 HD
ENDBRANCH  69  72
ENDBRANCH  63  69
ENDBRANCH  59  63
ENDBRANCH  57  59
BRANCH  57  74
ATOM     74  C7  04C d   1      63.919-133.681  43.203  0.00  0.00    -0.020 C 
ATOM     75  H39 04C d   1      64.317-133.773  44.224  0.00  0.00     0.043 H 
ATOM     76  H40 04C d   1      62.867-133.364  43.246  0.00  0.00     0.043 H 
BRANCH  74  77
ATOM     77  C6  04C d   1      64.655-132.678  42.532  0.00  0.00    -0.056 A 
ATOM     78  C5  04C d   1      65.500-132.885  41.432  0.00  0.00    -0.077 A 
ATOM     79  C4  04C d   1      66.171-131.807  40.855  0.00  0.00    -0.082 A 
ATOM     80  H41 04C d   1      65.632-133.883  41.030  0.00  0.00     0.084 H 
ATOM     81  C3  04C d   1      66.012-130.517  41.360  0.00  0.00    -0.083 A 
ATOM     82  H42 04C d   1      66.823-131.974  40.005  0.00  0.00     0.083 H 
ATOM     83  C2  04C d   1      65.176-130.297  42.447  0.00  0.00    -0.082 A 
ATOM     84  H43 04C d   1      66.540-129.687  40.905  0.00  0.00     0.083 H 
ATOM     85  C1  04C d   1      64.511-131.377  43.022  0.00  0.00    -0.077 A 
ATOM     86  H44 04C d   1      65.043-129.297  42.843  0.00  0.00     0.083 H 
ATOM     87  H45 04C d   1      63.863-131.204  43.874  0.00  0.00     0.084 H 
ENDBRANCH  74  77
ENDBRANCH  57  74
ENDBRANCH  55  57
ENDBRANCH   1  53
TORSDOF 20
