REMARK  4 active torsions:
REMARK  status: ('A' for Active; 'I' for Inactive)
REMARK    1  A    between atoms: CAN_6  and  CAA_7 
REMARK    2  A    between atoms: CAO_8  and  CAB_9 
REMARK    3  A    between atoms: CAP_17  and  CAK_18 
REMARK    4  A    between atoms: CAK_18  and  CAM_19 
ROOT
ATOM      1  OAD 1YE d   1     162.991  49.038   5.565  0.00  0.00    -0.286 OA
ATOM      2  CAQ 1YE d   1     163.951  49.693   5.137  0.00  0.00     0.198 A 
ATOM      3  CAS 1YE d   1     165.012  50.082   5.948  0.00  0.00     0.049 A 
ATOM      4  CAJ 1YE d   1     165.024  49.798   7.306  0.00  0.00    -0.066 A 
ATOM      5  CAH 1YE d   1     166.130  50.171   8.071  0.00  0.00    -0.076 A 
ATOM      6  CAN 1YE d   1     167.237  50.842   7.499  0.00  0.00    -0.053 A 
ATOM      7  CAO 1YE d   1     167.200  51.163   6.135  0.00  0.00    -0.021 A 
ATOM      8  CAT 1YE d   1     166.056  50.821   5.426  0.00  0.00     0.096 A 
ATOM      9  OAL 1YE d   1     166.098  51.093   4.116  0.00  0.00    -0.308 OA
ATOM     10  CAU 1YE d   1     165.125  50.661   3.280  0.00  0.00     0.097 A 
ATOM     11  CAR 1YE d   1     164.030  49.989   3.787  0.00  0.00     0.049 A 
ATOM     12  CAI 1YE d   1     163.050  49.542   2.893  0.00  0.00    -0.066 A 
ATOM     13  CAF 1YE d   1     163.148  49.831   1.533  0.00  0.00    -0.081 A 
ATOM     14  CAG 1YE d   1     164.257  50.533   1.042  0.00  0.00    -0.074 A 
ATOM     15  CAP 1YE d   1     165.250  50.993   1.925  0.00  0.00    -0.013 A 
ATOM     16  H   1YE d   1     164.184  49.292   7.768  0.00  0.00     0.085 H 
ATOM     17  H   1YE d   1     166.142  49.941   9.130  0.00  0.00     0.084 H 
ATOM     18  H   1YE d   1     162.208  48.967   3.261  0.00  0.00     0.085 H 
ATOM     19  H   1YE d   1     162.365  49.512   0.854  0.00  0.00     0.083 H 
ATOM     20  H   1YE d   1     164.350  50.722  -0.021  0.00  0.00     0.084 H 
ENDROOT
BRANCH  15  21
ATOM     21  CAK 1YE d   1     166.386  51.724   1.462  0.00  0.00     0.042 C 
ATOM     22  H   1YE d   1     166.348  52.720   1.926  0.00  0.00     0.056 H 
ATOM     23  H   1YE d   1     166.290  51.824   0.371  0.00  0.00     0.056 H 
BRANCH  21  24
ATOM     24  CAM 1YE d   1     167.789  51.131   1.752  0.00  0.00     0.177 C 
ATOM     25  OAE 1YE d   1     167.893  49.935   2.148  0.00  0.00    -0.648 OA
ATOM     26  OAC 1YE d   1     168.731  51.931   1.552  0.00  0.00    -0.648 OA
ENDBRANCH  21  24
ENDBRANCH  15  21
BRANCH   7  27
ATOM     27  CAB 1YE d   1     168.248  51.869   5.487  0.00  0.00    -0.048 C 
ATOM     28  H   1YE d   1     169.065  52.050   6.201  0.00  0.00     0.033 H 
ATOM     29  H   1YE d   1     167.867  52.831   5.115  0.00  0.00     0.033 H 
ATOM     30  H   1YE d   1     168.625  51.273   4.643  0.00  0.00     0.033 H 
ENDBRANCH   7  27
BRANCH   6  31
ATOM     31  CAA 1YE d   1     168.386  51.246   8.285  0.00  0.00    -0.051 C 
ATOM     32  H   1YE d   1     168.252  50.916   9.326  0.00  0.00     0.033 H 
ATOM     33  H   1YE d   1     168.483  52.341   8.257  0.00  0.00     0.033 H 
ATOM     34  H   1YE d   1     169.295  50.787   7.869  0.00  0.00     0.033 H 
ENDBRANCH   6  31
TORSDOF 4
