REMARK  4 active torsions:
REMARK  status: ('A' for Active; 'I' for Inactive)
REMARK    1  A    between atoms: CAN_6  and  CAA_7 
REMARK    2  A    between atoms: CAO_8  and  CAB_9 
REMARK    3  A    between atoms: CAP_17  and  CAK_18 
REMARK    4  A    between atoms: CAK_18  and  CAM_19 
ROOT
ATOM      1  OAD 1YE d   1     113.462 -38.019 -10.559  0.00  0.00    -0.286 OA
ATOM      2  CAQ 1YE d   1     113.397 -39.177 -10.166  0.00  0.00     0.198 A 
ATOM      3  CAS 1YE d   1     113.580 -40.249 -11.022  0.00  0.00     0.049 A 
ATOM      4  CAJ 1YE d   1     113.855 -40.035 -12.369  0.00  0.00    -0.066 A 
ATOM      5  CAH 1YE d   1     114.057 -41.134 -13.196  0.00  0.00    -0.076 A 
ATOM      6  CAN 1YE d   1     113.982 -42.436 -12.689  0.00  0.00    -0.053 A 
ATOM      7  CAO 1YE d   1     113.710 -42.644 -11.336  0.00  0.00    -0.021 A 
ATOM      8  CAT 1YE d   1     113.499 -41.553 -10.532  0.00  0.00     0.096 A 
ATOM      9  OAL 1YE d   1     113.267 -41.828  -9.235  0.00  0.00    -0.308 OA
ATOM     10  CAU 1YE d   1     113.112 -40.793  -8.373  0.00  0.00     0.097 A 
ATOM     11  CAR 1YE d   1     113.191 -39.466  -8.835  0.00  0.00     0.049 A 
ATOM     12  CAI 1YE d   1     113.048 -38.423  -7.930  0.00  0.00    -0.066 A 
ATOM     13  CAF 1YE d   1     112.818 -38.723  -6.595  0.00  0.00    -0.081 A 
ATOM     14  CAG 1YE d   1     112.741 -40.042  -6.150  0.00  0.00    -0.074 A 
ATOM     15  CAP 1YE d   1     112.879 -41.100  -7.040  0.00  0.00    -0.013 A 
ATOM     16  H   1YE d   1     113.911 -39.028 -12.767  0.00  0.00     0.085 H 
ATOM     17  H   1YE d   1     114.275 -40.980 -14.247  0.00  0.00     0.084 H 
ATOM     18  H   1YE d   1     113.115 -37.393  -8.260  0.00  0.00     0.085 H 
ATOM     19  H   1YE d   1     112.696 -37.915  -5.883  0.00  0.00     0.083 H 
ATOM     20  H   1YE d   1     112.572 -40.244  -5.099  0.00  0.00     0.084 H 
ENDROOT
BRANCH  15  21
ATOM     21  CAK 1YE d   1     112.792 -42.415  -6.569  0.00  0.00     0.042 C 
ATOM     22  H   1YE d   1     111.906 -42.877  -7.029  0.00  0.00     0.056 H 
ATOM     23  H   1YE d   1     112.659 -42.371  -5.478  0.00  0.00     0.056 H 
BRANCH  21  24
ATOM     24  CAM 1YE d   1     114.002 -43.331  -6.858  0.00  0.00     0.177 C 
ATOM     25  OAE 1YE d   1     113.797 -44.559  -6.713  0.00  0.00    -0.648 OA
ATOM     26  OAC 1YE d   1     115.083 -42.798  -7.202  0.00  0.00    -0.648 OA
ENDBRANCH  21  24
ENDBRANCH  15  21
BRANCH   7  27
ATOM     27  CAB 1YE d   1     113.622 -43.906 -10.750  0.00  0.00    -0.048 C 
ATOM     28  H   1YE d   1     113.813 -44.678 -11.510  0.00  0.00     0.033 H 
ATOM     29  H   1YE d   1     112.615 -44.046 -10.331  0.00  0.00     0.033 H 
ATOM     30  H   1YE d   1     114.369 -43.990  -9.947  0.00  0.00     0.033 H 
ENDBRANCH   7  27
BRANCH   6  31
ATOM     31  CAA 1YE d   1     114.183 -43.537 -13.518  0.00  0.00    -0.051 C 
ATOM     32  H   1YE d   1     114.384 -43.192 -14.543  0.00  0.00     0.033 H 
ATOM     33  H   1YE d   1     113.282 -44.169 -13.514  0.00  0.00     0.033 H 
ATOM     34  H   1YE d   1     115.041 -44.120 -13.152  0.00  0.00     0.033 H 
ENDBRANCH   6  31
TORSDOF 4
