REMARK  10 active torsions:
REMARK  status: ('A' for Active; 'I' for Inactive)
REMARK    1  A    between atoms: PAD_2  and  CAC_5 
REMARK    2  A    between atoms: CAC_5  and  PAH_6 
REMARK    3  A    between atoms: CAC_5  and  CAB_10 
REMARK    4  A    between atoms: CAB_10  and  CAA_11 
REMARK    5  A    between atoms: CAO_12  and  CAT_13 
REMARK    6  A    between atoms: CAT_13  and  CAU_14 
REMARK    7  A    between atoms: CAT_13  and  CAV_15 
REMARK    8  A    between atoms: CAV_15  and  CAX_16 
REMARK    9  A    between atoms: CAV_15  and  CAW_17 
REMARK   10  A    between atoms: CAQ_24  and  CAY_25 
ROOT
ATOM      1  CAA WC1 d   1       5.223  71.872  29.127  0.00  0.00    -0.021 A 
ATOM      2  CAO WC1 d   1       4.913  70.890  29.987  0.00  0.00     0.021 A 
ATOM      3  NAN WC1 d   1       4.007  71.345  30.853  0.00  0.00    -0.358 N 
ATOM      4  CAM WC1 d   1       3.689  72.608  30.543  0.00  0.00     0.043 A 
ATOM      5  CAS WC1 d   1       2.837  73.455  31.143  0.00  0.00    -0.056 A 
ATOM      6  CAR WC1 d   1       2.693  74.739  30.671  0.00  0.00    -0.070 A 
ATOM      7  CAL WC1 d   1       4.467  72.973  29.491  0.00  0.00    -0.000 A 
ATOM      8  CAP WC1 d   1       4.321  74.215  29.007  0.00  0.00    -0.059 A 
ATOM      9  CAQ WC1 d   1       3.439  75.151  29.560  0.00  0.00    -0.025 A 
ATOM     10  H15 WC1 d   1       3.613  70.808  31.639  0.00  0.00     0.166 HD
ATOM     11  H16 WC1 d   1       2.262  73.126  32.001  0.00  0.00     0.087 H 
ATOM     12  H17 WC1 d   1       2.008  75.426  31.155  0.00  0.00     0.084 H 
ATOM     13  H18 WC1 d   1       4.913  74.508  28.148  0.00  0.00     0.086 H 
ENDROOT
BRANCH   2  14
ATOM     14  CAT WC1 d   1       5.489  69.462  30.139  0.00  0.00    -0.014 C 
ATOM     15  H4  WC1 d   1       6.323  69.335  29.433  0.00  0.00     0.049 H 
BRANCH  14  16
ATOM     16  CAU WC1 d   1       6.011  69.284  31.605  0.00  0.00    -0.067 C 
ATOM     17  H5  WC1 d   1       6.773  70.049  31.818  0.00  0.00     0.028 H 
ATOM     18  H6  WC1 d   1       6.454  68.284  31.718  0.00  0.00     0.028 H 
ATOM     19  H7  WC1 d   1       5.173  69.395  32.309  0.00  0.00     0.028 H 
ENDBRANCH  14  16
BRANCH  14  20
ATOM     20  CAV WC1 d   1       4.470  68.432  29.867  0.00  0.00    -0.053 C 
ATOM     21  H8  WC1 d   1       3.573  68.594  30.483  0.00  0.00     0.040 H 
BRANCH  20  22
ATOM     22  CAX WC1 d   1       4.104  68.520  28.379  0.00  0.00    -0.073 C 
ATOM     23  H9  WC1 d   1       3.343  67.762  28.143  0.00  0.00     0.028 H 
ATOM     24  H10 WC1 d   1       5.002  68.341  27.769  0.00  0.00     0.028 H 
ATOM     25  H11 WC1 d   1       3.705  69.521  28.158  0.00  0.00     0.028 H 
ENDBRANCH  20  22
BRANCH  20  26
ATOM     26  CAW WC1 d   1       5.124  67.063  30.222  0.00  0.00    -0.073 C 
ATOM     27  H12 WC1 d   1       5.370  67.041  31.294  0.00  0.00     0.028 H 
ATOM     28  H13 WC1 d   1       6.043  66.932  29.632  0.00  0.00     0.028 H 
ATOM     29  H14 WC1 d   1       4.420  66.250  29.991  0.00  0.00     0.028 H 
ENDBRANCH  20  26
ENDBRANCH  14  20
ENDBRANCH   2  14
BRANCH   1  30
ATOM     30  CAB WC1 d   1       6.252  71.790  27.958  0.00  0.00    -0.011 C 
ATOM     31  H2  WC1 d   1       6.692  70.782  27.930  0.00  0.00     0.042 H 
ATOM     32  H3  WC1 d   1       5.740  71.993  27.006  0.00  0.00     0.042 H 
BRANCH  30  33
ATOM     33  CAC WC1 d   1       7.354  72.816  28.167  0.00  0.00     0.166 C 
ATOM     34  H1  WC1 d   1       7.030  73.524  28.944  0.00  0.00     0.084 H 
BRANCH  33  35
ATOM     35  PAD WC1 d   1       7.663  73.767  26.589  0.00  0.00     0.277 P 
ATOM     36  OAE WC1 d   1       7.930  72.613  25.535  0.00  0.00    -0.639 OA
ATOM     37  OAF WC1 d   1       8.889  74.593  26.860  0.00  0.00    -0.639 OA
ATOM     38  OAG WC1 d   1       6.355  74.417  26.269  0.00  0.00    -0.639 OA
ENDBRANCH  33  35
BRANCH  33  39
ATOM     39  PAH WC1 d   1       8.898  71.987  28.738  0.00  0.00     0.277 P 
ATOM     40  OAI WC1 d   1       8.363  71.107  30.024  0.00  0.00    -0.639 OA
ATOM     41  OAK WC1 d   1       9.257  71.184  27.633  0.00  0.00    -0.639 OA
ATOM     42  OAJ WC1 d   1       9.741  72.962  29.386  0.00  0.00    -0.639 OA
ENDBRANCH  33  39
ENDBRANCH  30  33
ENDBRANCH   1  30
BRANCH   9  43
ATOM     43  CAY WC1 d   1       3.368  76.491  29.091  0.00  0.00    -0.026 A 
ATOM     44  CAZ WC1 d   1       4.585  77.196  28.900  0.00  0.00    -0.072 A 
ATOM     45  CBA WC1 d   1       4.645  78.511  28.498  0.00  0.00    -0.082 A 
ATOM     46  H19 WC1 d   1       5.516  76.671  29.080  0.00  0.00     0.084 H 
ATOM     47  CBB WC1 d   1       3.455  79.180  28.263  0.00  0.00    -0.083 A 
ATOM     48  H20 WC1 d   1       5.598  79.010  28.369  0.00  0.00     0.083 H 
ATOM     49  CBC WC1 d   1       2.250  78.502  28.444  0.00  0.00    -0.082 A 
ATOM     50  H21 WC1 d   1       3.460  80.216  27.943  0.00  0.00     0.083 H 
ATOM     51  CBD WC1 d   1       2.183  77.184  28.895  0.00  0.00    -0.072 A 
ATOM     52  H22 WC1 d   1       1.325  79.022  28.224  0.00  0.00     0.083 H 
ATOM     53  H23 WC1 d   1       1.226  76.712  29.088  0.00  0.00     0.084 H 
ENDBRANCH   9  43
TORSDOF 10
