REMARK WARNING: 32 MAX_TORS EXCEEDED!!!
REMARK  49 active torsions:
REMARK  status: ('A' for Active; 'I' for Inactive)
REMARK    1  A    between atoms: C_1  and  CH3_3 
REMARK       I    between atoms: C_1  and  N_4 
REMARK    2  A    between atoms: N_4  and  CA_5 
REMARK    3  A    between atoms: CA_5  and  C_6 
REMARK    4  A    between atoms: CA_5  and  CB_8 
REMARK       I    between atoms: C_6  and  N_12 
REMARK    5  A    between atoms: CB_8  and  CG_9 
REMARK       I    between atoms: CG_9  and  ND2_11 
REMARK    6  A    between atoms: N_12  and  CA_13 
REMARK    7  A    between atoms: CA_13  and  C_14 
REMARK    8  A    between atoms: CA_13  and  CB_16 
REMARK       I    between atoms: C_14  and  N_17 
REMARK    9  A    between atoms: N_17  and  CA_18 
REMARK   10  A    between atoms: CA_18  and  C_19 
REMARK   11  A    between atoms: CA_18  and  CB_21 
REMARK       I    between atoms: C_19  and  N_29 
REMARK   12  A    between atoms: CB_21  and  CG_22 
REMARK   13  A    between atoms: CZ_27  and  OH_28 
REMARK   14  A    between atoms: N_29  and  CA_30 
REMARK   15  A    between atoms: CA_30  and  C_31 
REMARK   16  A    between atoms: CA_30  and  CB_33 
REMARK       I    between atoms: C_31  and  N_37 
REMARK   17  A    between atoms: CB_33  and  CG_34 
REMARK       I    between atoms: CG_34  and  ND2_36 
REMARK   18  A    between atoms: N_37  and  CA_38 
REMARK   19  A    between atoms: CA_38  and  C_39 
REMARK   20  A    between atoms: CA_38  and  CB_41 
REMARK       I    between atoms: C_39  and  N_45 
REMARK   21  A    between atoms: CB_41  and  CG_42 
REMARK   22  A    between atoms: CG_42  and  SD_43 
REMARK   23  A    between atoms: SD_43  and  CE_44 
REMARK   24  A    between atoms: N_45  and  CA_46 
REMARK   25  A    between atoms: CA_46  and  C_47 
REMARK   26  A    between atoms: CA_46  and  CB_49 
REMARK       I    between atoms: C_47  and  N_51 
REMARK   27  A    between atoms: CB_49  and  OG_50 
REMARK   28  A    between atoms: N_51  and  CA_52 
REMARK   29  A    between atoms: CA_52  and  C_53 
REMARK   30  A    between atoms: CA_52  and  CB_55 
REMARK       I    between atoms: C_53  and  N_59 
REMARK   31  A    between atoms: CB_55  and  CG1_56 
REMARK   32  A    between atoms: CB_55  and  CG2_57 
REMARK   33  A    between atoms: CG1_56  and  CD1_58 
REMARK   34  A    between atoms: N_59  and  CA_60 
REMARK   35  A    between atoms: CA_60  and  C_61 
REMARK   36  A    between atoms: CA_60  and  CB_63 
REMARK       I    between atoms: C_61  and  N_70 
REMARK   37  A    between atoms: CB_63  and  CG_64 
REMARK   38  A    between atoms: CG_64  and  CD_65 
REMARK   39  A    between atoms: CD_65  and  NE_66 
REMARK       I    between atoms: NE_66  and  CZ_67 
REMARK       I    between atoms: CZ_67  and  NH1_68 
REMARK       I    between atoms: CZ_67  and  NH2_69 
REMARK   40  A    between atoms: N_70  and  CA_71 
REMARK   41  A    between atoms: CA_71  and  C_72 
REMARK   42  A    between atoms: CA_71  and  CB_74 
REMARK       I    between atoms: C_72  and  N_81 
REMARK   43  A    between atoms: CB_74  and  CG_75 
REMARK   44  A    between atoms: CG_75  and  CD_76 
REMARK   45  A    between atoms: CD_76  and  NE_77 
REMARK       I    between atoms: NE_77  and  CZ_78 
REMARK       I    between atoms: CZ_78  and  NH1_79 
REMARK   46  A    between atoms: N_81  and  CA_82 
REMARK   47  A    between atoms: CA_82  and  C_83 
REMARK   48  A    between atoms: CA_82  and  CB_85 
REMARK   49  A    between atoms: CB_85  and  OG_86 
ROOT
ATOM      1  CA  SER d   1      -8.545 -16.925 -20.924  0.00  0.00     0.109 C 
ATOM      2  H40 SER d   1      -8.983 -15.978 -21.272  0.00  0.00     0.090 H 
ENDROOT
BRANCH   1   3
ATOM      3  N   SER d   1      -8.871 -17.942 -21.927  0.00  0.00    -0.344 N 
ATOM      4  C   MET d   1      -8.839 -17.579 -23.211  0.00  0.00     0.241 C 
ATOM      5  O   MET d   1      -8.594 -16.427 -23.556  0.00  0.00    -0.271 OA
ATOM      6  H39 SER d   1      -9.109 -18.875 -21.659  0.00  0.00     0.163 HD
BRANCH   4   7
ATOM      7  CA  MET d   1      -9.107 -18.620 -24.289  0.00  0.00     0.090 C 
ATOM      8  H31 MET d   1      -8.229 -18.645 -24.951  0.00  0.00     0.087 H 
BRANCH   7   9
ATOM      9  N   MET d   1      -9.318 -19.972 -23.795  0.00  0.00    -0.346 N 
ATOM     10  C   ASN d   1      -8.559 -20.978 -24.215  0.00  0.00     0.241 C 
ATOM     11  O   ASN d   1      -7.511 -20.811 -24.850  0.00  0.00    -0.271 OA
ATOM     12  H30 MET d   1     -10.044 -20.146 -23.130  0.00  0.00     0.163 HD
BRANCH  10  13
ATOM     13  CA  ASN d   1      -9.055 -22.379 -23.902  0.00  0.00     0.097 C 
ATOM     14  H25 ASN d   1      -8.172 -23.032 -23.842  0.00  0.00     0.088 H 
BRANCH  13  15
ATOM     15  N   ASN d   1      -9.774 -22.492 -22.640  0.00  0.00    -0.346 N 
ATOM     16  C   TYR d   1      -9.120 -22.479 -21.491  0.00  0.00     0.241 C 
ATOM     17  O   TYR d   1      -7.919 -22.231 -21.414  0.00  0.00    -0.271 OA
ATOM     18  H24 ASN d   1     -10.770 -22.580 -22.643  0.00  0.00     0.163 HD
BRANCH  16  19
ATOM     19  CA  TYR d   1      -9.939 -22.788 -20.246  0.00  0.00     0.093 C 
ATOM     20  H16 TYR d   1      -9.361 -22.473 -19.365  0.00  0.00     0.088 H 
BRANCH  19  21
ATOM     21  N   TYR d   1     -11.210 -22.065 -20.244  0.00  0.00    -0.346 N 
ATOM     22  C   ALA d   1     -11.208 -20.739 -20.250  0.00  0.00     0.240 C 
ATOM     23  O   ALA d   1     -10.168 -20.077 -20.321  0.00  0.00    -0.271 OA
ATOM     24  H15 TYR d   1     -12.075 -22.567 -20.238  0.00  0.00     0.163 HD
BRANCH  22  25
ATOM     25  CA  ALA d   1     -12.552 -20.044 -20.105  0.00  0.00     0.086 C 
ATOM     26  H11 ALA d   1     -12.675 -19.352 -20.951  0.00  0.00     0.086 H 
BRANCH  25  27
ATOM     27  N   ALA d   1     -13.678 -20.966 -20.104  0.00  0.00    -0.346 N 
ATOM     28  C   ASN d   1     -14.317 -21.349 -21.193  0.00  0.00     0.241 C 
ATOM     29  O   ASN d   1     -13.909 -21.104 -22.324  0.00  0.00    -0.271 OA
ATOM     30  H10 ALA d   1     -13.986 -21.331 -19.225  0.00  0.00     0.163 HD
BRANCH  28  31
ATOM     31  CA  ASN d   1     -15.577 -22.198 -20.947  0.00  0.00     0.097 C 
ATOM     32  H5  ASN d   1     -15.541 -22.545 -19.904  0.00  0.00     0.088 H 
BRANCH  31  33
ATOM     33  N   ASN d   1     -16.843 -21.475 -21.125  0.00  0.00    -0.348 N 
ATOM     34  C   ACE d   1     -17.400 -20.624 -20.258  0.00  0.00     0.214 C 
ATOM     35  O   ACE d   1     -17.060 -20.530 -19.078  0.00  0.00    -0.274 OA
ATOM     36  H4  ASN d   1     -17.337 -21.635 -21.980  0.00  0.00     0.163 HD
BRANCH  34  37
ATOM     37  CH3 ACE d   1     -18.707 -20.050 -20.726  0.00  0.00    -0.003 C 
ATOM     38  H1  ACE d   1     -18.824 -20.236 -21.804  0.00  0.00     0.040 H 
ATOM     39  H2  ACE d   1     -18.720 -18.966 -20.538  0.00  0.00     0.040 H 
ATOM     40  H3  ACE d   1     -19.534 -20.527 -20.179  0.00  0.00     0.040 H 
ENDBRANCH  34  37
ENDBRANCH  31  33
BRANCH  31  41
ATOM     41  CB  ASN d   1     -15.554 -23.417 -21.860  0.00  0.00     0.036 C 
ATOM     42  H6  ASN d   1     -15.485 -23.076 -22.904  0.00  0.00     0.051 H 
ATOM     43  H7  ASN d   1     -16.487 -23.982 -21.720  0.00  0.00     0.051 H 
BRANCH  41  44
ATOM     44  CG  ASN d   1     -14.384 -24.330 -21.568  0.00  0.00     0.217 C 
ATOM     45  OD1 ASN d   1     -13.562 -24.034 -20.694  0.00  0.00    -0.274 OA
ATOM     46  ND2 ASN d   1     -14.305 -25.460 -22.292  0.00  0.00    -0.370 N 
ATOM     47  H8  ASN d   1     -13.552 -26.100 -22.140  0.00  0.00     0.159 HD
ATOM     48  H9  ASN d   1     -15.000 -25.661 -22.983  0.00  0.00     0.159 HD
ENDBRANCH  41  44
ENDBRANCH  31  41
ENDBRANCH  28  31
ENDBRANCH  25  27
BRANCH  25  49
ATOM     49  CB  ALA d   1     -12.557 -19.245 -18.798  0.00  0.00    -0.049 C 
ATOM     50  H12 ALA d   1     -11.708 -18.546 -18.793  0.00  0.00     0.030 H 
ATOM     51  H13 ALA d   1     -12.469 -19.935 -17.946  0.00  0.00     0.030 H 
ATOM     52  H14 ALA d   1     -13.498 -18.680 -18.717  0.00  0.00     0.030 H 
ENDBRANCH  25  49
ENDBRANCH  22  25
ENDBRANCH  19  21
BRANCH  19  53
ATOM     53  CB  TYR d   1     -10.190 -24.285 -20.153  0.00  0.00    -0.014 C 
ATOM     54  H17 TYR d   1     -10.862 -24.569 -20.976  0.00  0.00     0.043 H 
ATOM     55  H18 TYR d   1     -10.683 -24.488 -19.191  0.00  0.00     0.043 H 
BRANCH  53  56
ATOM     56  CG  TYR d   1      -8.945 -25.159 -20.238  0.00  0.00    -0.056 A 
ATOM     57  CD1 TYR d   1      -8.322 -25.414 -21.455  0.00  0.00    -0.074 A 
ATOM     58  CE1 TYR d   1      -7.208 -26.246 -21.535  0.00  0.00    -0.051 A 
ATOM     59  H19 TYR d   1      -8.711 -24.957 -22.358  0.00  0.00     0.084 H 
ATOM     60  CZ  TYR d   1      -6.704 -26.806 -20.387  0.00  0.00     0.065 A 
ATOM     61  H21 TYR d   1      -6.744 -26.449 -22.493  0.00  0.00     0.087 H 
ATOM     62  CE2 TYR d   1      -7.308 -26.577 -19.166  0.00  0.00    -0.051 A 
ATOM     63  CD2 TYR d   1      -8.423 -25.758 -19.098  0.00  0.00    -0.074 A 
ATOM     64  H22 TYR d   1      -6.912 -27.035 -18.267  0.00  0.00     0.087 H 
ATOM     65  H20 TYR d   1      -8.896 -25.581 -18.139  0.00  0.00     0.084 H 
BRANCH  60  66
ATOM     66  OH  TYR d   1      -5.604 -27.643 -20.469  0.00  0.00    -0.361 OA
ATOM     67  H23 TYR d   1      -5.844 -28.510 -20.165  0.00  0.00     0.217 HD
ENDBRANCH  60  66
ENDBRANCH  53  56
ENDBRANCH  19  53
ENDBRANCH  16  19
ENDBRANCH  13  15
BRANCH  13  68
ATOM     68  CB  ASN d   1      -9.957 -22.891 -25.019  0.00  0.00     0.036 C 
ATOM     69  H26 ASN d   1      -9.409 -22.840 -25.972  0.00  0.00     0.051 H 
ATOM     70  H27 ASN d   1     -10.852 -22.253 -25.076  0.00  0.00     0.051 H 
BRANCH  68  71
ATOM     71  CG  ASN d   1     -10.388 -24.321 -24.776  0.00  0.00     0.217 C 
ATOM     72  OD1 ASN d   1      -9.546 -25.199 -24.652  0.00  0.00    -0.274 OA
ATOM     73  ND2 ASN d   1     -11.699 -24.560 -24.661  0.00  0.00    -0.370 N 
ATOM     74  H28 ASN d   1     -12.025 -25.491 -24.500  0.00  0.00     0.159 HD
ATOM     75  H29 ASN d   1     -12.353 -23.807 -24.736  0.00  0.00     0.159 HD
ENDBRANCH  68  71
ENDBRANCH  13  68
ENDBRANCH  10  13
ENDBRANCH   7   9
BRANCH   7  76
ATOM     76  CB  MET d   1     -10.317 -18.184 -25.104  0.00  0.00    -0.030 C 
ATOM     77  H32 MET d   1     -10.089 -17.221 -25.583  0.00  0.00     0.037 H 
ATOM     78  H33 MET d   1     -11.173 -18.062 -24.424  0.00  0.00     0.037 H 
BRANCH  76  79
ATOM     79  CG  MET d   1     -10.696 -19.190 -26.188  0.00  0.00    -0.021 C 
ATOM     80  H34 MET d   1     -11.786 -19.179 -26.335  0.00  0.00     0.049 H 
ATOM     81  H35 MET d   1     -10.377 -20.197 -25.882  0.00  0.00     0.049 H 
BRANCH  79  82
ATOM     82  SD  MET d   1      -9.882 -18.744 -27.719  0.00  0.00    -0.173 SA
BRANCH  82  83
ATOM     83  CE  MET d   1     -10.762 -17.232 -28.022  0.00  0.00    -0.035 C 
ATOM     84  H36 MET d   1     -10.399 -16.777 -28.956  0.00  0.00     0.041 H 
ATOM     85  H37 MET d   1     -10.595 -16.537 -27.186  0.00  0.00     0.041 H 
ATOM     86  H38 MET d   1     -11.837 -17.445 -28.112  0.00  0.00     0.041 H 
ENDBRANCH  82  83
ENDBRANCH  79  82
ENDBRANCH  76  79
ENDBRANCH   7  76
ENDBRANCH   4   7
ENDBRANCH   1   3
BRANCH   1  87
ATOM     87  C   SER d   1      -7.035 -16.720 -20.824  0.00  0.00     0.243 C 
ATOM     88  O   SER d   1      -6.582 -15.746 -20.208  0.00  0.00    -0.271 OA
ATOM     89  N   ILE d   1      -6.275 -17.629 -21.428  0.00  0.00    -0.346 N 
ATOM     90  H44 ILE d   1      -6.677 -18.513 -21.668  0.00  0.00     0.163 HD
BRANCH  89  91
ATOM     91  CA  ILE d   1      -4.867 -17.378 -21.754  0.00  0.00     0.092 C 
ATOM     92  H45 ILE d   1      -4.656 -16.311 -21.588  0.00  0.00     0.088 H 
BRANCH  91  93
ATOM     93  C   ILE d   1      -4.646 -17.714 -23.223  0.00  0.00     0.241 C 
ATOM     94  O   ILE d   1      -5.406 -18.483 -23.818  0.00  0.00    -0.271 OA
ATOM     95  N   ARG d   1      -3.603 -17.151 -23.821  0.00  0.00    -0.346 N 
ATOM     96  H55 ARG d   1      -3.063 -16.458 -23.343  0.00  0.00     0.163 HD
BRANCH  95  97
ATOM     97  CA  ARG d   1      -3.250 -17.547 -25.172  0.00  0.00     0.089 C 
ATOM     98  H56 ARG d   1      -4.176 -17.752 -25.730  0.00  0.00     0.087 H 
BRANCH  97  99
ATOM     99  C   ARG d   1      -2.424 -18.810 -25.124  0.00  0.00     0.241 C 
ATOM    100  O   ARG d   1      -1.378 -18.854 -24.471  0.00  0.00    -0.271 OA
ATOM    101  N   ARG d   1      -2.911 -19.854 -25.788  0.00  0.00    -0.346 N 
ATOM    102  H68 ARG d   1      -3.770 -19.758 -26.291  0.00  0.00     0.163 HD
BRANCH 101 103
ATOM    103  CA  ARG d   1      -2.216 -21.138 -25.796  0.00  0.00     0.089 C 
ATOM    104  H69 ARG d   1      -1.469 -21.133 -24.988  0.00  0.00     0.087 H 
BRANCH 103 105
ATOM    105  C   ARG d   1      -1.485 -21.351 -27.117  0.00  0.00     0.241 C 
ATOM    106  O   ARG d   1      -2.085 -21.739 -28.113  0.00  0.00    -0.271 OA
ATOM    107  N   SER d   1      -0.180 -21.071 -27.103  0.00  0.00    -0.343 N 
ATOM    108  H81 SER d   1       0.229 -20.774 -26.240  0.00  0.00     0.163 HD
BRANCH 107 109
ATOM    109  CA  SER d   1       0.689 -21.173 -28.278  0.00  0.00     0.116 C 
ATOM    110  H82 SER d   1       0.161 -21.744 -29.055  0.00  0.00     0.093 H 
BRANCH 109 111
ATOM    111  C   SER d   1       1.984 -21.908 -27.919  0.00  0.00     0.198 C 
ATOM    112  O   SER d   1       2.630 -22.520 -28.779  0.00  0.00    -0.646 OA
ATOM    113  OXT SER d   1       2.417 -21.909 -26.760  0.00  0.00    -0.646 OA
ENDBRANCH 109 111
BRANCH 109 114
ATOM    114  CB  SER d   1       1.024 -19.784 -28.832  0.00  0.00     0.045 C 
ATOM    115  H83 SER d   1       1.737 -19.896 -29.662  0.00  0.00     0.077 H 
ATOM    116  H84 SER d   1       1.484 -19.185 -28.032  0.00  0.00     0.077 H 
BRANCH 114 117
ATOM    117  OG  SER d   1      -0.131 -19.104 -29.308  0.00  0.00    -0.398 OA
ATOM    118  H85 SER d   1       0.120 -18.251 -29.641  0.00  0.00     0.209 HD
ENDBRANCH 114 117
ENDBRANCH 109 114
ENDBRANCH 107 109
ENDBRANCH 103 105
BRANCH 103 119
ATOM    119  CB  ARG d   1      -3.216 -22.276 -25.523  0.00  0.00    -0.036 C 
ATOM    120  H70 ARG d   1      -2.695 -23.238 -25.641  0.00  0.00     0.036 H 
ATOM    121  H71 ARG d   1      -4.033 -22.209 -26.256  0.00  0.00     0.036 H 
BRANCH 119 122
ATOM    122  CG  ARG d   1      -3.815 -22.214 -24.116  0.00  0.00    -0.048 C 
ATOM    123  H72 ARG d   1      -4.394 -21.284 -24.017  0.00  0.00     0.035 H 
ATOM    124  H73 ARG d   1      -2.997 -22.216 -23.381  0.00  0.00     0.035 H 
BRANCH 122 125
ATOM    125  CD  ARG d   1      -4.742 -23.410 -23.831  0.00  0.00     0.009 C 
ATOM    126  H74 ARG d   1      -4.153 -24.339 -23.827  0.00  0.00     0.064 H 
ATOM    127  H75 ARG d   1      -5.516 -23.470 -24.610  0.00  0.00     0.064 H 
BRANCH 125 128
ATOM    128  NE  ARG d   1      -5.374 -23.226 -22.528  0.00  0.00    -0.227 N 
ATOM    129  CZ  ARG d   1      -4.889 -23.680 -21.376  0.00  0.00     0.665 C 
ATOM    130  NH1 ARG d   1      -3.766 -24.388 -21.349  0.00  0.00    -0.235 N 
ATOM    131  NH2 ARG d   1      -5.550 -23.441 -20.244  0.00  0.00    -0.235 N 
ATOM    132  H77 ARG d   1      -3.398 -24.736 -20.452  0.00  0.00     0.174 HD
ATOM    133  H78 ARG d   1      -3.263 -24.590 -22.225  0.00  0.00     0.174 HD
ATOM    134  H79 ARG d   1      -6.421 -22.892 -20.262  0.00  0.00     0.174 HD
ATOM    135  H80 ARG d   1      -5.190 -23.805 -19.351  0.00  0.00     0.174 HD
ATOM    136  H76 ARG d   1      -6.262 -22.705 -22.499  0.00  0.00     0.177 HD
ENDBRANCH 125 128
ENDBRANCH 122 125
ENDBRANCH 119 122
ENDBRANCH 103 119
ENDBRANCH 101 103
ENDBRANCH  97  99
BRANCH  97 137
ATOM    137  CB  ARG d   1      -2.489 -16.441 -25.896  0.00  0.00    -0.036 C 
ATOM    138  H57 ARG d   1      -1.605 -16.167 -25.302  0.00  0.00     0.036 H 
ATOM    139  H58 ARG d   1      -3.146 -15.565 -26.002  0.00  0.00     0.036 H 
BRANCH 137 140
ATOM    140  CG  ARG d   1      -2.037 -16.892 -27.278  0.00  0.00    -0.048 C 
ATOM    141  H59 ARG d   1      -2.816 -17.528 -27.723  0.00  0.00     0.035 H 
ATOM    142  H60 ARG d   1      -1.104 -17.467 -27.183  0.00  0.00     0.035 H 
BRANCH 140 143
ATOM    143  CD  ARG d   1      -1.797 -15.711 -28.172  0.00  0.00     0.009 C 
ATOM    144  H61 ARG d   1      -2.595 -14.971 -28.013  0.00  0.00     0.064 H 
ATOM    145  H62 ARG d   1      -1.809 -16.044 -29.220  0.00  0.00     0.064 H 
BRANCH 143 146
ATOM    146  NE  ARG d   1      -0.517 -15.098 -27.884  0.00  0.00    -0.227 N 
ATOM    147  CZ  ARG d   1       0.581 -15.321 -28.599  0.00  0.00     0.665 C 
ATOM    148  NH1 ARG d   1       0.536 -16.149 -29.631  0.00  0.00    -0.235 N 
ATOM    149  NH2 ARG d   1       1.720 -14.720 -28.274  0.00  0.00    -0.235 N 
ATOM    150  H64 ARG d   1       1.385 -16.325 -30.188  0.00  0.00     0.174 HD
ATOM    151  H65 ARG d   1      -0.348 -16.618 -29.877  0.00  0.00     0.174 HD
ATOM    152  H66 ARG d   1       1.752 -14.076 -27.471  0.00  0.00     0.174 HD
ATOM    153  H67 ARG d   1       2.572 -14.898 -28.826  0.00  0.00     0.174 HD
ATOM    154  H63 ARG d   1      -0.454 -14.455 -27.082  0.00  0.00     0.177 HD
ENDBRANCH 143 146
ENDBRANCH 140 143
ENDBRANCH 137 140
ENDBRANCH  97 137
ENDBRANCH  95  97
ENDBRANCH  91  93
BRANCH  91 155
ATOM    155  CB  ILE d   1      -3.883 -18.208 -20.898  0.00  0.00    -0.030 C 
ATOM    156  H46 ILE d   1      -2.862 -17.888 -21.152  0.00  0.00     0.043 H 
BRANCH 155 157
ATOM    157  CG1 ILE d   1      -4.010 -19.694 -21.241  0.00  0.00    -0.063 C 
ATOM    158  H47 ILE d   1      -4.045 -19.796 -22.336  0.00  0.00     0.033 H 
ATOM    159  H48 ILE d   1      -4.948 -20.071 -20.808  0.00  0.00     0.033 H 
BRANCH 157 160
ATOM    160  CD1 ILE d   1      -2.834 -20.565 -20.703  0.00  0.00    -0.076 C 
ATOM    161  H52 ILE d   1      -2.995 -21.615 -20.988  0.00  0.00     0.027 H 
ATOM    162  H53 ILE d   1      -2.790 -20.485 -19.607  0.00  0.00     0.027 H 
ATOM    163  H54 ILE d   1      -1.887 -20.209 -21.135  0.00  0.00     0.027 H 
ENDBRANCH 157 160
ENDBRANCH 155 157
BRANCH 155 164
ATOM    164  CG2 ILE d   1      -4.088 -17.960 -19.401  0.00  0.00    -0.071 C 
ATOM    165  H49 ILE d   1      -3.990 -16.885 -19.191  0.00  0.00     0.028 H 
ATOM    166  H50 ILE d   1      -3.330 -18.516 -18.830  0.00  0.00     0.028 H 
ATOM    167  H51 ILE d   1      -5.091 -18.301 -19.107  0.00  0.00     0.028 H 
ENDBRANCH 155 164
ENDBRANCH  91 155
ENDBRANCH  89  91
ENDBRANCH   1  87
BRANCH   1 168
ATOM    168  CB  SER d   1      -9.159 -17.224 -19.531  0.00  0.00     0.044 C 
ATOM    169  H41 SER d   1     -10.243 -17.366 -19.652  0.00  0.00     0.077 H 
ATOM    170  H42 SER d   1      -8.973 -16.360 -18.876  0.00  0.00     0.077 H 
BRANCH 168 171
ATOM    171  OG  SER d   1      -8.618 -18.387 -18.907  0.00  0.00    -0.398 OA
ATOM    172  H43 SER d   1      -8.779 -19.144 -19.457  0.00  0.00     0.209 HD
ENDBRANCH 168 171
ENDBRANCH   1 168
TORSDOF 49
