REMARK WARNING: 32 MAX_TORS EXCEEDED!!!
REMARK  67 active torsions:
REMARK  status: ('A' for Active; 'I' for Inactive)
REMARK    1  A    between atoms: C_1  and  CH3_3 
REMARK       I    between atoms: C_1  and  N_4 
REMARK    2  A    between atoms: N_4  and  CA_5 
REMARK    3  A    between atoms: CA_5  and  C_6 
REMARK    4  A    between atoms: CA_5  and  CB_8 
REMARK       I    between atoms: C_6  and  N_12 
REMARK    5  A    between atoms: CB_8  and  CG_9 
REMARK       I    between atoms: CG_9  and  ND2_11 
REMARK    6  A    between atoms: N_12  and  CA_13 
REMARK    7  A    between atoms: CA_13  and  C_14 
REMARK    8  A    between atoms: CA_13  and  CB_16 
REMARK       I    between atoms: C_14  and  N_17 
REMARK    9  A    between atoms: N_17  and  CA_18 
REMARK   10  A    between atoms: CA_18  and  C_19 
REMARK   11  A    between atoms: CA_18  and  CB_21 
REMARK       I    between atoms: C_19  and  N_29 
REMARK   12  A    between atoms: CB_21  and  CG_22 
REMARK   13  A    between atoms: CZ_27  and  OH_28 
REMARK   14  A    between atoms: N_29  and  CA_30 
REMARK   15  A    between atoms: CA_30  and  C_31 
REMARK   16  A    between atoms: CA_30  and  CB_33 
REMARK       I    between atoms: C_31  and  N_37 
REMARK   17  A    between atoms: CB_33  and  CG_34 
REMARK       I    between atoms: CG_34  and  ND2_36 
REMARK   18  A    between atoms: N_37  and  CA_38 
REMARK   19  A    between atoms: CA_38  and  C_39 
REMARK   20  A    between atoms: CA_38  and  CB_41 
REMARK       I    between atoms: C_39  and  N_45 
REMARK   21  A    between atoms: CB_41  and  CG_42 
REMARK   22  A    between atoms: CG_42  and  SD_43 
REMARK   23  A    between atoms: SD_43  and  CE_44 
REMARK   24  A    between atoms: N_45  and  CA_46 
REMARK   25  A    between atoms: CA_46  and  C_47 
REMARK   26  A    between atoms: CA_46  and  CB_49 
REMARK       I    between atoms: C_47  and  N_51 
REMARK   27  A    between atoms: CB_49  and  OG_50 
REMARK   28  A    between atoms: N_51  and  CA_52 
REMARK   29  A    between atoms: CA_52  and  C_53 
REMARK   30  A    between atoms: CA_52  and  CB_55 
REMARK       I    between atoms: C_53  and  N_59 
REMARK   31  A    between atoms: CB_55  and  CG1_56 
REMARK   32  A    between atoms: CB_55  and  CG2_57 
REMARK   33  A    between atoms: CG1_56  and  CD1_58 
REMARK   34  A    between atoms: N_59  and  CA_60 
REMARK   35  A    between atoms: CA_60  and  C_61 
REMARK   36  A    between atoms: CA_60  and  CB_63 
REMARK       I    between atoms: C_61  and  N_70 
REMARK   37  A    between atoms: CB_63  and  CG_64 
REMARK   38  A    between atoms: CG_64  and  CD_65 
REMARK   39  A    between atoms: CD_65  and  NE_66 
REMARK       I    between atoms: NE_66  and  CZ_67 
REMARK       I    between atoms: CZ_67  and  NH1_68 
REMARK       I    between atoms: CZ_67  and  NH2_69 
REMARK   40  A    between atoms: N_70  and  CA_71 
REMARK   41  A    between atoms: CA_71  and  C_72 
REMARK   42  A    between atoms: CA_71  and  CB_74 
REMARK       I    between atoms: C_72  and  N_81 
REMARK   43  A    between atoms: CB_74  and  CG_75 
REMARK   44  A    between atoms: CG_75  and  CD_76 
REMARK   45  A    between atoms: CD_76  and  NE_77 
REMARK       I    between atoms: NE_77  and  CZ_78 
REMARK       I    between atoms: CZ_78  and  NH1_79 
REMARK   46  A    between atoms: N_81  and  CA_82 
REMARK   47  A    between atoms: CA_82  and  C_83 
REMARK   48  A    between atoms: CA_82  and  CB_85 
REMARK       I    between atoms: C_83  and  N_87 
REMARK   49  A    between atoms: CB_85  and  OG_86 
REMARK   50  A    between atoms: N_87  and  CA_88 
REMARK   51  A    between atoms: CA_88  and  C_89 
REMARK   52  A    between atoms: CA_88  and  CB_91 
REMARK       I    between atoms: C_89  and  N_95 
REMARK   53  A    between atoms: CB_91  and  CG_92 
REMARK   54  A    between atoms: CG_92  and  SD_93 
REMARK   55  A    between atoms: SD_93  and  CE_94 
REMARK   56  A    between atoms: N_95  and  CA_96 
REMARK   57  A    between atoms: CA_96  and  C_97 
REMARK   58  A    between atoms: CA_96  and  CB_99 
REMARK       I    between atoms: C_97  and  N_100 
REMARK   59  A    between atoms: N_100  and  CA_101 
REMARK   60  A    between atoms: CA_101  and  C_102 
REMARK   61  A    between atoms: CA_101  and  CB_104 
REMARK       I    between atoms: C_102  and  N_109 
REMARK   62  A    between atoms: CB_104  and  CG_105 
REMARK   63  A    between atoms: CG_105  and  CD_106 
REMARK   64  A    between atoms: N_109  and  CA_110 
REMARK   65  A    between atoms: CA_110  and  C_111 
REMARK   66  A    between atoms: CA_110  and  CB_113 
REMARK   67  A    between atoms: CB_113  and  OG_114 
ROOT
ATOM      1  C   ILE d   1      19.355  12.129  44.011  0.00  0.00     0.241 C 
ATOM      2  O   ILE d   1      20.124  11.371  44.592  0.00  0.00    -0.271 OA
ATOM      3  N   ARG d   1      18.310  12.687  44.619  0.00  0.00    -0.346 N 
ATOM      4  H55 ARG d   1      17.778  13.383  44.137  0.00  0.00     0.163 HD
ENDROOT
BRANCH   3   5
ATOM      5  CA  ARG d   1      17.923  12.305  45.974  0.00  0.00     0.089 C 
ATOM      6  H56 ARG d   1      18.831  12.117  46.566  0.00  0.00     0.087 H 
BRANCH   5   7
ATOM      7  C   ARG d   1      17.092  11.024  45.916  0.00  0.00     0.241 C 
ATOM      8  O   ARG d   1      16.062  10.986  45.247  0.00  0.00    -0.271 OA
ATOM      9  N   ARG d   1      17.558   9.977  46.596  0.00  0.00    -0.346 N 
ATOM     10  H68 ARG d   1      18.387  10.089  47.144  0.00  0.00     0.163 HD
BRANCH   9  11
ATOM     11  CA  ARG d   1      16.902   8.671  46.570  0.00  0.00     0.089 C 
ATOM     12  H69 ARG d   1      16.154   8.690  45.764  0.00  0.00     0.087 H 
BRANCH  11  13
ATOM     13  C   ARG d   1      16.188   8.302  47.868  0.00  0.00     0.241 C 
ATOM     14  O   ARG d   1      15.759   7.162  48.032  0.00  0.00    -0.271 OA
ATOM     15  N   SER d   1      16.060   9.242  48.794  0.00  0.00    -0.344 N 
ATOM     16  H81 SER d   1      16.393  10.168  48.618  0.00  0.00     0.163 HD
BRANCH  15  17
ATOM     17  CA  SER d   1      15.430   8.919  50.073  0.00  0.00     0.109 C 
ATOM     18  H82 SER d   1      15.980   8.067  50.499  0.00  0.00     0.090 H 
BRANCH  17  19
ATOM     19  C   SER d   1      13.971   8.483  49.913  0.00  0.00     0.243 C 
ATOM     20  O   SER d   1      13.482   7.637  50.664  0.00  0.00    -0.271 OA
ATOM     21  N   MET d   1      13.281   9.050  48.929  0.00  0.00    -0.346 N 
ATOM     22  H86 MET d   1      13.723   9.739  48.354  0.00  0.00     0.163 HD
BRANCH  21  23
ATOM     23  CA  MET d   1      11.889   8.687  48.671  0.00  0.00     0.090 C 
ATOM     24  H87 MET d   1      11.789   7.599  48.801  0.00  0.00     0.087 H 
BRANCH  23  25
ATOM     25  C   MET d   1      11.488   9.033  47.238  0.00  0.00     0.241 C 
ATOM     26  O   MET d   1      10.551   9.796  47.006  0.00  0.00    -0.271 OA
ATOM     27  N   ALA d   1      12.198   8.451  46.278  0.00  0.00    -0.346 N 
ATOM     28  H95 ALA d   1      12.864   7.746  46.522  0.00  0.00     0.163 HD
BRANCH  27  29
ATOM     29  CA  ALA d   1      12.028   8.818  44.875  0.00  0.00     0.086 C 
ATOM     30  H96 ALA d   1      11.850   9.903  44.845  0.00  0.00     0.086 H 
BRANCH  29  31
ATOM     31  C   ALA d   1      10.830   8.148  44.202  0.00  0.00     0.240 C 
ATOM     32  O   ALA d   1      10.613   8.329  43.003  0.00  0.00    -0.271 OA
ATOM     33  N   GLU d   1      10.062   7.375  44.968  0.00  0.00    -0.346 N 
ATOM     34 0H10 GLU d   1      10.325   7.208  45.918  0.00  0.00     0.163 HD
BRANCH  33  35
ATOM     35  CA  GLU d   1       8.839   6.766  44.441  0.00  0.00     0.090 C 
ATOM     36 1H10 GLU d   1       8.579   7.299  43.514  0.00  0.00     0.087 H 
BRANCH  35  37
ATOM     37  C   GLU d   1       7.664   6.910  45.396  0.00  0.00     0.241 C 
ATOM     38  O   GLU d   1       6.769   6.069  45.420  0.00  0.00    -0.271 OA
ATOM     39  N   SER d   1       7.669   7.986  46.177  0.00  0.00    -0.343 N 
ATOM     40 6H10 SER d   1       8.436   8.625  46.122  0.00  0.00     0.163 HD
BRANCH  39  41
ATOM     41  CA  SER d   1       6.584   8.256  47.111  0.00  0.00     0.116 C 
ATOM     42 7H10 SER d   1       6.249   7.300  47.539  0.00  0.00     0.093 H 
BRANCH  41  43
ATOM     43  C   SER d   1       5.404   8.905  46.396  0.00  0.00     0.198 C 
ATOM     44  O   SER d   1       4.958   8.423  45.354  0.00  0.00    -0.646 OA
ATOM     45  OXT SER d   1       4.877   9.922  46.848  0.00  0.00    -0.646 OA
ENDBRANCH  41  43
BRANCH  41  46
ATOM     46  CB  SER d   1       7.068   9.154  48.250  0.00  0.00     0.045 C 
ATOM     47 8H10 SER d   1       7.893   8.652  48.778  0.00  0.00     0.077 H 
ATOM     48 9H10 SER d   1       6.237   9.328  48.949  0.00  0.00     0.077 H 
BRANCH  46  49
ATOM     49  OG  SER d   1       7.525  10.400  47.755  0.00  0.00    -0.398 OA
ATOM     50 0H11 SER d   1       6.815  10.839  47.301  0.00  0.00     0.209 HD
ENDBRANCH  46  49
ENDBRANCH  41  46
ENDBRANCH  39  41
ENDBRANCH  35  37
BRANCH  35  51
ATOM     51  CB  GLU d   1       9.070   5.293  44.084  0.00  0.00    -0.029 C 
ATOM     52 2H10 GLU d   1       8.155   4.892  43.623  0.00  0.00     0.037 H 
ATOM     53 3H10 GLU d   1       9.292   4.735  45.006  0.00  0.00     0.037 H 
BRANCH  51  54
ATOM     54  CG  GLU d   1      10.225   5.116  43.114  0.00  0.00     0.018 C 
ATOM     55 4H10 GLU d   1      11.165   5.251  43.670  0.00  0.00     0.049 H 
ATOM     56 5H10 GLU d   1      10.144   5.891  42.337  0.00  0.00     0.049 H 
BRANCH  54  57
ATOM     57  CD  GLU d   1      10.268   3.757  42.428  0.00  0.00     0.172 C 
ATOM     58  OE1 GLU d   1       9.311   2.970  42.541  0.00  0.00    -0.648 OA
ATOM     59  OE2 GLU d   1      11.282   3.491  41.759  0.00  0.00    -0.648 OA
ENDBRANCH  54  57
ENDBRANCH  51  54
ENDBRANCH  35  51
ENDBRANCH  33  35
ENDBRANCH  29  31
BRANCH  29  60
ATOM     60  CB  ALA d   1      13.308   8.535  44.091  0.00  0.00    -0.049 C 
ATOM     61  H97 ALA d   1      13.163   8.817  43.038  0.00  0.00     0.030 H 
ATOM     62  H98 ALA d   1      13.547   7.463  44.154  0.00  0.00     0.030 H 
ATOM     63  H99 ALA d   1      14.136   9.121  44.517  0.00  0.00     0.030 H 
ENDBRANCH  29  60
ENDBRANCH  27  29
ENDBRANCH  23  25
BRANCH  23  64
ATOM     64  CB  MET d   1      10.960   9.378  49.676  0.00  0.00    -0.030 C 
ATOM     65  H88 MET d   1      11.246   9.054  50.688  0.00  0.00     0.037 H 
ATOM     66  H89 MET d   1       9.928   9.059  49.466  0.00  0.00     0.037 H 
BRANCH  64  67
ATOM     67  CG  MET d   1      11.006  10.901  49.633  0.00  0.00    -0.021 C 
ATOM     68  H90 MET d   1      10.312  11.252  48.855  0.00  0.00     0.049 H 
ATOM     69  H91 MET d   1      12.029  11.215  49.379  0.00  0.00     0.049 H 
BRANCH  67  70
ATOM     70  SD  MET d   1      10.544  11.659  51.202  0.00  0.00    -0.173 SA
BRANCH  70  71
ATOM     71  CE  MET d   1      11.992  11.278  52.184  0.00  0.00    -0.035 C 
ATOM     72  H92 MET d   1      11.864  11.684  53.198  0.00  0.00     0.041 H 
ATOM     73  H93 MET d   1      12.880  11.729  51.718  0.00  0.00     0.041 H 
ATOM     74  H94 MET d   1      12.121  10.187  52.239  0.00  0.00     0.041 H 
ENDBRANCH  70  71
ENDBRANCH  67  70
ENDBRANCH  64  67
ENDBRANCH  23  64
ENDBRANCH  21  23
ENDBRANCH  17  19
BRANCH  17  75
ATOM     75  CB  SER d   1      15.549  10.081  51.059  0.00  0.00     0.044 C 
ATOM     76  H83 SER d   1      16.612  10.262  51.276  0.00  0.00     0.077 H 
ATOM     77  H84 SER d   1      15.024   9.819  51.990  0.00  0.00     0.077 H 
BRANCH  75  78
ATOM     78  OG  SER d   1      14.980  11.257  50.523  0.00  0.00    -0.398 OA
ATOM     79  H85 SER d   1      15.066  11.964  51.152  0.00  0.00     0.209 HD
ENDBRANCH  75  78
ENDBRANCH  17  75
ENDBRANCH  15  17
ENDBRANCH  11  13
BRANCH  11  80
ATOM     80  CB  ARG d   1      17.932   7.578  46.265  0.00  0.00    -0.036 C 
ATOM     81  H70 ARG d   1      17.434   6.600  46.341  0.00  0.00     0.036 H 
ATOM     82  H71 ARG d   1      18.736   7.639  47.014  0.00  0.00     0.036 H 
BRANCH  80  83
ATOM     83  CG  ARG d   1      18.547   7.692  44.898  0.00  0.00    -0.048 C 
ATOM     84  H72 ARG d   1      19.109   8.636  44.840  0.00  0.00     0.035 H 
ATOM     85  H73 ARG d   1      17.744   7.697  44.147  0.00  0.00     0.035 H 
BRANCH  83  86
ATOM     86  CD  ARG d   1      19.495   6.535  44.597  0.00  0.00     0.009 C 
ATOM     87  H74 ARG d   1      18.925   5.594  44.596  0.00  0.00     0.064 H 
ATOM     88  H75 ARG d   1      20.270   6.494  45.376  0.00  0.00     0.064 H 
BRANCH  86  89
ATOM     89  NE  ARG d   1      20.136   6.706  43.294  0.00  0.00    -0.227 N 
ATOM     90  CZ  ARG d   1      19.668   6.235  42.140  0.00  0.00     0.665 C 
ATOM     91  NH1 ARG d   1      18.546   5.530  42.092  0.00  0.00    -0.235 N 
ATOM     92  NH2 ARG d   1      20.332   6.470  41.021  0.00  0.00    -0.235 N 
ATOM     93  H77 ARG d   1      18.200   5.174  41.190  0.00  0.00     0.174 HD
ATOM     94  H78 ARG d   1      18.021   5.338  42.957  0.00  0.00     0.174 HD
ATOM     95  H79 ARG d   1      21.205   7.016  41.045  0.00  0.00     0.174 HD
ATOM     96  H80 ARG d   1      19.976   6.107  40.125  0.00  0.00     0.174 HD
ATOM     97  H76 ARG d   1      21.020   7.233  43.267  0.00  0.00     0.177 HD
ENDBRANCH  86  89
ENDBRANCH  83  86
ENDBRANCH  80  83
ENDBRANCH  11  80
ENDBRANCH   9  11
ENDBRANCH   5   7
BRANCH   5  98
ATOM     98  CB  ARG d   1      17.124  13.426  46.643  0.00  0.00    -0.036 C 
ATOM     99  H57 ARG d   1      16.260  13.661  46.004  0.00  0.00     0.036 H 
ATOM    100  H58 ARG d   1      17.773  14.311  46.722  0.00  0.00     0.036 H 
BRANCH  98 101
ATOM    101  CG  ARG d   1      16.609  13.087  48.035  0.00  0.00    -0.048 C 
ATOM    102  H59 ARG d   1      17.462  12.829  48.680  0.00  0.00     0.035 H 
ATOM    103  H60 ARG d   1      15.928  12.226  47.966  0.00  0.00     0.035 H 
BRANCH 101 104
ATOM    104  CD  ARG d   1      15.860  14.266  48.649  0.00  0.00     0.009 C 
ATOM    105  H61 ARG d   1      15.391  14.846  47.841  0.00  0.00     0.064 H 
ATOM    106  H62 ARG d   1      16.580  14.901  49.186  0.00  0.00     0.064 H 
BRANCH 104 107
ATOM    107  NE  ARG d   1      14.823  13.839  49.583  0.00  0.00    -0.227 N 
ATOM    108  CZ  ARG d   1      13.981  14.665  50.194  0.00  0.00     0.665 C 
ATOM    109  NH1 ARG d   1      14.047  15.972  49.976  0.00  0.00    -0.235 N 
ATOM    110  NH2 ARG d   1      13.068  14.184  51.027  0.00  0.00    -0.235 N 
ATOM    111  H64 ARG d   1      13.391  16.607  50.453  0.00  0.00     0.174 HD
ATOM    112  H65 ARG d   1      14.754  16.351  49.330  0.00  0.00     0.174 HD
ATOM    113  H66 ARG d   1      13.012  13.170  51.200  0.00  0.00     0.174 HD
ATOM    114  H67 ARG d   1      12.415  14.824  51.501  0.00  0.00     0.174 HD
ATOM    115  H63 ARG d   1      14.739  12.832  49.781  0.00  0.00     0.177 HD
ENDBRANCH 104 107
ENDBRANCH 101 104
ENDBRANCH  98 101
ENDBRANCH   5  98
ENDBRANCH   3   5
BRANCH   1 116
ATOM    116  CA  ILE d   1      19.579  12.471  42.540  0.00  0.00     0.092 C 
ATOM    117  H45 ILE d   1      19.372  13.540  42.384  0.00  0.00     0.088 H 
BRANCH 116 118
ATOM    118  N   ILE d   1      20.992  12.222  42.227  0.00  0.00    -0.346 N 
ATOM    119  C   SER d   1      21.754  13.130  41.622  0.00  0.00     0.243 C 
ATOM    120  O   SER d   1      21.295  14.099  41.011  0.00  0.00    -0.271 OA
ATOM    121  H44 ILE d   1      21.395  11.341  42.477  0.00  0.00     0.163 HD
BRANCH 119 122
ATOM    122  CA  SER d   1      23.268  12.926  41.712  0.00  0.00     0.109 C 
ATOM    123  H40 SER d   1      23.694  13.880  42.055  0.00  0.00     0.090 H 
BRANCH 122 124
ATOM    124  N   SER d   1      23.619  11.929  42.725  0.00  0.00    -0.344 N 
ATOM    125  C   MET d   1      23.545  12.284  44.007  0.00  0.00     0.241 C 
ATOM    126  O   MET d   1      23.287  13.436  44.346  0.00  0.00    -0.271 OA
ATOM    127  H39 SER d   1      23.906  11.008  42.462  0.00  0.00     0.163 HD
BRANCH 125 128
ATOM    128  CA  MET d   1      23.753  11.232  45.083  0.00  0.00     0.090 C 
ATOM    129  H31 MET d   1      22.811  11.167  45.648  0.00  0.00     0.087 H 
BRANCH 128 130
ATOM    130  N   MET d   1      24.042   9.889  44.597  0.00  0.00    -0.346 N 
ATOM    131  C   ASN d   1      23.286   8.863  44.976  0.00  0.00     0.241 C 
ATOM    132  O   ASN d   1      22.198   9.001  45.535  0.00  0.00    -0.271 OA
ATOM    133  H30 MET d   1      24.811   9.739  43.976  0.00  0.00     0.163 HD
BRANCH 131 134
ATOM    134  CA  ASN d   1      23.801   7.469  44.663  0.00  0.00     0.097 C 
ATOM    135  H25 ASN d   1      22.924   6.809  44.586  0.00  0.00     0.088 H 
BRANCH 134 136
ATOM    136  N   ASN d   1      24.524   7.385  43.406  0.00  0.00    -0.346 N 
ATOM    137  C   TYR d   1      23.884   7.383  42.247  0.00  0.00     0.241 C 
ATOM    138  O   TYR d   1      22.691   7.630  42.153  0.00  0.00    -0.271 OA
ATOM    139  H24 ASN d   1      25.522   7.328  43.416  0.00  0.00     0.163 HD
BRANCH 137 140
ATOM    140  CA  TYR d   1      24.705   7.048  41.018  0.00  0.00     0.093 C 
ATOM    141  H16 TYR d   1      24.127   7.324  40.124  0.00  0.00     0.088 H 
BRANCH 140 142
ATOM    142  N   TYR d   1      25.969   7.775  40.991  0.00  0.00    -0.346 N 
ATOM    143  C   ALA d   1      25.992   9.099  41.004  0.00  0.00     0.240 C 
ATOM    144  O   ALA d   1      24.966   9.769  41.089  0.00  0.00    -0.271 OA
ATOM    145  H15 TYR d   1      26.830   7.267  40.962  0.00  0.00     0.163 HD
BRANCH 143 146
ATOM    146  CA  ALA d   1      27.359   9.788  40.877  0.00  0.00     0.086 C 
ATOM    147  H11 ALA d   1      27.482  10.459  41.740  0.00  0.00     0.086 H 
BRANCH 146 148
ATOM    148  N   ALA d   1      28.499   8.872  40.849  0.00  0.00    -0.346 N 
ATOM    149  C   ASN d   1      29.110   8.444  41.944  0.00  0.00     0.241 C 
ATOM    150  O   ASN d   1      28.689   8.684  43.071  0.00  0.00    -0.271 OA
ATOM    151  H10 ALA d   1      28.833   8.554  39.962  0.00  0.00     0.163 HD
BRANCH 149 152
ATOM    152  CA  ASN d   1      30.375   7.595  41.727  0.00  0.00     0.097 C 
ATOM    153  H5  ASN d   1      30.397   7.267  40.677  0.00  0.00     0.088 H 
BRANCH 152 154
ATOM    154  N   ASN d   1      31.591   8.361  42.006  0.00  0.00    -0.348 N 
ATOM    155  C   ACE d   1      32.315   9.127  41.186  0.00  0.00     0.214 C 
ATOM    156  O   ACE d   1      33.297   9.753  41.593  0.00  0.00    -0.274 OA
ATOM    157  H4  ASN d   1      31.928   8.302  42.946  0.00  0.00     0.163 HD
BRANCH 155 158
ATOM    158  CH3 ACE d   1      31.883   9.243  39.761  0.00  0.00    -0.003 C 
ATOM    159  H1  ACE d   1      30.996   8.614  39.594  0.00  0.00     0.040 H 
ATOM    160  H2  ACE d   1      32.698   8.909  39.102  0.00  0.00     0.040 H 
ATOM    161  H3  ACE d   1      31.637  10.291  39.537  0.00  0.00     0.040 H 
ENDBRANCH 155 158
ENDBRANCH 152 154
BRANCH 152 162
ATOM    162  CB  ASN d   1      30.355   6.362  42.632  0.00  0.00     0.036 C 
ATOM    163  H6  ASN d   1      30.359   6.696  43.680  0.00  0.00     0.051 H 
ATOM    164  H7  ASN d   1      31.259   5.767  42.434  0.00  0.00     0.051 H 
BRANCH 162 165
ATOM    165  CG  ASN d   1      29.143   5.486  42.410  0.00  0.00     0.217 C 
ATOM    166  OD1 ASN d   1      28.287   5.787  41.567  0.00  0.00    -0.274 OA
ATOM    167  ND2 ASN d   1      29.072   4.374  43.153  0.00  0.00    -0.370 N 
ATOM    168  H8  ASN d   1      28.294   3.754  43.052  0.00  0.00     0.159 HD
ATOM    169  H9  ASN d   1      29.797   4.164  43.809  0.00  0.00     0.159 HD
ENDBRANCH 162 165
ENDBRANCH 152 162
ENDBRANCH 149 152
ENDBRANCH 146 148
BRANCH 146 170
ATOM    170  CB  ALA d   1      27.379  10.604  39.608  0.00  0.00    -0.049 C 
ATOM    171  H12 ALA d   1      26.529  11.302  39.607  0.00  0.00     0.030 H 
ATOM    172  H13 ALA d   1      27.304   9.933  38.739  0.00  0.00     0.030 H 
ATOM    173  H14 ALA d   1      28.319  11.172  39.552  0.00  0.00     0.030 H 
ENDBRANCH 146 170
ENDBRANCH 143 146
ENDBRANCH 140 142
BRANCH 140 174
ATOM    174  CB  TYR d   1      24.967   5.554  40.996  0.00  0.00    -0.014 C 
ATOM    175  H17 TYR d   1      25.594   5.304  41.864  0.00  0.00     0.043 H 
ATOM    176  H18 TYR d   1      25.511   5.316  40.070  0.00  0.00     0.043 H 
BRANCH 174 177
ATOM    177  CG  TYR d   1      23.725   4.691  41.048  0.00  0.00    -0.056 A 
ATOM    178  CD1 TYR d   1      23.212   4.129  39.895  0.00  0.00    -0.074 A 
ATOM    179  CE1 TYR d   1      22.098   3.337  39.926  0.00  0.00    -0.051 A 
ATOM    180  H19 TYR d   1      23.702   4.320  38.947  0.00  0.00     0.084 H 
ATOM    181  CZ  TYR d   1      21.454   3.109  41.120  0.00  0.00     0.065 A 
ATOM    182  H21 TYR d   1      21.723   2.890  39.012  0.00  0.00     0.087 H 
ATOM    183  CE2 TYR d   1      21.940   3.637  42.287  0.00  0.00    -0.051 A 
ATOM    184  CD2 TYR d   1      23.068   4.449  42.241  0.00  0.00    -0.074 A 
ATOM    185  H22 TYR d   1      21.453   3.425  43.232  0.00  0.00     0.087 H 
ATOM    186  H20 TYR d   1      23.438   4.900  43.155  0.00  0.00     0.084 H 
BRANCH 181 187
ATOM    187  OH  TYR d   1      20.345   2.294  41.151  0.00  0.00    -0.361 OA
ATOM    188  H23 TYR d   1      20.136   2.012  40.268  0.00  0.00     0.217 HD
ENDBRANCH 181 187
ENDBRANCH 174 177
ENDBRANCH 140 174
ENDBRANCH 137 140
ENDBRANCH 134 136
BRANCH 134 189
ATOM    189  CB  ASN d   1      24.687   6.947  45.786  0.00  0.00     0.036 C 
ATOM    190  H26 ASN d   1      24.141   7.029  46.737  0.00  0.00     0.051 H 
ATOM    191  H27 ASN d   1      25.600   7.559  45.833  0.00  0.00     0.051 H 
BRANCH 189 192
ATOM    192  CG  ASN d   1      25.078   5.501  45.569  0.00  0.00     0.217 C 
ATOM    193  OD1 ASN d   1      24.220   4.638  45.393  0.00  0.00    -0.274 OA
ATOM    194  ND2 ASN d   1      26.377   5.229  45.542  0.00  0.00    -0.370 N 
ATOM    195  H28 ASN d   1      26.688   4.289  45.402  0.00  0.00     0.159 HD
ATOM    196  H29 ASN d   1      27.044   5.964  45.662  0.00  0.00     0.159 HD
ENDBRANCH 189 192
ENDBRANCH 134 189
ENDBRANCH 131 134
ENDBRANCH 128 130
BRANCH 128 197
ATOM    197  CB  MET d   1      24.843  11.684  46.048  0.00  0.00    -0.030 C 
ATOM    198  H32 MET d   1      24.722  12.760  46.240  0.00  0.00     0.037 H 
ATOM    199  H33 MET d   1      25.824  11.502  45.584  0.00  0.00     0.037 H 
BRANCH 197 200
ATOM    200  CG  MET d   1      24.784  10.938  47.380  0.00  0.00    -0.021 C 
ATOM    201  H34 MET d   1      25.230   9.941  47.251  0.00  0.00     0.049 H 
ATOM    202  H35 MET d   1      23.732  10.833  47.684  0.00  0.00     0.049 H 
BRANCH 200 203
ATOM    203  SD  MET d   1      25.679  11.815  48.669  0.00  0.00    -0.173 SA
BRANCH 203 204
ATOM    204  CE  MET d   1      27.355  11.649  48.056  0.00  0.00    -0.035 C 
ATOM    205  H36 MET d   1      28.050  12.146  48.749  0.00  0.00     0.041 H 
ATOM    206  H37 MET d   1      27.430  12.117  47.063  0.00  0.00     0.041 H 
ATOM    207  H38 MET d   1      27.614  10.583  47.980  0.00  0.00     0.041 H 
ENDBRANCH 203 204
ENDBRANCH 200 203
ENDBRANCH 197 200
ENDBRANCH 128 197
ENDBRANCH 125 128
ENDBRANCH 122 124
BRANCH 122 208
ATOM    208  CB  SER d   1      23.894  12.642  40.343  0.00  0.00     0.044 C 
ATOM    209  H41 SER d   1      24.982  12.538  40.466  0.00  0.00     0.077 H 
ATOM    210  H42 SER d   1      23.680  13.489  39.674  0.00  0.00     0.077 H 
BRANCH 208 211
ATOM    211  OG  SER d   1      23.391  11.466  39.759  0.00  0.00    -0.398 OA
ATOM    212  H43 SER d   1      23.577  10.727  40.327  0.00  0.00     0.209 HD
ENDBRANCH 208 211
ENDBRANCH 122 208
ENDBRANCH 119 122
ENDBRANCH 116 118
BRANCH 116 213
ATOM    213  CB  ILE d   1      18.600  11.660  41.654  0.00  0.00    -0.030 C 
ATOM    214  H46 ILE d   1      17.577  11.988  41.890  0.00  0.00     0.043 H 
BRANCH 213 215
ATOM    215  CG1 ILE d   1      18.696  10.158  41.940  0.00  0.00    -0.063 C 
ATOM    216  H47 ILE d   1      18.672  10.011  43.030  0.00  0.00     0.033 H 
ATOM    217  H48 ILE d   1      19.653   9.790  41.541  0.00  0.00     0.033 H 
BRANCH 215 218
ATOM    218  CD1 ILE d   1      17.568   9.336  41.319  0.00  0.00    -0.076 C 
ATOM    219  H52 ILE d   1      17.708   8.274  41.569  0.00  0.00     0.027 H 
ATOM    220  H53 ILE d   1      17.582   9.461  40.226  0.00  0.00     0.027 H 
ATOM    221  H54 ILE d   1      16.602   9.681  41.715  0.00  0.00     0.027 H 
ENDBRANCH 215 218
ENDBRANCH 213 215
BRANCH 213 222
ATOM    222  CG2 ILE d   1      18.859  11.932  40.189  0.00  0.00    -0.071 C 
ATOM    223  H49 ILE d   1      18.787  13.013  39.998  0.00  0.00     0.028 H 
ATOM    224  H50 ILE d   1      18.112  11.402  39.580  0.00  0.00     0.028 H 
ATOM    225  H51 ILE d   1      19.866  11.579  39.923  0.00  0.00     0.028 H 
ENDBRANCH 213 222
ENDBRANCH 116 213
ENDBRANCH   1 116
TORSDOF 67
