REMARK  4 active torsions:
REMARK  status: ('A' for Active; 'I' for Inactive)
REMARK    1  A    between atoms: C17_2  and  C1_4 
REMARK    2  A    between atoms: C4_7  and  C7_10 
REMARK    3  A    between atoms: C10_12  and  C11_16 
REMARK    4  A    between atoms: C15_18  and  O1_19 
ROOT
ATOM      1  C7  3DL d   1       5.272   8.581  18.708  0.00  0.00     0.085 A 
ATOM      2  N2  3DL d   1       4.133   7.882  18.489  0.00  0.00    -0.245 NA
ATOM      3  C10 3DL d   1       2.988   8.254  19.104  0.00  0.00     0.085 A 
ATOM      4  C9  3DL d   1       2.991   9.383  19.919  0.00  0.00     0.030 A 
ATOM      5  N1  3DL d   1       4.112  10.075  20.112  0.00  0.00    -0.268 NA
ATOM      6  C8  3DL d   1       5.247   9.713  19.517  0.00  0.00     0.030 A 
ATOM      7  H   3DL d   1       2.073   9.701  20.400  0.00  0.00     0.118 H 
ATOM      8  H   3DL d   1       6.148  10.298  19.662  0.00  0.00     0.118 H 
ENDROOT
BRANCH   1   9
ATOM      9  C4  3DL d   1       6.483   8.162  17.964  0.00  0.00    -0.006 A 
ATOM     10  C5  3DL d   1       6.478   6.920  17.335  0.00  0.00    -0.070 A 
ATOM     11  C6  3DL d   1       7.570   6.519  16.587  0.00  0.00    -0.066 A 
ATOM     12  H   3DL d   1       5.618   6.267  17.431  0.00  0.00     0.084 H 
ATOM     13  C1  3DL d   1       8.649   7.370  16.417  0.00  0.00     0.040 A 
ATOM     14  H   3DL d   1       7.581   5.535  16.132  0.00  0.00     0.085 H 
ATOM     15  C2  3DL d   1       8.640   8.630  17.013  0.00  0.00    -0.066 A 
ATOM     16  C3  3DL d   1       7.553   9.027  17.785  0.00  0.00    -0.070 A 
ATOM     17  H   3DL d   1       9.480   9.301  16.875  0.00  0.00     0.085 H 
ATOM     18  H   3DL d   1       7.542  10.008  18.245  0.00  0.00     0.084 H 
BRANCH  13  19
ATOM     19  C17 3DL d   1       9.810   6.897  15.605  0.00  0.00     0.209 C 
ATOM     20  O3  3DL d   1       9.694   5.811  15.003  0.00  0.00    -0.644 OA
ATOM     21  O2  3DL d   1      10.854   7.586  15.561  0.00  0.00    -0.644 OA
ENDBRANCH  13  19
ENDBRANCH   1   9
BRANCH   3  22
ATOM     22  C11 3DL d   1       1.734   7.516  18.827  0.00  0.00    -0.003 A 
ATOM     23  C16 3DL d   1       0.608   7.666  19.627  0.00  0.00    -0.039 A 
ATOM     24  C15 3DL d   1      -0.558   6.983  19.308  0.00  0.00     0.066 A 
ATOM     25  H   3DL d   1       0.640   8.313  20.496  0.00  0.00     0.089 H 
ATOM     26  C14 3DL d   1      -0.629   6.166  18.175  0.00  0.00    -0.051 A 
ATOM     27  C13 3DL d   1       0.487   6.038  17.349  0.00  0.00    -0.080 A 
ATOM     28  H   3DL d   1      -1.545   5.636  17.941  0.00  0.00     0.087 H 
ATOM     29  C12 3DL d   1       1.660   6.722  17.673  0.00  0.00    -0.071 A 
ATOM     30  H   3DL d   1       0.444   5.413  16.464  0.00  0.00     0.083 H 
ATOM     31  H   3DL d   1       2.525   6.638  17.025  0.00  0.00     0.084 H 
BRANCH  24  32
ATOM     32  O1  3DL d   1      -1.633   7.134  20.134  0.00  0.00    -0.361 OA
ATOM     33  H   3DL d   1      -2.359   6.617  19.805  0.00  0.00     0.217 HD
ENDBRANCH  24  32
ENDBRANCH   3  22
TORSDOF 4
