REMARK  4 active torsions:
REMARK  status: ('A' for Active; 'I' for Inactive)
REMARK    1  A    between atoms: C22_2  and  C9_4 
REMARK    2  A    between atoms: C4_14  and  C11_17 
REMARK    3  A    between atoms: C14_20  and  N4_23 
REMARK    4  A    between atoms: N5_26  and  C21_27 
ROOT
ATOM      1  C11 3DW d   1       0.902   6.930  18.824  0.00  0.00    -0.024 A 
ATOM      2  C16 3DW d   1       0.510   6.238  17.675  0.00  0.00    -0.070 A 
ATOM      3  C15 3DW d   1      -0.758   5.674  17.555  0.00  0.00    -0.057 A 
ATOM      4  C14 3DW d   1      -1.692   5.791  18.591  0.00  0.00     0.030 A 
ATOM      5  C13 3DW d   1      -1.312   6.504  19.728  0.00  0.00    -0.057 A 
ATOM      6  C12 3DW d   1      -0.042   7.068  19.848  0.00  0.00    -0.070 A 
ATOM      7  H   3DW d   1       1.212   6.137  16.855  0.00  0.00     0.084 H 
ATOM      8  H   3DW d   1      -1.024   5.139  16.650  0.00  0.00     0.086 H 
ATOM      9  H   3DW d   1      -2.022   6.623  20.539  0.00  0.00     0.086 H 
ATOM     10  H   3DW d   1       0.217   7.620  20.745  0.00  0.00     0.084 H 
ENDROOT
BRANCH   1  11
ATOM     11  C4  3DW d   1       2.268   7.557  18.913  0.00  0.00    -0.007 A 
ATOM     12  C5  3DW d   1       3.361   7.122  18.127  0.00  0.00    -0.056 A 
ATOM     13  C1  3DW d   1       4.576   7.799  18.285  0.00  0.00     0.023 A 
ATOM     14  H   3DW d   1       3.261   6.298  17.430  0.00  0.00     0.086 H 
ATOM     15  C2  3DW d   1       4.678   8.842  19.167  0.00  0.00     0.139 A 
ATOM     16  C6  3DW d   1       5.810   7.657  17.687  0.00  0.00     0.009 A 
ATOM     17  N2  3DW d   1       5.940   9.331  19.115  0.00  0.00    -0.338 N 
ATOM     18  N1  3DW d   1       3.646   9.266  19.921  0.00  0.00    -0.242 NA
ATOM     19  C7  3DW d   1       6.664   8.612  18.206  0.00  0.00     0.062 A 
ATOM     20  H   3DW d   1       6.297  10.120  19.672  0.00  0.00     0.167 HD
ATOM     21  C10 3DW d   1       7.975   8.675  17.758  0.00  0.00     0.030 A 
ATOM     22  N3  3DW d   1       8.408   7.809  16.821  0.00  0.00    -0.252 NA
ATOM     23  H   3DW d   1       8.651   9.420  18.161  0.00  0.00     0.118 H 
ATOM     24  C9  3DW d   1       7.588   6.869  16.292  0.00  0.00     0.133 A 
ATOM     25  C8  3DW d   1       6.250   6.761  16.713  0.00  0.00    -0.035 A 
ATOM     26  H   3DW d   1       5.587   6.011  16.297  0.00  0.00     0.088 H 
ATOM     27  C3  3DW d   1       2.464   8.642  19.785  0.00  0.00     0.015 A 
ATOM     28  H   3DW d   1       1.624   8.991  20.374  0.00  0.00     0.116 H 
BRANCH  24  29
ATOM     29  C22 3DW d   1       8.159   5.965  15.248  0.00  0.00     0.229 C 
ATOM     30  O2  3DW d   1       7.434   5.083  14.735  0.00  0.00    -0.643 OA
ATOM     31  O1  3DW d   1       9.360   6.104  14.928  0.00  0.00    -0.643 OA
ENDBRANCH  24  29
ENDBRANCH   1  11
BRANCH   4  32
ATOM     32  N4  3DW d   1      -2.937   5.223  18.474  0.00  0.00    -0.378 N 
ATOM     33  C20 3DW d   1      -4.004   5.743  19.338  0.00  0.00     0.018 C 
ATOM     34  C19 3DW d   1      -5.368   5.272  18.837  0.00  0.00     0.098 C 
ATOM     35  H   3DW d   1      -3.974   6.843  19.330  0.00  0.00     0.066 H 
ATOM     36  H   3DW d   1      -3.849   5.380  20.365  0.00  0.00     0.066 H 
ATOM     37  N5  3DW d   1      -5.362   3.817  18.623  0.00  0.00    -0.072 N 
ATOM     38  H   3DW d   1      -5.599   5.777  17.887  0.00  0.00     0.078 H 
ATOM     39  H   3DW d   1      -6.135   5.525  19.583  0.00  0.00     0.078 H 
ATOM     40  C18 3DW d   1      -4.373   3.506  17.579  0.00  0.00     0.098 C 
ATOM     41  H   3DW d   1      -5.093   3.360  19.480  0.00  0.00     0.279 HD
ATOM     42  C17 3DW d   1      -2.984   3.805  18.114  0.00  0.00     0.018 C 
ATOM     43  H   3DW d   1      -4.567   4.124  16.690  0.00  0.00     0.078 H 
ATOM     44  H   3DW d   1      -4.444   2.442  17.308  0.00  0.00     0.078 H 
ATOM     45  H   3DW d   1      -2.784   3.187  19.002  0.00  0.00     0.066 H 
ATOM     46  H   3DW d   1      -2.231   3.590  17.341  0.00  0.00     0.066 H 
BRANCH  37  47
ATOM     47  C21 3DW d   1      -6.699   3.332  18.231  0.00  0.00     0.066 C 
ATOM     48  H   3DW d   1      -6.664   2.243  18.078  0.00  0.00     0.068 H 
ATOM     49  H   3DW d   1      -7.008   3.824  17.297  0.00  0.00     0.068 H 
ATOM     50  H   3DW d   1      -7.422   3.567  19.026  0.00  0.00     0.068 H 
ENDBRANCH  37  47
ENDBRANCH   4  32
TORSDOF 4
