REMARK  3 active torsions:
REMARK  status: ('A' for Active; 'I' for Inactive)
REMARK    1  A    between atoms: C4_13  and  C11_16 
REMARK    2  A    between atoms: C14_19  and  N4_22 
REMARK    3  A    between atoms: N5_25  and  C21_26 
ROOT
ATOM      1  N6  3DX d   1       9.001   5.819  14.913  0.00  0.00    -0.190 NA
ATOM      2  C22 3DX d   1       8.442   6.498  15.668  0.00  0.00     0.119 C 
ATOM      3  C9  3DX d   1       7.852   7.266  16.513  0.00  0.00     0.137 A 
ATOM      4  N3  3DX d   1       8.601   8.259  17.047  0.00  0.00    -0.248 NA
ATOM      5  C10 3DX d   1       8.103   9.131  17.935  0.00  0.00     0.030 A 
ATOM      6  C7  3DX d   1       6.778   9.036  18.324  0.00  0.00     0.062 A 
ATOM      7  N2  3DX d   1       5.999   9.761  19.176  0.00  0.00    -0.338 N 
ATOM      8  C2  3DX d   1       4.755   9.231  19.190  0.00  0.00     0.139 A 
ATOM      9  C8  3DX d   1       6.499   7.123  16.865  0.00  0.00    -0.032 A 
ATOM     10  C6  3DX d   1       5.978   8.035  17.793  0.00  0.00     0.009 A 
ATOM     11  C1  3DX d   1       4.713   8.162  18.334  0.00  0.00     0.023 A 
ATOM     12  C5  3DX d   1       3.519   7.450  18.170  0.00  0.00    -0.056 A 
ATOM     13  C4  3DX d   1       2.397   7.896  18.903  0.00  0.00    -0.007 A 
ATOM     14  C3  3DX d   1       2.525   8.998  19.759  0.00  0.00     0.015 A 
ATOM     15  N1  3DX d   1       3.687   9.654  19.896  0.00  0.00    -0.242 NA
ATOM     16  H   3DX d   1       8.736   9.908  18.347  0.00  0.00     0.118 H 
ATOM     17  H   3DX d   1       6.308  10.579  19.720  0.00  0.00     0.167 HD
ATOM     18  H   3DX d   1       5.884   6.340  16.437  0.00  0.00     0.089 H 
ATOM     19  H   3DX d   1       3.458   6.593  17.509  0.00  0.00     0.086 H 
ATOM     20  H   3DX d   1       1.662   9.329  20.326  0.00  0.00     0.116 H 
ENDROOT
BRANCH  13  21
ATOM     21  C11 3DX d   1       1.057   7.226  18.811  0.00  0.00    -0.024 A 
ATOM     22  C16 3DX d   1       0.691   6.522  17.661  0.00  0.00    -0.070 A 
ATOM     23  C15 3DX d   1      -0.554   5.902  17.569  0.00  0.00    -0.057 A 
ATOM     24  H   3DX d   1       1.384   6.457  16.830  0.00  0.00     0.084 H 
ATOM     25  C14 3DX d   1      -1.482   5.979  18.619  0.00  0.00     0.030 A 
ATOM     26  H   3DX d   1      -0.810   5.351  16.671  0.00  0.00     0.086 H 
ATOM     27  C13 3DX d   1      -1.117   6.687  19.763  0.00  0.00    -0.057 A 
ATOM     28  C12 3DX d   1       0.128   7.307  19.859  0.00  0.00    -0.070 A 
ATOM     29  H   3DX d   1      -1.813   6.757  20.591  0.00  0.00     0.086 H 
ATOM     30  H   3DX d   1       0.382   7.860  20.756  0.00  0.00     0.084 H 
BRANCH  25  31
ATOM     31  N4  3DX d   1      -2.702   5.358  18.566  0.00  0.00    -0.378 N 
ATOM     32  C20 3DX d   1      -2.925   4.298  17.581  0.00  0.00     0.018 C 
ATOM     33  C19 3DX d   1      -3.811   3.276  18.275  0.00  0.00     0.098 C 
ATOM     34  H   3DX d   1      -1.969   3.840  17.286  0.00  0.00     0.066 H 
ATOM     35  H   3DX d   1      -3.429   4.701  16.690  0.00  0.00     0.066 H 
ATOM     36  N5  3DX d   1      -5.065   3.902  18.735  0.00  0.00    -0.072 N 
ATOM     37  H   3DX d   1      -3.275   2.862  19.142  0.00  0.00     0.078 H 
ATOM     38  H   3DX d   1      -4.049   2.466  17.570  0.00  0.00     0.078 H 
ATOM     39  C18 3DX d   1      -4.784   5.052  19.626  0.00  0.00     0.098 C 
ATOM     40  H   3DX d   1      -5.577   4.235  17.933  0.00  0.00     0.279 HD
ATOM     41  C17 3DX d   1      -3.912   6.090  18.925  0.00  0.00     0.018 C 
ATOM     42  H   3DX d   1      -4.261   4.691  20.524  0.00  0.00     0.078 H 
ATOM     43  H   3DX d   1      -5.735   5.521  19.919  0.00  0.00     0.078 H 
ATOM     44  H   3DX d   1      -4.414   6.478  18.027  0.00  0.00     0.066 H 
ATOM     45  H   3DX d   1      -3.677   6.924  19.603  0.00  0.00     0.066 H 
BRANCH  36  46
ATOM     46  C21 3DX d   1      -5.879   2.885  19.436  0.00  0.00     0.066 C 
ATOM     47  H   3DX d   1      -6.817   3.342  19.783  0.00  0.00     0.068 H 
ATOM     48  H   3DX d   1      -5.318   2.498  20.299  0.00  0.00     0.068 H 
ATOM     49  H   3DX d   1      -6.107   2.059  18.747  0.00  0.00     0.068 H 
ENDBRANCH  36  46
ENDBRANCH  25  31
ENDBRANCH  13  21
TORSDOF 3
