REMARK WARNING: 32 MAX_TORS EXCEEDED!!!
REMARK  45 active torsions:
REMARK  status: ('A' for Active; 'I' for Inactive)
REMARK    1  A    between atoms: C_1  and  CH3_3 
REMARK       I    between atoms: C_1  and  N_4 
REMARK    2  A    between atoms: N_4  and  CA_5 
REMARK    3  A    between atoms: CA_5  and  C_6 
REMARK    4  A    between atoms: CA_5  and  CB_8 
REMARK       I    between atoms: C_6  and  N_12 
REMARK    5  A    between atoms: CB_8  and  CG_9 
REMARK       I    between atoms: CG_9  and  ND2_11 
REMARK    6  A    between atoms: N_12  and  CA_13 
REMARK    7  A    between atoms: CA_13  and  C_14 
REMARK    8  A    between atoms: CA_13  and  CB_16 
REMARK       I    between atoms: C_14  and  N_17 
REMARK    9  A    between atoms: N_17  and  CA_18 
REMARK   10  A    between atoms: CA_18  and  C_19 
REMARK   11  A    between atoms: CA_18  and  CB_21 
REMARK       I    between atoms: C_19  and  N_29 
REMARK   12  A    between atoms: CB_21  and  CG_22 
REMARK   13  A    between atoms: CZ_27  and  OH_28 
REMARK   14  A    between atoms: N_29  and  CA_30 
REMARK   15  A    between atoms: CA_30  and  C_31 
REMARK   16  A    between atoms: CA_30  and  CB_33 
REMARK       I    between atoms: C_31  and  N_37 
REMARK   17  A    between atoms: CB_33  and  CG_34 
REMARK       I    between atoms: CG_34  and  ND2_36 
REMARK   18  A    between atoms: N_37  and  CA_38 
REMARK   19  A    between atoms: CA_38  and  C_39 
REMARK   20  A    between atoms: CA_38  and  CB_41 
REMARK       I    between atoms: C_39  and  N_45 
REMARK   21  A    between atoms: CB_41  and  CG_42 
REMARK   22  A    between atoms: CG_42  and  SD_43 
REMARK   23  A    between atoms: SD_43  and  CE_44 
REMARK   24  A    between atoms: N_45  and  CA_46 
REMARK   25  A    between atoms: CA_46  and  C_47 
REMARK   26  A    between atoms: CA_46  and  CB_49 
REMARK       I    between atoms: C_47  and  N_51 
REMARK   27  A    between atoms: CB_49  and  OG_50 
REMARK   28  A    between atoms: N_51  and  CA_52 
REMARK   29  A    between atoms: CA_52  and  C_53 
REMARK   30  A    between atoms: CA_52  and  CB_55 
REMARK       I    between atoms: C_53  and  N_59 
REMARK   31  A    between atoms: CB_55  and  CG1_56 
REMARK   32  A    between atoms: CB_55  and  CG2_57 
REMARK   33  A    between atoms: CG1_56  and  CD1_58 
REMARK   34  A    between atoms: N_59  and  CA_60 
REMARK   35  A    between atoms: CA_60  and  C_61 
REMARK   36  A    between atoms: CA_60  and  CB_63 
REMARK       I    between atoms: C_61  and  N_70 
REMARK   37  A    between atoms: CB_63  and  CG_64 
REMARK   38  A    between atoms: CG_64  and  CD_65 
REMARK   39  A    between atoms: CD_65  and  NE_66 
REMARK       I    between atoms: NE_66  and  CZ_67 
REMARK       I    between atoms: CZ_67  and  NH1_68 
REMARK       I    between atoms: CZ_67  and  NH2_69 
REMARK   40  A    between atoms: N_70  and  CA_71 
REMARK   41  A    between atoms: CA_71  and  C_72 
REMARK   42  A    between atoms: CA_71  and  CB_74 
REMARK       I    between atoms: C_72  and  N_81 
REMARK   43  A    between atoms: CB_74  and  CG_75 
REMARK   44  A    between atoms: CG_75  and  CD_76 
REMARK   45  A    between atoms: CD_76  and  NE_77 
REMARK       I    between atoms: NE_77  and  CZ_78 
REMARK       I    between atoms: CZ_78  and  NH1_79 
ROOT
ATOM      1  C   MET d   1      23.931  12.221  44.252  0.00  0.00     0.241 C 
ATOM      2  O   MET d   1      23.684  13.360  44.627  0.00  0.00    -0.271 OA
ATOM      3  N   SER d   1      23.922  11.888  42.964  0.00  0.00    -0.344 N 
ATOM      4  H39 SER d   1      24.188  10.967  42.681  0.00  0.00     0.163 HD
ENDROOT
BRANCH   1   5
ATOM      5  CA  MET d   1      24.229  11.164  45.298  0.00  0.00     0.090 C 
ATOM      6  H31 MET d   1      23.377  11.160  45.993  0.00  0.00     0.087 H 
BRANCH   5   7
ATOM      7  N   MET d   1      24.374   9.800  44.806  0.00  0.00    -0.346 N 
ATOM      8  C   ASN d   1      23.599   8.820  45.268  0.00  0.00     0.241 C 
ATOM      9  O   ASN d   1      22.575   9.024  45.940  0.00  0.00    -0.271 OA
ATOM     10  H30 MET d   1      25.065   9.597  44.112  0.00  0.00     0.163 HD
BRANCH   8  11
ATOM     11  CA  ASN d   1      24.012   7.401  44.941  0.00  0.00     0.097 C 
ATOM     12  H25 ASN d   1      23.098   6.791  44.903  0.00  0.00     0.088 H 
BRANCH  11  13
ATOM     13  N   ASN d   1      24.683   7.270  43.656  0.00  0.00    -0.346 N 
ATOM     14  C   TYR d   1      24.007   7.293  42.516  0.00  0.00     0.241 C 
ATOM     15  O   TYR d   1      22.790   7.508  42.466  0.00  0.00    -0.271 OA
ATOM     16  H24 ASN d   1      25.677   7.160  43.633  0.00  0.00     0.163 HD
BRANCH  14  17
ATOM     17  CA  TYR d   1      24.805   6.977  41.255  0.00  0.00     0.093 C 
ATOM     18  H16 TYR d   1      24.220   7.268  40.370  0.00  0.00     0.088 H 
BRANCH  17  19
ATOM     19  N   TYR d   1      26.052   7.725  41.267  0.00  0.00    -0.346 N 
ATOM     20  C   ALA d   1      26.035   9.050  41.316  0.00  0.00     0.240 C 
ATOM     21  O   ALA d   1      25.005   9.676  41.305  0.00  0.00    -0.271 OA
ATOM     22  H15 TYR d   1      26.925   7.239  41.238  0.00  0.00     0.163 HD
BRANCH  20  23
ATOM     23  CA  ALA d   1      27.352   9.804  41.361  0.00  0.00     0.086 C 
ATOM     24  H11 ALA d   1      27.215  10.694  41.993  0.00  0.00     0.086 H 
BRANCH  23  25
ATOM     25  N   ALA d   1      28.380   8.991  41.965  0.00  0.00    -0.346 N 
ATOM     26  C   ASN d   1      28.235   8.561  43.218  0.00  0.00     0.241 C 
ATOM     27  O   ASN d   1      27.255   8.911  43.938  0.00  0.00    -0.271 OA
ATOM     28  H10 ALA d   1      29.199   8.751  41.444  0.00  0.00     0.163 HD
BRANCH  26  29
ATOM     29  CA  ASN d   1      29.271   7.564  43.728  0.00  0.00     0.097 C 
ATOM     30  H5  ASN d   1      28.727   6.673  44.076  0.00  0.00     0.088 H 
BRANCH  29  31
ATOM     31  N   ASN d   1      30.198   7.119  42.682  0.00  0.00    -0.348 N 
ATOM     32  C   ACE d   1      29.830   6.223  41.754  0.00  0.00     0.214 C 
ATOM     33  O   ACE d   1      28.642   5.898  41.560  0.00  0.00    -0.274 OA
ATOM     34  H4  ASN d   1      31.125   7.492  42.660  0.00  0.00     0.163 HD
BRANCH  32  35
ATOM     35  CH3 ACE d   1      30.922   5.826  40.796  0.00  0.00    -0.003 C 
ATOM     36  H1  ACE d   1      31.886   6.214  41.157  0.00  0.00     0.040 H 
ATOM     37  H2  ACE d   1      30.707   6.245  39.802  0.00  0.00     0.040 H 
ATOM     38  H3  ACE d   1      30.971   4.729  40.730  0.00  0.00     0.040 H 
ENDBRANCH  32  35
ENDBRANCH  29  31
BRANCH  29  39
ATOM     39  CB  ASN d   1      30.006   8.154  44.929  0.00  0.00     0.036 C 
ATOM     40  H6  ASN d   1      30.339   9.171  44.674  0.00  0.00     0.051 H 
ATOM     41  H7  ASN d   1      30.881   7.526  45.150  0.00  0.00     0.051 H 
BRANCH  39  42
ATOM     42  CG  ASN d   1      29.130   8.225  46.171  0.00  0.00     0.217 C 
ATOM     43  OD1 ASN d   1      28.322   7.336  46.437  0.00  0.00    -0.274 OA
ATOM     44  ND2 ASN d   1      29.302   9.277  46.946  0.00  0.00    -0.370 N 
ATOM     45  H8  ASN d   1      28.756   9.380  47.777  0.00  0.00     0.159 HD
ATOM     46  H9  ASN d   1      29.979   9.972  46.703  0.00  0.00     0.159 HD
ENDBRANCH  39  42
ENDBRANCH  29  39
ENDBRANCH  26  29
ENDBRANCH  23  25
BRANCH  23  47
ATOM     47  CB  ALA d   1      27.736  10.283  39.960  0.00  0.00    -0.049 C 
ATOM     48  H12 ALA d   1      26.922  10.896  39.546  0.00  0.00     0.030 H 
ATOM     49  H13 ALA d   1      27.907   9.413  39.309  0.00  0.00     0.030 H 
ATOM     50  H14 ALA d   1      28.655  10.885  40.017  0.00  0.00     0.030 H 
ENDBRANCH  23  47
ENDBRANCH  20  23
ENDBRANCH  17  19
BRANCH  17  51
ATOM     51  CB  TYR d   1      25.082   5.472  41.202  0.00  0.00    -0.014 C 
ATOM     52  H17 TYR d   1      25.728   5.215  42.054  0.00  0.00     0.043 H 
ATOM     53  H18 TYR d   1      25.611   5.256  40.262  0.00  0.00     0.043 H 
BRANCH  51  54
ATOM     54  CG  TYR d   1      23.847   4.582  41.262  0.00  0.00    -0.056 A 
ATOM     55  CD1 TYR d   1      23.357   3.995  40.119  0.00  0.00    -0.074 A 
ATOM     56  CE1 TYR d   1      22.251   3.144  40.171  0.00  0.00    -0.051 A 
ATOM     57  H19 TYR d   1      23.835   4.195  39.167  0.00  0.00     0.084 H 
ATOM     58  CZ  TYR d   1      21.621   2.918  41.380  0.00  0.00     0.065 A 
ATOM     59  H21 TYR d   1      21.889   2.664  39.269  0.00  0.00     0.087 H 
ATOM     60  CE2 TYR d   1      22.093   3.508  42.521  0.00  0.00    -0.051 A 
ATOM     61  CD2 TYR d   1      23.197   4.341  42.457  0.00  0.00    -0.074 A 
ATOM     62  H22 TYR d   1      21.605   3.324  43.471  0.00  0.00     0.087 H 
ATOM     63  H20 TYR d   1      23.559   4.814  43.363  0.00  0.00     0.084 H 
BRANCH  58  64
ATOM     64  OH  TYR d   1      20.517   2.084  41.478  0.00  0.00    -0.361 OA
ATOM     65  H23 TYR d   1      20.299   1.746  40.617  0.00  0.00     0.217 HD
ENDBRANCH  58  64
ENDBRANCH  51  54
ENDBRANCH  17  51
ENDBRANCH  14  17
ENDBRANCH  11  13
BRANCH  11  66
ATOM     66  CB  ASN d   1      24.913   6.848  46.044  0.00  0.00     0.036 C 
ATOM     67  H26 ASN d   1      24.398   6.956  47.010  0.00  0.00     0.051 H 
ATOM     68  H27 ASN d   1      25.849   7.426  46.061  0.00  0.00     0.051 H 
BRANCH  66  69
ATOM     69  CG  ASN d   1      25.241   5.405  45.831  0.00  0.00     0.217 C 
ATOM     70  OD1 ASN d   1      24.352   4.573  45.682  0.00  0.00    -0.274 OA
ATOM     71  ND2 ASN d   1      26.537   5.081  45.785  0.00  0.00    -0.370 N 
ATOM     72  H28 ASN d   1      26.810   4.129  45.645  0.00  0.00     0.159 HD
ATOM     73  H29 ASN d   1      27.234   5.790  45.891  0.00  0.00     0.159 HD
ENDBRANCH  66  69
ENDBRANCH  11  66
ENDBRANCH   8  11
ENDBRANCH   5   7
BRANCH   5  74
ATOM     74  CB  MET d   1      25.472  11.556  46.082  0.00  0.00    -0.030 C 
ATOM     75  H32 MET d   1      25.383  12.612  46.376  0.00  0.00     0.037 H 
ATOM     76  H33 MET d   1      26.351  11.429  45.432  0.00  0.00     0.037 H 
BRANCH  74  77
ATOM     77  CG  MET d   1      25.671  10.725  47.329  0.00  0.00    -0.021 C 
ATOM     78  H34 MET d   1      26.641  10.980  47.780  0.00  0.00     0.049 H 
ATOM     79  H35 MET d   1      25.662   9.659  47.056  0.00  0.00     0.049 H 
BRANCH  77  80
ATOM     80  SD  MET d   1      24.363  11.037  48.530  0.00  0.00    -0.173 SA
BRANCH  80  81
ATOM     81  CE  MET d   1      24.852  12.666  49.088  0.00  0.00    -0.035 C 
ATOM     82  H36 MET d   1      24.141  13.022  49.848  0.00  0.00     0.041 H 
ATOM     83  H37 MET d   1      24.855  13.360  48.235  0.00  0.00     0.041 H 
ATOM     84  H38 MET d   1      25.861  12.617  49.524  0.00  0.00     0.041 H 
ENDBRANCH  80  81
ENDBRANCH  77  80
ENDBRANCH  74  77
ENDBRANCH   5  74
ENDBRANCH   1   5
BRANCH   3  85
ATOM     85  CA  SER d   1      23.519  12.883  41.961  0.00  0.00     0.109 C 
ATOM     86  H40 SER d   1      23.948  13.839  42.296  0.00  0.00     0.090 H 
BRANCH  85  87
ATOM     87  C   SER d   1      22.008  13.085  41.919  0.00  0.00     0.243 C 
ATOM     88  O   SER d   1      21.531  14.061  41.352  0.00  0.00    -0.271 OA
ATOM     89  N   ILE d   1      21.260  12.199  42.565  0.00  0.00    -0.346 N 
ATOM     90  H44 ILE d   1      21.678  11.333  42.840  0.00  0.00     0.163 HD
BRANCH  89  91
ATOM     91  CA  ILE d   1      19.855  12.428  42.893  0.00  0.00     0.092 C 
ATOM     92  H45 ILE d   1      19.633  13.495  42.745  0.00  0.00     0.088 H 
BRANCH  91  93
ATOM     93  C   ILE d   1      19.681  12.078  44.366  0.00  0.00     0.241 C 
ATOM     94  O   ILE d   1      20.421  11.262  44.905  0.00  0.00    -0.271 OA
ATOM     95  N   ARG d   1      18.682  12.681  45.018  0.00  0.00    -0.346 N 
ATOM     96  H55 ARG d   1      18.192  13.434  44.579  0.00  0.00     0.163 HD
BRANCH  95  97
ATOM     97  CA  ARG d   1      18.298  12.260  46.353  0.00  0.00     0.089 C 
ATOM     98  H56 ARG d   1      19.217  12.039  46.916  0.00  0.00     0.087 H 
BRANCH  97  99
ATOM     99  C   ARG d   1      17.447  10.996  46.286  0.00  0.00     0.241 C 
ATOM    100  O   ARG d   1      16.404  10.947  45.651  0.00  0.00    -0.271 OA
ATOM    101  N   ARG d   1      17.926   9.967  46.952  0.00  0.00    -0.346 N 
ATOM    102  H68 ARG d   1      18.793  10.071  47.440  0.00  0.00     0.163 HD
BRANCH 101 103
ATOM    103  CA  ARG d   1      17.242   8.681  47.006  0.00  0.00     0.089 C 
ATOM    104  H69 ARG d   1      16.467   8.667  46.225  0.00  0.00     0.087 H 
BRANCH 103 105
ATOM    105  C   ARG d   1      16.551   8.506  48.357  0.00  0.00     0.238 C 
ATOM    106  O   ARG d   1      15.344   8.230  48.420  0.00  0.00    -0.271 OA
ATOM    107  N   NH2 d   1      17.282   8.718  49.434  0.00  0.00    -0.368 N 
ATOM    108  H81 NH2 d   1      16.876   8.616  50.342  0.00  0.00     0.159 HD
ATOM    109  H82 NH2 d   1      18.243   8.980  49.343  0.00  0.00     0.159 HD
ENDBRANCH 103 105
BRANCH 103 110
ATOM    110  CB  ARG d   1      18.234   7.550  46.709  0.00  0.00    -0.036 C 
ATOM    111  H70 ARG d   1      17.725   6.585  46.853  0.00  0.00     0.036 H 
ATOM    112  H71 ARG d   1      19.079   7.627  47.409  0.00  0.00     0.036 H 
BRANCH 110 113
ATOM    113  CG  ARG d   1      18.767   7.615  45.290  0.00  0.00    -0.048 C 
ATOM    114  H72 ARG d   1      19.358   8.536  45.180  0.00  0.00     0.035 H 
ATOM    115  H73 ARG d   1      17.914   7.641  44.596  0.00  0.00     0.035 H 
BRANCH 113 116
ATOM    116  CD  ARG d   1      19.653   6.421  44.928  0.00  0.00     0.009 C 
ATOM    117  H74 ARG d   1      19.037   5.510  44.929  0.00  0.00     0.064 H 
ATOM    118  H75 ARG d   1      20.447   6.328  45.683  0.00  0.00     0.064 H 
BRANCH 116 119
ATOM    119  NE  ARG d   1      20.271   6.570  43.610  0.00  0.00    -0.227 N 
ATOM    120  CZ  ARG d   1      19.778   6.117  42.465  0.00  0.00     0.665 C 
ATOM    121  NH1 ARG d   1      18.647   5.435  42.447  0.00  0.00    -0.235 N 
ATOM    122  NH2 ARG d   1      20.423   6.337  41.330  0.00  0.00    -0.235 N 
ATOM    123  H77 ARG d   1      18.270   5.086  41.554  0.00  0.00     0.174 HD
ATOM    124  H78 ARG d   1      18.142   5.252  43.326  0.00  0.00     0.174 HD
ATOM    125  H79 ARG d   1      21.306   6.868  41.334  0.00  0.00     0.174 HD
ATOM    126  H80 ARG d   1      20.042   5.977  40.443  0.00  0.00     0.174 HD
ATOM    127  H76 ARG d   1      21.169   7.072  43.568  0.00  0.00     0.177 HD
ENDBRANCH 116 119
ENDBRANCH 113 116
ENDBRANCH 110 113
ENDBRANCH 103 110
ENDBRANCH 101 103
ENDBRANCH  97  99
BRANCH  97 128
ATOM    128  CB  ARG d   1      17.518  13.333  47.111  0.00  0.00    -0.036 C 
ATOM    129  H57 ARG d   1      16.597  13.564  46.556  0.00  0.00     0.036 H 
ATOM    130  H58 ARG d   1      18.138  14.239  47.186  0.00  0.00     0.036 H 
BRANCH 128 131
ATOM    131  CG  ARG d   1      17.147  12.871  48.512  0.00  0.00    -0.048 C 
ATOM    132  H59 ARG d   1      18.065  12.565  49.036  0.00  0.00     0.035 H 
ATOM    133  H60 ARG d   1      16.467  12.010  48.430  0.00  0.00     0.035 H 
BRANCH 131 134
ATOM    134  CD  ARG d   1      16.466  13.948  49.322  0.00  0.00     0.009 C 
ATOM    135  H61 ARG d   1      17.092  14.853  49.330  0.00  0.00     0.064 H 
ATOM    136  H62 ARG d   1      16.320  13.595  50.353  0.00  0.00     0.064 H 
BRANCH 134 137
ATOM    137  NE  ARG d   1      15.179  14.255  48.729  0.00  0.00    -0.227 N 
ATOM    138  CZ  ARG d   1      14.138  13.428  48.743  0.00  0.00     0.665 C 
ATOM    139  NH1 ARG d   1      14.227  12.249  49.348  0.00  0.00    -0.235 N 
ATOM    140  NH2 ARG d   1      13.002  13.785  48.161  0.00  0.00    -0.235 N 
ATOM    141  H64 ARG d   1      13.418  11.612  49.356  0.00  0.00     0.174 HD
ATOM    142  H65 ARG d   1      15.105  11.972  49.809  0.00  0.00     0.174 HD
ATOM    143  H66 ARG d   1      12.929  14.698  47.691  0.00  0.00     0.174 HD
ATOM    144  H67 ARG d   1      12.192  13.149  48.179  0.00  0.00     0.174 HD
ATOM    145  H63 ARG d   1      15.064  15.169  48.269  0.00  0.00     0.177 HD
ENDBRANCH 134 137
ENDBRANCH 131 134
ENDBRANCH 128 131
ENDBRANCH  97 128
ENDBRANCH  95  97
ENDBRANCH  91  93
BRANCH  91 146
ATOM    146  CB  ILE d   1      18.855  11.608  42.026  0.00  0.00    -0.030 C 
ATOM    147  H46 ILE d   1      17.838  11.926  42.298  0.00  0.00     0.043 H 
BRANCH 146 148
ATOM    148  CG1 ILE d   1      18.959  10.100  42.313  0.00  0.00    -0.063 C 
ATOM    149  H47 ILE d   1      18.969   9.953  43.403  0.00  0.00     0.033 H 
ATOM    150  H48 ILE d   1      19.901   9.728  41.884  0.00  0.00     0.033 H 
BRANCH 148 151
ATOM    151  CD1 ILE d   1      17.819   9.295  41.732  0.00  0.00    -0.076 C 
ATOM    152  H52 ILE d   1      17.960   8.232  41.976  0.00  0.00     0.027 H 
ATOM    153  H53 ILE d   1      17.800   9.421  40.639  0.00  0.00     0.027 H 
ATOM    154  H54 ILE d   1      16.868   9.646  42.158  0.00  0.00     0.027 H 
ENDBRANCH 148 151
ENDBRANCH 146 148
BRANCH 146 155
ATOM    155  CG2 ILE d   1      19.056  11.914  40.548  0.00  0.00    -0.071 C 
ATOM    156  H49 ILE d   1      18.975  12.999  40.384  0.00  0.00     0.028 H 
ATOM    157  H50 ILE d   1      18.286  11.395  39.958  0.00  0.00     0.028 H 
ATOM    158  H51 ILE d   1      20.052  11.569  40.234  0.00  0.00     0.028 H 
ENDBRANCH 146 155
ENDBRANCH  91 146
ENDBRANCH  89  91
ENDBRANCH  85  87
BRANCH  85 159
ATOM    159  CB  SER d   1      24.102  12.625  40.558  0.00  0.00     0.044 C 
ATOM    160  H41 SER d   1      25.190  12.493  40.651  0.00  0.00     0.077 H 
ATOM    161  H42 SER d   1      23.892  13.501  39.927  0.00  0.00     0.077 H 
BRANCH 159 162
ATOM    162  OG  SER d   1      23.562  11.475  39.926  0.00  0.00    -0.398 OA
ATOM    163  H43 SER d   1      23.744  10.708  40.457  0.00  0.00     0.209 HD
ENDBRANCH 159 162
ENDBRANCH  85 159
ENDBRANCH   3  85
TORSDOF 45
