REMARK  20 active torsions:
REMARK  status: ('A' for Active; 'I' for Inactive)
REMARK    1  A    between atoms: C30_3  and  C29_1 
REMARK       I    between atoms: C29_1  and  N28_10 
REMARK    2  A    between atoms: N31_4  and  C30_3 
REMARK    3  A    between atoms: N28_10  and  C27_11 
REMARK    4  A    between atoms: C27_11  and  C26_12 
REMARK    5  A    between atoms: C27_11  and  C38_14 
REMARK       I    between atoms: C26_12  and  N25_15 
REMARK    6  A    between atoms: N25_15  and  C24_16 
REMARK    7  A    between atoms: C24_16  and  C40_17 
REMARK    8  A    between atoms: C24_16  and  C23_26 
REMARK    9  A    between atoms: C40_17  and  C41_18 
REMARK   10  A    between atoms: C44_21  and  O45_22 
REMARK   11  A    between atoms: O45_22  and  C46_23 
REMARK       I    between atoms: C23_26  and  N22_28 
REMARK   12  A    between atoms: N22_28  and  C8_29 
REMARK   13  A    between atoms: C8_29  and  C9_30 
REMARK   14  A    between atoms: C8_29  and  C7_36 
REMARK   15  A    between atoms: C9_30  and  O21_31 
REMARK   16  A    between atoms: C9_30  and  C10_32 
REMARK   17  A    between atoms: C10_32  and  C11_33 
REMARK   18  A    between atoms: C10_32  and  C12_34 
REMARK   19  A    between atoms: C12_34  and  O13_35 
REMARK   20  A    between atoms: C7_36  and  C6_37 
ROOT
ATOM      1  C24 04C d   1      61.292-135.424  39.352  0.00  0.00     0.093 C 
ATOM      2  H18 04C d   1      60.548-134.693  39.702  0.00  0.00     0.088 H 
ENDROOT
BRANCH   1   3
ATOM      3  N25 04C d   1      61.613-135.185  37.941  0.00  0.00    -0.346 N 
ATOM      4  C26 04C d   1      61.105-134.149  37.258  0.00  0.00     0.240 C 
ATOM      5  O39 04C d   1      60.322-133.320  37.723  0.00  0.00    -0.271 OA
ATOM      6  H17 04C d   1      62.231-135.816  37.473  0.00  0.00     0.163 HD
BRANCH   4   7
ATOM      7  C27 04C d   1      61.560-134.074  35.798  0.00  0.00     0.086 C 
ATOM      8  H13 04C d   1      61.912-135.066  35.478  0.00  0.00     0.086 H 
BRANCH   7   9
ATOM      9  N28 04C d   1      60.414-133.678  34.962  0.00  0.00    -0.347 N 
ATOM     10  C29 04C d   1      59.525-134.587  34.529  0.00  0.00     0.244 C 
ATOM     11  O37 04C d   1      59.602-135.793  34.762  0.00  0.00    -0.272 OA
ATOM     12  H12 04C d   1      60.296-132.717  34.713  0.00  0.00     0.163 HD
BRANCH  10  13
ATOM     13  C30 04C d   1      58.375-134.041  33.669  0.00  0.00     0.156 C 
ATOM     14  H1  04C d   1      57.944-134.856  33.070  0.00  0.00     0.090 H 
ATOM     15  H2  04C d   1      58.756-133.256  33.000  0.00  0.00     0.090 H 
BRANCH  13  16
ATOM     16  N31 04C d   1      57.345-133.480  34.547  0.00  0.00    -0.059 N 
ATOM     17  C36 04C d   1      56.823-134.436  35.545  0.00  0.00     0.103 C 
ATOM     18  C35 04C d   1      55.683-133.772  36.213  0.00  0.00     0.042 C 
ATOM     19  H4  04C d   1      57.603-134.680  36.281  0.00  0.00     0.079 H 
ATOM     20  H5  04C d   1      56.486-135.358  35.048  0.00  0.00     0.079 H 
ATOM     21  O34 04C d   1      54.643-133.450  35.289  0.00  0.00    -0.388 OA
ATOM     22  H8  04C d   1      55.279-134.446  36.983  0.00  0.00     0.076 H 
ATOM     23  H9  04C d   1      56.038-132.845  36.687  0.00  0.00     0.076 H 
ATOM     24  C33 04C d   1      55.058-132.474  34.322  0.00  0.00     0.042 C 
ATOM     25  C32 04C d   1      56.259-133.063  33.643  0.00  0.00     0.103 C 
ATOM     26  H10 04C d   1      55.323-131.529  34.819  0.00  0.00     0.076 H 
ATOM     27  H11 04C d   1      54.255-132.291  33.592  0.00  0.00     0.076 H 
ATOM     28  H6  04C d   1      55.931-133.946  33.075  0.00  0.00     0.079 H 
ATOM     29  H7  04C d   1      56.662-132.310  32.950  0.00  0.00     0.079 H 
ATOM     30  H3  04C d   1      57.719-132.681  35.035  0.00  0.00     0.280 HD
ENDBRANCH  13  16
ENDBRANCH  10  13
ENDBRANCH   7   9
BRANCH   7  31
ATOM     31  C38 04C d   1      62.710-133.071  35.654  0.00  0.00    -0.049 C 
ATOM     32  H14 04C d   1      63.553-133.387  36.286  0.00  0.00     0.030 H 
ATOM     33  H15 04C d   1      62.369-132.074  35.969  0.00  0.00     0.030 H 
ATOM     34  H16 04C d   1      63.034-133.033  34.603  0.00  0.00     0.030 H 
ENDBRANCH   7  31
ENDBRANCH   4   7
ENDBRANCH   1   3
BRANCH   1  35
ATOM     35  C40 04C d   1      60.775-136.820  39.527  0.00  0.00    -0.014 C 
ATOM     36  H19 04C d   1      60.981-137.160  40.553  0.00  0.00     0.043 H 
ATOM     37  H20 04C d   1      61.277-137.488  38.811  0.00  0.00     0.043 H 
BRANCH  35  38
ATOM     38  C41 04C d   1      59.396-136.847  39.298  0.00  0.00    -0.056 A 
ATOM     39  C48 04C d   1      58.901-136.968  37.999  0.00  0.00    -0.074 A 
ATOM     40  C47 04C d   1      57.527-137.026  37.770  0.00  0.00    -0.050 A 
ATOM     41  H21 04C d   1      59.589-137.017  37.163  0.00  0.00     0.084 H 
ATOM     42  C44 04C d   1      56.636-136.967  38.841  0.00  0.00     0.068 A 
ATOM     43  H22 04C d   1      57.151-137.117  36.758  0.00  0.00     0.087 H 
ATOM     44  C43 04C d   1      57.129-136.859  40.142  0.00  0.00    -0.050 A 
ATOM     45  C42 04C d   1      58.503-136.801  40.370  0.00  0.00    -0.074 A 
ATOM     46  H26 04C d   1      56.441-136.820  40.979  0.00  0.00     0.087 H 
ATOM     47  H27 04C d   1      58.879-136.720  41.383  0.00  0.00     0.084 H 
BRANCH  42  48
ATOM     48  O45 04C d   1      55.291-137.045  38.619  0.00  0.00    -0.356 OA
BRANCH  48  49
ATOM     49  C46 04C d   1      54.598-135.803  38.652  0.00  0.00     0.010 C 
ATOM     50  H23 04C d   1      53.528-135.975  38.463  0.00  0.00     0.066 H 
ATOM     51  H24 04C d   1      55.005-135.136  37.878  0.00  0.00     0.066 H 
ATOM     52  H25 04C d   1      54.725-135.338  39.641  0.00  0.00     0.066 H 
ENDBRANCH  48  49
ENDBRANCH  42  48
ENDBRANCH  35  38
ENDBRANCH   1  35
BRANCH   1  53
ATOM     53  C23 04C d   1      62.583-135.310  40.162  0.00  0.00     0.241 C 
ATOM     54  O49 04C d   1      63.679-135.269  39.605  0.00  0.00    -0.271 OA
ATOM     55  N22 04C d   1      62.398-135.313  41.490  0.00  0.00    -0.352 N 
ATOM     56  H28 04C d   1      61.469-135.422  41.844  0.00  0.00     0.163 HD
BRANCH  55  57
ATOM     57  C8  04C d   1      63.498-135.164  42.442  0.00  0.00     0.041 C 
ATOM     58  H29 04C d   1      64.465-135.243  41.924  0.00  0.00     0.076 H 
BRANCH  57  59
ATOM     59  C9  04C d   1      63.408-136.206  43.575  0.00  0.00     0.060 C 
ATOM     60  H30 04C d   1      64.126-135.890  44.346  0.00  0.00     0.086 H 
BRANCH  59  61
ATOM     61  O21 04C d   1      62.092-136.152  44.143  0.00  0.00    -0.393 OA
ATOM     62  H31 04C d   1      61.933-135.282  44.490  0.00  0.00     0.210 HD
ENDBRANCH  59  61
BRANCH  59  63
ATOM     63  C10 04C d   1      63.774-137.730  43.216  0.00  0.00    -0.010 C 
ATOM     64  H32 04C d   1      64.108-138.251  44.126  0.00  0.00     0.046 H 
BRANCH  63  65
ATOM     65  C11 04C d   1      64.920-137.787  42.149  0.00  0.00    -0.069 C 
ATOM     66  H33 04C d   1      65.154-138.837  41.918  0.00  0.00     0.028 H 
ATOM     67  H34 04C d   1      65.817-137.290  42.547  0.00  0.00     0.028 H 
ATOM     68  H35 04C d   1      64.593-137.274  41.232  0.00  0.00     0.028 H 
ENDBRANCH  63  65
BRANCH  63  69
ATOM     69  C12 04C d   1      62.499-138.404  42.676  0.00  0.00     0.022 C 
ATOM     70  H36 04C d   1      61.847-137.648  42.214  0.00  0.00     0.074 H 
ATOM     71  H37 04C d   1      61.963-138.897  43.500  0.00  0.00     0.074 H 
BRANCH  69  72
ATOM     72  O13 04C d   1      62.879-139.382  41.692  0.00  0.00    -0.400 OA
ATOM     73  H38 04C d   1      63.344-138.953  40.983  0.00  0.00     0.209 HD
ENDBRANCH  69  72
ENDBRANCH  63  69
ENDBRANCH  59  63
ENDBRANCH  57  59
BRANCH  57  74
ATOM     74  C7  04C d   1      63.330-133.800  43.099  0.00  0.00    -0.020 C 
ATOM     75  H39 04C d   1      63.648-133.884  44.149  0.00  0.00     0.043 H 
ATOM     76  H40 04C d   1      62.264-133.530  43.059  0.00  0.00     0.043 H 
BRANCH  74  77
ATOM     77  C6  04C d   1      64.072-132.756  42.496  0.00  0.00    -0.056 A 
ATOM     78  C5  04C d   1      64.824-132.861  41.314  0.00  0.00    -0.077 A 
ATOM     79  C4  04C d   1      65.503-131.753  40.807  0.00  0.00    -0.082 A 
ATOM     80  H41 04C d   1      64.877-133.810  40.792  0.00  0.00     0.084 H 
ATOM     81  C3  04C d   1      65.442-130.524  41.461  0.00  0.00    -0.083 A 
ATOM     82  H42 04C d   1      66.083-131.849  39.896  0.00  0.00     0.083 H 
ATOM     83  C2  04C d   1      64.696-130.401  42.628  0.00  0.00    -0.082 A 
ATOM     84  H43 04C d   1      65.974-129.668  41.062  0.00  0.00     0.083 H 
ATOM     85  C1  04C d   1      64.018-131.511  43.132  0.00  0.00    -0.077 A 
ATOM     86  H44 04C d   1      64.642-129.449  43.143  0.00  0.00     0.083 H 
ATOM     87  H45 04C d   1      63.434-131.406  44.039  0.00  0.00     0.084 H 
ENDBRANCH  74  77
ENDBRANCH  57  74
ENDBRANCH  55  57
ENDBRANCH   1  53
TORSDOF 20
