REMARK  20 active torsions:
REMARK  status: ('A' for Active; 'I' for Inactive)
REMARK    1  A    between atoms: C30_3  and  C29_1 
REMARK       I    between atoms: C29_1  and  N28_10 
REMARK    2  A    between atoms: N31_4  and  C30_3 
REMARK    3  A    between atoms: N28_10  and  C27_11 
REMARK    4  A    between atoms: C27_11  and  C26_12 
REMARK    5  A    between atoms: C27_11  and  C38_14 
REMARK       I    between atoms: C26_12  and  N25_15 
REMARK    6  A    between atoms: N25_15  and  C24_16 
REMARK    7  A    between atoms: C24_16  and  C40_17 
REMARK    8  A    between atoms: C24_16  and  C23_26 
REMARK    9  A    between atoms: C40_17  and  C41_18 
REMARK   10  A    between atoms: C44_21  and  O45_22 
REMARK   11  A    between atoms: O45_22  and  C46_23 
REMARK       I    between atoms: C23_26  and  N22_28 
REMARK   12  A    between atoms: N22_28  and  C8_29 
REMARK   13  A    between atoms: C8_29  and  C9_30 
REMARK   14  A    between atoms: C8_29  and  C7_36 
REMARK   15  A    between atoms: C9_30  and  O21_31 
REMARK   16  A    between atoms: C9_30  and  C10_32 
REMARK   17  A    between atoms: C10_32  and  C11_33 
REMARK   18  A    between atoms: C10_32  and  C12_34 
REMARK   19  A    between atoms: C12_34  and  O13_35 
REMARK   20  A    between atoms: C7_36  and  C6_37 
ROOT
ATOM      1  C24 04C d   1      61.303-135.286  39.768  0.00  0.00     0.093 C 
ATOM      2  H18 04C d   1      60.591-134.531  40.133  0.00  0.00     0.088 H 
ENDROOT
BRANCH   1   3
ATOM      3  N25 04C d   1      61.607-135.039  38.354  0.00  0.00    -0.346 N 
ATOM      4  C26 04C d   1      61.119-133.979  37.689  0.00  0.00     0.240 C 
ATOM      5  O39 04C d   1      60.362-133.131  38.162  0.00  0.00    -0.271 OA
ATOM      6  H17 04C d   1      62.198-135.683  37.868  0.00  0.00     0.163 HD
BRANCH   4   7
ATOM      7  C27 04C d   1      61.584-133.878  36.242  0.00  0.00     0.086 C 
ATOM      8  H13 04C d   1      61.902-134.868  35.884  0.00  0.00     0.086 H 
BRANCH   7   9
ATOM      9  N28 04C d   1      60.473-133.391  35.413  0.00  0.00    -0.347 N 
ATOM     10  C29 04C d   1      59.578-134.235  34.876  0.00  0.00     0.244 C 
ATOM     11  O37 04C d   1      59.593-135.454  35.041  0.00  0.00    -0.272 OA
ATOM     12  H12 04C d   1      60.382-132.409  35.245  0.00  0.00     0.163 HD
BRANCH  10  13
ATOM     13  C30 04C d   1      58.464-133.581  34.048  0.00  0.00     0.156 C 
ATOM     14  H1  04C d   1      58.302-134.126  33.106  0.00  0.00     0.090 H 
ATOM     15  H2  04C d   1      58.704-132.530  33.827  0.00  0.00     0.090 H 
BRANCH  13  16
ATOM     16  N31 04C d   1      57.296-133.677  34.912  0.00  0.00    -0.059 N 
ATOM     17  C36 04C d   1      56.145-134.285  34.220  0.00  0.00     0.103 C 
ATOM     18  C35 04C d   1      55.029-134.353  35.191  0.00  0.00     0.042 C 
ATOM     19  H4  04C d   1      56.405-135.297  33.875  0.00  0.00     0.079 H 
ATOM     20  H5  04C d   1      55.855-133.667  33.358  0.00  0.00     0.079 H 
ATOM     21  O34 04C d   1      54.782-133.083  35.860  0.00  0.00    -0.388 OA
ATOM     22  H8  04C d   1      54.116-134.651  34.656  0.00  0.00     0.076 H 
ATOM     23  H9  04C d   1      55.272-135.109  35.952  0.00  0.00     0.076 H 
ATOM     24  C33 04C d   1      55.935-132.513  36.516  0.00  0.00     0.042 C 
ATOM     25  C32 04C d   1      56.948-132.362  35.451  0.00  0.00     0.103 C 
ATOM     26  H10 04C d   1      56.302-133.185  37.305  0.00  0.00     0.076 H 
ATOM     27  H11 04C d   1      55.686-131.535  36.954  0.00  0.00     0.076 H 
ATOM     28  H6  04C d   1      56.541-131.733  34.646  0.00  0.00     0.079 H 
ATOM     29  H7  04C d   1      57.849-131.887  35.868  0.00  0.00     0.079 H 
ATOM     30  H3  04C d   1      57.536-134.275  35.687  0.00  0.00     0.280 HD
ENDBRANCH  13  16
ENDBRANCH  10  13
ENDBRANCH   7   9
BRANCH   7  31
ATOM     31  C38 04C d   1      62.762-132.905  36.167  0.00  0.00    -0.049 C 
ATOM     32  H14 04C d   1      63.587-133.279  36.791  0.00  0.00     0.030 H 
ATOM     33  H15 04C d   1      62.445-131.917  36.532  0.00  0.00     0.030 H 
ATOM     34  H16 04C d   1      63.101-132.819  35.124  0.00  0.00     0.030 H 
ENDBRANCH   7  31
ENDBRANCH   4   7
ENDBRANCH   1   3
BRANCH   1  35
ATOM     35  C40 04C d   1      60.734-136.663  39.973  0.00  0.00    -0.014 C 
ATOM     36  H19 04C d   1      60.929-137.006  41.000  0.00  0.00     0.043 H 
ATOM     37  H20 04C d   1      61.181-137.370  39.258  0.00  0.00     0.043 H 
BRANCH  35  38
ATOM     38  C41 04C d   1      59.365-136.558  39.753  0.00  0.00    -0.056 A 
ATOM     39  C48 04C d   1      58.842-136.681  38.471  0.00  0.00    -0.074 A 
ATOM     40  C47 04C d   1      57.470-136.582  38.257  0.00  0.00    -0.050 A 
ATOM     41  H21 04C d   1      59.507-136.855  37.633  0.00  0.00     0.084 H 
ATOM     42  C44 04C d   1      56.604-136.363  39.340  0.00  0.00     0.068 A 
ATOM     43  H22 04C d   1      57.070-136.674  37.254  0.00  0.00     0.087 H 
ATOM     44  C43 04C d   1      57.140-136.242  40.616  0.00  0.00    -0.050 A 
ATOM     45  C42 04C d   1      58.507-136.339  40.826  0.00  0.00    -0.074 A 
ATOM     46  H26 04C d   1      56.480-136.069  41.459  0.00  0.00     0.087 H 
ATOM     47  H27 04C d   1      58.908-136.244  41.828  0.00  0.00     0.084 H 
BRANCH  42  48
ATOM     48  O45 04C d   1      55.241-136.241  39.251  0.00  0.00    -0.356 OA
BRANCH  48  49
ATOM     49  C46 04C d   1      54.596-136.551  38.007  0.00  0.00     0.010 C 
ATOM     50  H23 04C d   1      53.511-136.401  38.109  0.00  0.00     0.066 H 
ATOM     51  H24 04C d   1      54.798-137.599  37.740  0.00  0.00     0.066 H 
ATOM     52  H25 04C d   1      54.985-135.891  37.218  0.00  0.00     0.066 H 
ENDBRANCH  48  49
ENDBRANCH  42  48
ENDBRANCH  35  38
ENDBRANCH   1  35
BRANCH   1  53
ATOM     53  C23 04C d   1      62.616-135.202  40.543  0.00  0.00     0.241 C 
ATOM     54  O49 04C d   1      63.703-135.336  39.974  0.00  0.00    -0.271 OA
ATOM     55  N22 04C d   1      62.450-135.005  41.860  0.00  0.00    -0.352 N 
ATOM     56  H28 04C d   1      61.519-134.952  42.220  0.00  0.00     0.163 HD
BRANCH  55  57
ATOM     57  C8  04C d   1      63.567-134.864  42.794  0.00  0.00     0.041 C 
ATOM     58  H29 04C d   1      64.523-134.958  42.259  0.00  0.00     0.076 H 
BRANCH  57  59
ATOM     59  C9  04C d   1      63.479-135.910  43.922  0.00  0.00     0.060 C 
ATOM     60  H30 04C d   1      64.183-135.581  44.700  0.00  0.00     0.086 H 
BRANCH  59  61
ATOM     61  O21 04C d   1      62.165-135.887  44.482  0.00  0.00    -0.393 OA
ATOM     62  H31 04C d   1      61.987-135.023  44.833  0.00  0.00     0.210 HD
ENDBRANCH  59  61
BRANCH  59  63
ATOM     63  C10 04C d   1      63.879-137.421  43.570  0.00  0.00    -0.010 C 
ATOM     64  H32 04C d   1      64.175-137.951  44.487  0.00  0.00     0.046 H 
BRANCH  63  65
ATOM     65  C11 04C d   1      65.056-137.455  42.551  0.00  0.00    -0.069 C 
ATOM     66  H33 04C d   1      65.314-138.500  42.324  0.00  0.00     0.028 H 
ATOM     67  H34 04C d   1      65.930-136.947  42.984  0.00  0.00     0.028 H 
ATOM     68  H35 04C d   1      64.755-136.942  41.626  0.00  0.00     0.028 H 
ENDBRANCH  63  65
BRANCH  63  69
ATOM     69  C12 04C d   1      62.656-138.089  42.953  0.00  0.00     0.022 C 
ATOM     70  H36 04C d   1      62.198-137.420  42.210  0.00  0.00     0.074 H 
ATOM     71  H37 04C d   1      61.921-138.324  43.737  0.00  0.00     0.074 H 
BRANCH  69  72
ATOM     72  O13 04C d   1      63.097-139.299  42.316  0.00  0.00    -0.400 OA
ATOM     73  H38 04C d   1      63.734-139.088  41.644  0.00  0.00     0.209 HD
ENDBRANCH  69  72
ENDBRANCH  63  69
ENDBRANCH  59  63
ENDBRANCH  57  59
BRANCH  57  74
ATOM     74  C7  04C d   1      63.442-133.496  43.456  0.00  0.00    -0.020 C 
ATOM     75  H39 04C d   1      63.781-133.584  44.499  0.00  0.00     0.043 H 
ATOM     76  H40 04C d   1      62.383-133.199  43.438  0.00  0.00     0.043 H 
BRANCH  74  77
ATOM     77  C6  04C d   1      64.201-132.479  42.826  0.00  0.00    -0.056 A 
ATOM     78  C5  04C d   1      64.880-132.613  41.604  0.00  0.00    -0.077 A 
ATOM     79  C4  04C d   1      65.586-131.538  41.067  0.00  0.00    -0.082 A 
ATOM     80  H41 04C d   1      64.855-133.559  41.075  0.00  0.00     0.084 H 
ATOM     81  C3  04C d   1      65.620-130.314  41.730  0.00  0.00    -0.083 A 
ATOM     82  H42 04C d   1      66.112-131.656  40.127  0.00  0.00     0.083 H 
ATOM     83  C2  04C d   1      64.947-130.161  42.937  0.00  0.00    -0.082 A 
ATOM     84  H43 04C d   1      66.170-129.482  41.306  0.00  0.00     0.083 H 
ATOM     85  C1  04C d   1      64.245-131.238  43.474  0.00  0.00    -0.077 A 
ATOM     86  H44 04C d   1      64.968-129.210  43.457  0.00  0.00     0.083 H 
ATOM     87  H45 04C d   1      63.721-131.113  44.415  0.00  0.00     0.084 H 
ENDBRANCH  74  77
ENDBRANCH  57  74
ENDBRANCH  55  57
ENDBRANCH   1  53
TORSDOF 20
