REMARK  20 active torsions:
REMARK  status: ('A' for Active; 'I' for Inactive)
REMARK    1  A    between atoms: C30_3  and  C29_1 
REMARK       I    between atoms: C29_1  and  N28_10 
REMARK    2  A    between atoms: N31_4  and  C30_3 
REMARK    3  A    between atoms: N28_10  and  C27_11 
REMARK    4  A    between atoms: C27_11  and  C26_12 
REMARK    5  A    between atoms: C27_11  and  C38_14 
REMARK       I    between atoms: C26_12  and  N25_15 
REMARK    6  A    between atoms: N25_15  and  C24_16 
REMARK    7  A    between atoms: C24_16  and  C40_17 
REMARK    8  A    between atoms: C24_16  and  C23_26 
REMARK    9  A    between atoms: C40_17  and  C41_18 
REMARK   10  A    between atoms: C44_21  and  O45_22 
REMARK   11  A    between atoms: O45_22  and  C46_23 
REMARK       I    between atoms: C23_26  and  N22_28 
REMARK   12  A    between atoms: N22_28  and  C8_29 
REMARK   13  A    between atoms: C8_29  and  C9_30 
REMARK   14  A    between atoms: C8_29  and  C7_36 
REMARK   15  A    between atoms: C9_30  and  O21_31 
REMARK   16  A    between atoms: C9_30  and  C10_32 
REMARK   17  A    between atoms: C10_32  and  C11_33 
REMARK   18  A    between atoms: C10_32  and  C12_34 
REMARK   19  A    between atoms: C12_34  and  O13_35 
REMARK   20  A    between atoms: C7_36  and  C6_37 
ROOT
ATOM      1  C24 04C d   1      61.616-135.280  39.440  0.00  0.00     0.093 C 
ATOM      2  H18 04C d   1      60.887-134.542  39.807  0.00  0.00     0.088 H 
ENDROOT
BRANCH   1   3
ATOM      3  N25 04C d   1      61.926-135.024  38.030  0.00  0.00    -0.346 N 
ATOM      4  C26 04C d   1      61.418-133.977  37.360  0.00  0.00     0.240 C 
ATOM      5  O39 04C d   1      60.655-133.143  37.844  0.00  0.00    -0.271 OA
ATOM      6  H17 04C d   1      62.538-135.652  37.550  0.00  0.00     0.163 HD
BRANCH   4   7
ATOM      7  C27 04C d   1      61.858-133.887  35.895  0.00  0.00     0.086 C 
ATOM      8  H13 04C d   1      62.254-134.863  35.577  0.00  0.00     0.086 H 
BRANCH   7   9
ATOM      9  N28 04C d   1      60.698-133.541  35.055  0.00  0.00    -0.347 N 
ATOM     10  C29 04C d   1      59.816-134.474  34.655  0.00  0.00     0.244 C 
ATOM     11  O37 04C d   1      59.893-135.667  34.943  0.00  0.00    -0.272 OA
ATOM     12  H12 04C d   1      60.563-132.590  34.776  0.00  0.00     0.163 HD
BRANCH  10  13
ATOM     13  C30 04C d   1      58.658-133.959  33.783  0.00  0.00     0.156 C 
ATOM     14  H1  04C d   1      58.251-134.776  33.169  0.00  0.00     0.090 H 
ATOM     15  H2  04C d   1      59.007-133.147  33.128  0.00  0.00     0.090 H 
BRANCH  13  16
ATOM     16  N31 04C d   1      57.640-133.463  34.703  0.00  0.00    -0.059 N 
ATOM     17  C36 04C d   1      56.711-134.536  35.126  0.00  0.00     0.103 C 
ATOM     18  C35 04C d   1      55.675-133.928  35.994  0.00  0.00     0.042 C 
ATOM     19  H4  04C d   1      57.261-135.307  35.685  0.00  0.00     0.079 H 
ATOM     20  H5  04C d   1      56.238-134.990  34.243  0.00  0.00     0.079 H 
ATOM     21  O34 04C d   1      55.025-132.819  35.354  0.00  0.00    -0.388 OA
ATOM     22  H8  04C d   1      54.921-134.691  36.236  0.00  0.00     0.076 H 
ATOM     23  H9  04C d   1      56.150-133.575  36.921  0.00  0.00     0.076 H 
ATOM     24  C33 04C d   1      55.928-131.760  34.988  0.00  0.00     0.042 C 
ATOM     25  C32 04C d   1      56.894-132.384  34.046  0.00  0.00     0.103 C 
ATOM     26  H10 04C d   1      56.449-131.373  35.876  0.00  0.00     0.076 H 
ATOM     27  H11 04C d   1      55.383-130.941  34.496  0.00  0.00     0.076 H 
ATOM     28  H6  04C d   1      56.345-132.797  33.187  0.00  0.00     0.079 H 
ATOM     29  H7  04C d   1      57.601-131.618  33.695  0.00  0.00     0.079 H 
ATOM     30  H3  04C d   1      58.097-133.095  35.523  0.00  0.00     0.280 HD
ENDBRANCH  13  16
ENDBRANCH  10  13
ENDBRANCH   7   9
BRANCH   7  31
ATOM     31  C38 04C d   1      62.957-132.831  35.741  0.00  0.00    -0.049 C 
ATOM     32  H14 04C d   1      63.816-133.101  36.373  0.00  0.00     0.030 H 
ATOM     33  H15 04C d   1      62.569-131.850  36.051  0.00  0.00     0.030 H 
ATOM     34  H16 04C d   1      63.276-132.784  34.689  0.00  0.00     0.030 H 
ENDBRANCH   7  31
ENDBRANCH   4   7
ENDBRANCH   1   3
BRANCH   1  35
ATOM     35  C40 04C d   1      61.055-136.674  39.569  0.00  0.00    -0.014 C 
ATOM     36  H19 04C d   1      61.254-137.068  40.577  0.00  0.00     0.043 H 
ATOM     37  H20 04C d   1      61.514-137.335  38.819  0.00  0.00     0.043 H 
BRANCH  35  38
ATOM     38  C41 04C d   1      59.678-136.588  39.352  0.00  0.00    -0.056 A 
ATOM     39  C48 04C d   1      59.115-136.922  38.121  0.00  0.00    -0.074 A 
ATOM     40  C47 04C d   1      57.737-136.840  37.923  0.00  0.00    -0.050 A 
ATOM     41  H21 04C d   1      59.755-137.249  37.309  0.00  0.00     0.084 H 
ATOM     42  C44 04C d   1      56.899-136.424  38.967  0.00  0.00     0.068 A 
ATOM     43  H22 04C d   1      57.313-137.099  36.959  0.00  0.00     0.087 H 
ATOM     44  C43 04C d   1      57.472-136.097  40.193  0.00  0.00    -0.050 A 
ATOM     45  C42 04C d   1      58.844-136.181  40.387  0.00  0.00    -0.074 A 
ATOM     46  H26 04C d   1      56.837-135.772  41.009  0.00  0.00     0.087 H 
ATOM     47  H27 04C d   1      59.268-135.928  41.352  0.00  0.00     0.084 H 
BRANCH  42  48
ATOM     48  O45 04C d   1      55.533-136.306  38.886  0.00  0.00    -0.356 OA
BRANCH  48  49
ATOM     49  C46 04C d   1      54.811-136.754  37.730  0.00  0.00     0.010 C 
ATOM     50  H23 04C d   1      53.737-136.566  37.873  0.00  0.00     0.066 H 
ATOM     51  H24 04C d   1      54.979-137.832  37.588  0.00  0.00     0.066 H 
ATOM     52  H25 04C d   1      55.164-136.208  36.843  0.00  0.00     0.066 H 
ENDBRANCH  48  49
ENDBRANCH  42  48
ENDBRANCH  35  38
ENDBRANCH   1  35
BRANCH   1  53
ATOM     53  C23 04C d   1      62.909-135.196  40.258  0.00  0.00     0.241 C 
ATOM     54  O49 04C d   1      64.005-135.357  39.720  0.00  0.00    -0.271 OA
ATOM     55  N22 04C d   1      62.725-134.952  41.568  0.00  0.00    -0.352 N 
ATOM     56  H28 04C d   1      61.789-134.845  41.905  0.00  0.00     0.163 HD
BRANCH  55  57
ATOM     57  C8  04C d   1      63.831-134.835  42.529  0.00  0.00     0.041 C 
ATOM     58  H29 04C d   1      64.790-134.978  42.010  0.00  0.00     0.076 H 
BRANCH  57  59
ATOM     59  C9  04C d   1      63.672-135.881  43.657  0.00  0.00     0.060 C 
ATOM     60  H30 04C d   1      64.383-135.603  44.449  0.00  0.00     0.086 H 
BRANCH  59  61
ATOM     61  O21 04C d   1      62.353-135.771  44.188  0.00  0.00    -0.393 OA
ATOM     62  H31 04C d   1      62.224-134.896  44.534  0.00  0.00     0.210 HD
ENDBRANCH  59  61
BRANCH  59  63
ATOM     63  C10 04C d   1      63.987-137.403  43.281  0.00  0.00    -0.010 C 
ATOM     64  H32 04C d   1      64.376-137.940  44.159  0.00  0.00     0.046 H 
BRANCH  63  65
ATOM     65  C11 04C d   1      65.003-137.506  42.089  0.00  0.00    -0.069 C 
ATOM     66  H33 04C d   1      65.194-138.565  41.861  0.00  0.00     0.028 H 
ATOM     67  H34 04C d   1      65.947-137.015  42.368  0.00  0.00     0.028 H 
ATOM     68  H35 04C d   1      64.580-137.010  41.203  0.00  0.00     0.028 H 
ENDBRANCH  63  65
BRANCH  63  69
ATOM     69  C12 04C d   1      62.677-138.008  42.800  0.00  0.00     0.022 C 
ATOM     70  H36 04C d   1      62.181-137.320  42.099  0.00  0.00     0.074 H 
ATOM     71  H37 04C d   1      62.015-138.199  43.657  0.00  0.00     0.074 H 
BRANCH  69  72
ATOM     72  O13 04C d   1      62.988-139.244  42.136  0.00  0.00    -0.400 OA
ATOM     73  H38 04C d   1      62.185-139.645  41.824  0.00  0.00     0.209 HD
ENDBRANCH  69  72
ENDBRANCH  63  69
ENDBRANCH  59  63
ENDBRANCH  57  59
BRANCH  57  74
ATOM     74  C7  04C d   1      63.786-133.466  43.192  0.00  0.00    -0.020 C 
ATOM     75  H39 04C d   1      64.211-133.559  44.203  0.00  0.00     0.043 H 
ATOM     76  H40 04C d   1      62.734-133.153  43.264  0.00  0.00     0.043 H 
BRANCH  74  77
ATOM     77  C6  04C d   1      64.501-132.459  42.503  0.00  0.00    -0.056 A 
ATOM     78  C5  04C d   1      65.347-132.669  41.404  0.00  0.00    -0.077 A 
ATOM     79  C4  04C d   1      65.999-131.592  40.804  0.00  0.00    -0.082 A 
ATOM     80  H41 04C d   1      65.495-133.672  41.020  0.00  0.00     0.084 H 
ATOM     81  C3  04C d   1      65.820-130.298  41.286  0.00  0.00    -0.083 A 
ATOM     82  H42 04C d   1      66.651-131.764  39.955  0.00  0.00     0.083 H 
ATOM     83  C2  04C d   1      64.984-130.074  42.374  0.00  0.00    -0.082 A 
ATOM     84  H43 04C d   1      66.331-129.467  40.814  0.00  0.00     0.083 H 
ATOM     85  C1  04C d   1      64.337-131.152  42.971  0.00  0.00    -0.077 A 
ATOM     86  H44 04C d   1      64.838-129.069  42.754  0.00  0.00     0.083 H 
ATOM     87  H45 04C d   1      63.689-130.973  43.821  0.00  0.00     0.084 H 
ENDBRANCH  74  77
ENDBRANCH  57  74
ENDBRANCH  55  57
ENDBRANCH   1  53
TORSDOF 20
