REMARK  20 active torsions:
REMARK  status: ('A' for Active; 'I' for Inactive)
REMARK    1  A    between atoms: C30_3  and  C29_1 
REMARK       I    between atoms: C29_1  and  N28_10 
REMARK    2  A    between atoms: N31_4  and  C30_3 
REMARK    3  A    between atoms: N28_10  and  C27_11 
REMARK    4  A    between atoms: C27_11  and  C26_12 
REMARK    5  A    between atoms: C27_11  and  C38_14 
REMARK       I    between atoms: C26_12  and  N25_15 
REMARK    6  A    between atoms: N25_15  and  C24_16 
REMARK    7  A    between atoms: C24_16  and  C40_17 
REMARK    8  A    between atoms: C24_16  and  C23_26 
REMARK    9  A    between atoms: C40_17  and  C41_18 
REMARK   10  A    between atoms: C44_21  and  O45_22 
REMARK   11  A    between atoms: O45_22  and  C46_23 
REMARK       I    between atoms: C23_26  and  N22_28 
REMARK   12  A    between atoms: N22_28  and  C8_29 
REMARK   13  A    between atoms: C8_29  and  C9_30 
REMARK   14  A    between atoms: C8_29  and  C7_36 
REMARK   15  A    between atoms: C9_30  and  O21_31 
REMARK   16  A    between atoms: C9_30  and  C10_32 
REMARK   17  A    between atoms: C10_32  and  C11_33 
REMARK   18  A    between atoms: C10_32  and  C12_34 
REMARK   19  A    between atoms: C12_34  and  O13_35 
REMARK   20  A    between atoms: C7_36  and  C6_37 
ROOT
ATOM      1  C24 04C d   1      61.257-135.725  39.470  0.00  0.00     0.093 C 
ATOM      2  H18 04C d   1      60.548-134.955  39.808  0.00  0.00     0.088 H 
ENDROOT
BRANCH   1   3
ATOM      3  N25 04C d   1      61.598-135.489  38.060  0.00  0.00    -0.346 N 
ATOM      4  C26 04C d   1      61.124-134.419  37.406  0.00  0.00     0.240 C 
ATOM      5  O39 04C d   1      60.366-133.583  37.899  0.00  0.00    -0.271 OA
ATOM      6  H17 04C d   1      62.192-136.136  37.582  0.00  0.00     0.163 HD
BRANCH   4   7
ATOM      7  C27 04C d   1      61.569-134.289  35.953  0.00  0.00     0.086 C 
ATOM      8  H13 04C d   1      61.833-135.275  35.543  0.00  0.00     0.086 H 
BRANCH   7   9
ATOM      9  N28 04C d   1      60.435-133.719  35.219  0.00  0.00    -0.347 N 
ATOM     10  C29 04C d   1      59.508-134.494  34.630  0.00  0.00     0.244 C 
ATOM     11  O37 04C d   1      59.542-135.724  34.612  0.00  0.00    -0.272 OA
ATOM     12  H12 04C d   1      60.349-132.725  35.155  0.00  0.00     0.163 HD
BRANCH  10  13
ATOM     13  C30 04C d   1      58.359-133.738  33.944  0.00  0.00     0.156 C 
ATOM     14  H1  04C d   1      58.305-134.005  32.878  0.00  0.00     0.090 H 
ATOM     15  H2  04C d   1      58.500-132.652  34.043  0.00  0.00     0.090 H 
BRANCH  13  16
ATOM     16  N31 04C d   1      57.142-134.162  34.640  0.00  0.00    -0.059 N 
ATOM     17  C36 04C d   1      56.037-134.274  33.656  0.00  0.00     0.103 C 
ATOM     18  C35 04C d   1      54.733-134.410  34.366  0.00  0.00     0.042 C 
ATOM     19  H4  04C d   1      56.201-135.159  33.023  0.00  0.00     0.079 H 
ATOM     20  H5  04C d   1      56.017-133.372  33.027  0.00  0.00     0.079 H 
ATOM     21  O34 04C d   1      54.570-133.379  35.354  0.00  0.00    -0.388 OA
ATOM     22  H8  04C d   1      53.916-134.337  33.633  0.00  0.00     0.076 H 
ATOM     23  H9  04C d   1      54.695-135.391  34.861  0.00  0.00     0.076 H 
ATOM     24  C33 04C d   1      55.554-133.460  36.401  0.00  0.00     0.042 C 
ATOM     25  C32 04C d   1      56.861-133.207  35.732  0.00  0.00     0.103 C 
ATOM     26  H10 04C d   1      55.544-134.458  36.863  0.00  0.00     0.076 H 
ATOM     27  H11 04C d   1      55.361-132.698  37.171  0.00  0.00     0.076 H 
ATOM     28  H6  04C d   1      56.850-132.189  35.314  0.00  0.00     0.079 H 
ATOM     29  H7  04C d   1      57.661-133.287  36.483  0.00  0.00     0.079 H 
ATOM     30  H3  04C d   1      57.294-135.071  35.047  0.00  0.00     0.280 HD
ENDBRANCH  13  16
ENDBRANCH  10  13
ENDBRANCH   7   9
BRANCH   7  31
ATOM     31  C38 04C d   1      62.779-133.353  35.867  0.00  0.00    -0.049 C 
ATOM     32  H14 04C d   1      63.622-133.792  36.421  0.00  0.00     0.030 H 
ATOM     33  H15 04C d   1      62.520-132.378  36.305  0.00  0.00     0.030 H 
ATOM     34  H16 04C d   1      63.064-133.218  34.813  0.00  0.00     0.030 H 
ENDBRANCH   7  31
ENDBRANCH   4   7
ENDBRANCH   1   3
BRANCH   1  35
ATOM     35  C40 04C d   1      60.638-137.090  39.651  0.00  0.00    -0.014 C 
ATOM     36  H19 04C d   1      60.726-137.410  40.700  0.00  0.00     0.043 H 
ATOM     37  H20 04C d   1      61.139-137.822  39.001  0.00  0.00     0.043 H 
BRANCH  35  38
ATOM     38  C41 04C d   1      59.290-136.973  39.295  0.00  0.00    -0.056 A 
ATOM     39  C48 04C d   1      58.855-137.336  38.022  0.00  0.00    -0.074 A 
ATOM     40  C47 04C d   1      57.510-137.223  37.678  0.00  0.00    -0.050 A 
ATOM     41  H21 04C d   1      59.568-137.709  37.295  0.00  0.00     0.084 H 
ATOM     42  C44 04C d   1      56.579-136.754  38.602  0.00  0.00     0.068 A 
ATOM     43  H22 04C d   1      57.185-137.502  36.682  0.00  0.00     0.087 H 
ATOM     44  C43 04C d   1      57.018-136.385  39.878  0.00  0.00    -0.050 A 
ATOM     45  C42 04C d   1      58.361-136.503  40.221  0.00  0.00    -0.074 A 
ATOM     46  H26 04C d   1      56.308-136.005  40.603  0.00  0.00     0.087 H 
ATOM     47  H27 04C d   1      58.688-136.227  41.217  0.00  0.00     0.084 H 
BRANCH  42  48
ATOM     48  O45 04C d   1      55.267-136.653  38.212  0.00  0.00    -0.356 OA
BRANCH  48  49
ATOM     49  C46 04C d   1      54.250-136.992  39.175  0.00  0.00     0.010 C 
ATOM     50  H23 04C d   1      53.257-136.863  38.720  0.00  0.00     0.066 H 
ATOM     51  H24 04C d   1      54.340-136.333  40.051  0.00  0.00     0.066 H 
ATOM     52  H25 04C d   1      54.376-138.039  39.489  0.00  0.00     0.066 H 
ENDBRANCH  48  49
ENDBRANCH  42  48
ENDBRANCH  35  38
ENDBRANCH   1  35
BRANCH   1  53
ATOM     53  C23 04C d   1      62.537-135.651  40.303  0.00  0.00     0.241 C 
ATOM     54  O49 04C d   1      63.643-135.841  39.793  0.00  0.00    -0.271 OA
ATOM     55  N22 04C d   1      62.323-135.378  41.599  0.00  0.00    -0.352 N 
ATOM     56  H28 04C d   1      61.382-135.255  41.913  0.00  0.00     0.163 HD
BRANCH  55  57
ATOM     57  C8  04C d   1      63.409-135.252  42.572  0.00  0.00     0.041 C 
ATOM     58  H29 04C d   1      64.376-135.393  42.066  0.00  0.00     0.076 H 
BRANCH  57  59
ATOM     59  C9  04C d   1      63.251-136.298  43.701  0.00  0.00     0.060 C 
ATOM     60  H30 04C d   1      63.946-136.009  44.503  0.00  0.00     0.086 H 
BRANCH  59  61
ATOM     61  O21 04C d   1      61.910-136.226  44.216  0.00  0.00    -0.393 OA
ATOM     62  H31 04C d   1      61.804-136.865  44.910  0.00  0.00     0.210 HD
ENDBRANCH  59  61
BRANCH  59  63
ATOM     63  C10 04C d   1      63.586-137.825  43.324  0.00  0.00    -0.010 C 
ATOM     64  H32 04C d   1      63.937-138.364  44.216  0.00  0.00     0.046 H 
BRANCH  63  65
ATOM     65  C11 04C d   1      64.672-137.911  42.192  0.00  0.00    -0.069 C 
ATOM     66  H33 04C d   1      64.876-138.966  41.960  0.00  0.00     0.028 H 
ATOM     67  H34 04C d   1      65.598-137.425  42.534  0.00  0.00     0.028 H 
ATOM     68  H35 04C d   1      64.302-137.402  41.290  0.00  0.00     0.028 H 
ENDBRANCH  63  65
BRANCH  63  69
ATOM     69  C12 04C d   1      62.291-138.443  42.797  0.00  0.00     0.022 C 
ATOM     70  H36 04C d   1      61.799-137.748  42.101  0.00  0.00     0.074 H 
ATOM     71  H37 04C d   1      61.613-138.666  43.634  0.00  0.00     0.074 H 
BRANCH  69  72
ATOM     72  O13 04C d   1      62.643-139.657  42.113  0.00  0.00    -0.400 OA
ATOM     73  H38 04C d   1      61.856-140.067  41.772  0.00  0.00     0.209 HD
ENDBRANCH  69  72
ENDBRANCH  63  69
ENDBRANCH  59  63
ENDBRANCH  57  59
BRANCH  57  74
ATOM     74  C7  04C d   1      63.345-133.864  43.204  0.00  0.00    -0.020 C 
ATOM     75  H39 04C d   1      63.718-133.934  44.236  0.00  0.00     0.043 H 
ATOM     76  H40 04C d   1      62.295-133.535  43.215  0.00  0.00     0.043 H 
BRANCH  74  77
ATOM     77  C6  04C d   1      64.113-132.891  42.515  0.00  0.00    -0.056 A 
ATOM     78  C5  04C d   1      64.934-133.145  41.403  0.00  0.00    -0.077 A 
ATOM     79  C4  04C d   1      65.643-132.109  40.797  0.00  0.00    -0.082 A 
ATOM     80  H41 04C d   1      65.016-134.153  41.014  0.00  0.00     0.084 H 
ATOM     81  C3  04C d   1      65.550-130.807  41.282  0.00  0.00    -0.083 A 
ATOM     82  H42 04C d   1      66.273-132.319  39.940  0.00  0.00     0.083 H 
ATOM     83  C2  04C d   1      64.741-130.538  42.381  0.00  0.00    -0.082 A 
ATOM     84  H43 04C d   1      66.105-130.007  40.806  0.00  0.00     0.083 H 
ATOM     85  C1  04C d   1      64.033-131.576  42.985  0.00  0.00    -0.077 A 
ATOM     86  H44 04C d   1      64.662-129.528  42.765  0.00  0.00     0.083 H 
ATOM     87  H45 04C d   1      63.404-131.358  43.841  0.00  0.00     0.084 H 
ENDBRANCH  74  77
ENDBRANCH  57  74
ENDBRANCH  55  57
ENDBRANCH   1  53
TORSDOF 20
