REMARK  20 active torsions:
REMARK  status: ('A' for Active; 'I' for Inactive)
REMARK    1  A    between atoms: C30_3  and  C29_1 
REMARK       I    between atoms: C29_1  and  N28_10 
REMARK    2  A    between atoms: N31_4  and  C30_3 
REMARK    3  A    between atoms: N28_10  and  C27_11 
REMARK    4  A    between atoms: C27_11  and  C26_12 
REMARK    5  A    between atoms: C27_11  and  C38_14 
REMARK       I    between atoms: C26_12  and  N25_15 
REMARK    6  A    between atoms: N25_15  and  C24_16 
REMARK    7  A    between atoms: C24_16  and  C40_17 
REMARK    8  A    between atoms: C24_16  and  C23_26 
REMARK    9  A    between atoms: C40_17  and  C41_18 
REMARK   10  A    between atoms: C44_21  and  O45_22 
REMARK   11  A    between atoms: O45_22  and  C46_23 
REMARK       I    between atoms: C23_26  and  N22_28 
REMARK   12  A    between atoms: N22_28  and  C8_29 
REMARK   13  A    between atoms: C8_29  and  C9_30 
REMARK   14  A    between atoms: C8_29  and  C7_36 
REMARK   15  A    between atoms: C9_30  and  O21_31 
REMARK   16  A    between atoms: C9_30  and  C10_32 
REMARK   17  A    between atoms: C10_32  and  C11_33 
REMARK   18  A    between atoms: C10_32  and  C12_34 
REMARK   19  A    between atoms: C12_34  and  O13_35 
REMARK   20  A    between atoms: C7_36  and  C6_37 
ROOT
ATOM      1  C24 04C d   1      60.862-135.227  39.500  0.00  0.00     0.093 C 
ATOM      2  H18 04C d   1      60.158-134.449  39.831  0.00  0.00     0.088 H 
ENDROOT
BRANCH   1   3
ATOM      3  N25 04C d   1      61.158-135.039  38.075  0.00  0.00    -0.346 N 
ATOM      4  C26 04C d   1      60.883-133.873  37.469  0.00  0.00     0.240 C 
ATOM      5  O39 04C d   1      60.348-132.911  38.020  0.00  0.00    -0.271 OA
ATOM      6  H17 04C d   1      61.568-135.786  37.551  0.00  0.00     0.163 HD
BRANCH   4   7
ATOM      7  C27 04C d   1      61.250-133.796  35.994  0.00  0.00     0.086 C 
ATOM      8  H13 04C d   1      61.519-134.793  35.616  0.00  0.00     0.086 H 
BRANCH   7   9
ATOM      9  N28 04C d   1      60.084-133.279  35.271  0.00  0.00    -0.347 N 
ATOM     10  C29 04C d   1      59.122-134.087  34.793  0.00  0.00     0.244 C 
ATOM     11  O37 04C d   1      59.144-135.315  34.871  0.00  0.00    -0.272 OA
ATOM     12  H12 04C d   1      60.002-132.293  35.129  0.00  0.00     0.163 HD
BRANCH  10  13
ATOM     13  C30 04C d   1      57.967-133.366  34.078  0.00  0.00     0.156 C 
ATOM     14  H1  04C d   1      57.943-133.655  33.017  0.00  0.00     0.090 H 
ATOM     15  H2  04C d   1      58.097-132.277  34.158  0.00  0.00     0.090 H 
BRANCH  13  16
ATOM     16  N31 04C d   1      56.720-133.771  34.736  0.00  0.00    -0.059 N 
ATOM     17  C36 04C d   1      55.661-133.805  33.691  0.00  0.00     0.103 C 
ATOM     18  C35 04C d   1      54.299-133.798  34.302  0.00  0.00     0.042 C 
ATOM     19  H4  04C d   1      55.780-134.718  33.090  0.00  0.00     0.079 H 
ATOM     20  H5  04C d   1      55.768-132.923  33.043  0.00  0.00     0.079 H 
ATOM     21  O34 04C d   1      54.176-132.781  35.319  0.00  0.00    -0.388 OA
ATOM     22  H8  04C d   1      53.556-133.606  33.514  0.00  0.00     0.076 H 
ATOM     23  H9  04C d   1      54.107-134.781  34.756  0.00  0.00     0.076 H 
ATOM     24  C33 04C d   1      55.073-132.992  36.425  0.00  0.00     0.042 C 
ATOM     25  C32 04C d   1      56.438-132.836  35.851  0.00  0.00     0.103 C 
ATOM     26  H10 04C d   1      54.942-134.002  36.842  0.00  0.00     0.076 H 
ATOM     27  H11 04C d   1      54.898-132.245  37.213  0.00  0.00     0.076 H 
ATOM     28  H6  04C d   1      56.543-131.807  35.478  0.00  0.00     0.079 H 
ATOM     29  H7  04C d   1      57.174-133.014  36.649  0.00  0.00     0.079 H 
ATOM     30  H3  04C d   1      56.824-134.698  35.119  0.00  0.00     0.280 HD
ENDBRANCH  13  16
ENDBRANCH  10  13
ENDBRANCH   7   9
BRANCH   7  31
ATOM     31  C38 04C d   1      62.431-132.838  35.819  0.00  0.00    -0.049 C 
ATOM     32  H14 04C d   1      63.304-133.229  36.363  0.00  0.00     0.030 H 
ATOM     33  H15 04C d   1      62.163-131.849  36.219  0.00  0.00     0.030 H 
ATOM     34  H16 04C d   1      62.675-132.748  34.750  0.00  0.00     0.030 H 
ENDBRANCH   7  31
ENDBRANCH   4   7
ENDBRANCH   1   3
BRANCH   1  35
ATOM     35  C40 04C d   1      60.257-136.582  39.769  0.00  0.00    -0.014 C 
ATOM     36  H19 04C d   1      60.380-136.851  40.828  0.00  0.00     0.043 H 
ATOM     37  H20 04C d   1      60.736-137.346  39.139  0.00  0.00     0.043 H 
BRANCH  35  38
ATOM     38  C41 04C d   1      58.893-136.470  39.449  0.00  0.00    -0.056 A 
ATOM     39  C48 04C d   1      58.464-136.652  38.134  0.00  0.00    -0.074 A 
ATOM     40  C47 04C d   1      57.115-136.542  37.806  0.00  0.00    -0.050 A 
ATOM     41  H21 04C d   1      59.188-136.881  37.360  0.00  0.00     0.084 H 
ATOM     42  C44 04C d   1      56.173-136.259  38.794  0.00  0.00     0.068 A 
ATOM     43  H22 04C d   1      56.796-136.677  36.779  0.00  0.00     0.087 H 
ATOM     44  C43 04C d   1      56.598-136.074  40.111  0.00  0.00    -0.050 A 
ATOM     45  C42 04C d   1      57.949-136.182  40.438  0.00  0.00    -0.074 A 
ATOM     46  H26 04C d   1      55.873-135.845  40.884  0.00  0.00     0.087 H 
ATOM     47  H27 04C d   1      58.269-136.042  41.464  0.00  0.00     0.084 H 
BRANCH  42  48
ATOM     48  O45 04C d   1      54.845-136.147  38.481  0.00  0.00    -0.356 OA
BRANCH  48  49
ATOM     49  C46 04C d   1      54.288-137.290  37.803  0.00  0.00     0.010 C 
ATOM     50  H23 04C d   1      53.223-137.109  37.594  0.00  0.00     0.066 H 
ATOM     51  H24 04C d   1      54.390-138.180  38.441  0.00  0.00     0.066 H 
ATOM     52  H25 04C d   1      54.825-137.453  36.857  0.00  0.00     0.066 H 
ENDBRANCH  48  49
ENDBRANCH  42  48
ENDBRANCH  35  38
ENDBRANCH   1  35
BRANCH   1  53
ATOM     53  C23 04C d   1      62.175-135.094  40.266  0.00  0.00     0.241 C 
ATOM     54  O49 04C d   1      63.259-135.099  39.681  0.00  0.00    -0.271 OA
ATOM     55  N22 04C d   1      62.011-134.969  41.587  0.00  0.00    -0.352 N 
ATOM     56  H28 04C d   1      61.082-134.994  41.956  0.00  0.00     0.163 HD
BRANCH  55  57
ATOM     57  C8  04C d   1      63.125-134.797  42.517  0.00  0.00     0.041 C 
ATOM     58  H29 04C d   1      64.085-134.902  41.989  0.00  0.00     0.076 H 
BRANCH  57  59
ATOM     59  C9  04C d   1      63.023-135.822  43.664  0.00  0.00     0.060 C 
ATOM     60  H30 04C d   1      63.690-135.467  44.464  0.00  0.00     0.086 H 
BRANCH  59  61
ATOM     61  O21 04C d   1      61.668-135.842  44.183  0.00  0.00    -0.393 OA
ATOM     62  H31 04C d   1      61.443-134.979  44.510  0.00  0.00     0.210 HD
ENDBRANCH  59  61
BRANCH  59  63
ATOM     63  C10 04C d   1      63.473-137.321  43.318  0.00  0.00    -0.010 C 
ATOM     64  H32 04C d   1      63.599-137.901  44.244  0.00  0.00     0.046 H 
BRANCH  63  65
ATOM     65  C11 04C d   1      64.797-137.330  42.511  0.00  0.00    -0.069 C 
ATOM     66  H33 04C d   1      65.083-138.368  42.287  0.00  0.00     0.028 H 
ATOM     67  H34 04C d   1      65.591-136.851  43.103  0.00  0.00     0.028 H 
ATOM     68  H35 04C d   1      64.657-136.777  41.570  0.00  0.00     0.028 H 
ENDBRANCH  63  65
BRANCH  63  69
ATOM     69  C12 04C d   1      62.371-137.927  42.452  0.00  0.00     0.022 C 
ATOM     70  H36 04C d   1      62.676-137.904  41.395  0.00  0.00     0.074 H 
ATOM     71  H37 04C d   1      61.442-137.352  42.579  0.00  0.00     0.074 H 
BRANCH  69  72
ATOM     72  O13 04C d   1      62.157-139.290  42.865  0.00  0.00    -0.400 OA
ATOM     73  H38 04C d   1      61.472-139.677  42.332  0.00  0.00     0.209 HD
ENDBRANCH  69  72
ENDBRANCH  63  69
ENDBRANCH  59  63
ENDBRANCH  57  59
BRANCH  57  74
ATOM     74  C7  04C d   1      62.994-133.414  43.146  0.00  0.00    -0.020 C 
ATOM     75  H39 04C d   1      63.308-133.484  44.198  0.00  0.00     0.043 H 
ATOM     76  H40 04C d   1      61.937-133.114  43.098  0.00  0.00     0.043 H 
BRANCH  74  77
ATOM     77  C6  04C d   1      63.767-132.409  42.521  0.00  0.00    -0.056 A 
ATOM     78  C5  04C d   1      64.620-132.604  41.426  0.00  0.00    -0.077 A 
ATOM     79  C4  04C d   1      65.330-131.532  40.889  0.00  0.00    -0.082 A 
ATOM     80  H41 04C d   1      64.728-133.593  40.995  0.00  0.00     0.084 H 
ATOM     81  C3  04C d   1      65.199-130.254  41.424  0.00  0.00    -0.083 A 
ATOM     82  H42 04C d   1      65.991-131.695  40.046  0.00  0.00     0.083 H 
ATOM     83  C2  04C d   1      64.353-130.043  42.506  0.00  0.00    -0.082 A 
ATOM     84  H43 04C d   1      65.755-129.426  40.998  0.00  0.00     0.083 H 
ATOM     85  C1  04C d   1      63.648-131.117  43.043  0.00  0.00    -0.077 A 
ATOM     86  H44 04C d   1      64.243-129.051  42.928  0.00  0.00     0.083 H 
ATOM     87  H45 04C d   1      62.990-130.947  43.888  0.00  0.00     0.084 H 
ENDBRANCH  74  77
ENDBRANCH  57  74
ENDBRANCH  55  57
ENDBRANCH   1  53
TORSDOF 20
