REMARK  20 active torsions:
REMARK  status: ('A' for Active; 'I' for Inactive)
REMARK    1  A    between atoms: C30_3  and  C29_1 
REMARK       I    between atoms: C29_1  and  N28_10 
REMARK    2  A    between atoms: N31_4  and  C30_3 
REMARK    3  A    between atoms: N28_10  and  C27_11 
REMARK    4  A    between atoms: C27_11  and  C26_12 
REMARK    5  A    between atoms: C27_11  and  C38_14 
REMARK       I    between atoms: C26_12  and  N25_15 
REMARK    6  A    between atoms: N25_15  and  C24_16 
REMARK    7  A    between atoms: C24_16  and  C40_17 
REMARK    8  A    between atoms: C24_16  and  C23_26 
REMARK    9  A    between atoms: C40_17  and  C41_18 
REMARK   10  A    between atoms: C44_21  and  O45_22 
REMARK   11  A    between atoms: O45_22  and  C46_23 
REMARK       I    between atoms: C23_26  and  N22_28 
REMARK   12  A    between atoms: N22_28  and  C8_29 
REMARK   13  A    between atoms: C8_29  and  C9_30 
REMARK   14  A    between atoms: C8_29  and  C7_36 
REMARK   15  A    between atoms: C9_30  and  O21_31 
REMARK   16  A    between atoms: C9_30  and  C10_32 
REMARK   17  A    between atoms: C10_32  and  C11_33 
REMARK   18  A    between atoms: C10_32  and  C12_34 
REMARK   19  A    between atoms: C12_34  and  O13_35 
REMARK   20  A    between atoms: C7_36  and  C6_37 
ROOT
ATOM      1  C24 04C d   1      61.700-135.356  39.329  0.00  0.00     0.093 C 
ATOM      2  H18 04C d   1      60.974-134.595  39.653  0.00  0.00     0.088 H 
ENDROOT
BRANCH   1   3
ATOM      3  N25 04C d   1      62.139-135.097  37.949  0.00  0.00    -0.346 N 
ATOM      4  C26 04C d   1      61.551-134.188  37.154  0.00  0.00     0.240 C 
ATOM      5  O39 04C d   1      60.574-133.503  37.475  0.00  0.00    -0.271 OA
ATOM      6  H17 04C d   1      62.910-135.621  37.587  0.00  0.00     0.163 HD
BRANCH   4   7
ATOM      7  C27 04C d   1      62.190-134.077  35.761  0.00  0.00     0.086 C 
ATOM      8  H13 04C d   1      62.585-135.059  35.461  0.00  0.00     0.086 H 
BRANCH   7   9
ATOM      9  N28 04C d   1      61.181-133.641  34.782  0.00  0.00    -0.347 N 
ATOM     10  C29 04C d   1      60.351-134.505  34.177  0.00  0.00     0.244 C 
ATOM     11  O37 04C d   1      60.358-135.725  34.352  0.00  0.00    -0.272 OA
ATOM     12  H12 04C d   1      61.112-132.668  34.560  0.00  0.00     0.163 HD
BRANCH  10  13
ATOM     13  C30 04C d   1      59.379-133.826  33.201  0.00  0.00     0.156 C 
ATOM     14  H1  04C d   1      59.947-133.289  32.428  0.00  0.00     0.090 H 
ATOM     15  H2  04C d   1      58.742-133.115  33.748  0.00  0.00     0.090 H 
BRANCH  13  16
ATOM     16  N31 04C d   1      58.544-134.851  32.574  0.00  0.00    -0.059 N 
ATOM     17  C36 04C d   1      58.222-134.393  31.190  0.00  0.00     0.103 C 
ATOM     18  C35 04C d   1      57.135-135.246  30.605  0.00  0.00     0.042 C 
ATOM     19  H4  04C d   1      59.122-134.470  30.563  0.00  0.00     0.079 H 
ATOM     20  H5  04C d   1      57.886-133.346  31.222  0.00  0.00     0.079 H 
ATOM     21  O34 04C d   1      56.013-135.363  31.524  0.00  0.00    -0.388 OA
ATOM     22  H8  04C d   1      56.786-134.790  29.667  0.00  0.00     0.076 H 
ATOM     23  H9  04C d   1      57.537-136.249  30.398  0.00  0.00     0.076 H 
ATOM     24  C33 04C d   1      56.431-136.042  32.736  0.00  0.00     0.042 C 
ATOM     25  C32 04C d   1      57.336-135.077  33.408  0.00  0.00     0.103 C 
ATOM     26  H10 04C d   1      56.965-136.973  32.496  0.00  0.00     0.076 H 
ATOM     27  H11 04C d   1      55.564-136.270  33.373  0.00  0.00     0.076 H 
ATOM     28  H6  04C d   1      56.809-134.123  33.552  0.00  0.00     0.079 H 
ATOM     29  H7  04C d   1      57.638-135.481  34.386  0.00  0.00     0.079 H 
ATOM     30  H3  04C d   1      59.059-135.716  32.517  0.00  0.00     0.280 HD
ENDBRANCH  13  16
ENDBRANCH  10  13
ENDBRANCH   7   9
BRANCH   7  31
ATOM     31  C38 04C d   1      63.338-133.063  35.818  0.00  0.00    -0.049 C 
ATOM     32  H14 04C d   1      64.086-133.397  36.552  0.00  0.00     0.030 H 
ATOM     33  H15 04C d   1      62.945-132.080  36.117  0.00  0.00     0.030 H 
ATOM     34  H16 04C d   1      63.807-132.984  34.826  0.00  0.00     0.030 H 
ENDBRANCH   7  31
ENDBRANCH   4   7
ENDBRANCH   1   3
BRANCH   1  35
ATOM     35  C40 04C d   1      61.096-136.740  39.449  0.00  0.00    -0.014 C 
ATOM     36  H19 04C d   1      61.386-137.184  40.413  0.00  0.00     0.043 H 
ATOM     37  H20 04C d   1      61.465-137.373  38.629  0.00  0.00     0.043 H 
BRANCH  35  38
ATOM     38  C41 04C d   1      59.693-136.650  39.377  0.00  0.00    -0.056 A 
ATOM     39  C48 04C d   1      59.069-136.146  38.233  0.00  0.00    -0.074 A 
ATOM     40  C47 04C d   1      57.682-136.070  38.150  0.00  0.00    -0.050 A 
ATOM     41  H21 04C d   1      59.674-135.810  37.399  0.00  0.00     0.084 H 
ATOM     42  C44 04C d   1      56.895-136.510  39.211  0.00  0.00     0.068 A 
ATOM     43  H22 04C d   1      57.214-135.668  37.259  0.00  0.00     0.087 H 
ATOM     44  C43 04C d   1      57.508-137.026  40.357  0.00  0.00    -0.050 A 
ATOM     45  C42 04C d   1      58.898-137.100  40.440  0.00  0.00    -0.074 A 
ATOM     46  H26 04C d   1      56.899-137.370  41.185  0.00  0.00     0.087 H 
ATOM     47  H27 04C d   1      59.365-137.507  41.330  0.00  0.00     0.084 H 
BRANCH  42  48
ATOM     48  O45 04C d   1      55.533-136.438  39.119  0.00  0.00    -0.356 OA
BRANCH  48  49
ATOM     49  C46 04C d   1      55.001-135.338  39.868  0.00  0.00     0.010 C 
ATOM     50  H23 04C d   1      53.906-135.320  39.765  0.00  0.00     0.066 H 
ATOM     51  H24 04C d   1      55.421-134.396  39.485  0.00  0.00     0.066 H 
ATOM     52  H25 04C d   1      55.268-135.454  40.929  0.00  0.00     0.066 H 
ENDBRANCH  48  49
ENDBRANCH  42  48
ENDBRANCH  35  38
ENDBRANCH   1  35
BRANCH   1  53
ATOM     53  C23 04C d   1      62.960-135.317  40.192  0.00  0.00     0.241 C 
ATOM     54  O49 04C d   1      64.073-135.505  39.690  0.00  0.00    -0.271 OA
ATOM     55  N22 04C d   1      62.738-135.100  41.500  0.00  0.00    -0.352 N 
ATOM     56  H28 04C d   1      61.799-134.989  41.827  0.00  0.00     0.163 HD
BRANCH  55  57
ATOM     57  C8  04C d   1      63.850-135.023  42.460  0.00  0.00     0.041 C 
ATOM     58  H29 04C d   1      64.800-135.141  41.919  0.00  0.00     0.076 H 
BRANCH  57  59
ATOM     59  C9  04C d   1      63.743-136.123  43.550  0.00  0.00     0.060 C 
ATOM     60  H30 04C d   1      64.426-135.833  44.362  0.00  0.00     0.086 H 
BRANCH  59  61
ATOM     61  O21 04C d   1      62.388-136.121  44.070  0.00  0.00    -0.393 OA
ATOM     62  H31 04C d   1      62.306-136.790  44.739  0.00  0.00     0.210 HD
ENDBRANCH  59  61
BRANCH  59  63
ATOM     63  C10 04C d   1      64.152-137.626  43.117  0.00  0.00    -0.010 C 
ATOM     64  H32 04C d   1      64.468-138.198  44.002  0.00  0.00     0.046 H 
BRANCH  63  65
ATOM     65  C11 04C d   1      65.295-137.628  42.026  0.00  0.00    -0.069 C 
ATOM     66  H33 04C d   1      65.545-138.665  41.758  0.00  0.00     0.028 H 
ATOM     67  H34 04C d   1      66.188-137.129  42.430  0.00  0.00     0.028 H 
ATOM     68  H35 04C d   1      64.948-137.092  41.130  0.00  0.00     0.028 H 
ENDBRANCH  63  65
BRANCH  63  69
ATOM     69  C12 04C d   1      62.927-138.271  42.451  0.00  0.00     0.022 C 
ATOM     70  H36 04C d   1      62.625-137.678  41.575  0.00  0.00     0.074 H 
ATOM     71  H37 04C d   1      62.094-138.315  43.168  0.00  0.00     0.074 H 
BRANCH  69  72
ATOM     72  O13 04C d   1      63.284-139.607  42.036  0.00  0.00    -0.400 OA
ATOM     73  H38 04C d   1      64.005-139.564  41.419  0.00  0.00     0.209 HD
ENDBRANCH  69  72
ENDBRANCH  63  69
ENDBRANCH  59  63
ENDBRANCH  57  59
BRANCH  57  74
ATOM     74  C7  04C d   1      63.817-133.660  43.154  0.00  0.00    -0.020 C 
ATOM     75  H39 04C d   1      64.292-133.758  44.141  0.00  0.00     0.043 H 
ATOM     76  H40 04C d   1      62.767-133.357  43.281  0.00  0.00     0.043 H 
BRANCH  74  77
ATOM     77  C6  04C d   1      64.495-132.648  42.425  0.00  0.00    -0.056 A 
ATOM     78  C5  04C d   1      65.355-132.878  41.335  0.00  0.00    -0.077 A 
ATOM     79  C4  04C d   1      65.974-131.809  40.683  0.00  0.00    -0.082 A 
ATOM     80  H41 04C d   1      65.538-133.892  40.999  0.00  0.00     0.084 H 
ATOM     81  C3  04C d   1      65.757-130.497  41.105  0.00  0.00    -0.083 A 
ATOM     82  H42 04C d   1      66.629-132.001  39.841  0.00  0.00     0.083 H 
ATOM     83  C2  04C d   1      64.909-130.253  42.186  0.00  0.00    -0.082 A 
ATOM     84  H43 04C d   1      66.244-129.673  40.596  0.00  0.00     0.083 H 
ATOM     85  C1  04C d   1      64.288-131.323  42.835  0.00  0.00    -0.077 A 
ATOM     86  H44 04C d   1      64.733-129.237  42.521  0.00  0.00     0.083 H 
ATOM     87  H45 04C d   1      63.631-131.125  43.674  0.00  0.00     0.084 H 
ENDBRANCH  74  77
ENDBRANCH  57  74
ENDBRANCH  55  57
ENDBRANCH   1  53
TORSDOF 20
