REMARK  20 active torsions:
REMARK  status: ('A' for Active; 'I' for Inactive)
REMARK    1  A    between atoms: C30_3  and  C29_1 
REMARK       I    between atoms: C29_1  and  N28_10 
REMARK    2  A    between atoms: N31_4  and  C30_3 
REMARK    3  A    between atoms: N28_10  and  C27_11 
REMARK    4  A    between atoms: C27_11  and  C26_12 
REMARK    5  A    between atoms: C27_11  and  C38_14 
REMARK       I    between atoms: C26_12  and  N25_15 
REMARK    6  A    between atoms: N25_15  and  C24_16 
REMARK    7  A    between atoms: C24_16  and  C40_17 
REMARK    8  A    between atoms: C24_16  and  C23_26 
REMARK    9  A    between atoms: C40_17  and  C41_18 
REMARK   10  A    between atoms: C44_21  and  O45_22 
REMARK   11  A    between atoms: O45_22  and  C46_23 
REMARK       I    between atoms: C23_26  and  N22_28 
REMARK   12  A    between atoms: N22_28  and  C8_29 
REMARK   13  A    between atoms: C8_29  and  C9_30 
REMARK   14  A    between atoms: C8_29  and  C7_36 
REMARK   15  A    between atoms: C9_30  and  O21_31 
REMARK   16  A    between atoms: C9_30  and  C10_32 
REMARK   17  A    between atoms: C10_32  and  C11_33 
REMARK   18  A    between atoms: C10_32  and  C12_34 
REMARK   19  A    between atoms: C12_34  and  O13_35 
REMARK   20  A    between atoms: C7_36  and  C6_37 
ROOT
ATOM      1  C24 04C d   1      61.046-135.613  39.259  0.00  0.00     0.093 C 
ATOM      2  H18 04C d   1      60.329-134.845  39.584  0.00  0.00     0.088 H 
ENDROOT
BRANCH   1   3
ATOM      3  N25 04C d   1      61.374-135.401  37.841  0.00  0.00    -0.346 N 
ATOM      4  C26 04C d   1      60.932-134.319  37.183  0.00  0.00     0.240 C 
ATOM      5  O39 04C d   1      60.232-133.441  37.685  0.00  0.00    -0.271 OA
ATOM      6  H17 04C d   1      61.935-136.074  37.360  0.00  0.00     0.163 HD
BRANCH   4   7
ATOM      7  C27 04C d   1      61.339-134.228  35.716  0.00  0.00     0.086 C 
ATOM      8  H13 04C d   1      61.617-135.223  35.337  0.00  0.00     0.086 H 
BRANCH   7   9
ATOM      9  N28 04C d   1      60.195-133.701  34.967  0.00  0.00    -0.347 N 
ATOM     10  C29 04C d   1      59.205-134.483  34.507  0.00  0.00     0.244 C 
ATOM     11  O37 04C d   1      59.164-135.707  34.630  0.00  0.00    -0.272 OA
ATOM     12  H12 04C d   1      60.150-132.718  34.791  0.00  0.00     0.163 HD
BRANCH  10  13
ATOM     13  C30 04C d   1      58.090-133.727  33.768  0.00  0.00     0.156 C 
ATOM     14  H1  04C d   1      58.070-134.024  32.709  0.00  0.00     0.090 H 
ATOM     15  H2  04C d   1      58.257-132.642  33.841  0.00  0.00     0.090 H 
BRANCH  13  16
ATOM     16  N31 04C d   1      56.827-134.085  34.413  0.00  0.00    -0.059 N 
ATOM     17  C36 04C d   1      55.749-133.888  33.413  0.00  0.00     0.103 C 
ATOM     18  C35 04C d   1      54.419-133.983  34.073  0.00  0.00     0.042 C 
ATOM     19  H4  04C d   1      55.826-134.663  32.636  0.00  0.00     0.079 H 
ATOM     20  H5  04C d   1      55.857-132.895  32.952  0.00  0.00     0.079 H 
ATOM     21  O34 04C d   1      54.346-133.081  35.191  0.00  0.00    -0.388 OA
ATOM     22  H8  04C d   1      53.635-133.723  33.346  0.00  0.00     0.076 H 
ATOM     23  H9  04C d   1      54.264-135.013  34.428  0.00  0.00     0.076 H 
ATOM     24  C33 04C d   1      55.284-133.415  36.232  0.00  0.00     0.042 C 
ATOM     25  C32 04C d   1      56.635-133.246  35.618  0.00  0.00     0.103 C 
ATOM     26  H10 04C d   1      55.139-134.454  36.562  0.00  0.00     0.076 H 
ATOM     27  H11 04C d   1      55.164-132.737  37.090  0.00  0.00     0.076 H 
ATOM     28  H6  04C d   1      56.763-132.191  35.336  0.00  0.00     0.079 H 
ATOM     29  H7  04C d   1      57.396-133.521  36.363  0.00  0.00     0.079 H 
ATOM     30  H3  04C d   1      56.848-135.054  34.691  0.00  0.00     0.280 HD
ENDBRANCH  13  16
ENDBRANCH  10  13
ENDBRANCH   7   9
BRANCH   7  31
ATOM     31  C38 04C d   1      62.519-133.265  35.567  0.00  0.00    -0.049 C 
ATOM     32  H14 04C d   1      63.382-133.654  36.127  0.00  0.00     0.030 H 
ATOM     33  H15 04C d   1      62.239-132.278  35.964  0.00  0.00     0.030 H 
ATOM     34  H16 04C d   1      62.784-133.171  34.504  0.00  0.00     0.030 H 
ENDBRANCH   7  31
ENDBRANCH   4   7
ENDBRANCH   1   3
BRANCH   1  35
ATOM     35  C40 04C d   1      60.455-136.978  39.474  0.00  0.00    -0.014 C 
ATOM     36  H19 04C d   1      60.525-137.259  40.535  0.00  0.00     0.043 H 
ATOM     37  H20 04C d   1      60.986-137.722  38.862  0.00  0.00     0.043 H 
BRANCH  35  38
ATOM     38  C41 04C d   1      59.120-136.900  39.085  0.00  0.00    -0.056 A 
ATOM     39  C48 04C d   1      58.752-137.162  37.768  0.00  0.00    -0.074 A 
ATOM     40  C47 04C d   1      57.418-137.089  37.384  0.00  0.00    -0.050 A 
ATOM     41  H21 04C d   1      59.510-137.424  37.038  0.00  0.00     0.084 H 
ATOM     42  C44 04C d   1      56.433-136.759  38.308  0.00  0.00     0.068 A 
ATOM     43  H22 04C d   1      57.143-137.291  36.355  0.00  0.00     0.087 H 
ATOM     44  C43 04C d   1      56.809-136.495  39.632  0.00  0.00    -0.050 A 
ATOM     45  C42 04C d   1      58.142-136.569  40.017  0.00  0.00    -0.074 A 
ATOM     46  H26 04C d   1      56.053-136.231  40.362  0.00  0.00     0.087 H 
ATOM     47  H27 04C d   1      58.420-136.369  41.045  0.00  0.00     0.084 H 
BRANCH  42  48
ATOM     48  O45 04C d   1      55.145-136.707  37.845  0.00  0.00    -0.356 OA
BRANCH  48  49
ATOM     49  C46 04C d   1      54.051-136.516  38.777  0.00  0.00     0.010 C 
ATOM     50  H23 04C d   1      53.099-136.501  38.227  0.00  0.00     0.066 H 
ATOM     51  H24 04C d   1      54.183-135.561  39.307  0.00  0.00     0.066 H 
ATOM     52  H25 04C d   1      54.041-137.341  39.504  0.00  0.00     0.066 H 
ENDBRANCH  48  49
ENDBRANCH  42  48
ENDBRANCH  35  38
ENDBRANCH   1  35
BRANCH   1  53
ATOM     53  C23 04C d   1      62.318-135.521  40.095  0.00  0.00     0.241 C 
ATOM     54  O49 04C d   1      63.431-135.603  39.577  0.00  0.00    -0.271 OA
ATOM     55  N22 04C d   1      62.082-135.377  41.404  0.00  0.00    -0.352 N 
ATOM     56  H28 04C d   1      61.132-135.367  41.717  0.00  0.00     0.163 HD
BRANCH  55  57
ATOM     57  C8  04C d   1      63.141-135.234  42.398  0.00  0.00     0.041 C 
ATOM     58  H29 04C d   1      64.127-135.319  41.918  0.00  0.00     0.076 H 
BRANCH  57  59
ATOM     59  C9  04C d   1      62.997-136.286  43.518  0.00  0.00     0.060 C 
ATOM     60  H30 04C d   1      63.681-135.979  44.323  0.00  0.00     0.086 H 
BRANCH  59  61
ATOM     61  O21 04C d   1      61.657-136.245  44.031  0.00  0.00    -0.393 OA
ATOM     62  H31 04C d   1      61.563-136.891  44.721  0.00  0.00     0.210 HD
ENDBRANCH  59  61
BRANCH  59  63
ATOM     63  C10 04C d   1      63.375-137.806  43.155  0.00  0.00    -0.010 C 
ATOM     64  H32 04C d   1      63.778-138.315  44.043  0.00  0.00     0.046 H 
BRANCH  63  65
ATOM     65  C11 04C d   1      64.426-137.871  41.989  0.00  0.00    -0.069 C 
ATOM     66  H33 04C d   1      64.662-138.922  41.766  0.00  0.00     0.028 H 
ATOM     67  H34 04C d   1      65.344-137.346  42.293  0.00  0.00     0.028 H 
ATOM     68  H35 04C d   1      64.008-137.391  41.092  0.00  0.00     0.028 H 
ENDBRANCH  63  65
BRANCH  63  69
ATOM     69  C12 04C d   1      62.078-138.483  42.689  0.00  0.00     0.022 C 
ATOM     70  H36 04C d   1      61.471-137.771  42.111  0.00  0.00     0.074 H 
ATOM     71  H37 04C d   1      61.504-138.832  43.560  0.00  0.00     0.074 H 
BRANCH  69  72
ATOM     72  O13 04C d   1      62.440-139.601  41.863  0.00  0.00    -0.400 OA
ATOM     73  H38 04C d   1      62.939-139.293  41.116  0.00  0.00     0.209 HD
ENDBRANCH  69  72
ENDBRANCH  63  69
ENDBRANCH  59  63
ENDBRANCH  57  59
BRANCH  57  74
ATOM     74  C7  04C d   1      62.965-133.871  43.051  0.00  0.00    -0.020 C 
ATOM     75  H39 04C d   1      63.262-133.954  44.107  0.00  0.00     0.043 H 
ATOM     76  H40 04C d   1      61.902-133.595  42.990  0.00  0.00     0.043 H 
BRANCH  74  77
ATOM     77  C6  04C d   1      63.725-132.836  42.458  0.00  0.00    -0.056 A 
ATOM     78  C5  04C d   1      64.451-132.942  41.263  0.00  0.00    -0.077 A 
ATOM     79  C4  04C d   1      65.150-131.844  40.765  0.00  0.00    -0.082 A 
ATOM     80  H41 04C d   1      64.469-133.882  40.724  0.00  0.00     0.084 H 
ATOM     81  C3  04C d   1      65.131-130.627  41.442  0.00  0.00    -0.083 A 
ATOM     82  H42 04C d   1      65.713-131.938  39.843  0.00  0.00     0.083 H 
ATOM     83  C2  04C d   1      64.408-130.505  42.624  0.00  0.00    -0.082 A 
ATOM     84  H43 04C d   1      65.678-129.778  41.049  0.00  0.00     0.083 H 
ATOM     85  C1  04C d   1      63.712-131.604  43.119  0.00  0.00    -0.077 A 
ATOM     86  H44 04C d   1      64.387-129.561  43.156  0.00  0.00     0.083 H 
ATOM     87  H45 04C d   1      63.147-131.502  44.038  0.00  0.00     0.084 H 
ENDBRANCH  74  77
ENDBRANCH  57  74
ENDBRANCH  55  57
ENDBRANCH   1  53
TORSDOF 20
