REMARK  20 active torsions:
REMARK  status: ('A' for Active; 'I' for Inactive)
REMARK    1  A    between atoms: C30_3  and  C29_1 
REMARK       I    between atoms: C29_1  and  N28_10 
REMARK    2  A    between atoms: N31_4  and  C30_3 
REMARK    3  A    between atoms: N28_10  and  C27_11 
REMARK    4  A    between atoms: C27_11  and  C26_12 
REMARK    5  A    between atoms: C27_11  and  C38_14 
REMARK       I    between atoms: C26_12  and  N25_15 
REMARK    6  A    between atoms: N25_15  and  C24_16 
REMARK    7  A    between atoms: C24_16  and  C40_17 
REMARK    8  A    between atoms: C24_16  and  C23_26 
REMARK    9  A    between atoms: C40_17  and  C41_18 
REMARK   10  A    between atoms: C44_21  and  O45_22 
REMARK   11  A    between atoms: O45_22  and  C46_23 
REMARK       I    between atoms: C23_26  and  N22_28 
REMARK   12  A    between atoms: N22_28  and  C8_29 
REMARK   13  A    between atoms: C8_29  and  C9_30 
REMARK   14  A    between atoms: C8_29  and  C7_36 
REMARK   15  A    between atoms: C9_30  and  O21_31 
REMARK   16  A    between atoms: C9_30  and  C10_32 
REMARK   17  A    between atoms: C10_32  and  C11_33 
REMARK   18  A    between atoms: C10_32  and  C12_34 
REMARK   19  A    between atoms: C12_34  and  O13_35 
REMARK   20  A    between atoms: C7_36  and  C6_37 
ROOT
ATOM      1  C24 04C d   1      61.186-135.818  39.973  0.00  0.00     0.093 C 
ATOM      2  H18 04C d   1      60.454-135.081  40.335  0.00  0.00     0.088 H 
ENDROOT
BRANCH   1   3
ATOM      3  N25 04C d   1      61.506-135.556  38.566  0.00  0.00    -0.346 N 
ATOM      4  C26 04C d   1      61.045-134.475  37.920  0.00  0.00     0.240 C 
ATOM      5  O39 04C d   1      60.316-133.618  38.421  0.00  0.00    -0.271 OA
ATOM      6  H17 04C d   1      62.086-136.204  38.073  0.00  0.00     0.163 HD
BRANCH   4   7
ATOM      7  C27 04C d   1      61.477-134.376  36.457  0.00  0.00     0.086 C 
ATOM      8  H13 04C d   1      61.794-135.366  36.097  0.00  0.00     0.086 H 
BRANCH   7   9
ATOM      9  N28 04C d   1      60.323-133.912  35.673  0.00  0.00    -0.347 N 
ATOM     10  C29 04C d   1      59.539-134.765  34.987  0.00  0.00     0.244 C 
ATOM     11  O37 04C d   1      59.731-135.979  34.921  0.00  0.00    -0.272 OA
ATOM     12  H12 04C d   1      60.114-132.934  35.648  0.00  0.00     0.163 HD
BRANCH  10  13
ATOM     13  C30 04C d   1      58.365-134.118  34.230  0.00  0.00     0.156 C 
ATOM     14  H1  04C d   1      58.373-134.440  33.178  0.00  0.00     0.090 H 
ATOM     15  H2  04C d   1      58.446-133.022  34.278  0.00  0.00     0.090 H 
BRANCH  13  16
ATOM     16  N31 04C d   1      57.125-134.557  34.878  0.00  0.00    -0.059 N 
ATOM     17  C36 04C d   1      56.890-133.754  36.103  0.00  0.00     0.103 C 
ATOM     18  C35 04C d   1      55.572-134.051  36.747  0.00  0.00     0.042 C 
ATOM     19  H4  04C d   1      56.918-132.688  35.835  0.00  0.00     0.079 H 
ATOM     20  H5  04C d   1      57.691-133.972  36.825  0.00  0.00     0.079 H 
ATOM     21  O34 04C d   1      54.585-133.772  35.726  0.00  0.00    -0.388 OA
ATOM     22  H8  04C d   1      55.522-135.106  37.056  0.00  0.00     0.076 H 
ATOM     23  H9  04C d   1      55.415-133.405  37.623  0.00  0.00     0.076 H 
ATOM     24  C33 04C d   1      54.717-134.631  34.574  0.00  0.00     0.042 C 
ATOM     25  C32 04C d   1      56.019-134.392  33.896  0.00  0.00     0.103 C 
ATOM     26  H10 04C d   1      53.898-134.422  33.870  0.00  0.00     0.076 H 
ATOM     27  H11 04C d   1      54.664-135.681  34.897  0.00  0.00     0.076 H 
ATOM     28  H6  04C d   1      56.145-135.115  33.077  0.00  0.00     0.079 H 
ATOM     29  H7  04C d   1      56.039-133.370  33.489  0.00  0.00     0.079 H 
ATOM     30  H3  04C d   1      57.201-135.529  35.134  0.00  0.00     0.280 HD
ENDBRANCH  13  16
ENDBRANCH  10  13
ENDBRANCH   7   9
BRANCH   7  31
ATOM     31  C38 04C d   1      62.643-133.393  36.320  0.00  0.00    -0.049 C 
ATOM     32  H14 04C d   1      63.498-133.753  36.911  0.00  0.00     0.030 H 
ATOM     33  H15 04C d   1      62.334-132.404  36.688  0.00  0.00     0.030 H 
ATOM     34  H16 04C d   1      62.935-133.316  35.262  0.00  0.00     0.030 H 
ENDBRANCH   7  31
ENDBRANCH   4   7
ENDBRANCH   1   3
BRANCH   1  35
ATOM     35  C40 04C d   1      60.614-137.208  40.115  0.00  0.00    -0.014 C 
ATOM     36  H19 04C d   1      60.756-137.574  41.142  0.00  0.00     0.043 H 
ATOM     37  H20 04C d   1      61.105-137.895  39.410  0.00  0.00     0.043 H 
BRANCH  35  38
ATOM     38  C41 04C d   1      59.243-137.107  39.820  0.00  0.00    -0.056 A 
ATOM     39  C48 04C d   1      58.287-137.141  40.840  0.00  0.00    -0.074 A 
ATOM     40  C47 04C d   1      56.929-137.045  40.537  0.00  0.00    -0.050 A 
ATOM     41  H21 04C d   1      58.603-137.243  41.872  0.00  0.00     0.084 H 
ATOM     42  C44 04C d   1      56.512-136.917  39.213  0.00  0.00     0.068 A 
ATOM     43  H22 04C d   1      56.195-137.070  41.334  0.00  0.00     0.087 H 
ATOM     44  C43 04C d   1      57.464-136.880  38.195  0.00  0.00    -0.050 A 
ATOM     45  C42 04C d   1      58.818-136.980  38.497  0.00  0.00    -0.074 A 
ATOM     46  H26 04C d   1      57.148-136.773  37.164  0.00  0.00     0.087 H 
ATOM     47  H27 04C d   1      59.550-136.959  37.697  0.00  0.00     0.084 H 
BRANCH  42  48
ATOM     48  O45 04C d   1      55.181-136.823  38.921  0.00  0.00    -0.356 OA
BRANCH  48  49
ATOM     49  C46 04C d   1      54.716-137.857  38.033  0.00  0.00     0.010 C 
ATOM     50  H23 04C d   1      53.641-137.720  37.842  0.00  0.00     0.066 H 
ATOM     51  H24 04C d   1      54.884-138.841  38.496  0.00  0.00     0.066 H 
ATOM     52  H25 04C d   1      55.267-137.800  37.083  0.00  0.00     0.066 H 
ENDBRANCH  48  49
ENDBRANCH  42  48
ENDBRANCH  35  38
ENDBRANCH   1  35
BRANCH   1  53
ATOM     53  C23 04C d   1      62.483-135.701  40.774  0.00  0.00     0.241 C 
ATOM     54  O49 04C d   1      63.571-135.673  40.196  0.00  0.00    -0.271 OA
ATOM     55  N22 04C d   1      62.319-135.627  42.106  0.00  0.00    -0.352 N 
ATOM     56  H28 04C d   1      61.394-135.676  42.484  0.00  0.00     0.163 HD
BRANCH  55  57
ATOM     57  C8  04C d   1      63.456-135.476  43.024  0.00  0.00     0.041 C 
ATOM     58  H29 04C d   1      64.394-135.582  42.459  0.00  0.00     0.076 H 
BRANCH  57  59
ATOM     59  C9  04C d   1      63.421-136.523  44.166  0.00  0.00     0.060 C 
ATOM     60  H30 04C d   1      64.152-136.197  44.921  0.00  0.00     0.086 H 
BRANCH  59  61
ATOM     61  O21 04C d   1      62.111-136.508  44.764  0.00  0.00    -0.393 OA
ATOM     62  H31 04C d   1      61.933-135.642  45.113  0.00  0.00     0.210 HD
ENDBRANCH  59  61
BRANCH  59  63
ATOM     63  C10 04C d   1      63.798-138.025  43.778  0.00  0.00    -0.010 C 
ATOM     64  H32 04C d   1      64.215-138.544  44.654  0.00  0.00     0.046 H 
BRANCH  63  65
ATOM     65  C11 04C d   1      64.834-138.077  42.593  0.00  0.00    -0.069 C 
ATOM     66  H33 04C d   1      65.068-139.125  42.356  0.00  0.00     0.028 H 
ATOM     67  H34 04C d   1      65.755-137.554  42.888  0.00  0.00     0.028 H 
ATOM     68  H35 04C d   1      64.403-137.588  41.707  0.00  0.00     0.028 H 
ENDBRANCH  63  65
BRANCH  63  69
ATOM     69  C12 04C d   1      62.499-138.702  43.320  0.00  0.00     0.022 C 
ATOM     70  H36 04C d   1      61.921-138.015  42.684  0.00  0.00     0.074 H 
ATOM     71  H37 04C d   1      61.896-138.989  44.194  0.00  0.00     0.074 H 
BRANCH  69  72
ATOM     72  O13 04C d   1      62.866-139.870  42.573  0.00  0.00    -0.400 OA
ATOM     73  H38 04C d   1      62.081-140.313  42.274  0.00  0.00     0.209 HD
ENDBRANCH  69  72
ENDBRANCH  63  69
ENDBRANCH  59  63
ENDBRANCH  57  59
BRANCH  57  74
ATOM     74  C7  04C d   1      63.383-134.092  43.667  0.00  0.00    -0.020 C 
ATOM     75  H39 04C d   1      63.803-134.159  44.681  0.00  0.00     0.043 H 
ATOM     76  H40 04C d   1      62.326-133.794  43.727  0.00  0.00     0.043 H 
BRANCH  74  77
ATOM     77  C6  04C d   1      64.091-133.087  42.957  0.00  0.00    -0.056 A 
ATOM     78  C5  04C d   1      63.918-131.771  43.401  0.00  0.00    -0.077 A 
ATOM     79  C4  04C d   1      64.562-130.702  42.780  0.00  0.00    -0.082 A 
ATOM     80  H41 04C d   1      63.268-131.579  44.247  0.00  0.00     0.084 H 
ATOM     81  C3  04C d   1      65.399-130.937  41.693  0.00  0.00    -0.083 A 
ATOM     82  H42 04C d   1      64.412-129.691  43.142  0.00  0.00     0.083 H 
ATOM     83  C2  04C d   1      65.586-132.239  41.236  0.00  0.00    -0.082 A 
ATOM     84  H43 04C d   1      65.903-130.111  41.205  0.00  0.00     0.083 H 
ATOM     85  C1  04C d   1      64.941-133.306  41.860  0.00  0.00    -0.077 A 
ATOM     86  H44 04C d   1      66.237-132.424  40.389  0.00  0.00     0.083 H 
ATOM     87  H45 04C d   1      65.097-134.315  41.495  0.00  0.00     0.084 H 
ENDBRANCH  74  77
ENDBRANCH  57  74
ENDBRANCH  55  57
ENDBRANCH   1  53
TORSDOF 20
