REMARK  11 active torsions:
REMARK  status: ('A' for Active; 'I' for Inactive)
REMARK    1  A    between atoms: CAV_22  and  CAA_1 
REMARK    2  A    between atoms: CAX_24  and  CAB_2 
REMARK    3  A    between atoms: CAY_25  and  CAC_3 
REMARK    4  A    between atoms: CBE_31  and  CAD_4 
REMARK    5  A    between atoms: CBE_31  and  CAE_5 
REMARK    6  A    between atoms: CBE_31  and  CAF_6 
REMARK    7  A    between atoms: CAM_13  and  CAS_19 
REMARK    8  A    between atoms: CBC_29  and  CAM_13 
REMARK    9  A    between atoms: CAS_19  and  OAQ_17 
REMARK   10  A    between atoms: OAQ_17  and  CBE_31 
REMARK   11  A    between atoms: CAT_20  and  CAW_23 
ROOT
ATOM      1  NAN JQ1 d   1      11.262  -6.263  -2.860  0.00  0.00    -0.275 NA
ATOM      2  NAO JQ1 d   1      13.452  -4.188   0.231  0.00  0.00    -0.135 NA
ATOM      3  NAP JQ1 d   1      13.663  -5.088  -0.718  0.00  0.00    -0.132 NA
ATOM      4  SAR JQ1 d   1       9.394  -6.067   1.388  0.00  0.00    -0.075 SA
ATOM      5  CAT JQ1 d   1      10.010  -6.137  -2.567  0.00  0.00     0.075 C 
ATOM      6  CAV JQ1 d   1      12.157  -4.277   0.605  0.00  0.00     0.131 A 
ATOM      7  CAX JQ1 d   1       8.018  -6.767   0.555  0.00  0.00    -0.012 A 
ATOM      8  CAY JQ1 d   1       8.273  -6.824  -0.826  0.00  0.00    -0.034 A 
ATOM      9  CAZ JQ1 d   1      12.534  -5.778  -0.914  0.00  0.00     0.161 A 
ATOM     10  CBA JQ1 d   1       9.542  -6.260  -1.213  0.00  0.00     0.035 A 
ATOM     11  CBB JQ1 d   1      10.299  -5.790  -0.104  0.00  0.00     0.097 A 
ATOM     12  CBC JQ1 d   1      12.225  -6.794  -1.955  0.00  0.00     0.101 C 
ATOM     13  NBD JQ1 d   1      11.574  -5.265  -0.118  0.00  0.00    -0.275 N 
ATOM     14  H   JQ1 d   1      11.763  -7.652  -1.444  0.00  0.00     0.089 H 
ENDROOT
BRANCH  12  15
ATOM     15  CAM JQ1 d   1      13.481  -7.340  -2.699  0.00  0.00     0.043 C 
ATOM     16  H   JQ1 d   1      14.033  -6.501  -3.148  0.00  0.00     0.051 H 
ATOM     17  H   JQ1 d   1      14.130  -7.864  -1.982  0.00  0.00     0.051 H 
BRANCH  15  18
ATOM     18  CAS JQ1 d   1      13.073  -8.267  -3.749  0.00  0.00     0.262 C 
ATOM     19  OAG JQ1 d   1      13.577  -8.236  -4.894  0.00  0.00    -0.265 OA
BRANCH  18  20
ATOM     20  OAQ JQ1 d   1      12.063  -9.114  -3.477  0.00  0.00    -0.311 OA
BRANCH  20  21
ATOM     21  CBE JQ1 d   1      11.423 -10.033  -4.385  0.00  0.00     0.060 C 
BRANCH  21  22
ATOM     22  CAD JQ1 d   1      10.365 -10.815  -3.547  0.00  0.00    -0.048 C 
ATOM     23  H   JQ1 d   1       9.843 -11.535  -4.195  0.00  0.00     0.031 H 
ATOM     24  H   JQ1 d   1       9.636 -10.108  -3.124  0.00  0.00     0.031 H 
ATOM     25  H   JQ1 d   1      10.869 -11.354  -2.731  0.00  0.00     0.031 H 
ENDBRANCH  21  22
BRANCH  21  26
ATOM     26  CAE JQ1 d   1      12.418 -11.033  -5.048  0.00  0.00    -0.048 C 
ATOM     27  H   JQ1 d   1      13.161 -10.475  -5.637  0.00  0.00     0.031 H 
ATOM     28  H   JQ1 d   1      11.865 -11.717  -5.709  0.00  0.00     0.031 H 
ATOM     29  H   JQ1 d   1      12.931 -11.613  -4.266  0.00  0.00     0.031 H 
ENDBRANCH  21  26
BRANCH  21  30
ATOM     30  CAF JQ1 d   1      10.728  -9.172  -5.467  0.00  0.00    -0.048 C 
ATOM     31  H   JQ1 d   1      10.030  -8.472  -4.986  0.00  0.00     0.031 H 
ATOM     32  H   JQ1 d   1      10.174  -9.826  -6.156  0.00  0.00     0.031 H 
ATOM     33  H   JQ1 d   1      11.486  -8.606  -6.028  0.00  0.00     0.031 H 
ENDBRANCH  21  30
ENDBRANCH  20  21
ENDBRANCH  18  20
ENDBRANCH  15  18
ENDBRANCH  12  15
BRANCH   5  34
ATOM     34  CAW JQ1 d   1       9.164  -5.566  -3.570  0.00  0.00    -0.007 A 
ATOM     35  CAK JQ1 d   1       7.982  -4.843  -3.228  0.00  0.00    -0.069 A 
ATOM     36  CAI JQ1 d   1       7.122  -4.278  -4.193  0.00  0.00    -0.061 A 
ATOM     37  H   JQ1 d   1       7.734  -4.723  -2.180  0.00  0.00     0.085 H 
ATOM     38  CAU JQ1 d   1       7.447  -4.408  -5.556  0.00  0.00     0.034 A 
ATOM     39  H   JQ1 d   1       6.224  -3.752  -3.889  0.00  0.00     0.086 H 
ATOM     40 CLAH JQ1 d   1       6.418  -3.756  -6.746  0.00  0.00    -0.084 Cl
ATOM     41  CAJ JQ1 d   1       8.612  -5.117  -5.926  0.00  0.00    -0.061 A 
ATOM     42  CAL JQ1 d   1       9.459  -5.688  -4.954  0.00  0.00    -0.069 A 
ATOM     43  H   JQ1 d   1       8.859  -5.224  -6.976  0.00  0.00     0.086 H 
ATOM     44  H   JQ1 d   1      10.346  -6.227  -5.267  0.00  0.00     0.085 H 
ENDBRANCH   5  34
BRANCH   6  45
ATOM     45  CAA JQ1 d   1      11.571  -3.384   1.637  0.00  0.00    -0.019 C 
ATOM     46  H   JQ1 d   1      12.346  -2.699   2.012  0.00  0.00     0.037 H 
ATOM     47  H   JQ1 d   1      11.183  -3.990   2.469  0.00  0.00     0.037 H 
ATOM     48  H   JQ1 d   1      10.750  -2.801   1.194  0.00  0.00     0.037 H 
ENDBRANCH   6  45
BRANCH   8  49
ATOM     49  CAC JQ1 d   1       7.243  -7.423  -1.740  0.00  0.00    -0.049 C 
ATOM     50  H   JQ1 d   1       6.383  -7.767  -1.147  0.00  0.00     0.033 H 
ATOM     51  H   JQ1 d   1       7.682  -8.276  -2.279  0.00  0.00     0.033 H 
ATOM     52  H   JQ1 d   1       6.910  -6.665  -2.464  0.00  0.00     0.033 H 
ENDBRANCH   8  49
BRANCH   7  53
ATOM     53  CAB JQ1 d   1       6.833  -7.243   1.304  0.00  0.00    -0.045 C 
ATOM     54  H   JQ1 d   1       6.090  -7.643   0.599  0.00  0.00     0.034 H 
ATOM     55  H   JQ1 d   1       6.393  -6.405   1.865  0.00  0.00     0.034 H 
ATOM     56  H   JQ1 d   1       7.136  -8.034   2.005  0.00  0.00     0.034 H 
ENDBRANCH   7  53
TORSDOF 11
