REMARK  20 active torsions:
REMARK  status: ('A' for Active; 'I' for Inactive)
REMARK    1  A    between atoms: C30_3  and  C29_1 
REMARK       I    between atoms: C29_1  and  N28_10 
REMARK    2  A    between atoms: N31_4  and  C30_3 
REMARK    3  A    between atoms: N28_10  and  C27_11 
REMARK    4  A    between atoms: C27_11  and  C26_12 
REMARK    5  A    between atoms: C27_11  and  C38_14 
REMARK       I    between atoms: C26_12  and  N25_15 
REMARK    6  A    between atoms: N25_15  and  C24_16 
REMARK    7  A    between atoms: C24_16  and  C40_17 
REMARK    8  A    between atoms: C24_16  and  C23_26 
REMARK    9  A    between atoms: C40_17  and  C41_18 
REMARK   10  A    between atoms: C44_21  and  O45_22 
REMARK   11  A    between atoms: O45_22  and  C46_23 
REMARK       I    between atoms: C23_26  and  N22_28 
REMARK   12  A    between atoms: N22_28  and  C8_29 
REMARK   13  A    between atoms: C8_29  and  C9_30 
REMARK   14  A    between atoms: C8_29  and  C7_36 
REMARK   15  A    between atoms: C9_30  and  O21_31 
REMARK   16  A    between atoms: C9_30  and  C10_32 
REMARK   17  A    between atoms: C10_32  and  C11_33 
REMARK   18  A    between atoms: C10_32  and  C12_34 
REMARK   19  A    between atoms: C12_34  and  O13_35 
REMARK   20  A    between atoms: C7_36  and  C6_37 
ROOT
ATOM      1  C24 04C d   1      61.391-135.829  39.261  0.00  0.00     0.093 C 
ATOM      2  H18 04C d   1      60.669-135.067  39.590  0.00  0.00     0.088 H 
ENDROOT
BRANCH   1   3
ATOM      3  N25 04C d   1      61.753-135.596  37.861  0.00  0.00    -0.346 N 
ATOM      4  C26 04C d   1      61.213-134.594  37.158  0.00  0.00     0.240 C 
ATOM      5  O39 04C d   1      60.361-133.818  37.591  0.00  0.00    -0.271 OA
ATOM      6  H17 04C d   1      62.418-136.199  37.421  0.00  0.00     0.163 HD
BRANCH   4   7
ATOM      7  C27 04C d   1      61.736-134.466  35.730  0.00  0.00     0.086 C 
ATOM      8  H13 04C d   1      62.075-135.447  35.365  0.00  0.00     0.086 H 
BRANCH   7   9
ATOM      9  N28 04C d   1      60.647-133.971  34.884  0.00  0.00    -0.347 N 
ATOM     10  C29 04C d   1      59.709-134.793  34.391  0.00  0.00     0.244 C 
ATOM     11  O37 04C d   1      59.673-136.007  34.588  0.00  0.00    -0.272 OA
ATOM     12  H12 04C d   1      60.602-132.995  34.669  0.00  0.00     0.163 HD
BRANCH  10  13
ATOM     13  C30 04C d   1      58.626-134.105  33.552  0.00  0.00     0.156 C 
ATOM     14  H1  04C d   1      58.625-134.502  32.526  0.00  0.00     0.090 H 
ATOM     15  H2  04C d   1      58.794-133.018  33.525  0.00  0.00     0.090 H 
BRANCH  13  16
ATOM     16  N31 04C d   1      57.361-134.409  34.217  0.00  0.00    -0.059 N 
ATOM     17  C36 04C d   1      56.259-134.196  33.244  0.00  0.00     0.103 C 
ATOM     18  C35 04C d   1      54.953-134.337  33.945  0.00  0.00     0.042 C 
ATOM     19  H4  04C d   1      56.328-134.944  32.441  0.00  0.00     0.079 H 
ATOM     20  H5  04C d   1      56.338-133.187  32.813  0.00  0.00     0.079 H 
ATOM     21  O34 04C d   1      54.896-133.469  35.086  0.00  0.00    -0.388 OA
ATOM     22  H8  04C d   1      54.140-134.076  33.251  0.00  0.00     0.076 H 
ATOM     23  H9  04C d   1      54.831-135.379  34.277  0.00  0.00     0.076 H 
ATOM     24  C33 04C d   1      55.895-133.792  36.078  0.00  0.00     0.042 C 
ATOM     25  C32 04C d   1      57.199-133.540  35.404  0.00  0.00     0.103 C 
ATOM     26  H10 04C d   1      55.813-134.846  36.381  0.00  0.00     0.076 H 
ATOM     27  H11 04C d   1      55.785-133.147  36.962  0.00  0.00     0.076 H 
ATOM     28  H6  04C d   1      57.242-132.487  35.087  0.00  0.00     0.079 H 
ATOM     29  H7  04C d   1      58.015-133.744  36.113  0.00  0.00     0.079 H 
ATOM     30  H3  04C d   1      57.360-135.372  34.514  0.00  0.00     0.280 HD
ENDBRANCH  13  16
ENDBRANCH  10  13
ENDBRANCH   7   9
BRANCH   7  31
ATOM     31  C38 04C d   1      62.908-133.477  35.710  0.00  0.00    -0.049 C 
ATOM     32  H14 04C d   1      63.720-133.857  36.348  0.00  0.00     0.030 H 
ATOM     33  H15 04C d   1      62.571-132.501  36.089  0.00  0.00     0.030 H 
ATOM     34  H16 04C d   1      63.274-133.363  34.679  0.00  0.00     0.030 H 
ENDBRANCH   7  31
ENDBRANCH   4   7
ENDBRANCH   1   3
BRANCH   1  35
ATOM     35  C40 04C d   1      60.812-137.197  39.464  0.00  0.00    -0.014 C 
ATOM     36  H19 04C d   1      60.930-137.501  40.514  0.00  0.00     0.043 H 
ATOM     37  H20 04C d   1      61.324-137.921  38.813  0.00  0.00     0.043 H 
BRANCH  35  38
ATOM     38  C41 04C d   1      59.458-137.138  39.136  0.00  0.00    -0.056 A 
ATOM     39  C48 04C d   1      59.048-137.409  37.834  0.00  0.00    -0.074 A 
ATOM     40  C47 04C d   1      57.698-137.366  37.502  0.00  0.00    -0.050 A 
ATOM     41  H21 04C d   1      59.783-137.654  37.076  0.00  0.00     0.084 H 
ATOM     42  C44 04C d   1      56.736-137.054  38.459  0.00  0.00     0.068 A 
ATOM     43  H22 04C d   1      57.391-137.578  36.484  0.00  0.00     0.087 H 
ATOM     44  C43 04C d   1      57.151-136.790  39.771  0.00  0.00    -0.050 A 
ATOM     45  C42 04C d   1      58.502-136.833  40.105  0.00  0.00    -0.074 A 
ATOM     46  H26 04C d   1      56.416-136.551  40.531  0.00  0.00     0.087 H 
ATOM     47  H27 04C d   1      58.812-136.628  41.123  0.00  0.00     0.084 H 
BRANCH  42  48
ATOM     48  O45 04C d   1      55.430-137.044  38.038  0.00  0.00    -0.356 OA
BRANCH  48  49
ATOM     49  C46 04C d   1      54.401-136.455  38.852  0.00  0.00     0.010 C 
ATOM     50  H23 04C d   1      53.431-136.548  38.341  0.00  0.00     0.066 H 
ATOM     51  H24 04C d   1      54.628-135.391  39.017  0.00  0.00     0.066 H 
ATOM     52  H25 04C d   1      54.357-136.975  39.820  0.00  0.00     0.066 H 
ENDBRANCH  48  49
ENDBRANCH  42  48
ENDBRANCH  35  38
ENDBRANCH   1  35
BRANCH   1  53
ATOM     53  C23 04C d   1      62.670-135.750  40.088  0.00  0.00     0.241 C 
ATOM     54  O49 04C d   1      63.783-135.803  39.560  0.00  0.00    -0.271 OA
ATOM     55  N22 04C d   1      62.441-135.651  41.398  0.00  0.00    -0.352 N 
ATOM     56  H28 04C d   1      61.492-135.658  41.713  0.00  0.00     0.163 HD
BRANCH  55  57
ATOM     57  C8  04C d   1      63.494-135.533  42.396  0.00  0.00     0.041 C 
ATOM     58  H29 04C d   1      64.486-135.623  41.929  0.00  0.00     0.076 H 
BRANCH  57  59
ATOM     59  C9  04C d   1      63.302-136.612  43.487  0.00  0.00     0.060 C 
ATOM     60  H30 04C d   1      63.930-136.309  44.338  0.00  0.00     0.086 H 
BRANCH  59  61
ATOM     61  O21 04C d   1      61.923-136.605  43.914  0.00  0.00    -0.393 OA
ATOM     62  H31 04C d   1      61.706-135.750  44.266  0.00  0.00     0.210 HD
ENDBRANCH  59  61
BRANCH  59  63
ATOM     63  C10 04C d   1      63.711-138.128  43.132  0.00  0.00    -0.010 C 
ATOM     64  H32 04C d   1      64.145-138.615  44.018  0.00  0.00     0.046 H 
BRANCH  63  65
ATOM     65  C11 04C d   1      64.743-138.179  41.945  0.00  0.00    -0.069 C 
ATOM     66  H33 04C d   1      65.001-139.226  41.728  0.00  0.00     0.028 H 
ATOM     67  H34 04C d   1      65.653-137.628  42.226  0.00  0.00     0.028 H 
ATOM     68  H35 04C d   1      64.297-137.719  41.051  0.00  0.00     0.028 H 
ENDBRANCH  63  65
BRANCH  63  69
ATOM     69  C12 04C d   1      62.425-138.854  42.697  0.00  0.00     0.022 C 
ATOM     70  H36 04C d   1      61.726-138.141  42.236  0.00  0.00     0.074 H 
ATOM     71  H37 04C d   1      61.946-139.327  43.567  0.00  0.00     0.074 H 
BRANCH  69  72
ATOM     72  O13 04C d   1      62.810-139.856  41.740  0.00  0.00    -0.400 OA
ATOM     73  H38 04C d   1      63.228-139.438  40.996  0.00  0.00     0.209 HD
ENDBRANCH  69  72
ENDBRANCH  63  69
ENDBRANCH  59  63
ENDBRANCH  57  59
BRANCH  57  74
ATOM     74  C7  04C d   1      63.322-134.179  43.069  0.00  0.00    -0.020 C 
ATOM     75  H39 04C d   1      63.681-134.264  44.105  0.00  0.00     0.043 H 
ATOM     76  H40 04C d   1      62.250-133.932  43.071  0.00  0.00     0.043 H 
BRANCH  74  77
ATOM     77  C6  04C d   1      64.018-133.113  42.449  0.00  0.00    -0.056 A 
ATOM     78  C5  04C d   1      64.755-133.194  41.258  0.00  0.00    -0.077 A 
ATOM     79  C4  04C d   1      65.386-132.062  40.737  0.00  0.00    -0.082 A 
ATOM     80  H41 04C d   1      64.835-134.142  40.738  0.00  0.00     0.084 H 
ATOM     81  C3  04C d   1      65.290-130.831  41.383  0.00  0.00    -0.083 A 
ATOM     82  H42 04C d   1      65.957-132.142  39.819  0.00  0.00     0.083 H 
ATOM     83  C2  04C d   1      64.557-130.730  42.560  0.00  0.00    -0.082 A 
ATOM     84  H43 04C d   1      65.783-129.958  40.971  0.00  0.00     0.083 H 
ATOM     85  C1  04C d   1      63.931-131.865  43.078  0.00  0.00    -0.077 A 
ATOM     86  H44 04C d   1      64.472-129.778  43.071  0.00  0.00     0.083 H 
ATOM     87  H45 04C d   1      63.360-131.778  43.995  0.00  0.00     0.084 H 
ENDBRANCH  74  77
ENDBRANCH  57  74
ENDBRANCH  55  57
ENDBRANCH   1  53
TORSDOF 20
