REMARK  20 active torsions:
REMARK  status: ('A' for Active; 'I' for Inactive)
REMARK    1  A    between atoms: C30_3  and  C29_1 
REMARK       I    between atoms: C29_1  and  N28_10 
REMARK    2  A    between atoms: N31_4  and  C30_3 
REMARK    3  A    between atoms: N28_10  and  C27_11 
REMARK    4  A    between atoms: C27_11  and  C26_12 
REMARK    5  A    between atoms: C27_11  and  C38_14 
REMARK       I    between atoms: C26_12  and  N25_15 
REMARK    6  A    between atoms: N25_15  and  C24_16 
REMARK    7  A    between atoms: C24_16  and  C40_17 
REMARK    8  A    between atoms: C24_16  and  C23_26 
REMARK    9  A    between atoms: C40_17  and  C41_18 
REMARK   10  A    between atoms: C44_21  and  O45_22 
REMARK   11  A    between atoms: O45_22  and  C46_23 
REMARK       I    between atoms: C23_26  and  N22_28 
REMARK   12  A    between atoms: N22_28  and  C8_29 
REMARK   13  A    between atoms: C8_29  and  C9_30 
REMARK   14  A    between atoms: C8_29  and  C7_36 
REMARK   15  A    between atoms: C9_30  and  O21_31 
REMARK   16  A    between atoms: C9_30  and  C10_32 
REMARK   17  A    between atoms: C10_32  and  C11_33 
REMARK   18  A    between atoms: C10_32  and  C12_34 
REMARK   19  A    between atoms: C12_34  and  O13_35 
REMARK   20  A    between atoms: C7_36  and  C6_37 
ROOT
ATOM      1  C24 04C d   1      61.485-135.869  39.246  0.00  0.00     0.093 C 
ATOM      2  H18 04C d   1      60.781-135.113  39.626  0.00  0.00     0.088 H 
ENDROOT
BRANCH   1   3
ATOM      3  N25 04C d   1      61.777-135.610  37.832  0.00  0.00    -0.346 N 
ATOM      4  C26 04C d   1      61.235-134.573  37.179  0.00  0.00     0.240 C 
ATOM      5  O39 04C d   1      60.458-133.763  37.685  0.00  0.00    -0.271 OA
ATOM      6  H17 04C d   1      62.397-136.223  37.343  0.00  0.00     0.163 HD
BRANCH   4   7
ATOM      7  C27 04C d   1      61.639-134.461  35.708  0.00  0.00     0.086 C 
ATOM      8  H13 04C d   1      61.975-135.443  35.344  0.00  0.00     0.086 H 
BRANCH   7   9
ATOM      9  N28 04C d   1      60.464-134.029  34.937  0.00  0.00    -0.347 N 
ATOM     10  C29 04C d   1      59.582-134.914  34.439  0.00  0.00     0.244 C 
ATOM     11  O37 04C d   1      59.680-136.134  34.574  0.00  0.00    -0.272 OA
ATOM     12  H12 04C d   1      60.317-133.053  34.779  0.00  0.00     0.163 HD
BRANCH  10  13
ATOM     13  C30 04C d   1      58.391-134.305  33.679  0.00  0.00     0.156 C 
ATOM     14  H1  04C d   1      58.096-134.952  32.839  0.00  0.00     0.090 H 
ATOM     15  H2  04C d   1      58.645-133.304  33.300  0.00  0.00     0.090 H 
BRANCH  13  16
ATOM     16  N31 04C d   1      57.317-134.223  34.666  0.00  0.00    -0.059 N 
ATOM     17  C36 04C d   1      56.346-135.326  34.483  0.00  0.00     0.103 C 
ATOM     18  C35 04C d   1      55.208-135.139  35.415  0.00  0.00     0.042 C 
ATOM     19  H4  04C d   1      56.838-136.287  34.693  0.00  0.00     0.079 H 
ATOM     20  H5  04C d   1      55.977-135.322  33.447  0.00  0.00     0.079 H 
ATOM     21  O34 04C d   1      54.665-133.796  35.357  0.00  0.00    -0.388 OA
ATOM     22  H8  04C d   1      54.414-135.853  35.152  0.00  0.00     0.076 H 
ATOM     23  H9  04C d   1      55.554-135.337  36.440  0.00  0.00     0.076 H 
ATOM     24  C33 04C d   1      55.649-132.807  35.698  0.00  0.00     0.042 C 
ATOM     25  C32 04C d   1      56.668-132.907  34.626  0.00  0.00     0.103 C 
ATOM     26  H10 04C d   1      56.095-133.026  36.679  0.00  0.00     0.076 H 
ATOM     27  H11 04C d   1      55.200-131.803  35.715  0.00  0.00     0.076 H 
ATOM     28  H6  04C d   1      56.182-132.771  33.649  0.00  0.00     0.079 H 
ATOM     29  H7  04C d   1      57.426-132.123  34.771  0.00  0.00     0.079 H 
ATOM     30  H3  04C d   1      57.730-134.330  35.579  0.00  0.00     0.280 HD
ENDBRANCH  13  16
ENDBRANCH  10  13
ENDBRANCH   7   9
BRANCH   7  31
ATOM     31  C38 04C d   1      62.779-133.451  35.548  0.00  0.00    -0.049 C 
ATOM     32  H14 04C d   1      63.650-133.786  36.129  0.00  0.00     0.030 H 
ATOM     33  H15 04C d   1      62.451-132.467  35.914  0.00  0.00     0.030 H 
ATOM     34  H16 04C d   1      63.054-133.374  34.486  0.00  0.00     0.030 H 
ENDBRANCH   7  31
ENDBRANCH   4   7
ENDBRANCH   1   3
BRANCH   1  35
ATOM     35  C40 04C d   1      60.892-137.243  39.389  0.00  0.00    -0.014 C 
ATOM     36  H19 04C d   1      61.055-137.618  40.410  0.00  0.00     0.043 H 
ATOM     37  H20 04C d   1      61.357-137.930  38.667  0.00  0.00     0.043 H 
BRANCH  35  38
ATOM     38  C41 04C d   1      59.521-137.136  39.132  0.00  0.00    -0.056 A 
ATOM     39  C48 04C d   1      59.005-137.387  37.861  0.00  0.00    -0.074 A 
ATOM     40  C47 04C d   1      57.637-137.286  37.621  0.00  0.00    -0.050 A 
ATOM     41  H21 04C d   1      59.674-137.663  37.054  0.00  0.00     0.084 H 
ATOM     42  C44 04C d   1      56.764-136.945  38.657  0.00  0.00     0.068 A 
ATOM     43  H22 04C d   1      57.248-137.473  36.627  0.00  0.00     0.087 H 
ATOM     44  C43 04C d   1      57.285-136.695  39.923  0.00  0.00    -0.050 A 
ATOM     45  C42 04C d   1      58.650-136.795  40.164  0.00  0.00    -0.074 A 
ATOM     46  H26 04C d   1      56.618-136.419  40.731  0.00  0.00     0.087 H 
ATOM     47  H27 04C d   1      59.038-136.607  41.158  0.00  0.00     0.084 H 
BRANCH  42  48
ATOM     48  O45 04C d   1      55.410-136.823  38.483  0.00  0.00    -0.356 OA
BRANCH  48  49
ATOM     49  C46 04C d   1      54.761-137.801  37.648  0.00  0.00     0.010 C 
ATOM     50  H23 04C d   1      53.684-137.583  37.597  0.00  0.00     0.066 H 
ATOM     51  H24 04C d   1      54.912-138.804  38.073  0.00  0.00     0.066 H 
ATOM     52  H25 04C d   1      55.191-137.762  36.636  0.00  0.00     0.066 H 
ENDBRANCH  48  49
ENDBRANCH  42  48
ENDBRANCH  35  38
ENDBRANCH   1  35
BRANCH   1  53
ATOM     53  C23 04C d   1      62.787-135.824  40.050  0.00  0.00     0.241 C 
ATOM     54  O49 04C d   1      63.877-136.047  39.521  0.00  0.00    -0.271 OA
ATOM     55  N22 04C d   1      62.611-135.548  41.351  0.00  0.00    -0.352 N 
ATOM     56  H28 04C d   1      61.680-135.398  41.685  0.00  0.00     0.163 HD
BRANCH  55  57
ATOM     57  C8  04C d   1      63.718-135.456  42.306  0.00  0.00     0.041 C 
ATOM     58  H29 04C d   1      64.677-135.599  41.786  0.00  0.00     0.076 H 
BRANCH  57  59
ATOM     59  C9  04C d   1      63.553-136.505  43.434  0.00  0.00     0.060 C 
ATOM     60  H30 04C d   1      64.270-136.232  44.223  0.00  0.00     0.086 H 
BRANCH  59  61
ATOM     61  O21 04C d   1      62.243-136.382  43.962  0.00  0.00    -0.393 OA
ATOM     62  H31 04C d   1      62.124-135.506  44.309  0.00  0.00     0.210 HD
ENDBRANCH  59  61
BRANCH  59  63
ATOM     63  C10 04C d   1      63.838-138.031  43.079  0.00  0.00    -0.010 C 
ATOM     64  H32 04C d   1      64.190-138.569  43.971  0.00  0.00     0.046 H 
BRANCH  63  65
ATOM     65  C11 04C d   1      64.897-138.154  41.922  0.00  0.00    -0.069 C 
ATOM     66  H33 04C d   1      65.074-139.216  41.698  0.00  0.00     0.028 H 
ATOM     67  H34 04C d   1      65.840-137.684  42.237  0.00  0.00     0.028 H 
ATOM     68  H35 04C d   1      64.517-137.648  41.022  0.00  0.00     0.028 H 
ENDBRANCH  63  65
BRANCH  63  69
ATOM     69  C12 04C d   1      62.523-138.623  42.567  0.00  0.00     0.022 C 
ATOM     70  H36 04C d   1      61.997-137.881  41.948  0.00  0.00     0.074 H 
ATOM     71  H37 04C d   1      61.887-138.909  43.418  0.00  0.00     0.074 H 
BRANCH  69  72
ATOM     72  O13 04C d   1      62.833-139.792  41.773  0.00  0.00    -0.400 OA
ATOM     73  H38 04C d   1      63.385-139.540  41.042  0.00  0.00     0.209 HD
ENDBRANCH  69  72
ENDBRANCH  63  69
ENDBRANCH  59  63
ENDBRANCH  57  59
BRANCH  57  74
ATOM     74  C7  04C d   1      63.663-134.093  42.977  0.00  0.00    -0.020 C 
ATOM     75  H39 04C d   1      64.100-134.188  43.982  0.00  0.00     0.043 H 
ATOM     76  H40 04C d   1      62.608-133.795  43.063  0.00  0.00     0.043 H 
BRANCH  74  77
ATOM     77  C6  04C d   1      64.355-133.070  42.290  0.00  0.00    -0.056 A 
ATOM     78  C5  04C d   1      65.158-133.243  41.150  0.00  0.00    -0.077 A 
ATOM     79  C4  04C d   1      65.788-132.145  40.564  0.00  0.00    -0.082 A 
ATOM     80  H41 04C d   1      65.288-134.232  40.725  0.00  0.00     0.084 H 
ATOM     81  C3  04C d   1      65.631-130.869  41.100  0.00  0.00    -0.083 A 
ATOM     82  H42 04C d   1      66.405-132.286  39.684  0.00  0.00     0.083 H 
ATOM     83  C2  04C d   1      64.837-130.686  42.227  0.00  0.00    -0.082 A 
ATOM     84  H43 04C d   1      66.126-130.021  40.640  0.00  0.00     0.083 H 
ATOM     85  C1  04C d   1      64.210-131.783  42.810  0.00  0.00    -0.077 A 
ATOM     86  H44 04C d   1      64.707-129.696  42.648  0.00  0.00     0.083 H 
ATOM     87  H45 04C d   1      63.594-131.634  43.690  0.00  0.00     0.084 H 
ENDBRANCH  74  77
ENDBRANCH  57  74
ENDBRANCH  55  57
ENDBRANCH   1  53
TORSDOF 20
