REMARK  26 active torsions:
REMARK  status: ('A' for Active; 'I' for Inactive)
REMARK    1  A    between atoms: C27_2  and  O4_3 
REMARK       I    between atoms: C27_2  and  N3_11 
REMARK    2  A    between atoms: O4_3  and  C28_4 
REMARK    3  A    between atoms: C28_4  and  C29_5 
REMARK    4  A    between atoms: N3_11  and  C22_12 
REMARK    5  A    between atoms: C22_12  and  C_13 
REMARK    6  A    between atoms: C22_12  and  C23_15 
REMARK       I    between atoms: C_13  and  N_19 
REMARK    7  A    between atoms: C23_15  and  C24_16 
REMARK    8  A    between atoms: C24_16  and  C25_17 
REMARK    9  A    between atoms: C24_16  and  C26_18 
REMARK   10  A    between atoms: N_19  and  C1_20 
REMARK   11  A    between atoms: C1_20  and  C6_21 
REMARK   12  A    between atoms: C1_20  and  C2_23 
REMARK       I    between atoms: C6_21  and  N1_27 
REMARK   13  A    between atoms: C2_23  and  C3_24 
REMARK   14  A    between atoms: C3_24  and  C4_25 
REMARK   15  A    between atoms: C3_24  and  C5_26 
REMARK   16  A    between atoms: N1_27  and  C7_28 
REMARK   17  A    between atoms: C7_28  and  C8_29 
REMARK   18  A    between atoms: C7_28  and  C12_33 
REMARK   19  A    between atoms: C8_29  and  C9_30 
REMARK   20  A    between atoms: C9_30  and  C11_31 
REMARK   21  A    between atoms: C9_30  and  C10_32 
REMARK   22  A    between atoms: C12_33  and  O2_34 
REMARK   23  A    between atoms: C12_33  and  C13_35 
REMARK       I    between atoms: C13_35  and  N2_37 
REMARK   24  A    between atoms: N2_37  and  C14_38 
REMARK   25  A    between atoms: C18_41  and  C19_42 
REMARK   26  A    between atoms: C15_44  and  C16_45 
ROOT
ATOM      1  C1  3E5 d   1      12.432-138.096  16.772  0.00  0.00     0.089 C 
ATOM      2  H20 3E5 d   1      13.055-137.192  16.844  0.00  0.00     0.087 H 
ENDROOT
BRANCH   1   3
ATOM      3  N   3E5 d   1      11.544-138.169  17.912  0.00  0.00    -0.346 N 
ATOM      4  C   3E5 d   1      11.411-137.218  18.834  0.00  0.00     0.241 C 
ATOM      5  O   3E5 d   1      11.970-136.131  18.799  0.00  0.00    -0.271 OA
ATOM      6  H19 3E5 d   1      10.989-138.995  18.015  0.00  0.00     0.163 HD
BRANCH   4   7
ATOM      7  C22 3E5 d   1      10.531-137.624  19.986  0.00  0.00     0.092 C 
ATOM      8  H9  3E5 d   1      10.829-138.645  20.266  0.00  0.00     0.087 H 
BRANCH   7   9
ATOM      9  N3  3E5 d   1      10.781-136.803  21.167  0.00  0.00    -0.324 N 
ATOM     10  C27 3E5 d   1      11.652-137.180  22.108  0.00  0.00     0.361 C 
ATOM     11  O5  3E5 d   1      12.301-138.216  22.052  0.00  0.00    -0.238 OA
ATOM     12  H8  3E5 d   1      10.289-135.939  21.274  0.00  0.00     0.165 HD
BRANCH  10  13
ATOM     13  O4  3E5 d   1      11.828-136.311  23.265  0.00  0.00    -0.299 OA
BRANCH  13  14
ATOM     14  C28 3E5 d   1      13.137-135.950  23.713  0.00  0.00     0.054 C 
ATOM     15  H1  3E5 d   1      13.259-134.862  23.609  0.00  0.00     0.082 H 
ATOM     16  H2  3E5 d   1      13.880-136.464  23.086  0.00  0.00     0.082 H 
BRANCH  14  17
ATOM     17  C29 3E5 d   1      13.372-136.332  25.162  0.00  0.00    -0.034 A 
ATOM     18  C34 3E5 d   1      14.343-135.640  25.884  0.00  0.00    -0.075 A 
ATOM     19  C33 3E5 d   1      14.590-135.962  27.216  0.00  0.00    -0.082 A 
ATOM     20  H3  3E5 d   1      14.908-134.848  25.407  0.00  0.00     0.084 H 
ATOM     21  C32 3E5 d   1      13.868-136.980  27.833  0.00  0.00    -0.083 A 
ATOM     22  H4  3E5 d   1      15.345-135.419  27.773  0.00  0.00     0.083 H 
ATOM     23  C31 3E5 d   1      12.897-137.675  27.116  0.00  0.00    -0.082 A 
ATOM     24  H5  3E5 d   1      14.061-137.231  28.870  0.00  0.00     0.083 H 
ATOM     25  C30 3E5 d   1      12.649-137.354  25.782  0.00  0.00    -0.075 A 
ATOM     26  H6  3E5 d   1      12.333-138.467  27.596  0.00  0.00     0.083 H 
ATOM     27  H7  3E5 d   1      11.894-137.898  25.225  0.00  0.00     0.084 H 
ENDBRANCH  14  17
ENDBRANCH  13  14
ENDBRANCH  10  13
ENDBRANCH   7   9
BRANCH   7  28
ATOM     28  C23 3E5 d   1       9.061-137.724  19.534  0.00  0.00    -0.035 C 
ATOM     29  H10 3E5 d   1       8.682-138.705  19.857  0.00  0.00     0.037 H 
ATOM     30  H11 3E5 d   1       9.049-137.669  18.435  0.00  0.00     0.037 H 
BRANCH  28  31
ATOM     31  C24 3E5 d   1       8.092-136.665  20.056  0.00  0.00    -0.059 C 
ATOM     32  H12 3E5 d   1       8.309-136.500  21.122  0.00  0.00     0.038 H 
BRANCH  31  33
ATOM     33  C25 3E5 d   1       8.299-135.338  19.330  0.00  0.00    -0.073 C 
ATOM     34  H13 3E5 d   1       7.592-134.592  19.721  0.00  0.00     0.028 H 
ATOM     35  H14 3E5 d   1       8.125-135.478  18.253  0.00  0.00     0.028 H 
ATOM     36  H15 3E5 d   1       9.329-134.988  19.493  0.00  0.00     0.028 H 
ENDBRANCH  31  33
BRANCH  31  37
ATOM     37  C26 3E5 d   1       6.651-137.165  19.946  0.00  0.00    -0.073 C 
ATOM     38  H16 3E5 d   1       6.552-138.120  20.483  0.00  0.00     0.028 H 
ATOM     39  H17 3E5 d   1       6.394-137.311  18.887  0.00  0.00     0.028 H 
ATOM     40  H18 3E5 d   1       5.971-136.423  20.390  0.00  0.00     0.028 H 
ENDBRANCH  31  37
ENDBRANCH  28  31
ENDBRANCH   7  28
ENDBRANCH   4   7
ENDBRANCH   1   3
BRANCH   1  41
ATOM     41  C6  3E5 d   1      11.630-138.043  15.510  0.00  0.00     0.240 C 
ATOM     42  O3  3E5 d   1      10.564-138.637  15.441  0.00  0.00    -0.271 OA
ATOM     43  N1  3E5 d   1      12.143-137.325  14.512  0.00  0.00    -0.352 N 
ATOM     44  H30 3E5 d   1      13.018-136.859  14.644  0.00  0.00     0.163 HD
BRANCH  43  45
ATOM     45  C7  3E5 d   1      11.462-137.205  13.240  0.00  0.00     0.046 C 
ATOM     46  H31 3E5 d   1      10.403-137.454  13.402  0.00  0.00     0.077 H 
BRANCH  45  47
ATOM     47  C8  3E5 d   1      11.520-135.778  12.691  0.00  0.00    -0.041 C 
ATOM     48  H32 3E5 d   1      10.956-135.748  11.747  0.00  0.00     0.036 H 
ATOM     49  H33 3E5 d   1      12.573-135.525  12.498  0.00  0.00     0.036 H 
BRANCH  47  50
ATOM     50  C9  3E5 d   1      10.937-134.721  13.632  0.00  0.00    -0.059 C 
ATOM     51  H34 3E5 d   1      11.559-134.704  14.539  0.00  0.00     0.038 H 
BRANCH  50  52
ATOM     52  C11 3E5 d   1       9.505-135.035  14.072  0.00  0.00    -0.073 C 
ATOM     53  H35 3E5 d   1       9.145-134.241  14.743  0.00  0.00     0.028 H 
ATOM     54  H36 3E5 d   1       9.487-135.999  14.601  0.00  0.00     0.028 H 
ATOM     55  H37 3E5 d   1       8.853-135.090  13.188  0.00  0.00     0.028 H 
ENDBRANCH  50  52
BRANCH  50  56
ATOM     56  C10 3E5 d   1      11.030-133.344  12.972  0.00  0.00    -0.073 C 
ATOM     57  H38 3E5 d   1      12.070-133.152  12.669  0.00  0.00     0.028 H 
ATOM     58  H39 3E5 d   1      10.708-132.572  13.687  0.00  0.00     0.028 H 
ATOM     59  H40 3E5 d   1      10.379-133.317  12.085  0.00  0.00     0.028 H 
ENDBRANCH  50  56
ENDBRANCH  47  50
ENDBRANCH  45  47
BRANCH  45  60
ATOM     60  C12 3E5 d   1      12.033-138.212  12.244  0.00  0.00     0.132 C 
ATOM     61  H41 3E5 d   1      11.686-137.969  11.229  0.00  0.00     0.101 H 
BRANCH  60  62
ATOM     62  O2  3E5 d   1      11.535-139.462  12.686  0.00  0.00    -0.384 OA
ATOM     63  H42 3E5 d   1      11.850-140.149  12.110  0.00  0.00     0.210 HD
ENDBRANCH  60  62
BRANCH  60  64
ATOM     64  C13 3E5 d   1      13.536-138.349  12.244  0.00  0.00     0.253 C 
ATOM     65  O1  3E5 d   1      14.202-137.461  11.738  0.00  0.00    -0.270 OA
ATOM     66  N2  3E5 d   1      14.015-139.503  12.726  0.00  0.00    -0.324 N 
ATOM     67  H43 3E5 d   1      13.373-140.085  13.225  0.00  0.00     0.169 HD
BRANCH  66  68
ATOM     68  C14 3E5 d   1      15.299-139.963  12.602  0.00  0.00     0.040 A 
ATOM     69  C21 3E5 d   1      16.341-139.216  12.029  0.00  0.00    -0.056 A 
ATOM     70  C20 3E5 d   1      17.630-139.738  11.924  0.00  0.00    -0.075 A 
ATOM     71  H44 3E5 d   1      16.140-138.216  11.662  0.00  0.00     0.087 H 
ATOM     72  C18 3E5 d   1      17.930-141.020  12.378  0.00  0.00    -0.061 A 
ATOM     73  H45 3E5 d   1      18.413-139.134  11.480  0.00  0.00     0.084 H 
ATOM     74  C17 3E5 d   1      16.940-141.816  12.950  0.00  0.00    -0.069 A 
ATOM     75  C15 3E5 d   1      15.635-141.345  13.080  0.00  0.00    -0.035 A 
ATOM     76  H49 3E5 d   1      17.188-142.812  13.298  0.00  0.00     0.085 H 
BRANCH  72  77
ATOM     77  C19 3E5 d   1      19.337-141.543  12.243  0.00  0.00    -0.051 C 
ATOM     78  H46 3E5 d   1      19.390-142.563  12.651  0.00  0.00     0.033 H 
ATOM     79  H47 3E5 d   1      20.026-140.890  12.799  0.00  0.00     0.033 H 
ATOM     80  H48 3E5 d   1      19.622-141.558  11.181  0.00  0.00     0.033 H 
ENDBRANCH  72  77
BRANCH  75  81
ATOM     81  C16 3E5 d   1      14.626-142.276  13.713  0.00  0.00    -0.049 C 
ATOM     82  H50 3E5 d   1      13.645-141.781  13.753  0.00  0.00     0.033 H 
ATOM     83  H51 3E5 d   1      14.950-142.529  14.733  0.00  0.00     0.033 H 
ATOM     84  H52 3E5 d   1      14.549-143.195  13.114  0.00  0.00     0.033 H 
ENDBRANCH  75  81
ENDBRANCH  66  68
ENDBRANCH  60  64
ENDBRANCH  45  60
ENDBRANCH  43  45
ENDBRANCH   1  41
BRANCH   1  85
ATOM     85  C2  3E5 d   1      13.327-139.339  16.786  0.00  0.00    -0.035 C 
ATOM     86  H21 3E5 d   1      13.182-139.878  15.838  0.00  0.00     0.037 H 
ATOM     87  H22 3E5 d   1      13.013-139.979  17.623  0.00  0.00     0.037 H 
BRANCH  85  88
ATOM     88  C3  3E5 d   1      14.819-139.044  16.944  0.00  0.00    -0.059 C 
ATOM     89  H23 3E5 d   1      15.147-138.500  16.046  0.00  0.00     0.038 H 
BRANCH  88  90
ATOM     90  C4  3E5 d   1      15.120-138.151  18.150  0.00  0.00    -0.073 C 
ATOM     91  H24 3E5 d   1      16.204-137.973  18.213  0.00  0.00     0.028 H 
ATOM     92  H25 3E5 d   1      14.776-138.648  19.069  0.00  0.00     0.028 H 
ATOM     93  H26 3E5 d   1      14.597-137.190  18.034  0.00  0.00     0.028 H 
ENDBRANCH  88  90
BRANCH  88  94
ATOM     94  C5  3E5 d   1      15.600-140.359  17.006  0.00  0.00    -0.073 C 
ATOM     95  H27 3E5 d   1      15.357-140.971  16.125  0.00  0.00     0.028 H 
ATOM     96  H28 3E5 d   1      15.325-140.906  17.920  0.00  0.00     0.028 H 
ATOM     97  H29 3E5 d   1      16.679-140.145  17.018  0.00  0.00     0.028 H 
ENDBRANCH  88  94
ENDBRANCH  85  88
ENDBRANCH   1  85
TORSDOF 26
