REMARK  12 active torsions:
REMARK  status: ('A' for Active; 'I' for Inactive)
REMARK    1  A    between atoms: C_9  and  N_8 
REMARK    2  A    between atoms: C1_10  and  O2_11 
REMARK    3  A    between atoms: C3_13  and  C4_14 
REMARK    4  A    between atoms: C4_14  and  O1_15 
REMARK    5  A    between atoms: O1_15  and  P_16 
REMARK    6  A    between atoms: O3_21  and  C2_20 
REMARK    7  A    between atoms: P1_22  and  O3_21 
REMARK    8  A    between atoms: O11_25  and  P1_22 
REMARK    9  A    between atoms: C18_26  and  O11_25 
REMARK   10  A    between atoms: C17_27  and  C18_26 
REMARK   11  A    between atoms: C14_36  and  N4_37 
REMARK   12  A    between atoms: C12_43  and  N6_44 
ROOT
ATOM      1  P1  UCG d   1      30.219  -1.488  41.605  0.00  0.00     0.408 P 
ATOM      2  O15 UCG d   1      31.067  -0.450  42.114  0.00  0.00    -0.624 OA
ATOM      3  O14 UCG d   1      29.749  -1.285  40.132  0.00  0.00    -0.624 OA
ENDROOT
BRANCH   1   4
ATOM      4  O3  UCG d   1      31.080  -2.805  41.689  0.00  0.00    -0.279 OA
BRANCH   4   5
ATOM      5  C2  UCG d   1      30.627  -4.064  41.274  0.00  0.00     0.106 C 
ATOM      6  C1  UCG d   1      30.852  -4.324  39.822  0.00  0.00     0.106 C 
ATOM      7  C   UCG d   1      31.166  -5.808  39.708  0.00  0.00     0.141 C 
ATOM      8  H5  UCG d   1      29.989  -4.042  39.201  0.00  0.00     0.093 H 
ATOM      9  O   UCG d   1      31.528  -6.222  41.009  0.00  0.00    -0.353 OA
ATOM     10  H4  UCG d   1      32.022  -5.953  39.032  0.00  0.00     0.123 H 
ATOM     11  C3  UCG d   1      31.473  -5.136  41.935  0.00  0.00     0.090 C 
ATOM     12  H7  UCG d   1      32.484  -4.734  42.094  0.00  0.00     0.090 H 
ATOM     13  H10 UCG d   1      29.562  -4.173  41.529  0.00  0.00     0.092 H 
BRANCH   6  14
ATOM     14  O2  UCG d   1      31.986  -3.582  39.506  0.00  0.00    -0.388 OA
ATOM     15  H6  UCG d   1      31.787  -2.656  39.578  0.00  0.00     0.210 HD
ENDBRANCH   6  14
BRANCH   7  16
ATOM     16  N   UCG d   1      30.021  -6.547  39.159  0.00  0.00    -0.280 N 
ATOM     17  C6  UCG d   1      28.839  -6.511  39.752  0.00  0.00    -0.008 A 
ATOM     18  C5  UCG d   1      27.775  -7.187  39.190  0.00  0.00    -0.002 A 
ATOM     19  H2  UCG d   1      28.706  -5.952  40.677  0.00  0.00     0.112 H 
ATOM     20  C7  UCG d   1      27.936  -7.892  38.013  0.00  0.00     0.250 A 
ATOM     21  H1  UCG d   1      26.802  -7.164  39.678  0.00  0.00     0.094 H 
ATOM     22  O4  UCG d   1      26.972  -8.493  37.554  0.00  0.00    -0.268 OA
ATOM     23  N1  UCG d   1      29.114  -7.927  37.431  0.00  0.00    -0.275 N 
ATOM     24  C8  UCG d   1      30.123  -7.276  37.967  0.00  0.00     0.331 A 
ATOM     25  H3  UCG d   1      29.242  -8.446  36.586  0.00  0.00     0.173 HD
ATOM     26  O5  UCG d   1      31.193  -7.329  37.423  0.00  0.00    -0.246 OA
ENDBRANCH   7  16
BRANCH  11  27
ATOM     27  C4  UCG d   1      30.955  -5.632  43.273  0.00  0.00     0.059 C 
ATOM     28  H8  UCG d   1      31.677  -5.359  44.056  0.00  0.00     0.079 H 
ATOM     29  H9  UCG d   1      30.856  -6.727  43.231  0.00  0.00     0.079 H 
BRANCH  27  30
ATOM     30  O1  UCG d   1      29.702  -5.074  43.595  0.00  0.00    -0.280 OA
BRANCH  30  31
ATOM     31  P   UCG d   1      28.443  -5.909  44.045  0.00  0.00     0.422 P 
ATOM     32  O6  UCG d   1      28.917  -7.229  44.447  0.00  0.00    -0.617 OA
ATOM     33  O7  UCG d   1      27.699  -5.237  45.275  0.00  0.00    -0.617 OA
ATOM     34  O8  UCG d   1      27.403  -5.965  42.837  0.00  0.00    -0.617 OA
ENDBRANCH  30  31
ENDBRANCH  27  30
ENDBRANCH  11  27
ENDBRANCH   4   5
ENDBRANCH   1   4
BRANCH   1  35
ATOM     35  O11 UCG d   1      28.902  -1.692  42.443  0.00  0.00    -0.287 OA
BRANCH  35  36
ATOM     36  C18 UCG d   1      28.892  -1.888  43.834  0.00  0.00     0.058 C 
ATOM     37  H11 UCG d   1      29.630  -1.224  44.307  0.00  0.00     0.079 H 
ATOM     38  H12 UCG d   1      29.142  -2.935  44.062  0.00  0.00     0.079 H 
BRANCH  36  39
ATOM     39  C17 UCG d   1      27.504  -1.567  44.360  0.00  0.00     0.090 C 
ATOM     40  C16 UCG d   1      26.429  -2.127  43.463  0.00  0.00     0.107 C 
ATOM     41  O13 UCG d   1      25.368  -2.703  44.163  0.00  0.00    -0.279 OA
ATOM     42  C15 UCG d   1      25.806  -0.914  42.863  0.00  0.00     0.121 C 
ATOM     43  H14 UCG d   1      26.848  -2.821  42.720  0.00  0.00     0.092 H 
ATOM     44  P2  UCG d   1      23.994  -2.430  43.440  0.00  0.00     0.409 P 
ATOM     45  O16 UCG d   1      23.697  -3.486  42.330  0.00  0.00    -0.624 OA
ATOM     46  O17 UCG d   1      22.905  -2.201  44.332  0.00  0.00    -0.624 OA
ATOM     47  O12 UCG d   1      24.457  -1.163  42.685  0.00  0.00    -0.277 OA
ATOM     48  C14 UCG d   1      26.000   0.082  43.949  0.00  0.00     0.140 C 
ATOM     49  H15 UCG d   1      26.282  -0.609  41.920  0.00  0.00     0.095 H 
ATOM     50  O10 UCG d   1      27.296  -0.177  44.370  0.00  0.00    -0.353 OA
ATOM     51  H16 UCG d   1      25.270  -0.046  44.762  0.00  0.00     0.123 H 
ATOM     52  H13 UCG d   1      27.400  -1.976  45.376  0.00  0.00     0.090 H 
BRANCH  48  53
ATOM     53  N4  UCG d   1      25.919   1.411  43.401  0.00  0.00    -0.295 N 
ATOM     54  C13 UCG d   1      25.195   2.385  43.891  0.00  0.00     0.071 A 
ATOM     55  N5  UCG d   1      25.322   3.489  43.177  0.00  0.00    -0.234 NA
ATOM     56  H17 UCG d   1      24.567   2.296  44.776  0.00  0.00     0.144 H 
ATOM     57  C9  UCG d   1      26.145   3.217  42.203  0.00  0.00     0.171 A 
ATOM     58  C10 UCG d   1      26.552   1.855  42.357  0.00  0.00     0.161 A 
ATOM     59  C11 UCG d   1      26.705   3.956  41.091  0.00  0.00     0.292 A 
ATOM     60  N2  UCG d   1      27.398   1.342  41.478  0.00  0.00    -0.174 N 
ATOM     61  C12 UCG d   1      27.877   2.076  40.473  0.00  0.00     0.680 A 
ATOM     62  H18 UCG d   1      27.691   0.359  41.572  0.00  0.00     0.186 HD
ATOM     63  N3  UCG d   1      27.534   3.344  40.304  0.00  0.00    -0.154 N 
ATOM     64  H21 UCG d   1      27.931   3.850  39.538  0.00  0.00     0.187 HD
ATOM     65  O9  UCG d   1      26.406   5.111  40.929  0.00  0.00    -0.265 OA
BRANCH  61  66
ATOM     66  N6  UCG d   1      28.729   1.511  39.625  0.00  0.00    -0.234 N 
ATOM     67  H19 UCG d   1      29.113   2.057  38.840  0.00  0.00     0.174 HD
ATOM     68  H20 UCG d   1      29.006   0.527  39.752  0.00  0.00     0.174 HD
ENDBRANCH  61  66
ENDBRANCH  48  53
ENDBRANCH  36  39
ENDBRANCH  35  36
ENDBRANCH   1  35
TORSDOF 12
