REMARK  13 active torsions:
REMARK  status: ('A' for Active; 'I' for Inactive)
REMARK    1  A    between atoms: N1_1  and  S1_19 
REMARK    2  A    between atoms: C11_29  and  N1_1 
REMARK    3  A    between atoms: C25_36  and  N3_2 
REMARK    4  A    between atoms: C13_9  and  O1_18 
REMARK    5  A    between atoms: C11_29  and  C13_9 
REMARK    6  A    between atoms: C17_11  and  C26_16 
REMARK    7  A    between atoms: C21_13  and  C25_36 
REMARK    8  A    between atoms: C26_16  and  C27_37 
REMARK    9  A    between atoms: O1_18  and  C14_31 
REMARK   10  A    between atoms: S1_19  and  C9_28 
REMARK       I    between atoms: C12_30  and  N2_21 
REMARK   11  A    between atoms: C25_36  and  N4_25 
REMARK   12  A    between atoms: C27_37  and  N5_27 
REMARK   13  A    between atoms: C11_29  and  C12_30 
ROOT
ATOM      1  C11 3KM d   1      15.011   6.752  26.750  0.00  0.00     0.117 C 
ATOM      2  H26 3KM d   1      15.123   5.661  26.663  0.00  0.00     0.091 H 
ENDROOT
BRANCH   1   3
ATOM      3  N1  3KM d   1      15.145   7.166  28.125  0.00  0.00    -0.299 N 
ATOM      4  H1  3KM d   1      14.844   8.080  28.396  0.00  0.00     0.173 HD
BRANCH   3   5
ATOM      5  S1  3KM d   1      15.763   6.193  29.211  0.00  0.00     0.259 S 
ATOM      6  O3  3KM d   1      15.585   6.838  30.546  0.00  0.00    -0.201 OA
ATOM      7  O4  3KM d   1      14.972   4.924  29.090  0.00  0.00    -0.201 OA
BRANCH   5   8
ATOM      8  C9  3KM d   1      17.362   5.994  28.844  0.00  0.00     0.080 A 
ATOM      9  C8  3KM d   1      17.763   5.021  27.903  0.00  0.00    -0.059 A 
ATOM     10  C7  3KM d   1      19.112   4.830  27.571  0.00  0.00    -0.071 A 
ATOM     11  H6  3KM d   1      17.009   4.406  27.425  0.00  0.00     0.085 H 
ATOM     12  C4  3KM d   1      20.113   5.596  28.166  0.00  0.00    -0.026 A 
ATOM     13  H5  3KM d   1      19.380   4.075  26.841  0.00  0.00     0.084 H 
ATOM     14  C5  3KM d   1      19.750   6.576  29.107  0.00  0.00    -0.025 A 
ATOM     15  C3  3KM d   1      21.478   5.389  27.839  0.00  0.00    -0.072 A 
ATOM     16  C6  3KM d   1      20.780   7.341  29.716  0.00  0.00    -0.072 A 
ATOM     17  C10 3KM d   1      18.389   6.780  29.429  0.00  0.00    -0.050 A 
ATOM     18  C1  3KM d   1      22.147   7.146  29.385  0.00  0.00    -0.082 A 
ATOM     19  H4  3KM d   1      20.516   8.092  30.452  0.00  0.00     0.084 H 
ATOM     20  C2  3KM d   1      22.499   6.161  28.440  0.00  0.00    -0.082 A 
ATOM     21  H18 3KM d   1      22.914   7.750  29.855  0.00  0.00     0.083 H 
ATOM     22  H19 3KM d   1      23.538   5.998  28.178  0.00  0.00     0.083 H 
ATOM     23  H7  3KM d   1      18.123   7.555  30.139  0.00  0.00     0.087 H 
ATOM     24  H20 3KM d   1      21.743   4.626  27.116  0.00  0.00     0.084 H 
ENDBRANCH   5   8
ENDBRANCH   3   5
ENDBRANCH   1   3
BRANCH   1  25
ATOM     25  C13 3KM d   1      13.568   7.115  26.379  0.00  0.00     0.053 C 
ATOM     26  H8  3KM d   1      12.957   6.200  26.375  0.00  0.00     0.079 H 
ATOM     27  H9  3KM d   1      13.171   7.818  27.126  0.00  0.00     0.079 H 
BRANCH  25  28
ATOM     28  O1  3KM d   1      13.507   7.723  25.087  0.00  0.00    -0.349 OA
BRANCH  28  29
ATOM     29  C14 3KM d   1      13.854   9.013  24.772  0.00  0.00     0.069 A 
ATOM     30  C20 3KM d   1      13.432  10.053  25.585  0.00  0.00    -0.037 A 
ATOM     31  C21 3KM d   1      13.762  11.374  25.259  0.00  0.00     0.010 A 
ATOM     32  H13 3KM d   1      12.847   9.844  26.473  0.00  0.00     0.089 H 
ATOM     33  C22 3KM d   1      14.505  11.642  24.084  0.00  0.00    -0.069 A 
ATOM     34  C23 3KM d   1      14.941  10.613  23.256  0.00  0.00    -0.079 A 
ATOM     35  H14 3KM d   1      14.738  12.668  23.825  0.00  0.00     0.085 H 
ATOM     36  C24 3KM d   1      14.600   9.297  23.602  0.00  0.00    -0.051 A 
ATOM     37  H33 3KM d   1      15.527  10.822  22.369  0.00  0.00     0.083 H 
ATOM     38  H15 3KM d   1      14.914   8.481  22.961  0.00  0.00     0.087 H 
BRANCH  31  39
ATOM     39  C25 3KM d   1      13.222  12.458  26.144  0.00  0.00     0.102 C 
BRANCH  39  40
ATOM     40  N3  3KM d   1      13.149  13.723  25.698  0.00  0.00    -0.385 N 
ATOM     41  H2  3KM d   1      12.777  14.464  26.309  0.00  0.00     0.157 HD
ATOM     42  H3  3KM d   1      13.465  13.952  24.745  0.00  0.00     0.157 HD
ENDBRANCH  39  40
BRANCH  39  43
ATOM     43  N4  3KM d   1      12.736  12.180  27.334  0.00  0.00    -0.385 N 
ATOM     44  H21 3KM d   1      12.781  11.217  27.697  0.00  0.00     0.157 HD
ATOM     45  H22 3KM d   1      12.310  12.925  27.903  0.00  0.00     0.157 HD
ENDBRANCH  39  43
ENDBRANCH  31  39
ENDBRANCH  28  29
ENDBRANCH  25  28
ENDBRANCH   1  25
BRANCH   1  46
ATOM     46  C12 3KM d   1      16.167   7.406  25.959  0.00  0.00     0.245 C 
ATOM     47  N2  3KM d   1      16.558   6.952  24.747  0.00  0.00    -0.350 N 
ATOM     48  C15 3KM d   1      15.980   5.832  24.011  0.00  0.00    -0.002 C 
ATOM     49  C19 3KM d   1      17.669   7.580  24.023  0.00  0.00    -0.002 C 
ATOM     50  C16 3KM d   1      17.025   4.718  24.090  0.00  0.00    -0.047 C 
ATOM     51  H10 3KM d   1      15.794   6.113  22.964  0.00  0.00     0.064 H 
ATOM     52  H11 3KM d   1      15.037   5.510  24.477  0.00  0.00     0.064 H 
ATOM     53  C17 3KM d   1      18.286   5.226  23.398  0.00  0.00    -0.050 C 
ATOM     54  H27 3KM d   1      16.653   3.817  23.580  0.00  0.00     0.035 H 
ATOM     55  H28 3KM d   1      17.243   4.481  25.142  0.00  0.00     0.035 H 
ATOM     56  C18 3KM d   1      18.748   6.507  24.105  0.00  0.00    -0.047 C 
ATOM     57  H12 3KM d   1      18.051   5.465  22.350  0.00  0.00     0.040 H 
ATOM     58  H29 3KM d   1      19.664   6.877  23.622  0.00  0.00     0.035 H 
ATOM     59  H30 3KM d   1      18.956   6.283  25.162  0.00  0.00     0.035 H 
ATOM     60  H31 3KM d   1      17.992   8.510  24.515  0.00  0.00     0.064 H 
ATOM     61  H32 3KM d   1      17.396   7.793  22.979  0.00  0.00     0.064 H 
ATOM     62  O2  3KM d   1      16.772   8.360  26.477  0.00  0.00    -0.271 OA
BRANCH  53  63
ATOM     63  C26 3KM d   1      19.373   4.139  23.418  0.00  0.00    -0.039 C 
ATOM     64  H16 3KM d   1      19.550   3.830  24.459  0.00  0.00     0.035 H 
ATOM     65  H17 3KM d   1      20.300   4.553  22.996  0.00  0.00     0.035 H 
BRANCH  63  66
ATOM     66  C27 3KM d   1      18.958   2.912  22.598  0.00  0.00     0.080 C 
ATOM     67  H34 3KM d   1      18.047   2.473  23.031  0.00  0.00     0.075 H 
ATOM     68  H35 3KM d   1      19.768   2.168  22.616  0.00  0.00     0.075 H 
BRANCH  66  69
ATOM     69  N5  3KM d   1      18.697   3.313  21.221  0.00  0.00    -0.079 N 
ATOM     70  H23 3KM d   1      18.424   2.506  20.682  0.00  0.00     0.274 HD
ATOM     71  H24 3KM d   1      19.532   3.715  20.824  0.00  0.00     0.274 HD
ATOM     72  H25 3KM d   1      17.955   3.995  21.204  0.00  0.00     0.274 HD
ENDBRANCH  66  69
ENDBRANCH  63  66
ENDBRANCH  53  63
ENDBRANCH   1  46
TORSDOF 13
