REMARK  2 active torsions:
REMARK  status: ('A' for Active; 'I' for Inactive)
REMARK    1  A    between atoms: C5_1  and  C7_2 
REMARK    2  A    between atoms: C_4  and  C2_5 
ROOT
ATOM      1  C5  3K4 d   1      11.129-140.413   9.997  0.00  0.00     0.133 A 
ATOM      2  C2  3K4 d   1      10.441-140.806   8.847  0.00  0.00     0.178 A 
ATOM      3  N6  3K4 d   1      10.943-141.796   9.744  0.00  0.00    -0.056 N 
ATOM      4  H1  3K4 d   1      10.466-139.975  10.758  0.00  0.00     0.087 H 
ATOM      5  H6  3K4 d   1       9.361-140.643   8.717  0.00  0.00     0.098 H 
ATOM      6  H7  3K4 d   1      10.308-142.334  10.312  0.00  0.00     0.278 HD
ATOM      7  H8  3K4 d   1      11.726-142.372   9.477  0.00  0.00     0.278 HD
ENDROOT
BRANCH   1   8
ATOM      8  C7  3K4 d   1      12.395-139.777  10.282  0.00  0.00    -0.047 C 
ATOM      9  H2  3K4 d   1      12.513-139.667  11.370  0.00  0.00     0.030 H 
ATOM     10  H3  3K4 d   1      12.422-138.785   9.808  0.00  0.00     0.030 H 
ATOM     11  H4  3K4 d   1      13.214-140.395   9.885  0.00  0.00     0.030 H 
ENDBRANCH   1   8
BRANCH   2  12
ATOM     12  C   3K4 d   1      11.224-140.569   7.539  0.00  0.00     0.119 C 
ATOM     13  O   3K4 d   1      12.364-141.012   7.394  0.00  0.00    -0.305 OA
ATOM     14  H5  3K4 d   1      10.762-140.002   6.732  0.00  0.00     0.146 H 
ENDBRANCH   2  12
TORSDOF 2
