REMARK  4 active torsions:
REMARK  status: ('A' for Active; 'I' for Inactive)
REMARK    1  A    between atoms: N_1  and  CA_2 
REMARK    2  A    between atoms: CA_2  and  C_3 
REMARK    3  A    between atoms: CA_2  and  CB_5 
REMARK    4  A    between atoms: CB_5  and  CG_6 
ROOT
ATOM      1  CA  ABA d   1      10.598-139.895   9.071  0.00  0.00     0.149 C 
ATOM      2  H4  ABA d   1       9.563-140.110   8.766  0.00  0.00     0.095 H 
ENDROOT
BRANCH   1   3
ATOM      3  N   ABA d   1      11.029-141.003   9.980  0.00  0.00    -0.069 N 
ATOM      4  H1  ABA d   1      11.027-141.874   9.472  0.00  0.00     0.275 HD
ATOM      5  H2  ABA d   1      10.392-141.066  10.758  0.00  0.00     0.275 HD
ATOM      6  H3  ABA d   1      11.959-140.815  10.322  0.00  0.00     0.275 HD
ENDBRANCH   1   3
BRANCH   1   7
ATOM      7  C   ABA d   1      11.441-139.843   7.794  0.00  0.00     0.117 C 
ATOM      8  O   ABA d   1      12.617-140.216   7.798  0.00  0.00    -0.305 OA
ATOM      9  H5  ABA d   1      10.997-139.472   6.871  0.00  0.00     0.146 H 
ENDBRANCH   1   7
BRANCH   1  10
ATOM     10  CB  ABA d   1      10.584-138.524   9.810  0.00  0.00    -0.036 C 
ATOM     11  H6  ABA d   1      11.027-138.660  10.807  0.00  0.00     0.036 H 
ATOM     12  H7  ABA d   1       9.540-138.194   9.915  0.00  0.00     0.036 H 
BRANCH  10  13
ATOM     13  CG  ABA d   1      11.375-137.424   9.066  0.00  0.00    -0.074 C 
ATOM     14  H8  ABA d   1      11.325-136.486   9.638  0.00  0.00     0.027 H 
ATOM     15  H9  ABA d   1      10.938-137.269   8.069  0.00  0.00     0.027 H 
ATOM     16  H10 ABA d   1      12.425-137.734   8.961  0.00  0.00     0.027 H 
ENDBRANCH  10  13
ENDBRANCH   1  10
TORSDOF 4
