REMARK WARNING: 32 MAX_TORS EXCEEDED!!!
REMARK  78 active torsions:
REMARK  status: ('A' for Active; 'I' for Inactive)
REMARK    1  A    between atoms: N_1  and  CA_2 
REMARK    2  A    between atoms: CA_2  and  C_3 
REMARK       I    between atoms: C_3  and  N_5 
REMARK    3  A    between atoms: N_5  and  CA_6 
REMARK    4  A    between atoms: CA_6  and  C_7 
REMARK    5  A    between atoms: CA_6  and  CB_9 
REMARK       I    between atoms: C_7  and  N_11 
REMARK    6  A    between atoms: CB_9  and  OG_10 
REMARK    7  A    between atoms: N_11  and  CA_12 
REMARK    8  A    between atoms: CA_12  and  C_13 
REMARK    9  A    between atoms: CA_12  and  CB_15 
REMARK       I    between atoms: C_13  and  N_19 
REMARK   10  A    between atoms: CB_15  and  CG_16 
REMARK   11  A    between atoms: CG_16  and  CD1_17 
REMARK   12  A    between atoms: CG_16  and  CD2_18 
REMARK   13  A    between atoms: N_19  and  CA_20 
REMARK   14  A    between atoms: CA_20  and  C_21 
REMARK   15  A    between atoms: CA_20  and  CB_23 
REMARK       I    between atoms: C_21  and  N_27 
REMARK   16  A    between atoms: CB_23  and  CG_24 
REMARK   17  A    between atoms: CG_24  and  CD1_25 
REMARK   18  A    between atoms: CG_24  and  CD2_26 
REMARK   19  A    between atoms: N_27  and  CA_28 
REMARK   20  A    between atoms: CA_28  and  C_29 
REMARK   21  A    between atoms: CA_28  and  CB_31 
REMARK       I    between atoms: C_29  and  N_38 
REMARK   22  A    between atoms: CB_31  and  CG_32 
REMARK   23  A    between atoms: CG_32  and  CD_33 
REMARK   24  A    between atoms: CD_33  and  NE_34 
REMARK       I    between atoms: NE_34  and  CZ_35 
REMARK       I    between atoms: CZ_35  and  NH1_36 
REMARK       I    between atoms: CZ_35  and  NH2_37 
REMARK   25  A    between atoms: N_38  and  CA_39 
REMARK   26  A    between atoms: CA_39  and  C_40 
REMARK   27  A    between atoms: CA_39  and  CB_42 
REMARK       I    between atoms: C_40  and  N_45 
REMARK   28  A    between atoms: CB_42  and  CG1_43 
REMARK   29  A    between atoms: CB_42  and  CG2_44 
REMARK   30  A    between atoms: N_45  and  CA_46 
REMARK   31  A    between atoms: CA_46  and  C_47 
REMARK   32  A    between atoms: CA_46  and  CB_49 
REMARK       I    between atoms: C_47  and  N_54 
REMARK   33  A    between atoms: CB_49  and  CG_50 
REMARK   34  A    between atoms: CG_50  and  CD_51 
REMARK       I    between atoms: CD_51  and  NE2_53 
REMARK   35  A    between atoms: N_54  and  CA_55 
REMARK   36  A    between atoms: CA_55  and  C_56 
REMARK   37  A    between atoms: CA_55  and  CB_58 
REMARK       I    between atoms: C_56  and  N_59 
REMARK   38  A    between atoms: N_59  and  CA_60 
REMARK   39  A    between atoms: CA_60  and  C_61 
REMARK   40  A    between atoms: CA_60  and  CB_63 
REMARK       I    between atoms: C_61  and  N_69 
REMARK   41  A    between atoms: CB_63  and  CG_64 
REMARK   42  A    between atoms: N_69  and  CA_70 
REMARK   43  A    between atoms: CA_70  and  C_71 
REMARK   44  A    between atoms: CA_70  and  CB_73 
REMARK       I    between atoms: C_71  and  N_77 
REMARK   45  A    between atoms: CB_73  and  CG1_74 
REMARK   46  A    between atoms: CB_73  and  CG2_75 
REMARK   47  A    between atoms: CG1_74  and  CD1_76 
REMARK   48  A    between atoms: N_77  and  CA_78 
REMARK   49  A    between atoms: CA_78  and  C_79 
REMARK   50  A    between atoms: CA_78  and  CB_81 
REMARK       I    between atoms: C_79  and  N_88 
REMARK   51  A    between atoms: CB_81  and  CG_82 
REMARK   52  A    between atoms: CG_82  and  CD_83 
REMARK   53  A    between atoms: CD_83  and  NE_84 
REMARK       I    between atoms: NE_84  and  CZ_85 
REMARK       I    between atoms: CZ_85  and  NH1_86 
REMARK   54  A    between atoms: N_88  and  CA_89 
REMARK   55  A    between atoms: CA_89  and  C_90 
REMARK   56  A    between atoms: CA_89  and  CB_92 
REMARK       I    between atoms: C_90  and  N_97 
REMARK   57  A    between atoms: CB_92  and  CG_93 
REMARK   58  A    between atoms: CG_93  and  CD_94 
REMARK   59  A    between atoms: CD_94  and  CE_95 
REMARK   60  A    between atoms: CE_95  and  NZ_96 
REMARK   61  A    between atoms: N_97  and  CA_98 
REMARK   62  A    between atoms: CA_98  and  C_99 
REMARK   63  A    between atoms: CA_98  and  CB_101 
REMARK       I    between atoms: C_99  and  N_106 
REMARK   64  A    between atoms: CB_101  and  CG_102 
REMARK   65  A    between atoms: CG_102  and  CD_103 
REMARK   66  A    between atoms: CD_103  and  CE_104 
REMARK   67  A    between atoms: CE_104  and  NZ_105 
REMARK   68  A    between atoms: N_106  and  CA_107 
REMARK   69  A    between atoms: CA_107  and  C_108 
REMARK   70  A    between atoms: CA_107  and  CB_110 
REMARK       I    between atoms: C_108  and  N_114 
REMARK   71  A    between atoms: CB_110  and  CG_111 
REMARK   72  A    between atoms: CG_111  and  SD_112 
REMARK   73  A    between atoms: SD_112  and  CE_113 
REMARK   74  A    between atoms: N_114  and  CA_115 
REMARK   75  A    between atoms: CA_115  and  C_116 
REMARK   76  A    between atoms: CA_115  and  CB_118 
REMARK   77  A    between atoms: CB_118  and  CG1_119 
REMARK   78  A    between atoms: CB_118  and  CG2_120 
ROOT
ATOM      1  CA  HIS d   1      -9.269   4.237 -10.547  0.00  0.00     0.094 C 
ATOM      2  H   HIS d   1      -9.543   3.438  -9.842  0.00  0.00     0.088 H 
ENDROOT
BRANCH   1   3
ATOM      3  N   HIS d   1     -10.402   4.402 -11.447  0.00  0.00    -0.346 N 
ATOM      4  C   ALA d   1     -11.635   4.470 -10.951  0.00  0.00     0.240 C 
ATOM      5  O   ALA d   1     -11.861   4.416  -9.741  0.00  0.00    -0.271 OA
ATOM      6  H   HIS d   1     -10.254   4.464 -12.434  0.00  0.00     0.163 HD
BRANCH   4   7
ATOM      7  CA  ALA d   1     -12.777   4.678 -11.936  0.00  0.00     0.086 C 
ATOM      8  H   ALA d   1     -13.661   5.002 -11.367  0.00  0.00     0.086 H 
BRANCH   7   9
ATOM      9  N   ALA d   1     -12.456   5.713 -12.897  0.00  0.00    -0.346 N 
ATOM     10  C   GLN d   1     -12.244   6.974 -12.537  0.00  0.00     0.241 C 
ATOM     11  O   GLN d   1     -12.270   7.342 -11.374  0.00  0.00    -0.271 OA
ATOM     12  H   ALA d   1     -12.392   5.470 -13.865  0.00  0.00     0.163 HD
BRANCH  10  13
ATOM     13  CA  GLN d   1     -11.915   7.962 -13.657  0.00  0.00     0.090 C 
ATOM     14  H   GLN d   1     -11.348   8.794 -13.214  0.00  0.00     0.087 H 
BRANCH  13  15
ATOM     15  N   GLN d   1     -11.066   7.324 -14.677  0.00  0.00    -0.346 N 
ATOM     16  C   VAL d   1      -9.845   6.883 -14.377  0.00  0.00     0.241 C 
ATOM     17  O   VAL d   1      -9.385   6.930 -13.240  0.00  0.00    -0.271 OA
ATOM     18  H   GLN d   1     -11.411   7.220 -15.610  0.00  0.00     0.163 HD
BRANCH  16  19
ATOM     19  CA  VAL d   1      -9.023   6.265 -15.523  0.00  0.00     0.092 C 
ATOM     20  H   VAL d   1      -8.143   5.772 -15.084  0.00  0.00     0.088 H 
BRANCH  19  21
ATOM     21  N   VAL d   1      -9.806   5.243 -16.216  0.00  0.00    -0.346 N 
ATOM     22  C   ARG d   1     -10.292   4.181 -15.576  0.00  0.00     0.241 C 
ATOM     23  O   ARG d   1     -10.082   3.968 -14.378  0.00  0.00    -0.271 OA
ATOM     24  H   VAL d   1      -9.981   5.344 -17.195  0.00  0.00     0.163 HD
BRANCH  22  25
ATOM     25  CA  ARG d   1     -11.201   3.247 -16.376  0.00  0.00     0.089 C 
ATOM     26  H   ARG d   1     -11.806   2.678 -15.654  0.00  0.00     0.087 H 
BRANCH  25  27
ATOM     27  N   ARG d   1     -12.121   4.006 -17.218  0.00  0.00    -0.346 N 
ATOM     28  C   LEU d   1     -13.064   4.776 -16.690  0.00  0.00     0.241 C 
ATOM     29  O   LEU d   1     -13.260   4.865 -15.480  0.00  0.00    -0.271 OA
ATOM     30  H   ARG d   1     -12.039   3.944 -18.213  0.00  0.00     0.163 HD
BRANCH  28  31
ATOM     31  CA  LEU d   1     -13.921   5.571 -17.660  0.00  0.00     0.089 C 
ATOM     32  H   LEU d   1     -14.338   6.436 -17.124  0.00  0.00     0.087 H 
BRANCH  31  33
ATOM     33  N   LEU d   1     -13.143   6.092 -18.803  0.00  0.00    -0.346 N 
ATOM     34  C   LEU d   1     -12.086   6.878 -18.628  0.00  0.00     0.241 C 
ATOM     35  O   LEU d   1     -11.683   7.222 -17.517  0.00  0.00    -0.271 OA
ATOM     36  H   LEU d   1     -13.419   5.847 -19.732  0.00  0.00     0.163 HD
BRANCH  34  37
ATOM     37  CA  LEU d   1     -11.376   7.344 -19.894  0.00  0.00     0.089 C 
ATOM     38  H   LEU d   1     -10.423   7.811 -19.603  0.00  0.00     0.087 H 
BRANCH  37  39
ATOM     39  N   LEU d   1     -11.083   6.223 -20.779  0.00  0.00    -0.346 N 
ATOM     40  C   SER d   1     -10.569   5.086 -20.319  0.00  0.00     0.243 C 
ATOM     41  O   SER d   1     -10.307   4.902 -19.130  0.00  0.00    -0.271 OA
ATOM     42  H   LEU d   1     -11.273   6.311 -21.757  0.00  0.00     0.163 HD
BRANCH  40  43
ATOM     43  CA  SER d   1     -10.313   3.996 -21.354  0.00  0.00     0.109 C 
ATOM     44  H   SER d   1     -10.111   3.055 -20.822  0.00  0.00     0.090 H 
BRANCH  43  45
ATOM     45  N   SER d   1     -11.477   3.795 -22.208  0.00  0.00    -0.344 N 
ATOM     46  C   GLY d   1     -12.705   3.711 -21.707  0.00  0.00     0.243 C 
ATOM     47  O   GLY d   1     -12.944   3.795 -20.502  0.00  0.00    -0.272 OA
ATOM     48  H   SER d   1     -11.348   3.718 -23.197  0.00  0.00     0.163 HD
BRANCH  46  49
ATOM     49  CA  GLY d   1     -13.824   3.501 -22.708  0.00  0.00     0.152 C 
ATOM     50  H   GLY d   1     -13.398   3.514 -23.722  0.00  0.00     0.090 H 
ATOM     51  H   GLY d   1     -14.289   2.522 -22.518  0.00  0.00     0.090 H 
BRANCH  49  52
ATOM     52  N   GLY d   1     -14.847   4.527 -22.620  0.00  0.00    -0.071 N 
ATOM     53  H   GLY d   1     -15.566   4.344 -23.303  0.00  0.00     0.274 HD
ATOM     54  H   GLY d   1     -14.435   5.429 -22.800  0.00  0.00     0.274 HD
ATOM     55  H   GLY d   1     -15.251   4.520 -21.697  0.00  0.00     0.274 HD
ENDBRANCH  49  52
ENDBRANCH  46  49
ENDBRANCH  43  45
BRANCH  43  56
ATOM     56  CB  SER d   1      -9.085   4.349 -22.196  0.00  0.00     0.044 C 
ATOM     57  H   SER d   1      -8.693   3.433 -22.662  0.00  0.00     0.077 H 
ATOM     58  H   SER d   1      -8.315   4.786 -21.543  0.00  0.00     0.077 H 
BRANCH  56  59
ATOM     59  OG  SER d   1      -9.414   5.281 -23.212  0.00  0.00    -0.398 OA
ATOM     60  H   SER d   1      -8.636   5.483 -23.719  0.00  0.00     0.209 HD
ENDBRANCH  56  59
ENDBRANCH  43  56
ENDBRANCH  40  43
ENDBRANCH  37  39
BRANCH  37  61
ATOM     61  CB  LEU d   1     -12.226   8.390 -20.619  0.00  0.00    -0.035 C 
ATOM     62  H   LEU d   1     -13.174   7.911 -20.906  0.00  0.00     0.037 H 
ATOM     63  H   LEU d   1     -11.681   8.696 -21.524  0.00  0.00     0.037 H 
BRANCH  61  64
ATOM     64  CG  LEU d   1     -12.564   9.655 -19.828  0.00  0.00    -0.059 C 
ATOM     65  H   LEU d   1     -13.319   9.396 -19.071  0.00  0.00     0.038 H 
BRANCH  64  66
ATOM     66  CD1 LEU d   1     -11.332  10.184 -19.109  0.00  0.00    -0.073 C 
ATOM     67  H   LEU d   1     -11.597  11.092 -18.547  0.00  0.00     0.028 H 
ATOM     68  H   LEU d   1     -10.552  10.423 -19.846  0.00  0.00     0.028 H 
ATOM     69  H   LEU d   1     -10.957   9.419 -18.413  0.00  0.00     0.028 H 
ENDBRANCH  64  66
BRANCH  64  70
ATOM     70  CD2 LEU d   1     -13.154  10.719 -20.741  0.00  0.00    -0.073 C 
ATOM     71  H   LEU d   1     -14.042  10.315 -21.249  0.00  0.00     0.028 H 
ATOM     72  H   LEU d   1     -12.405  11.015 -21.491  0.00  0.00     0.028 H 
ATOM     73  H   LEU d   1     -13.441  11.597 -20.143  0.00  0.00     0.028 H 
ENDBRANCH  64  70
ENDBRANCH  61  64
ENDBRANCH  37  61
ENDBRANCH  34  37
ENDBRANCH  31  33
BRANCH  31  74
ATOM     74  CB  LEU d   1     -15.074   4.680 -18.103  0.00  0.00    -0.035 C 
ATOM     75  H   LEU d   1     -15.625   4.386 -17.198  0.00  0.00     0.037 H 
ATOM     76  H   LEU d   1     -14.634   3.787 -18.571  0.00  0.00     0.037 H 
BRANCH  74  77
ATOM     77  CG  LEU d   1     -16.095   5.253 -19.089  0.00  0.00    -0.059 C 
ATOM     78  H   LEU d   1     -15.630   5.279 -20.085  0.00  0.00     0.038 H 
BRANCH  77  79
ATOM     79  CD1 LEU d   1     -17.302   4.324 -19.140  0.00  0.00    -0.073 C 
ATOM     80  H   LEU d   1     -18.044   4.725 -19.846  0.00  0.00     0.028 H 
ATOM     81  H   LEU d   1     -17.751   4.251 -18.139  0.00  0.00     0.028 H 
ATOM     82  H   LEU d   1     -16.982   3.325 -19.472  0.00  0.00     0.028 H 
ENDBRANCH  77  79
BRANCH  77  83
ATOM     83  CD2 LEU d   1     -16.527   6.665 -18.743  0.00  0.00    -0.073 C 
ATOM     84  H   LEU d   1     -15.645   7.321 -18.711  0.00  0.00     0.028 H 
ATOM     85  H   LEU d   1     -17.021   6.667 -17.760  0.00  0.00     0.028 H 
ATOM     86  H   LEU d   1     -17.228   7.032 -19.507  0.00  0.00     0.028 H 
ENDBRANCH  77  83
ENDBRANCH  74  77
ENDBRANCH  31  74
ENDBRANCH  28  31
ENDBRANCH  25  27
BRANCH  25  87
ATOM     87  CB  ARG d   1     -10.393   2.229 -17.199  0.00  0.00    -0.036 C 
ATOM     88  H   ARG d   1      -9.786   1.636 -16.500  0.00  0.00     0.036 H 
ATOM     89  H   ARG d   1      -9.731   2.791 -17.875  0.00  0.00     0.036 H 
BRANCH  87  90
ATOM     90  CG  ARG d   1     -11.221   1.249 -18.055  0.00  0.00    -0.048 C 
ATOM     91  H   ARG d   1     -10.537   0.492 -18.467  0.00  0.00     0.035 H 
ATOM     92  H   ARG d   1     -11.679   1.816 -18.879  0.00  0.00     0.035 H 
BRANCH  90  93
ATOM     93  CD  ARG d   1     -12.341   0.520 -17.295  0.00  0.00     0.009 C 
ATOM     94  H   ARG d   1     -12.753  -0.271 -17.939  0.00  0.00     0.064 H 
ATOM     95  H   ARG d   1     -13.133   1.242 -17.049  0.00  0.00     0.064 H 
BRANCH  93  96
ATOM     96  NE  ARG d   1     -11.851  -0.083 -16.060  0.00  0.00    -0.227 N 
ATOM     97  CZ  ARG d   1     -12.429  -0.008 -14.858  0.00  0.00     0.665 C 
ATOM     98  NH1 ARG d   1     -13.602   0.610 -14.675  0.00  0.00    -0.235 N 
ATOM     99  NH2 ARG d   1     -11.841  -0.591 -13.823  0.00  0.00    -0.235 N 
ATOM    100  H   ARG d   1     -14.022   0.651 -13.735  0.00  0.00     0.174 HD
ATOM    101  H   ARG d   1     -14.085   1.045 -15.474  0.00  0.00     0.174 HD
ATOM    102  H   ARG d   1     -10.938  -1.071 -13.947  0.00  0.00     0.174 HD
ATOM    103  H   ARG d   1     -12.287  -0.564 -12.895  0.00  0.00     0.174 HD
ATOM    104  H   ARG d   1     -10.973  -0.619 -16.121  0.00  0.00     0.177 HD
ENDBRANCH  93  96
ENDBRANCH  90  93
ENDBRANCH  87  90
ENDBRANCH  25  87
ENDBRANCH  22  25
ENDBRANCH  19  21
BRANCH  19 105
ATOM    105  CB  VAL d   1      -8.512   7.370 -16.484  0.00  0.00    -0.033 C 
ATOM    106  H   VAL d   1      -9.364   7.726 -17.082  0.00  0.00     0.042 H 
BRANCH 105 107
ATOM    107  CG1 VAL d   1      -7.934   8.545 -15.715  0.00  0.00    -0.071 C 
ATOM    108  H   VAL d   1      -7.582   9.309 -16.423  0.00  0.00     0.028 H 
ATOM    109  H   VAL d   1      -7.091   8.200 -15.098  0.00  0.00     0.028 H 
ATOM    110  H   VAL d   1      -8.711   8.977 -15.067  0.00  0.00     0.028 H 
ENDBRANCH 105 107
BRANCH 105 111
ATOM    111  CG2 VAL d   1      -7.450   6.825 -17.426  0.00  0.00    -0.071 C 
ATOM    112  H   VAL d   1      -7.861   5.973 -17.988  0.00  0.00     0.028 H 
ATOM    113  H   VAL d   1      -6.578   6.494 -16.843  0.00  0.00     0.028 H 
ATOM    114  H   VAL d   1      -7.144   7.614 -18.129  0.00  0.00     0.028 H 
ENDBRANCH 105 111
ENDBRANCH  19 105
ENDBRANCH  16  19
ENDBRANCH  13  15
BRANCH  13 115
ATOM    115  CB  GLN d   1     -13.181   8.548 -14.299  0.00  0.00    -0.030 C 
ATOM    116  H   GLN d   1     -13.847   8.903 -13.499  0.00  0.00     0.037 H 
ATOM    117  H   GLN d   1     -13.684   7.754 -14.870  0.00  0.00     0.037 H 
BRANCH 115 118
ATOM    118  CG  GLN d   1     -12.888   9.718 -15.245  0.00  0.00     0.011 C 
ATOM    119  H   GLN d   1     -11.938   9.511 -15.760  0.00  0.00     0.047 H 
ATOM    120  H   GLN d   1     -12.785  10.630 -14.639  0.00  0.00     0.047 H 
BRANCH 118 121
ATOM    121  CD  GLN d   1     -13.956   9.970 -16.303  0.00  0.00     0.215 C 
ATOM    122  OE1 GLN d   1     -14.566   9.043 -16.843  0.00  0.00    -0.274 OA
ATOM    123  NE2 GLN d   1     -14.158  11.236 -16.633  0.00  0.00    -0.370 N 
ATOM    124  H   GLN d   1     -14.845  11.470 -17.321  0.00  0.00     0.159 HD
ATOM    125  H   GLN d   1     -13.624  11.959 -16.194  0.00  0.00     0.159 HD
ENDBRANCH 118 121
ENDBRANCH 115 118
ENDBRANCH  13 115
ENDBRANCH  10  13
ENDBRANCH   7   9
BRANCH   7 126
ATOM    126  CB  ALA d   1     -13.127   3.375 -12.655  0.00  0.00    -0.049 C 
ATOM    127  H   ALA d   1     -13.368   2.600 -11.913  0.00  0.00     0.030 H 
ATOM    128  H   ALA d   1     -12.269   3.048 -13.261  0.00  0.00     0.030 H 
ATOM    129  H   ALA d   1     -13.996   3.539 -13.309  0.00  0.00     0.030 H 
ENDBRANCH   7 126
ENDBRANCH   4   7
ENDBRANCH   1   3
BRANCH   1 130
ATOM    130  C   HIS d   1      -8.992   5.489  -9.691  0.00  0.00     0.241 C 
ATOM    131  O   HIS d   1      -8.547   5.368  -8.556  0.00  0.00    -0.271 OA
ATOM    132  N   ILE d   1      -9.278   6.679 -10.213  0.00  0.00    -0.346 N 
ATOM    133  H   ILE d   1      -9.575   6.751 -11.165  0.00  0.00     0.163 HD
BRANCH 132 134
ATOM    134  CA  ILE d   1      -9.157   7.880  -9.390  0.00  0.00     0.092 C 
ATOM    135  H   ILE d   1      -8.152   7.871  -8.944  0.00  0.00     0.088 H 
BRANCH 134 136
ATOM    136  C   ILE d   1     -10.178   7.845  -8.241  0.00  0.00     0.241 C 
ATOM    137  O   ILE d   1      -9.819   8.094  -7.096  0.00  0.00    -0.271 OA
ATOM    138  N   ARG d   1     -11.426   7.496  -8.538  0.00  0.00    -0.346 N 
ATOM    139  H   ARG d   1     -11.676   7.316  -9.489  0.00  0.00     0.163 HD
BRANCH 138 140
ATOM    140  CA  ARG d   1     -12.439   7.373  -7.487  0.00  0.00     0.089 C 
ATOM    141  H   ARG d   1     -12.496   8.343  -6.972  0.00  0.00     0.087 H 
BRANCH 140 142
ATOM    142  C   ARG d   1     -12.050   6.326  -6.442  0.00  0.00     0.241 C 
ATOM    143  O   ARG d   1     -12.207   6.558  -5.239  0.00  0.00    -0.271 OA
ATOM    144  N   LYS d   1     -11.496   5.203  -6.893  0.00  0.00    -0.346 N 
ATOM    145  H   LYS d   1     -11.428   5.056  -7.880  0.00  0.00     0.163 HD
BRANCH 144 146
ATOM    146  CA  LYS d   1     -10.982   4.175  -5.983  0.00  0.00     0.089 C 
ATOM    147  H   LYS d   1     -11.813   3.834  -5.348  0.00  0.00     0.087 H 
BRANCH 146 148
ATOM    148  C   LYS d   1      -9.884   4.722  -5.075  0.00  0.00     0.241 C 
ATOM    149  O   LYS d   1      -9.931   4.540  -3.842  0.00  0.00    -0.271 OA
ATOM    150  N   LYS d   1      -8.894   5.386  -5.673  0.00  0.00    -0.346 N 
ATOM    151  H   LYS d   1      -8.905   5.494  -6.667  0.00  0.00     0.163 HD
BRANCH 150 152
ATOM    152  CA  LYS d   1      -7.781   5.964  -4.893  0.00  0.00     0.089 C 
ATOM    153  H   LYS d   1      -7.298   5.136  -4.353  0.00  0.00     0.087 H 
BRANCH 152 154
ATOM    154  C   LYS d   1      -8.243   6.985  -3.872  0.00  0.00     0.241 C 
ATOM    155  O   LYS d   1      -7.711   7.027  -2.768  0.00  0.00    -0.271 OA
ATOM    156  N   MET d   1      -9.218   7.815  -4.218  0.00  0.00    -0.346 N 
ATOM    157  H   MET d   1      -9.681   7.709  -5.098  0.00  0.00     0.163 HD
BRANCH 156 158
ATOM    158  CA  MET d   1      -9.610   8.882  -3.306  0.00  0.00     0.090 C 
ATOM    159  H   MET d   1      -8.691   9.240  -2.820  0.00  0.00     0.087 H 
BRANCH 158 160
ATOM    160  C   MET d   1     -10.543   8.397  -2.177  0.00  0.00     0.241 C 
ATOM    161  O   MET d   1     -10.793   9.139  -1.229  0.00  0.00    -0.271 OA
ATOM    162  N   VAL d   1     -10.984   7.141  -2.258  0.00  0.00    -0.344 N 
ATOM    163  H   VAL d   1     -10.842   6.633  -3.108  0.00  0.00     0.163 HD
BRANCH 162 164
ATOM    164  CA  VAL d   1     -11.666   6.482  -1.150  0.00  0.00     0.099 C 
ATOM    165  H   VAL d   1     -12.270   7.237  -0.625  0.00  0.00     0.090 H 
BRANCH 164 166
ATOM    166  C   VAL d   1     -10.667   5.889  -0.162  0.00  0.00     0.197 C 
ATOM    167  O   VAL d   1      -9.525   5.598  -0.519  0.00  0.00    -0.646 OA
ATOM    168  O1  VAL d   1     -11.014   5.695   1.034  0.00  0.00    -0.646 OA
ENDBRANCH 164 166
BRANCH 164 169
ATOM    169  CB  VAL d   1     -12.605   5.368  -1.647  0.00  0.00    -0.032 C 
ATOM    170  H   VAL d   1     -12.009   4.638  -2.215  0.00  0.00     0.042 H 
BRANCH 169 171
ATOM    171  CG1 VAL d   1     -13.246   4.650  -0.470  0.00  0.00    -0.071 C 
ATOM    172  H   VAL d   1     -13.913   3.858  -0.842  0.00  0.00     0.028 H 
ATOM    173  H   VAL d   1     -13.828   5.369   0.126  0.00  0.00     0.028 H 
ATOM    174  H   VAL d   1     -12.461   4.203   0.158  0.00  0.00     0.028 H 
ENDBRANCH 169 171
BRANCH 169 175
ATOM    175  CG2 VAL d   1     -13.667   5.944  -2.572  0.00  0.00    -0.071 C 
ATOM    176  H   VAL d   1     -13.180   6.458  -3.414  0.00  0.00     0.028 H 
ATOM    177  H   VAL d   1     -14.289   6.661  -2.015  0.00  0.00     0.028 H 
ATOM    178  H   VAL d   1     -14.300   5.130  -2.955  0.00  0.00     0.028 H 
ENDBRANCH 169 175
ENDBRANCH 164 169
ENDBRANCH 162 164
ENDBRANCH 158 160
BRANCH 158 179
ATOM    179  CB  MET d   1     -10.196  10.067  -4.084  0.00  0.00    -0.030 C 
ATOM    180  H   MET d   1     -10.546  10.816  -3.358  0.00  0.00     0.037 H 
ATOM    181  H   MET d   1     -11.049   9.703  -4.675  0.00  0.00     0.037 H 
BRANCH 179 182
ATOM    182  CG  MET d   1      -9.206  10.748  -5.038  0.00  0.00    -0.021 C 
ATOM    183  H   MET d   1      -9.770  11.479  -5.636  0.00  0.00     0.049 H 
ATOM    184  H   MET d   1      -8.795   9.972  -5.700  0.00  0.00     0.049 H 
BRANCH 182 185
ATOM    185  SD  MET d   1      -7.804  11.623  -4.281  0.00  0.00    -0.173 SA
BRANCH 185 186
ATOM    186  CE  MET d   1      -6.485  10.447  -4.532  0.00  0.00    -0.035 C 
ATOM    187  H   MET d   1      -5.550  10.850  -4.114  0.00  0.00     0.041 H 
ATOM    188  H   MET d   1      -6.357  10.264  -5.609  0.00  0.00     0.041 H 
ATOM    189  H   MET d   1      -6.735   9.502  -4.027  0.00  0.00     0.041 H 
ENDBRANCH 185 186
ENDBRANCH 182 185
ENDBRANCH 179 182
ENDBRANCH 158 179
ENDBRANCH 156 158
ENDBRANCH 152 154
BRANCH 152 190
ATOM    190  CB  LYS d   1      -6.720   6.638  -5.788  0.00  0.00    -0.038 C 
ATOM    191  H   LYS d   1      -5.992   7.137  -5.132  0.00  0.00     0.036 H 
ATOM    192  H   LYS d   1      -7.229   7.390  -6.409  0.00  0.00     0.036 H 
BRANCH 190 193
ATOM    193  CG  LYS d   1      -5.953   5.708  -6.716  0.00  0.00    -0.061 C 
ATOM    194  H   LYS d   1      -5.205   6.302  -7.261  0.00  0.00     0.033 H 
ATOM    195  H   LYS d   1      -6.664   5.268  -7.431  0.00  0.00     0.033 H 
BRANCH 193 196
ATOM    196  CD  LYS d   1      -5.231   4.571  -5.993  0.00  0.00    -0.043 C 
ATOM    197  H   LYS d   1      -5.005   3.780  -6.723  0.00  0.00     0.035 H 
ATOM    198  H   LYS d   1      -5.898   4.172  -5.215  0.00  0.00     0.035 H 
BRANCH 196 199
ATOM    199  CE  LYS d   1      -3.933   5.007  -5.338  0.00  0.00     0.080 C 
ATOM    200  H   LYS d   1      -4.153   5.535  -4.398  0.00  0.00     0.075 H 
ATOM    201  H   LYS d   1      -3.385   5.678  -6.016  0.00  0.00     0.075 H 
BRANCH 199 202
ATOM    202  NZ  LYS d   1      -3.108   3.804  -5.053  0.00  0.00    -0.079 N 
ATOM    203  H   LYS d   1      -2.243   4.085  -4.618  0.00  0.00     0.274 HD
ATOM    204  H   LYS d   1      -2.909   3.321  -5.915  0.00  0.00     0.274 HD
ATOM    205  H   LYS d   1      -3.612   3.190  -4.433  0.00  0.00     0.274 HD
ENDBRANCH 199 202
ENDBRANCH 196 199
ENDBRANCH 193 196
ENDBRANCH 190 193
ENDBRANCH 152 190
ENDBRANCH 150 152
ENDBRANCH 146 148
BRANCH 146 206
ATOM    206  CB  LYS d   1     -10.457   2.976  -6.781  0.00  0.00    -0.038 C 
ATOM    207  H   LYS d   1      -9.820   3.360  -7.591  0.00  0.00     0.036 H 
ATOM    208  H   LYS d   1     -11.322   2.450  -7.212  0.00  0.00     0.036 H 
BRANCH 206 209
ATOM    209  CG  LYS d   1      -9.639   1.960  -5.979  0.00  0.00    -0.061 C 
ATOM    210  H   LYS d   1     -10.327   1.288  -5.446  0.00  0.00     0.033 H 
ATOM    211  H   LYS d   1      -9.015   2.499  -5.250  0.00  0.00     0.033 H 
BRANCH 209 212
ATOM    212  CD  LYS d   1      -8.740   1.132  -6.882  0.00  0.00    -0.043 C 
ATOM    213  H   LYS d   1      -9.274   0.915  -7.819  0.00  0.00     0.035 H 
ATOM    214  H   LYS d   1      -8.492   0.188  -6.374  0.00  0.00     0.035 H 
BRANCH 212 215
ATOM    215  CE  LYS d   1      -7.452   1.874  -7.206  0.00  0.00     0.080 C 
ATOM    216  H   LYS d   1      -6.926   2.095  -6.265  0.00  0.00     0.075 H 
ATOM    217  H   LYS d   1      -7.707   2.816  -7.713  0.00  0.00     0.075 H 
BRANCH 215 218
ATOM    218  NZ  LYS d   1      -6.546   1.091  -8.084  0.00  0.00    -0.079 N 
ATOM    219  H   LYS d   1      -5.711   1.625  -8.267  0.00  0.00     0.274 HD
ATOM    220  H   LYS d   1      -7.013   0.889  -8.954  0.00  0.00     0.274 HD
ATOM    221  H   LYS d   1      -6.298   0.228  -7.627  0.00  0.00     0.274 HD
ENDBRANCH 215 218
ENDBRANCH 212 215
ENDBRANCH 209 212
ENDBRANCH 206 209
ENDBRANCH 146 206
ENDBRANCH 144 146
ENDBRANCH 140 142
BRANCH 140 222
ATOM    222  CB  ARG d   1     -13.820   7.087  -8.078  0.00  0.00    -0.036 C 
ATOM    223  H   ARG d   1     -14.495   6.796  -7.260  0.00  0.00     0.036 H 
ATOM    224  H   ARG d   1     -13.728   6.255  -8.791  0.00  0.00     0.036 H 
BRANCH 222 225
ATOM    225  CG  ARG d   1     -14.427   8.275  -8.802  0.00  0.00    -0.048 C 
ATOM    226  H   ARG d   1     -13.952   8.368  -9.790  0.00  0.00     0.035 H 
ATOM    227  H   ARG d   1     -14.233   9.184  -8.214  0.00  0.00     0.035 H 
BRANCH 225 228
ATOM    228  CD  ARG d   1     -15.939   8.127  -8.995  0.00  0.00     0.009 C 
ATOM    229  H   ARG d   1     -16.405   7.897  -8.026  0.00  0.00     0.064 H 
ATOM    230  H   ARG d   1     -16.134   7.305  -9.700  0.00  0.00     0.064 H 
BRANCH 228 231
ATOM    231  NE  ARG d   1     -16.515   9.353  -9.522  0.00  0.00    -0.227 N 
ATOM    232  CZ  ARG d   1     -16.610   9.672 -10.817  0.00  0.00     0.665 C 
ATOM    233  NH1 ARG d   1     -16.188   8.847 -11.772  0.00  0.00    -0.235 N 
ATOM    234  NH2 ARG d   1     -17.132  10.842 -11.163  0.00  0.00    -0.235 N 
ATOM    235  H   ARG d   1     -16.273   9.118 -12.762  0.00  0.00     0.174 HD
ATOM    236  H   ARG d   1     -15.776   7.937 -11.521  0.00  0.00     0.174 HD
ATOM    237  H   ARG d   1     -17.464  11.493 -10.437  0.00  0.00     0.174 HD
ATOM    238  H   ARG d   1     -17.205  11.099 -12.158  0.00  0.00     0.174 HD
ATOM    239  H   ARG d   1     -16.881  10.033  -8.841  0.00  0.00     0.177 HD
ENDBRANCH 228 231
ENDBRANCH 225 228
ENDBRANCH 222 225
ENDBRANCH 140 222
ENDBRANCH 138 140
ENDBRANCH 134 136
BRANCH 134 240
ATOM    240  CB  ILE d   1      -9.280   9.176 -10.200  0.00  0.00    -0.030 C 
ATOM    241  H   ILE d   1     -10.217   9.148 -10.775  0.00  0.00     0.043 H 
BRANCH 240 242
ATOM    242  CG1 ILE d   1      -8.107   9.294 -11.178  0.00  0.00    -0.063 C 
ATOM    243  H   ILE d   1      -8.010   8.340 -11.717  0.00  0.00     0.033 H 
ATOM    244  H   ILE d   1      -7.192   9.482 -10.598  0.00  0.00     0.033 H 
BRANCH 242 245
ATOM    245  CD1 ILE d   1      -8.259  10.403 -12.199  0.00  0.00    -0.076 C 
ATOM    246  H   ILE d   1      -7.378  10.418 -12.858  0.00  0.00     0.027 H 
ATOM    247  H   ILE d   1      -8.345  11.369 -11.681  0.00  0.00     0.027 H 
ATOM    248  H   ILE d   1      -9.164  10.227 -12.800  0.00  0.00     0.027 H 
ENDBRANCH 242 245
ENDBRANCH 240 242
BRANCH 240 249
ATOM    249  CG2 ILE d   1      -9.318  10.377  -9.258  0.00  0.00    -0.071 C 
ATOM    250  H   ILE d   1     -10.166  10.273  -8.565  0.00  0.00     0.028 H 
ATOM    251  H   ILE d   1      -9.435  11.300  -9.845  0.00  0.00     0.028 H 
ATOM    252  H   ILE d   1      -8.380  10.424  -8.685  0.00  0.00     0.028 H 
ENDBRANCH 240 249
ENDBRANCH 134 240
ENDBRANCH 132 134
ENDBRANCH   1 130
BRANCH   1 253
ATOM    253  CB  HIS d   1      -8.034   3.747 -11.302  0.00  0.00     0.004 C 
ATOM    254  H   HIS d   1      -7.152   3.888 -10.661  0.00  0.00     0.046 H 
ATOM    255  H   HIS d   1      -7.921   4.346 -12.217  0.00  0.00     0.046 H 
BRANCH 253 256
ATOM    256  CG  HIS d   1      -8.121   2.296 -11.686  0.00  0.00     0.053 A 
ATOM    257  ND1 HIS d   1      -7.853   1.281 -10.800  0.00  0.00    -0.247 NA
ATOM    258  CE1 HIS d   1      -8.039   0.115 -11.385  0.00  0.00     0.064 A 
ATOM    259  NE2 HIS d   1      -8.411   0.337 -12.631  0.00  0.00    -0.359 N 
ATOM    260  H   HIS d   1      -7.908  -0.862 -10.921  0.00  0.00     0.143 H 
ATOM    261  CD2 HIS d   1      -8.474   1.694 -12.843  0.00  0.00     0.002 A 
ATOM    262  H   HIS d   1      -8.620  -0.389 -13.332  0.00  0.00     0.166 HD
ATOM    263  H   HIS d   1      -8.756   2.191 -13.770  0.00  0.00     0.114 H 
ENDBRANCH 253 256
ENDBRANCH   1 253
TORSDOF 78
