REMARK  8 active torsions:
REMARK  status: ('A' for Active; 'I' for Inactive)
REMARK    1  A    between atoms: C7_7  and  C1_1 
REMARK    2  A    between atoms: C20_32  and  C18_13 
REMARK    3  A    between atoms: O26_18  and  C25_33 
REMARK    4  A    between atoms: C28_35  and  O26_18 
REMARK    5  A    between atoms: N34_37  and  C35_23 
REMARK    6  A    between atoms: C13_30  and  N11_27 
REMARK    7  A    between atoms: C14_31  and  C13_30 
REMARK    8  A    between atoms: C28_35  and  C29_36 
ROOT
ATOM      1  C1  3E8 d   1     108.006  17.626 141.386  0.00  0.00    -0.007 A 
ATOM      2  C2  3E8 d   1     108.236  16.392 141.982  0.00  0.00    -0.051 A 
ATOM      3  C3  3E8 d   1     108.886  18.099 140.411  0.00  0.00    -0.071 A 
ATOM      4  C4  3E8 d   1     109.353  15.640 141.614  0.00  0.00     0.045 A 
ATOM      5  C5  3E8 d   1     110.001  17.344 140.065  0.00  0.00    -0.081 A 
ATOM      6  C6  3E8 d   1     110.238  16.103 140.654  0.00  0.00    -0.063 A 
ATOM      7  C36 3E8 d   1     109.553  14.366 142.219  0.00  0.00     0.099 C 
ATOM      8  N37 3E8 d   1     109.644  13.303 142.672  0.00  0.00    -0.191 NA
ATOM      9  H1  3E8 d   1     107.549  16.014 142.731  0.00  0.00     0.087 H 
ATOM     10  H2  3E8 d   1     108.701  19.051 139.926  0.00  0.00     0.084 H 
ATOM     11  H3  3E8 d   1     110.696  17.726 139.326  0.00  0.00     0.083 H 
ATOM     12  H4  3E8 d   1     111.099  15.511 140.366  0.00  0.00     0.085 H 
ENDROOT
BRANCH   1  13
ATOM     13  C7  3E8 d   1     106.816  18.427 141.724  0.00  0.00     0.055 A 
ATOM     14  C8  3E8 d   1     106.069  18.268 142.992  0.00  0.00    -0.067 A 
ATOM     15  C10 3E8 d   1     104.985  19.020 143.243  0.00  0.00     0.028 A 
ATOM     16  H5  3E8 d   1     106.401  17.536 143.727  0.00  0.00     0.081 H 
ATOM     17  C12 3E8 d   1     104.545  19.999 142.254  0.00  0.00     0.241 A 
ATOM     18  H24 3E8 d   1     105.187  19.573 144.172  0.00  0.00     0.053 H 
ATOM     19  H25 3E8 d   1     104.145  18.328 143.403  0.00  0.00     0.053 H 
ATOM     20  N11 3E8 d   1     105.270  20.057 141.088  0.00  0.00    -0.256 N 
ATOM     21  O27 3E8 d   1     103.570  20.711 142.405  0.00  0.00    -0.271 OA
ATOM     22  N9  3E8 d   1     106.405  19.287 140.836  0.00  0.00    -0.295 N 
ATOM     23  H23 3E8 d   1     106.917  19.398 139.949  0.00  0.00     0.187 HD
BRANCH  20  24
ATOM     24  C13 3E8 d   1     105.001  21.017 140.013  0.00  0.00     0.042 C 
ATOM     25  H26 3E8 d   1     103.957  21.357 140.076  0.00  0.00     0.074 H 
ATOM     26  H27 3E8 d   1     105.172  20.536 139.039  0.00  0.00     0.074 H 
BRANCH  24  27
ATOM     27  C14 3E8 d   1     105.933  22.209 140.161  0.00  0.00    -0.037 A 
ATOM     28  C15 3E8 d   1     105.514  23.350 140.817  0.00  0.00    -0.075 A 
ATOM     29  C17 3E8 d   1     106.367  24.433 140.977  0.00  0.00    -0.082 A 
ATOM     30  H6  3E8 d   1     104.506  23.400 141.212  0.00  0.00     0.084 H 
ATOM     31  C19 3E8 d   1     107.652  24.381 140.504  0.00  0.00    -0.069 A 
ATOM     32  H8  3E8 d   1     106.014  25.326 141.480  0.00  0.00     0.083 H 
ATOM     33  C18 3E8 d   1     108.087  23.252 139.822  0.00  0.00     0.012 A 
ATOM     34  H9  3E8 d   1     108.325  25.216 140.661  0.00  0.00     0.085 H 
ATOM     35  C16 3E8 d   1     107.235  22.169 139.672  0.00  0.00    -0.062 A 
ATOM     36  H7  3E8 d   1     107.588  21.278 139.166  0.00  0.00     0.085 H 
BRANCH  33  37
ATOM     37  C20 3E8 d   1     109.477  23.122 139.402  0.00  0.00     0.159 A 
ATOM     38  N22 3E8 d   1     109.918  21.899 138.924  0.00  0.00    -0.238 NA
ATOM     39  C24 3E8 d   1     111.255  21.746 138.670  0.00  0.00     0.038 A 
ATOM     40  C25 3E8 d   1     112.127  22.782 138.874  0.00  0.00     0.103 A 
ATOM     41  H11 3E8 d   1     111.627  20.796 138.304  0.00  0.00     0.119 H 
ATOM     42  C23 3E8 d   1     111.669  24.007 139.339  0.00  0.00     0.038 A 
ATOM     43  N21 3E8 d   1     110.335  24.165 139.623  0.00  0.00    -0.238 NA
ATOM     44  H10 3E8 d   1     112.359  24.832 139.477  0.00  0.00     0.119 H 
BRANCH  40  45
ATOM     45  O26 3E8 d   1     113.440  22.552 138.576  0.00  0.00    -0.348 OA
BRANCH  45  46
ATOM     46  C28 3E8 d   1     114.461  23.378 139.107  0.00  0.00     0.030 C 
ATOM     47  H28 3E8 d   1     114.104  23.807 140.055  0.00  0.00     0.075 H 
ATOM     48  H29 3E8 d   1     114.662  24.188 138.390  0.00  0.00     0.075 H 
BRANCH  46  49
ATOM     49  C29 3E8 d   1     115.771  22.632 139.375  0.00  0.00    -0.030 C 
ATOM     50  C30 3E8 d   1     116.095  21.685 138.232  0.00  0.00    -0.037 C 
ATOM     51  C32 3E8 d   1     117.506  21.126 138.515  0.00  0.00     0.084 C 
ATOM     52  H12 3E8 d   1     115.361  20.866 138.197  0.00  0.00     0.036 H 
ATOM     53  H13 3E8 d   1     116.085  22.227 137.275  0.00  0.00     0.036 H 
ATOM     54  N34 3E8 d   1     117.562  20.432 139.826  0.00  0.00    -0.075 N 
ATOM     55  H16 3E8 d   1     118.226  21.958 138.520  0.00  0.00     0.075 H 
ATOM     56  H17 3E8 d   1     117.774  20.413 137.721  0.00  0.00     0.075 H 
ATOM     57  C33 3E8 d   1     117.123  21.257 140.976  0.00  0.00     0.084 C 
ATOM     58  H31 3E8 d   1     116.926  19.652 139.772  0.00  0.00     0.279 HD
ATOM     59  C31 3E8 d   1     115.716  21.827 140.681  0.00  0.00    -0.037 C 
ATOM     60  H18 3E8 d   1     117.086  20.635 141.883  0.00  0.00     0.075 H 
ATOM     61  H19 3E8 d   1     117.832  22.085 141.127  0.00  0.00     0.075 H 
ATOM     62  H14 3E8 d   1     115.403  22.483 141.506  0.00  0.00     0.036 H 
ATOM     63  H15 3E8 d   1     114.997  21.001 140.576  0.00  0.00     0.036 H 
ATOM     64  H30 3E8 d   1     116.577  23.376 139.457  0.00  0.00     0.043 H 
BRANCH  54  65
ATOM     65  C35 3E8 d   1     118.918  19.885 140.045  0.00  0.00     0.066 C 
ATOM     66  H20 3E8 d   1     119.214  19.279 139.176  0.00  0.00     0.068 H 
ATOM     67  H21 3E8 d   1     118.918  19.256 140.947  0.00  0.00     0.068 H 
ATOM     68  H22 3E8 d   1     119.631  20.713 140.174  0.00  0.00     0.068 H 
ENDBRANCH  54  65
ENDBRANCH  46  49
ENDBRANCH  45  46
ENDBRANCH  40  45
ENDBRANCH  33  37
ENDBRANCH  24  27
ENDBRANCH  20  24
ENDBRANCH   1  13
TORSDOF 8
