REMARK  17 active torsions:
REMARK  status: ('A' for Active; 'I' for Inactive)
REMARK    1  A    between atoms: C12_10  and  C1_1 
REMARK    2  A    between atoms: C5_5  and  O22_34 
REMARK    3  A    between atoms: C6_6  and  O23_35 
REMARK    4  A    between atoms: C15_11  and  N20_28 
REMARK    5  A    between atoms: C13_30  and  C19_15 
REMARK    6  A    between atoms: O22_34  and  C24_16 
REMARK    7  A    between atoms: C26_25  and  O28_17 
REMARK    8  A    between atoms: O28_17  and  C29_26 
REMARK    9  A    between atoms: C30_18  and  C31_19 
REMARK   10  A    between atoms: C29_26  and  C30_18 
REMARK   11  A    between atoms: C31_19  and  N32_27 
REMARK   12  A    between atoms: C33_20  and  C34_21 
REMARK   13  A    between atoms: N32_27  and  C33_20 
REMARK   14  A    between atoms: C35_22  and  C36_23 
REMARK   15  A    between atoms: N32_27  and  C35_22 
REMARK       I    between atoms: N20_28  and  C26_25 
REMARK   16  A    between atoms: C13_30  and  N8_31 
REMARK   17  A    between atoms: O23_35  and  C25_36 
ROOT
ATOM      1  C15 3EH d   1     -19.601  20.723  97.288  0.00  0.00     0.037 A 
ATOM      2  C16 3EH d   1     -17.737  19.657  98.362  0.00  0.00    -0.080 A 
ATOM      3  C17 3EH d   1     -18.883  21.899  97.251  0.00  0.00    -0.049 A 
ATOM      4  C18 3EH d   1     -17.028  20.842  98.306  0.00  0.00    -0.075 A 
ATOM      5  C19 3EH d   1     -17.596  21.972  97.755  0.00  0.00    -0.036 A 
ATOM      6  C14 3EH d   1     -19.030  19.592  97.868  0.00  0.00    -0.057 A 
ATOM      7  H6  3EH d   1     -17.280  18.774  98.794  0.00  0.00     0.083 H 
ATOM      8  H7  3EH d   1     -19.335  22.784  96.819  0.00  0.00     0.087 H 
ATOM      9  H8  3EH d   1     -16.018  20.884  98.698  0.00  0.00     0.084 H 
ATOM     10  H30 3EH d   1     -19.593  18.668  97.932  0.00  0.00     0.086 H 
ENDROOT
BRANCH   5  11
ATOM     11  C13 3EH d   1     -16.859  23.302  97.666  0.00  0.00     0.044 C 
ATOM     12  H31 3EH d   1     -17.168  23.791  96.730  0.00  0.00     0.074 H 
ATOM     13  H32 3EH d   1     -15.782  23.083  97.626  0.00  0.00     0.074 H 
BRANCH  11  14
ATOM     14  N8  3EH d   1     -17.081  24.278  98.781  0.00  0.00    -0.224 N 
ATOM     15  C7  3EH d   1     -16.468  24.189 100.015  0.00  0.00     0.302 C 
ATOM     16  S9  3EH d   1     -17.085  25.088 101.379  0.00  0.00    -0.061 SA
ATOM     17  O21 3EH d   1     -15.525  23.439 100.138  0.00  0.00    -0.258 OA
ATOM     18  C11 3EH d   1     -17.941  26.423 100.533  0.00  0.00     0.028 C 
ATOM     19  C12 3EH d   1     -18.800  25.861  99.408  0.00  0.00     0.075 C 
ATOM     20  H4  3EH d   1     -18.583  26.956 101.250  0.00  0.00     0.059 H 
ATOM     21  H5  3EH d   1     -17.202  27.121 100.113  0.00  0.00     0.059 H 
ATOM     22  N10 3EH d   1     -18.338  24.916  98.632  0.00  0.00    -0.172 NA
BRANCH  19  23
ATOM     23  C1  3EH d   1     -20.162  26.389  99.153  0.00  0.00    -0.006 A 
ATOM     24  C2  3EH d   1     -21.139  25.608  98.538  0.00  0.00    -0.068 A 
ATOM     25  C4  3EH d   1     -22.409  26.139  98.293  0.00  0.00    -0.047 A 
ATOM     26  H1  3EH d   1     -20.914  24.588  98.249  0.00  0.00     0.085 H 
ATOM     27  C6  3EH d   1     -22.717  27.447  98.659  0.00  0.00     0.101 A 
ATOM     28  H3  3EH d   1     -23.163  25.526  97.813  0.00  0.00     0.087 H 
ATOM     29  C5  3EH d   1     -21.748  28.222  99.282  0.00  0.00     0.102 A 
ATOM     30  C3  3EH d   1     -20.480  27.692  99.510  0.00  0.00    -0.036 A 
ATOM     31  H2  3EH d   1     -19.724  28.312  99.977  0.00  0.00     0.089 H 
BRANCH  27  32
ATOM     32  O23 3EH d   1     -23.955  28.010  98.458  0.00  0.00    -0.353 OA
BRANCH  32  33
ATOM     33  C25 3EH d   1     -24.812  27.761  97.348  0.00  0.00     0.010 C 
ATOM     34  H33 3EH d   1     -25.734  28.351  97.457  0.00  0.00     0.066 H 
ATOM     35  H34 3EH d   1     -25.063  26.691  97.312  0.00  0.00     0.066 H 
ATOM     36  H35 3EH d   1     -24.300  28.049  96.418  0.00  0.00     0.066 H 
ENDBRANCH  32  33
ENDBRANCH  27  32
BRANCH  29  37
ATOM     37  O22 3EH d   1     -22.091  29.498  99.636  0.00  0.00    -0.353 OA
BRANCH  37  38
ATOM     38  C24 3EH d   1     -21.251  30.443 100.298  0.00  0.00     0.010 C 
ATOM     39  H9  3EH d   1     -21.803  31.382 100.449  0.00  0.00     0.066 H 
ATOM     40  H10 3EH d   1     -20.360  30.637  99.682  0.00  0.00     0.066 H 
ATOM     41  H11 3EH d   1     -20.942  30.039 101.273  0.00  0.00     0.066 H 
ENDBRANCH  37  38
ENDBRANCH  29  37
ENDBRANCH  19  23
ENDBRANCH  11  14
ENDBRANCH   5  11
BRANCH   1  42
ATOM     42  N20 3EH d   1     -20.920  20.800  96.775  0.00  0.00    -0.303 N 
ATOM     43  C26 3EH d   1     -21.871  19.804  96.711  0.00  0.00     0.365 C 
ATOM     44  O27 3EH d   1     -21.653  18.681  97.083  0.00  0.00    -0.238 OA
ATOM     45  H29 3EH d   1     -21.196  21.691  96.413  0.00  0.00     0.171 HD
BRANCH  43  46
ATOM     46  O28 3EH d   1     -23.093  20.137  96.210  0.00  0.00    -0.304 OA
BRANCH  46  47
ATOM     47  C29 3EH d   1     -24.204  19.269  96.423  0.00  0.00     0.032 C 
ATOM     48  H26 3EH d   1     -23.896  18.467  97.110  0.00  0.00     0.075 H 
ATOM     49  H27 3EH d   1     -24.498  18.832  95.457  0.00  0.00     0.075 H 
BRANCH  47  50
ATOM     50  C30 3EH d   1     -25.412  19.986  97.022  0.00  0.00    -0.022 C 
ATOM     51  H12 3EH d   1     -26.192  19.248  97.261  0.00  0.00     0.038 H 
ATOM     52  H13 3EH d   1     -25.107  20.507  97.941  0.00  0.00     0.038 H 
BRANCH  50  53
ATOM     53  C31 3EH d   1     -25.967  21.003  96.024  0.00  0.00     0.085 C 
ATOM     54  H14 3EH d   1     -26.857  20.581  95.534  0.00  0.00     0.076 H 
ATOM     55  H15 3EH d   1     -25.201  21.223  95.266  0.00  0.00     0.076 H 
BRANCH  53  56
ATOM     56  N32 3EH d   1     -26.341  22.260  96.720  0.00  0.00    -0.072 N 
ATOM     57  H28 3EH d   1     -25.606  22.468  97.377  0.00  0.00     0.279 HD
BRANCH  56  58
ATOM     58  C33 3EH d   1     -26.396  23.385  95.750  0.00  0.00     0.080 C 
ATOM     59  H16 3EH d   1     -26.681  24.293  96.302  0.00  0.00     0.075 H 
ATOM     60  H17 3EH d   1     -25.390  23.514  95.325  0.00  0.00     0.075 H 
BRANCH  58  61
ATOM     61  C34 3EH d   1     -27.383  23.213  94.582  0.00  0.00    -0.053 C 
ATOM     62  H18 3EH d   1     -27.340  24.099  93.932  0.00  0.00     0.029 H 
ATOM     63  H19 3EH d   1     -28.403  23.098  94.978  0.00  0.00     0.029 H 
ATOM     64  H20 3EH d   1     -27.112  22.319  94.001  0.00  0.00     0.029 H 
ENDBRANCH  58  61
ENDBRANCH  56  58
BRANCH  56  65
ATOM     65  C35 3EH d   1     -27.593  22.124  97.506  0.00  0.00     0.080 C 
ATOM     66  H21 3EH d   1     -28.453  22.223  96.827  0.00  0.00     0.075 H 
ATOM     67  H22 3EH d   1     -27.611  21.131  97.978  0.00  0.00     0.075 H 
BRANCH  65  68
ATOM     68  C36 3EH d   1     -27.697  23.195  98.599  0.00  0.00    -0.053 C 
ATOM     69  H23 3EH d   1     -28.636  23.060  99.157  0.00  0.00     0.029 H 
ATOM     70  H24 3EH d   1     -27.686  24.193  98.137  0.00  0.00     0.029 H 
ATOM     71  H25 3EH d   1     -26.845  23.100  99.288  0.00  0.00     0.029 H 
ENDBRANCH  65  68
ENDBRANCH  56  65
ENDBRANCH  53  56
ENDBRANCH  50  53
ENDBRANCH  47  50
ENDBRANCH  46  47
ENDBRANCH  43  46
ENDBRANCH   1  42
TORSDOF 17
