REMARK  12 active torsions:
REMARK  status: ('A' for Active; 'I' for Inactive)
REMARK    1  A    between atoms: OAC_1  and  CAI_2 
REMARK    2  A    between atoms: CAI_2  and  CAN_3 
REMARK    3  A    between atoms: CAN_3  and  CAK_4 
REMARK    4  A    between atoms: CAN_3  and  CAJ_6 
REMARK    5  A    between atoms: CAK_4  and  OAG_5 
REMARK    6  A    between atoms: CAJ_6  and  N_7 
REMARK    7  A    between atoms: N_7  and  CA_8 
REMARK    8  A    between atoms: CA_8  and  C_9 
REMARK    9  A    between atoms: CA_8  and  CB_12 
REMARK   10  A    between atoms: CB_12  and  CG1_13 
REMARK   11  A    between atoms: CB_12  and  CG2_14 
REMARK   12  A    between atoms: CB_12  and  SAP_15 
ROOT
ATOM      1  N   3GE d   1       7.618  37.178   4.147  0.00  0.00    -0.059 N 
ATOM      2  H10 3GE d   1       6.660  37.219   4.458  0.00  0.00     0.278 HD
ATOM      3  H11 3GE d   1       7.644  36.941   3.168  0.00  0.00     0.278 HD
ENDROOT
BRANCH   1   4
ATOM      4  CAJ 3GE d   1       8.147  36.202   4.760  0.00  0.00     0.090 C 
ATOM      5  H8  3GE d   1       9.191  36.155   4.415  0.00  0.00     0.076 H 
ATOM      6  H9  3GE d   1       8.125  36.465   5.828  0.00  0.00     0.076 H 
BRANCH   4   7
ATOM      7  CAN 3GE d   1       7.666  34.938   4.674  0.00  0.00     0.010 C 
ATOM      8  H4  3GE d   1       8.306  34.748   3.800  0.00  0.00     0.049 H 
BRANCH   7   9
ATOM      9  CAI 3GE d   1       8.306  33.840   5.415  0.00  0.00     0.024 C 
ATOM     10  H2  3GE d   1       7.527  33.314   5.986  0.00  0.00     0.074 H 
ATOM     11  H3  3GE d   1       8.754  33.151   4.684  0.00  0.00     0.074 H 
BRANCH   9  12
ATOM     12  OAC 3GE d   1       9.187  34.186   6.202  0.00  0.00    -0.400 OA
ATOM     13  H1  3GE d   1       9.543  33.419   6.634  0.00  0.00     0.209 HD
ENDBRANCH   9  12
ENDBRANCH   7   9
BRANCH   7  14
ATOM     14  CAK 3GE d   1       6.433  34.617   3.871  0.00  0.00     0.024 C 
ATOM     15  H5  3GE d   1       6.482  33.596   3.465  0.00  0.00     0.074 H 
ATOM     16  H6  3GE d   1       6.302  35.334   3.047  0.00  0.00     0.074 H 
BRANCH  14  17
ATOM     17  OAG 3GE d   1       5.384  34.736   4.819  0.00  0.00    -0.400 OA
ATOM     18  H7  3GE d   1       5.527  34.119   5.527  0.00  0.00     0.209 HD
ENDBRANCH  14  17
ENDBRANCH   7  14
ENDBRANCH   4   7
ENDBRANCH   1   4
BRANCH   1  19
ATOM     19  CA  3GE d   1       8.139  38.545   4.250  0.00  0.00     0.203 C 
ATOM     20  H12 3GE d   1       8.427  38.662   5.305  0.00  0.00     0.104 H 
BRANCH  19  21
ATOM     21  C   3GE d   1       9.418  38.742   3.471  0.00  0.00     0.206 C 
ATOM     22  O   3GE d   1       9.648  38.015   2.481  0.00  0.00    -0.646 OA
ATOM     23  OXT 3GE d   1      10.215  39.629   3.856  0.00  0.00    -0.646 OA
ENDBRANCH  19  21
BRANCH  19  24
ATOM     24  CB  3GE d   1       7.068  39.651   4.006  0.00  0.00     0.092 C 
BRANCH  24  25
ATOM     25  CG1 3GE d   1       7.455  40.626   2.901  0.00  0.00    -0.054 C 
ATOM     26  H13 3GE d   1       6.661  41.377   2.780  0.00  0.00     0.029 H 
ATOM     27  H14 3GE d   1       7.587  40.077   1.957  0.00  0.00     0.029 H 
ATOM     28  H15 3GE d   1       8.397  41.128   3.168  0.00  0.00     0.029 H 
ENDBRANCH  24  25
BRANCH  24  29
ATOM     29  CG2 3GE d   1       6.972  40.420   5.315  0.00  0.00    -0.054 C 
ATOM     30  H16 3GE d   1       6.693  39.731   6.126  0.00  0.00     0.029 H 
ATOM     31  H17 3GE d   1       6.208  41.206   5.223  0.00  0.00     0.029 H 
ATOM     32  H18 3GE d   1       7.945  40.879   5.543  0.00  0.00     0.029 H 
ENDBRANCH  24  29
BRANCH  24  33
ATOM     33  SAP 3GE d   1       5.534  39.091   3.624  0.00  0.00     0.148 S 
ATOM     34  OAE 3GE d   1       5.065  38.157   4.610  0.00  0.00    -0.230 OA
ATOM     35  OAF 3GE d   1       5.515  38.461   2.326  0.00  0.00    -0.230 OA
ATOM     36  H19 3GE d   1       4.907  39.880   3.606  0.00  0.00     0.172 HD
ENDBRANCH  24  33
ENDBRANCH  19  24
ENDBRANCH   1  19
TORSDOF 12
