REMARK  4 active torsions:
REMARK  status: ('A' for Active; 'I' for Inactive)
REMARK    1  A    between atoms: C29_1  and  N26_2 
REMARK    2  A    between atoms: N18_5  and  C14_8 
REMARK    3  A    between atoms: C16_10  and  C17_11 
REMARK    4  A    between atoms: C11_17  and  C8_20 
ROOT
ATOM      1  C14 3GF d   1      65.127  77.396  22.425  0.00  0.00     0.148 A 
ATOM      2  C15 3GF d   1      64.621  76.111  22.658  0.00  0.00    -0.024 A 
ATOM      3  C16 3GF d   1      63.656  75.568  21.806  0.00  0.00     0.009 A 
ATOM      4  C11 3GF d   1      63.219  76.305  20.699  0.00  0.00     0.100 A 
ATOM      5  N12 3GF d   1      63.732  77.518  20.486  0.00  0.00    -0.147 NA
ATOM      6  N13 3GF d   1      64.685  78.047  21.346  0.00  0.00    -0.132 NA
ATOM      7  H13 3GF d   1      64.980  75.535  23.503  0.00  0.00     0.090 H 
ENDROOT
BRANCH   1   8
ATOM      8  N18 3GF d   1      66.109  78.009  23.249  0.00  0.00    -0.361 N 
ATOM      9  C28 3GF d   1      66.474  77.343  24.514  0.00  0.00     0.019 C 
ATOM     10  C27 3GF d   1      67.176  78.260  25.512  0.00  0.00     0.098 C 
ATOM     11  H7  3GF d   1      65.555  76.960  24.982  0.00  0.00     0.066 H 
ATOM     12  H8  3GF d   1      67.146  76.503  24.283  0.00  0.00     0.066 H 
ATOM     13  N26 3GF d   1      67.991  79.312  24.890  0.00  0.00    -0.072 N 
ATOM     14  H5  3GF d   1      66.409  78.741  26.137  0.00  0.00     0.078 H 
ATOM     15  H6  3GF d   1      67.832  77.644  26.145  0.00  0.00     0.078 H 
ATOM     16  C25 3GF d   1      67.162  80.082  23.962  0.00  0.00     0.098 C 
ATOM     17  H4  3GF d   1      68.781  78.916  24.406  0.00  0.00     0.279 HD
ATOM     18  C24 3GF d   1      66.772  79.227  22.769  0.00  0.00     0.019 C 
ATOM     19  H11 3GF d   1      67.728  80.958  23.611  0.00  0.00     0.078 H 
ATOM     20  H12 3GF d   1      66.252  80.417  24.481  0.00  0.00     0.078 H 
ATOM     21  H9  3GF d   1      66.084  79.790  22.121  0.00  0.00     0.066 H 
ATOM     22  H10 3GF d   1      67.673  78.956  22.199  0.00  0.00     0.066 H 
BRANCH  13  23
ATOM     23  C29 3GF d   1      68.433  80.188  25.988  0.00  0.00     0.066 C 
ATOM     24  H1  3GF d   1      69.057  79.612  26.688  0.00  0.00     0.068 H 
ATOM     25  H2  3GF d   1      67.554  80.582  26.519  0.00  0.00     0.068 H 
ATOM     26  H3  3GF d   1      69.019  81.024  25.577  0.00  0.00     0.068 H 
ENDBRANCH  13  23
ENDBRANCH   1   8
BRANCH   3  27
ATOM     27  C17 3GF d   1      63.217  74.180  22.123  0.00  0.00    -0.021 A 
ATOM     28  C19 3GF d   1      63.251  73.200  21.138  0.00  0.00    -0.055 A 
ATOM     29  C20 3GF d   1      62.895  71.896  21.457  0.00  0.00     0.003 A 
ATOM     30  H14 3GF d   1      63.553  73.452  20.128  0.00  0.00     0.087 H 
ATOM     31  N21 3GF d   1      62.552  71.571  22.716  0.00  0.00    -0.273 NA
ATOM     32  H15 3GF d   1      62.894  71.135  20.685  0.00  0.00     0.114 H 
ATOM     33  C22 3GF d   1      62.514  72.497  23.687  0.00  0.00     0.003 A 
ATOM     34  C23 3GF d   1      62.879  73.811  23.425  0.00  0.00    -0.055 A 
ATOM     35  H16 3GF d   1      62.196  72.217  24.684  0.00  0.00     0.114 H 
ATOM     36  H17 3GF d   1      62.901  74.543  24.224  0.00  0.00     0.087 H 
ENDBRANCH   3  27
BRANCH   4  37
ATOM     37  C8  3GF d   1      62.224  75.817  19.714  0.00  0.00    -0.004 A 
ATOM     38  C7  3GF d   1      62.601  75.775  18.382  0.00  0.00    -0.060 A 
ATOM     39  C6  3GF d   1      61.704  75.334  17.429  0.00  0.00    -0.025 A 
ATOM     40  H18 3GF d   1      63.597  76.087  18.088  0.00  0.00     0.086 H 
ATOM     41  C5  3GF d   1      62.052  75.263  16.083  0.00  0.00    -0.072 A 
ATOM     42  C1  3GF d   1      60.351  74.900  17.845  0.00  0.00    -0.026 A 
ATOM     43  C4  3GF d   1      61.134  74.790  15.152  0.00  0.00    -0.082 A 
ATOM     44  H19 3GF d   1      63.038  75.576  15.761  0.00  0.00     0.084 H 
ATOM     45  C3  3GF d   1      59.858  74.382  15.548  0.00  0.00    -0.082 A 
ATOM     46  H20 3GF d   1      61.412  74.737  14.106  0.00  0.00     0.083 H 
ATOM     47  C2  3GF d   1      59.463  74.440  16.881  0.00  0.00    -0.072 A 
ATOM     48  H21 3GF d   1      59.162  74.013  14.803  0.00  0.00     0.083 H 
ATOM     49  H22 3GF d   1      58.465  74.127  17.166  0.00  0.00     0.084 H 
ATOM     50  C10 3GF d   1      60.004  74.967  19.176  0.00  0.00    -0.071 A 
ATOM     51  C9  3GF d   1      60.942  75.426  20.106  0.00  0.00    -0.070 A 
ATOM     52  H23 3GF d   1      59.014  74.667  19.500  0.00  0.00     0.084 H 
ATOM     53  H24 3GF d   1      60.668  75.479  21.154  0.00  0.00     0.084 H 
ENDBRANCH   4  37
TORSDOF 4
