REMARK WARNING: 32 MAX_TORS EXCEEDED!!!
REMARK  55 active torsions:
REMARK  status: ('A' for Active; 'I' for Inactive)
REMARK    1  A    between atoms: N_1  and  CA_2 
REMARK    2  A    between atoms: CA_2  and  C_3 
REMARK    3  A    between atoms: CA_2  and  CB_5 
REMARK       I    between atoms: C_3  and  N_6 
REMARK    4  A    between atoms: N_6  and  CA_7 
REMARK    5  A    between atoms: CA_7  and  C_8 
REMARK    6  A    between atoms: CA_7  and  CB_10 
REMARK       I    between atoms: C_8  and  N_14 
REMARK    7  A    between atoms: CB_10  and  CG_11 
REMARK       I    between atoms: CG_11  and  ND2_13 
REMARK    8  A    between atoms: N_14  and  CA_15 
REMARK    9  A    between atoms: CA_15  and  C_16 
REMARK   10  A    between atoms: CA_15  and  CB_18 
REMARK       I    between atoms: C_16  and  N_22 
REMARK   11  A    between atoms: CB_18  and  CG_19 
REMARK       I    between atoms: CG_19  and  ND2_21 
REMARK   12  A    between atoms: N_22  and  CA_23 
REMARK   13  A    between atoms: CA_23  and  C_24 
REMARK   14  A    between atoms: CA_23  and  CB_26 
REMARK       I    between atoms: C_24  and  N_27 
REMARK   15  A    between atoms: N_27  and  CA_28 
REMARK   16  A    between atoms: CA_28  and  C_29 
REMARK   17  A    between atoms: CA_28  and  CB_31 
REMARK       I    between atoms: C_29  and  N_39 
REMARK   18  A    between atoms: CB_31  and  CG_32 
REMARK   19  A    between atoms: CZ_37  and  OH_38 
REMARK   20  A    between atoms: N_39  and  CA_40 
REMARK   21  A    between atoms: CA_40  and  C_41 
REMARK   22  A    between atoms: CA_40  and  CB_43 
REMARK       I    between atoms: C_41  and  N_47 
REMARK   23  A    between atoms: CB_43  and  CG_44 
REMARK       I    between atoms: CG_44  and  ND2_46 
REMARK   24  A    between atoms: N_47  and  CA_48 
REMARK   25  A    between atoms: CA_48  and  C_49 
REMARK   26  A    between atoms: CA_48  and  CB_51 
REMARK       I    between atoms: C_49  and  N_55 
REMARK   27  A    between atoms: CB_51  and  CG_52 
REMARK   28  A    between atoms: CG_52  and  SD_53 
REMARK   29  A    between atoms: SD_53  and  CE_54 
REMARK   30  A    between atoms: N_55  and  CA_56 
REMARK   31  A    between atoms: CA_56  and  C_57 
REMARK   32  A    between atoms: CA_56  and  CB_59 
REMARK       I    between atoms: C_57  and  N_61 
REMARK   33  A    between atoms: CB_59  and  OG_60 
REMARK   34  A    between atoms: N_61  and  CA_62 
REMARK   35  A    between atoms: CA_62  and  C_63 
REMARK   36  A    between atoms: CA_62  and  CB_65 
REMARK       I    between atoms: C_63  and  N_69 
REMARK   37  A    between atoms: CB_65  and  CG1_66 
REMARK   38  A    between atoms: CB_65  and  CG2_67 
REMARK   39  A    between atoms: CG1_66  and  CD1_68 
REMARK   40  A    between atoms: N_69  and  CA_70 
REMARK   41  A    between atoms: CA_70  and  C_71 
REMARK   42  A    between atoms: CA_70  and  CB_73 
REMARK       I    between atoms: C_71  and  N_80 
REMARK   43  A    between atoms: CB_73  and  CG_74 
REMARK   44  A    between atoms: CG_74  and  CD_75 
REMARK   45  A    between atoms: CD_75  and  NE_76 
REMARK       I    between atoms: NE_76  and  CZ_77 
REMARK       I    between atoms: CZ_77  and  NH1_78 
REMARK       I    between atoms: CZ_77  and  NH2_79 
REMARK   46  A    between atoms: N_80  and  CA_81 
REMARK   47  A    between atoms: CA_81  and  C_82 
REMARK   48  A    between atoms: CA_81  and  CB_84 
REMARK       I    between atoms: C_82  and  N_91 
REMARK   49  A    between atoms: CB_84  and  CG_85 
REMARK   50  A    between atoms: CG_85  and  CD_86 
REMARK   51  A    between atoms: CD_86  and  NE_87 
REMARK       I    between atoms: NE_87  and  CZ_88 
REMARK       I    between atoms: CZ_88  and  NH1_89 
REMARK   52  A    between atoms: N_91  and  CA_92 
REMARK   53  A    between atoms: CA_92  and  C_93 
REMARK   54  A    between atoms: CA_92  and  CB_95 
REMARK       I    between atoms: C_93  and  N_97 
REMARK   55  A    between atoms: CB_95  and  OG_96 
ROOT
ATOM      1  CA  MET d   1       0.859  10.992   9.177  0.00  0.00     0.090 C 
ATOM      2  H41 MET d   1       0.172  11.831   9.366  0.00  0.00     0.087 H 
ENDROOT
BRANCH   1   3
ATOM      3  N   MET d   1       1.909  11.063  10.179  0.00  0.00    -0.346 N 
ATOM      4  C   ASN d   1       1.928  12.096  11.018  0.00  0.00     0.241 C 
ATOM      5  O   ASN d   1       0.989  12.861  11.134  0.00  0.00    -0.271 OA
ATOM      6  H40 MET d   1       2.606  10.348  10.237  0.00  0.00     0.163 HD
BRANCH   4   7
ATOM      7  CA  ASN d   1       3.206  12.358  11.765  0.00  0.00     0.097 C 
ATOM      8  H35 ASN d   1       2.958  12.861  12.711  0.00  0.00     0.088 H 
BRANCH   7   9
ATOM      9  N   ASN d   1       3.933  11.125  12.093  0.00  0.00    -0.346 N 
ATOM     10  C   TYR d   1       3.504  10.348  13.097  0.00  0.00     0.241 C 
ATOM     11  O   TYR d   1       2.466  10.573  13.693  0.00  0.00    -0.271 OA
ATOM     12  H34 ASN d   1       4.745  10.866  11.569  0.00  0.00     0.163 HD
BRANCH  10  13
ATOM     13  CA  TYR d   1       4.339   9.130  13.446  0.00  0.00     0.093 C 
ATOM     14  H26 TYR d   1       3.723   8.430  14.030  0.00  0.00     0.088 H 
BRANCH  13  15
ATOM     15  N   TYR d   1       4.769   8.471  12.214  0.00  0.00    -0.346 N 
ATOM     16  C   ALA d   1       3.834   8.019  11.378  0.00  0.00     0.240 C 
ATOM     17  O   ALA d   1       2.643   8.020  11.689  0.00  0.00    -0.271 OA
ATOM     18  H25 TYR d   1       5.740   8.362  12.004  0.00  0.00     0.163 HD
BRANCH  16  19
ATOM     19  CA  ALA d   1       4.287   7.455  10.026  0.00  0.00     0.086 C 
ATOM     20  H21 ALA d   1       3.514   7.698   9.282  0.00  0.00     0.086 H 
BRANCH  19  21
ATOM     21  N   ALA d   1       5.546   8.019   9.560  0.00  0.00    -0.346 N 
ATOM     22  C   ASN d   1       5.599   9.275   9.121  0.00  0.00     0.241 C 
ATOM     23  O   ASN d   1       4.643  10.009   9.197  0.00  0.00    -0.271 OA
ATOM     24  H20 ALA d   1       6.375   7.460   9.570  0.00  0.00     0.163 HD
BRANCH  22  25
ATOM     25  CA  ASN d   1       6.927   9.798   8.537  0.00  0.00     0.097 C 
ATOM     26  H15 ASN d   1       7.569   8.938   8.293  0.00  0.00     0.088 H 
BRANCH  25  27
ATOM     27  N   ASN d   1       6.626  10.548   7.335  0.00  0.00    -0.346 N 
ATOM     28  C   ASN d   1       7.495  10.616   6.332  0.00  0.00     0.241 C 
ATOM     29  O   ASN d   1       8.539  10.009   6.341  0.00  0.00    -0.271 OA
ATOM     30  H14 ASN d   1       5.749  11.023   7.259  0.00  0.00     0.163 HD
BRANCH  28  31
ATOM     31  CA  ASN d   1       7.143  11.503   5.140  0.00  0.00     0.097 C 
ATOM     32  H9  ASN d   1       6.544  12.349   5.508  0.00  0.00     0.088 H 
BRANCH  31  33
ATOM     33  N   ASN d   1       8.314  12.008   4.490  0.00  0.00    -0.346 N 
ATOM     34  C   ILE d   1       9.096  12.862   5.095  0.00  0.00     0.248 C 
ATOM     35  O   ILE d   1       8.839  13.316   6.224  0.00  0.00    -0.271 OA
ATOM     36  H8  ASN d   1       8.536  11.704   3.563  0.00  0.00     0.163 HD
BRANCH  34  37
ATOM     37  CA  ILE d   1      10.305  13.284   4.267  0.00  0.00     0.172 C 
ATOM     38  H4  ILE d   1      10.230  12.826   3.270  0.00  0.00     0.098 H 
BRANCH  37  39
ATOM     39  N   ILE d   1      10.274  14.727   4.107  0.00  0.00    -0.067 N 
ATOM     40  H1  ILE d   1      11.068  15.022   3.561  0.00  0.00     0.275 HD
ATOM     41  H2  ILE d   1      10.308  15.166   5.013  0.00  0.00     0.275 HD
ATOM     42  H3  ILE d   1       9.424  14.995   3.635  0.00  0.00     0.275 HD
ENDBRANCH  37  39
BRANCH  37  43
ATOM     43  CB  ILE d   1      11.607  12.771   4.931  0.00  0.00    -0.042 C 
ATOM     44  H5  ILE d   1      11.565  11.675   5.022  0.00  0.00     0.030 H 
ATOM     45  H6  ILE d   1      11.710  13.218   5.931  0.00  0.00     0.030 H 
ATOM     46  H7  ILE d   1      12.471  13.055   4.312  0.00  0.00     0.030 H 
ENDBRANCH  37  43
ENDBRANCH  34  37
ENDBRANCH  31  33
BRANCH  31  47
ATOM     47  CB  ASN d   1       6.348  10.751   4.105  0.00  0.00     0.036 C 
ATOM     48  H10 ASN d   1       5.534  10.208   4.607  0.00  0.00     0.051 H 
ATOM     49  H11 ASN d   1       7.011  10.033   3.599  0.00  0.00     0.051 H 
BRANCH  47  50
ATOM     50  CG  ASN d   1       5.753  11.677   3.073  0.00  0.00     0.217 C 
ATOM     51  OD1 ASN d   1       4.985  12.592   3.403  0.00  0.00    -0.274 OA
ATOM     52  ND2 ASN d   1       6.130  11.469   1.819  0.00  0.00    -0.370 N 
ATOM     53  H12 ASN d   1       5.772  12.048   1.087  0.00  0.00     0.159 HD
ATOM     54  H13 ASN d   1       6.772  10.733   1.605  0.00  0.00     0.159 HD
ENDBRANCH  47  50
ENDBRANCH  31  47
ENDBRANCH  28  31
ENDBRANCH  25  27
BRANCH  25  55
ATOM     55  CB  ASN d   1       7.678  10.719   9.470  0.00  0.00     0.036 C 
ATOM     56  H16 ASN d   1       7.131  11.671   9.539  0.00  0.00     0.051 H 
ATOM     57  H17 ASN d   1       8.679  10.901   9.053  0.00  0.00     0.051 H 
BRANCH  55  58
ATOM     58  CG  ASN d   1       7.825  10.177  10.796  0.00  0.00     0.217 C 
ATOM     59  OD1 ASN d   1       6.942  10.372  11.622  0.00  0.00    -0.274 OA
ATOM     60  ND2 ASN d   1       8.952   9.488  11.054  0.00  0.00    -0.370 N 
ATOM     61  H18 ASN d   1       9.100   9.092  11.960  0.00  0.00     0.159 HD
ATOM     62  H19 ASN d   1       9.642   9.372  10.339  0.00  0.00     0.159 HD
ENDBRANCH  55  58
ENDBRANCH  25  55
ENDBRANCH  22  25
ENDBRANCH  19  21
BRANCH  19  63
ATOM     63  CB  ALA d   1       4.406   5.896  10.130  0.00  0.00    -0.049 C 
ATOM     64  H22 ALA d   1       3.451   5.478  10.482  0.00  0.00     0.030 H 
ATOM     65  H23 ALA d   1       5.205   5.636  10.840  0.00  0.00     0.030 H 
ATOM     66  H24 ALA d   1       4.645   5.480   9.140  0.00  0.00     0.030 H 
ENDBRANCH  19  63
ENDBRANCH  16  19
ENDBRANCH  13  15
BRANCH  13  67
ATOM     67  CB  TYR d   1       5.562   9.540  14.294  0.00  0.00    -0.014 C 
ATOM     68  H27 TYR d   1       6.255  10.094  13.644  0.00  0.00     0.043 H 
ATOM     69  H28 TYR d   1       6.050   8.621  14.651  0.00  0.00     0.043 H 
BRANCH  67  70
ATOM     70  CG  TYR d   1       5.258  10.412  15.507  0.00  0.00    -0.056 A 
ATOM     71  CD1 TYR d   1       5.195   9.853  16.766  0.00  0.00    -0.074 A 
ATOM     72  CE1 TYR d   1       4.942  10.652  17.892  0.00  0.00    -0.051 A 
ATOM     73  H29 TYR d   1       5.342   8.786  16.887  0.00  0.00     0.084 H 
ATOM     74  CZ  TYR d   1       4.713  11.990  17.756  0.00  0.00     0.065 A 
ATOM     75  H31 TYR d   1       4.928  10.202  18.878  0.00  0.00     0.087 H 
ATOM     76  CE2 TYR d   1       4.788  12.582  16.518  0.00  0.00    -0.051 A 
ATOM     77  CD2 TYR d   1       5.047  11.779  15.391  0.00  0.00    -0.074 A 
ATOM     78  H32 TYR d   1       4.650  13.652  16.411  0.00  0.00     0.087 H 
ATOM     79  H30 TYR d   1       5.082  12.239  14.410  0.00  0.00     0.084 H 
BRANCH  74  80
ATOM     80  OH  TYR d   1       4.494  12.757  18.885  0.00  0.00    -0.361 OA
ATOM     81  H33 TYR d   1       4.471  12.194  19.650  0.00  0.00     0.217 HD
ENDBRANCH  74  80
ENDBRANCH  67  70
ENDBRANCH  13  67
ENDBRANCH  10  13
ENDBRANCH   7   9
BRANCH   7  82
ATOM     82  CB  ASN d   1       4.066  13.312  10.910  0.00  0.00     0.036 C 
ATOM     83  H36 ASN d   1       3.442  14.158  10.587  0.00  0.00     0.051 H 
ATOM     84  H37 ASN d   1       4.429  12.766  10.027  0.00  0.00     0.051 H 
BRANCH  82  85
ATOM     85  CG  ASN d   1       5.250  13.846  11.670  0.00  0.00     0.217 C 
ATOM     86  OD1 ASN d   1       5.159  14.108  12.877  0.00  0.00    -0.274 OA
ATOM     87  ND2 ASN d   1       6.373  14.037  10.971  0.00  0.00    -0.370 N 
ATOM     88  H38 ASN d   1       7.191  14.390  11.425  0.00  0.00     0.159 HD
ATOM     89  H39 ASN d   1       6.395  13.827   9.994  0.00  0.00     0.159 HD
ENDBRANCH  82  85
ENDBRANCH   7  82
ENDBRANCH   4   7
ENDBRANCH   1   3
BRANCH   1  90
ATOM     90  C   MET d   1       0.021   9.703   9.199  0.00  0.00     0.241 C 
ATOM     91  O   MET d   1      -0.962   9.616   8.456  0.00  0.00    -0.271 OA
ATOM     92  N   SER d   1       0.349   8.713  10.016  0.00  0.00    -0.344 N 
ATOM     93  H49 SER d   1       1.154   8.758  10.607  0.00  0.00     0.163 HD
BRANCH  92  94
ATOM     94  CA  SER d   1      -0.541   7.545  10.001  0.00  0.00     0.109 C 
ATOM     95  H50 SER d   1      -0.886   7.410   8.965  0.00  0.00     0.090 H 
BRANCH  94  96
ATOM     96  C   SER d   1      -1.783   7.782  10.889  0.00  0.00     0.243 C 
ATOM     97  O   SER d   1      -2.675   6.941  10.885  0.00  0.00    -0.271 OA
ATOM     98  N   ILE d   1      -1.800   8.862  11.677  0.00  0.00    -0.346 N 
ATOM     99  H54 ILE d   1      -0.959   9.384  11.818  0.00  0.00     0.163 HD
BRANCH  98 100
ATOM    100  CA  ILE d   1      -3.034   9.289  12.335  0.00  0.00     0.092 C 
ATOM    101  H55 ILE d   1      -3.882   8.787  11.847  0.00  0.00     0.088 H 
BRANCH 100 102
ATOM    102  C   ILE d   1      -3.149  10.785  12.147  0.00  0.00     0.241 C 
ATOM    103  O   ILE d   1      -2.142  11.446  11.931  0.00  0.00    -0.271 OA
ATOM    104  N   ARG d   1      -4.370  11.315  12.206  0.00  0.00    -0.346 N 
ATOM    105  H65 ARG d   1      -5.162  10.710  12.294  0.00  0.00     0.163 HD
BRANCH 104 106
ATOM    106  CA  ARG d   1      -4.580  12.772  12.144  0.00  0.00     0.089 C 
ATOM    107  H66 ARG d   1      -3.836  13.213  11.464  0.00  0.00     0.087 H 
BRANCH 106 108
ATOM    108  C   ARG d   1      -4.376  13.335  13.523  0.00  0.00     0.241 C 
ATOM    109  O   ARG d   1      -4.999  12.864  14.492  0.00  0.00    -0.271 OA
ATOM    110  N   ARG d   1      -3.467  14.292  13.632  0.00  0.00    -0.346 N 
ATOM    111  H78 ARG d   1      -2.971  14.626  12.830  0.00  0.00     0.163 HD
BRANCH 110 112
ATOM    112  CA  ARG d   1      -3.211  14.846  14.961  0.00  0.00     0.089 C 
ATOM    113  H79 ARG d   1      -3.673  14.201  15.723  0.00  0.00     0.087 H 
BRANCH 112 114
ATOM    114  C   ARG d   1      -3.837  16.206  15.005  0.00  0.00     0.241 C 
ATOM    115  O   ARG d   1      -3.895  16.886  13.978  0.00  0.00    -0.271 OA
ATOM    116  N   SER d   1      -4.272  16.628  16.186  0.00  0.00    -0.344 N 
ATOM    117  H91 SER d   1      -4.241  16.027  16.985  0.00  0.00     0.163 HD
BRANCH 116 118
ATOM    118  CA  SER d   1      -4.801  17.999  16.297  0.00  0.00     0.109 C 
ATOM    119  H92 SER d   1      -4.540  18.541  15.376  0.00  0.00     0.090 H 
BRANCH 118 120
ATOM    120  C   SER d   1      -4.184  18.749  17.488  0.00  0.00     0.240 C 
ATOM    121  O   SER d   1      -3.619  18.134  18.394  0.00  0.00    -0.271 OA
ATOM    122  N   NH2 d   1      -4.302  20.073  17.464  0.00  0.00    -0.368 N 
ATOM    123  H96 NH2 d   1      -3.923  20.622  18.209  0.00  0.00     0.159 HD
ATOM    124  H97 NH2 d   1      -4.770  20.520  16.701  0.00  0.00     0.159 HD
ENDBRANCH 118 120
BRANCH 118 125
ATOM    125  CB  SER d   1      -6.324  17.979  16.431  0.00  0.00     0.044 C 
ATOM    126  H93 SER d   1      -6.746  17.265  15.708  0.00  0.00     0.077 H 
ATOM    127  H94 SER d   1      -6.722  18.984  16.229  0.00  0.00     0.077 H 
BRANCH 125 128
ATOM    128  OG  SER d   1      -6.685  17.582  17.756  0.00  0.00    -0.398 OA
ATOM    129  H95 SER d   1      -7.632  17.571  17.835  0.00  0.00     0.209 HD
ENDBRANCH 125 128
ENDBRANCH 118 125
ENDBRANCH 116 118
ENDBRANCH 112 114
BRANCH 112 130
ATOM    130  CB  ARG d   1      -1.728  14.943  15.237  0.00  0.00    -0.036 C 
ATOM    131  H80 ARG d   1      -1.585  15.429  16.213  0.00  0.00     0.036 H 
ATOM    132  H81 ARG d   1      -1.265  15.557  14.450  0.00  0.00     0.036 H 
BRANCH 130 133
ATOM    133  CG  ARG d   1      -1.033  13.588  15.265  0.00  0.00    -0.048 C 
ATOM    134  H82 ARG d   1      -1.128  13.120  14.274  0.00  0.00     0.035 H 
ATOM    135  H83 ARG d   1      -1.523  12.954  16.018  0.00  0.00     0.035 H 
BRANCH 133 136
ATOM    136  CD  ARG d   1       0.427  13.706  15.607  0.00  0.00     0.009 C 
ATOM    137  H84 ARG d   1       0.530  14.147  16.609  0.00  0.00     0.064 H 
ATOM    138  H85 ARG d   1       0.921  14.355  14.868  0.00  0.00     0.064 H 
BRANCH 136 139
ATOM    139  NE  ARG d   1       1.065  12.385  15.593  0.00  0.00    -0.227 N 
ATOM    140  CZ  ARG d   1       1.095  11.549  16.621  0.00  0.00     0.665 C 
ATOM    141  NH1 ARG d   1       1.652  10.356  16.470  0.00  0.00    -0.235 N 
ATOM    142  NH2 ARG d   1       0.517  11.883  17.791  0.00  0.00    -0.235 N 
ATOM    143  H87 ARG d   1       1.681   9.697  17.261  0.00  0.00     0.174 HD
ATOM    144  H88 ARG d   1       2.055  10.087  15.561  0.00  0.00     0.174 HD
ATOM    145  H89 ARG d   1       0.085  12.811  17.905  0.00  0.00     0.174 HD
ATOM    146  H90 ARG d   1       0.507  11.210  18.571  0.00  0.00     0.174 HD
ATOM    147  H86 ARG d   1       1.523  12.085  14.720  0.00  0.00     0.177 HD
ENDBRANCH 136 139
ENDBRANCH 133 136
ENDBRANCH 130 133
ENDBRANCH 112 130
ENDBRANCH 110 112
ENDBRANCH 106 108
BRANCH 106 148
ATOM    148  CB  ARG d   1      -5.993  13.108  11.607  0.00  0.00    -0.036 C 
ATOM    149  H67 ARG d   1      -6.733  12.577  12.224  0.00  0.00     0.036 H 
ATOM    150  H68 ARG d   1      -6.061  12.754  10.568  0.00  0.00     0.036 H 
BRANCH 148 151
ATOM    151  CG  ARG d   1      -6.331  14.608  11.630  0.00  0.00    -0.048 C 
ATOM    152  H69 ARG d   1      -5.639  15.157  10.975  0.00  0.00     0.035 H 
ATOM    153  H70 ARG d   1      -6.248  14.994  12.657  0.00  0.00     0.035 H 
BRANCH 151 154
ATOM    154  CD  ARG d   1      -7.806  14.780  11.112  0.00  0.00     0.009 C 
ATOM    155  H71 ARG d   1      -8.402  13.899  11.394  0.00  0.00     0.064 H 
ATOM    156  H72 ARG d   1      -7.803  14.886  10.017  0.00  0.00     0.064 H 
BRANCH 154 157
ATOM    157  NE  ARG d   1      -8.379  15.972  11.717  0.00  0.00    -0.227 N 
ATOM    158  CZ  ARG d   1      -9.631  16.364  11.545  0.00  0.00     0.665 C 
ATOM    159  NH1 ARG d   1     -10.457  15.643  10.791  0.00  0.00    -0.235 N 
ATOM    160  NH2 ARG d   1     -10.046  17.491  12.124  0.00  0.00    -0.235 N 
ATOM    161  H74 ARG d   1     -11.431  15.949  10.658  0.00  0.00     0.174 HD
ATOM    162  H75 ARG d   1     -10.122  14.779  10.341  0.00  0.00     0.174 HD
ATOM    163  H76 ARG d   1      -9.397  18.041  12.705  0.00  0.00     0.174 HD
ATOM    164  H77 ARG d   1     -11.015  17.812  11.990  0.00  0.00     0.174 HD
ATOM    165  H73 ARG d   1      -7.772  16.548  12.318  0.00  0.00     0.177 HD
ENDBRANCH 154 157
ENDBRANCH 151 154
ENDBRANCH 148 151
ENDBRANCH 106 148
ENDBRANCH 104 106
ENDBRANCH 100 102
BRANCH 100 166
ATOM    166  CB  ILE d   1      -3.092   8.979  13.851  0.00  0.00    -0.030 C 
ATOM    167  H56 ILE d   1      -4.065   9.320  14.235  0.00  0.00     0.043 H 
BRANCH 166 168
ATOM    168  CG1 ILE d   1      -1.993   9.739  14.594  0.00  0.00    -0.063 C 
ATOM    169  H57 ILE d   1      -1.925  10.756  14.181  0.00  0.00     0.033 H 
ATOM    170  H58 ILE d   1      -1.037   9.217  14.441  0.00  0.00     0.033 H 
BRANCH 168 171
ATOM    171  CD1 ILE d   1      -2.261   9.835  16.074  0.00  0.00    -0.076 C 
ATOM    172  H62 ILE d   1      -1.444  10.389  16.559  0.00  0.00     0.027 H 
ATOM    173  H63 ILE d   1      -2.323   8.823  16.502  0.00  0.00     0.027 H 
ATOM    174  H64 ILE d   1      -3.212  10.363  16.241  0.00  0.00     0.027 H 
ENDBRANCH 168 171
ENDBRANCH 166 168
BRANCH 166 175
ATOM    175  CG2 ILE d   1      -2.981   7.461  14.104  0.00  0.00    -0.071 C 
ATOM    176  H59 ILE d   1      -3.781   6.939  13.559  0.00  0.00     0.028 H 
ATOM    177  H60 ILE d   1      -3.079   7.261  15.181  0.00  0.00     0.028 H 
ATOM    178  H61 ILE d   1      -2.003   7.101  13.752  0.00  0.00     0.028 H 
ENDBRANCH 166 175
ENDBRANCH 100 166
ENDBRANCH  98 100
ENDBRANCH  94  96
BRANCH  94 179
ATOM    179  CB  SER d   1       0.163   6.247  10.427  0.00  0.00     0.044 C 
ATOM    180  H51 SER d   1       1.005   6.066   9.743  0.00  0.00     0.077 H 
ATOM    181  H52 SER d   1      -0.556   5.418  10.351  0.00  0.00     0.077 H 
BRANCH 179 182
ATOM    182  OG  SER d   1       0.663   6.290  11.757  0.00  0.00    -0.398 OA
ATOM    183  H53 SER d   1       1.293   6.997  11.835  0.00  0.00     0.209 HD
ENDBRANCH 179 182
ENDBRANCH  94 179
ENDBRANCH  92  94
ENDBRANCH   1  90
BRANCH   1 184
ATOM    184  CB  MET d   1       1.473  11.173   7.774  0.00  0.00    -0.030 C 
ATOM    185  H42 MET d   1       0.657  11.191   7.036  0.00  0.00     0.037 H 
ATOM    186  H43 MET d   1       2.134  10.317   7.570  0.00  0.00     0.037 H 
BRANCH 184 187
ATOM    187  CG  MET d   1       2.294  12.470   7.625  0.00  0.00    -0.021 C 
ATOM    188  H44 MET d   1       3.053  12.488   8.421  0.00  0.00     0.049 H 
ATOM    189  H45 MET d   1       1.611  13.324   7.750  0.00  0.00     0.049 H 
BRANCH 187 190
ATOM    190  SD  MET d   1       3.137  12.652   6.041  0.00  0.00    -0.173 SA
BRANCH 190 191
ATOM    191  CE  MET d   1       3.950  11.183   5.983  0.00  0.00    -0.035 C 
ATOM    192  H46 MET d   1       4.534  11.123   5.052  0.00  0.00     0.041 H 
ATOM    193  H47 MET d   1       3.221  10.359   6.012  0.00  0.00     0.041 H 
ATOM    194  H48 MET d   1       4.627  11.104   6.846  0.00  0.00     0.041 H 
ENDBRANCH 190 191
ENDBRANCH 187 190
ENDBRANCH 184 187
ENDBRANCH   1 184
TORSDOF 55
