REMARK  10 active torsions:
REMARK  status: ('A' for Active; 'I' for Inactive)
REMARK    1  A    between atoms: C15_3  and  C14_21 
REMARK    2  A    between atoms: C21_5  and  C22_6 
REMARK       I    between atoms: N20_25  and  C21_5 
REMARK    3  A    between atoms: N20_25  and  C24_7 
REMARK    4  A    between atoms: C24_7  and  C25_27 
REMARK    5  A    between atoms: C28_9  and  C29_29 
REMARK    6  A    between atoms: C03_12  and  C02_11 
REMARK    7  A    between atoms: N05_14  and  C06_15 
REMARK    8  A    between atoms: C19_24  and  C18_23 
REMARK    9  A    between atoms: C19_24  and  N20_25 
REMARK   10  A    between atoms: C32_32  and  C33_33 
ROOT
ATOM      1  C19 3HZ d   1      11.885  11.907  25.335  0.00  0.00     0.022 C 
ATOM      2  H   3HZ d   1      12.115  11.954  26.410  0.00  0.00     0.071 H 
ATOM      3  H   3HZ d   1      12.564  12.575  24.785  0.00  0.00     0.071 H 
ENDROOT
BRANCH   1   4
ATOM      4  C18 3HZ d   1      10.449  12.400  25.127  0.00  0.00    -0.040 A 
ATOM      5  C17 3HZ d   1      10.245  13.649  24.622  0.00  0.00    -0.074 A 
ATOM      6  C16 3HZ d   1       8.866  14.156  24.450  0.00  0.00    -0.070 A 
ATOM      7  H   3HZ d   1      11.091  14.269  24.347  0.00  0.00     0.084 H 
ATOM      8  C15 3HZ d   1       7.820  13.399  24.801  0.00  0.00    -0.007 A 
ATOM      9  H   3HZ d   1       8.702  15.145  24.038  0.00  0.00     0.084 H 
ATOM     10  C40 3HZ d   1       8.033  12.015  25.334  0.00  0.00    -0.070 A 
ATOM     11  C39 3HZ d   1       9.288  11.560  25.511  0.00  0.00    -0.074 A 
ATOM     12  H   3HZ d   1       7.184  11.385  25.575  0.00  0.00     0.084 H 
ATOM     13  H   3HZ d   1       9.451  10.576  25.936  0.00  0.00     0.084 H 
BRANCH   8  14
ATOM     14  C14 3HZ d   1       6.433  13.932  24.607  0.00  0.00     0.071 A 
ATOM     15  N05 3HZ d   1       5.358  13.217  24.214  0.00  0.00    -0.233 N 
ATOM     16  N04 3HZ d   1       4.322  13.994  24.156  0.00  0.00    -0.160 NA
ATOM     17  C03 3HZ d   1       4.642  15.195  24.546  0.00  0.00     0.156 A 
ATOM     18  C41 3HZ d   1       6.023  15.207  24.863  0.00  0.00    -0.018 A 
ATOM     19  H   3HZ d   1       6.620  16.042  25.227  0.00  0.00     0.091 H 
BRANCH  15  20
ATOM     20  C06 3HZ d   1       5.293  11.875  23.804  0.00  0.00     0.060 A 
ATOM     21  C13 3HZ d   1       4.612  10.894  24.658  0.00  0.00    -0.053 A 
ATOM     22  C12 3HZ d   1       4.508   9.635  24.249  0.00  0.00    -0.058 A 
ATOM     23  H   3HZ d   1       4.198  11.195  25.614  0.00  0.00     0.087 H 
ATOM     24  C10 3HZ d   1       5.040   9.208  22.942  0.00  0.00     0.055 A 
ATOM     25  H   3HZ d   1       4.022   8.907  24.889  0.00  0.00     0.086 H 
ATOM     26  C08 3HZ d   1       5.652  10.105  22.182  0.00  0.00     0.058 A 
ATOM     27 CL1  3HZ d   1       4.862   7.547  22.498  0.00  0.00    -0.083 Cl
ATOM     28  C07 3HZ d   1       5.797  11.514  22.637  0.00  0.00    -0.033 A 
ATOM     29 CL0  3HZ d   1       6.344   9.645  20.659  0.00  0.00    -0.082 Cl
ATOM     30  H   3HZ d   1       6.312  12.239  22.016  0.00  0.00     0.089 H 
ENDBRANCH  15  20
BRANCH  17  31
ATOM     31  C02 3HZ d   1       3.664  16.313  24.588  0.00  0.00     0.230 C 
ATOM     32  O01 3HZ d   1       3.978  17.399  24.987  0.00  0.00    -0.643 OA
ATOM     33  O42 3HZ d   1       2.552  16.083  24.179  0.00  0.00    -0.643 OA
ENDBRANCH  17  31
ENDBRANCH   8  14
ENDBRANCH   1   4
BRANCH   1  34
ATOM     34  N20 3HZ d   1      12.107  10.580  24.889  0.00  0.00    -0.344 N 
ATOM     35  C21 3HZ d   1      12.531   9.545  25.773  0.00  0.00     0.216 C 
ATOM     36  O23 3HZ d   1      12.734   8.450  25.310  0.00  0.00    -0.274 OA
BRANCH  35  37
ATOM     37  C22 3HZ d   1      12.701   9.834  27.258  0.00  0.00    -0.003 C 
ATOM     38  H   3HZ d   1      13.031   8.920  27.774  0.00  0.00     0.040 H 
ATOM     39  H   3HZ d   1      11.741  10.166  27.679  0.00  0.00     0.040 H 
ATOM     40  H   3HZ d   1      13.454  10.624  27.394  0.00  0.00     0.040 H 
ENDBRANCH  35  37
BRANCH  34  41
ATOM     41  C24 3HZ d   1      11.952  10.332  23.537  0.00  0.00     0.022 C 
ATOM     42  H   3HZ d   1      11.093  10.911  23.166  0.00  0.00     0.071 H 
ATOM     43  H   3HZ d   1      11.760   9.258  23.393  0.00  0.00     0.071 H 
BRANCH  41  44
ATOM     44  C25 3HZ d   1      13.153  10.710  22.761  0.00  0.00    -0.040 A 
ATOM     45  C26 3HZ d   1      14.249   9.938  22.815  0.00  0.00    -0.074 A 
ATOM     46  C27 3HZ d   1      15.426  10.311  21.974  0.00  0.00    -0.070 A 
ATOM     47  H   3HZ d   1      14.280   9.063  23.454  0.00  0.00     0.084 H 
ATOM     48  C28 3HZ d   1      15.376  11.425  21.231  0.00  0.00    -0.002 A 
ATOM     49  H   3HZ d   1      16.312   9.687  21.965  0.00  0.00     0.084 H 
ATOM     50  C37 3HZ d   1      14.140  12.263  21.160  0.00  0.00    -0.070 A 
ATOM     51  C38 3HZ d   1      13.106  11.919  21.886  0.00  0.00    -0.074 A 
ATOM     52  H   3HZ d   1      14.101  13.137  20.521  0.00  0.00     0.084 H 
ATOM     53  H   3HZ d   1      12.204  12.520  21.851  0.00  0.00     0.084 H 
BRANCH  48  54
ATOM     54  C29 3HZ d   1      16.484  11.841  20.364  0.00  0.00     0.086 A 
ATOM     55  C30 3HZ d   1      17.673  11.212  20.078  0.00  0.00    -0.046 A 
ATOM     56  C31 3HZ d   1      18.331  11.987  19.159  0.00  0.00    -0.041 A 
ATOM     57  H   3HZ d   1      18.026  10.273  20.503  0.00  0.00     0.087 H 
ATOM     58  C32 3HZ d   1      17.510  13.032  18.913  0.00  0.00     0.152 A 
ATOM     59  H   3HZ d   1      19.310  11.800  18.719  0.00  0.00     0.088 H 
ATOM     60  O36 3HZ d   1      16.374  12.966  19.621  0.00  0.00    -0.303 OA
BRANCH  58  61
ATOM     61  C33 3HZ d   1      17.717  14.167  17.991  0.00  0.00     0.234 C 
ATOM     62  O34 3HZ d   1      18.674  14.170  17.280  0.00  0.00    -0.642 OA
ATOM     63  O35 3HZ d   1      16.828  15.011  18.042  0.00  0.00    -0.642 OA
ENDBRANCH  58  61
ENDBRANCH  48  54
ENDBRANCH  41  44
ENDBRANCH  34  41
ENDBRANCH   1  34
TORSDOF 10
