REMARK  5 active torsions:
REMARK  status: ('A' for Active; 'I' for Inactive)
REMARK    1  A    between atoms: C22_6  and  C21_7 
REMARK    2  A    between atoms: C20_8  and  P7_9 
REMARK    3  A    between atoms: P7_9  and  C6_10 
REMARK    4  A    between atoms: P7_9  and  C14_16 
REMARK    5  A    between atoms: P7_9  and  C8_22 
ROOT
ATOM      1  P7  3JE d   1     -15.968  54.138  -2.815  0.00  0.00     0.023 P 
ENDROOT
BRANCH   1   2
ATOM      2  C20 3JE d   1     -16.261  52.928  -1.754  0.00  0.00    -0.062 C 
ATOM      3  C21 3JE d   1     -16.574  52.007  -1.089  0.00  0.00    -0.062 C 
BRANCH   3   4
ATOM      4  C22 3JE d   1     -16.826  51.049  -0.280  0.00  0.00     0.018 A 
ATOM      5  C27 3JE d   1     -17.794  50.111  -0.594  0.00  0.00    -0.065 A 
ATOM      6  C26 3JE d   1     -18.073  49.078   0.288  0.00  0.00    -0.082 A 
ATOM      7  H   3JE d   1     -18.335  50.184  -1.531  0.00  0.00     0.085 H 
ATOM      8  C25 3JE d   1     -17.375  48.986   1.486  0.00  0.00    -0.083 A 
ATOM      9  H   3JE d   1     -18.833  48.345   0.044  0.00  0.00     0.083 H 
ATOM     10  C24 3JE d   1     -16.403  49.924   1.801  0.00  0.00    -0.082 A 
ATOM     11  H   3JE d   1     -17.591  48.179   2.176  0.00  0.00     0.083 H 
ATOM     12  C23 3JE d   1     -16.121  50.962   0.922  0.00  0.00    -0.065 A 
ATOM     13  H   3JE d   1     -15.861  49.847   2.737  0.00  0.00     0.083 H 
ATOM     14  H   3JE d   1     -15.362  51.696   1.167  0.00  0.00     0.085 H 
ENDBRANCH   3   4
ENDBRANCH   1   2
BRANCH   1  15
ATOM     15  C6  3JE d   1     -15.799  53.474  -4.415  0.00  0.00    -0.015 A 
ATOM     16  C5  3JE d   1     -15.447  52.135  -4.571  0.00  0.00    -0.071 A 
ATOM     17  C4  3JE d   1     -15.302  51.592  -5.839  0.00  0.00    -0.082 A 
ATOM     18  H   3JE d   1     -15.286  51.514  -3.697  0.00  0.00     0.084 H 
ATOM     19  C3  3JE d   1     -15.501  52.384  -6.965  0.00  0.00    -0.083 A 
ATOM     20  H   3JE d   1     -15.033  50.548  -5.953  0.00  0.00     0.083 H 
ATOM     21  C2  3JE d   1     -15.847  53.722  -6.807  0.00  0.00    -0.082 A 
ATOM     22  H   3JE d   1     -15.387  51.962  -7.957  0.00  0.00     0.083 H 
ATOM     23  C1  3JE d   1     -15.992  54.267  -5.540  0.00  0.00    -0.071 A 
ATOM     24  H   3JE d   1     -16.005  54.344  -7.681  0.00  0.00     0.083 H 
ATOM     25  H   3JE d   1     -16.256  55.312  -5.427  0.00  0.00     0.084 H 
ENDBRANCH   1  15
BRANCH   1  26
ATOM     26  C14 3JE d   1     -17.293  55.275  -2.690  0.00  0.00    -0.015 A 
ATOM     27  C19 3JE d   1     -17.235  56.514  -3.314  0.00  0.00    -0.071 A 
ATOM     28  C18 3JE d   1     -18.311  57.386  -3.186  0.00  0.00    -0.082 A 
ATOM     29  H   3JE d   1     -16.363  56.798  -3.893  0.00  0.00     0.084 H 
ATOM     30  C17 3JE d   1     -19.421  57.018  -2.436  0.00  0.00    -0.083 A 
ATOM     31  H   3JE d   1     -18.283  58.354  -3.672  0.00  0.00     0.083 H 
ATOM     32  C16 3JE d   1     -19.472  55.781  -1.810  0.00  0.00    -0.082 A 
ATOM     33  H   3JE d   1     -20.255  57.704  -2.339  0.00  0.00     0.083 H 
ATOM     34  C15 3JE d   1     -18.400  54.908  -1.938  0.00  0.00    -0.071 A 
ATOM     35  H   3JE d   1     -20.341  55.499  -1.226  0.00  0.00     0.083 H 
ATOM     36  H   3JE d   1     -18.428  53.940  -1.451  0.00  0.00     0.084 H 
ENDBRANCH   1  26
BRANCH   1  37
ATOM     37  C8  3JE d   1     -14.464  54.886  -2.348  0.00  0.00    -0.015 A 
ATOM     38  C13 3JE d   1     -13.719  55.588  -3.289  0.00  0.00    -0.071 A 
ATOM     39  C12 3JE d   1     -12.516  56.182  -2.926  0.00  0.00    -0.082 A 
ATOM     40  H   3JE d   1     -14.077  55.672  -4.309  0.00  0.00     0.084 H 
ATOM     41  C11 3JE d   1     -12.053  56.078  -1.620  0.00  0.00    -0.083 A 
ATOM     42  H   3JE d   1     -11.938  56.727  -3.663  0.00  0.00     0.083 H 
ATOM     43  C10 3JE d   1     -12.796  55.376  -0.676  0.00  0.00    -0.082 A 
ATOM     44  H   3JE d   1     -11.115  56.543  -1.337  0.00  0.00     0.083 H 
ATOM     45  C9  3JE d   1     -14.000  54.779  -1.041  0.00  0.00    -0.071 A 
ATOM     46  H   3JE d   1     -12.438  55.294   0.344  0.00  0.00     0.083 H 
ATOM     47  H   3JE d   1     -14.577  54.230  -0.305  0.00  0.00     0.084 H 
ENDBRANCH   1  37
TORSDOF 5
