REMARK  2 active torsions:
REMARK  status: ('A' for Active; 'I' for Inactive)
REMARK    1  A    between atoms: C2_2  and  C7_7 
REMARK    2  A    between atoms: C9_9  and  C21_21 
ROOT
ATOM      1  C1  3J9 d   1      27.923  14.657   9.327  0.00  0.00    -0.069 A 
ATOM      2  C2  3J9 d   1      27.099  15.780   9.616  0.00  0.00    -0.021 A 
ATOM      3  C3  3J9 d   1      25.699  15.687   9.392  0.00  0.00    -0.061 A 
ATOM      4  C4  3J9 d   1      25.109  14.490   8.914  0.00  0.00     0.009 A 
ATOM      5  C5  3J9 d   1      25.936  13.370   8.635  0.00  0.00     0.079 A 
ATOM      6  C6  3J9 d   1      27.337  13.457   8.844  0.00  0.00    -0.049 A 
ATOM      7  O8  3J9 d   1      25.406  12.184   8.168  0.00  0.00    -0.337 OA
ATOM      8  C9  3J9 d   1      24.133  12.202   7.506  0.00  0.00     0.093 C 
ATOM      9  C10 3J9 d   1      23.138  12.993   8.392  0.00  0.00     0.099 C 
ATOM     10  C11 3J9 d   1      23.593  14.440   8.678  0.00  0.00     0.114 A 
ATOM     11  C12 3J9 d   1      23.178  15.489   7.618  0.00  0.00     0.059 A 
ATOM     12  O13 3J9 d   1      22.294  16.395   8.294  0.00  0.00    -0.320 OA
ATOM     13  C14 3J9 d   1      22.149  15.973   9.577  0.00  0.00     0.213 A 
ATOM     14  N15 3J9 d   1      22.828  14.856   9.834  0.00  0.00    -0.338 N 
ATOM     15  N16 3J9 d   1      21.199  16.562  10.307  0.00  0.00    -0.365 N 
ATOM     16  O17 3J9 d   1      21.809  12.939   7.861  0.00  0.00    -0.380 OA
ATOM     17  C18 3J9 d   1      21.245  11.620   7.782  0.00  0.00     0.020 C 
ATOM     18  C19 3J9 d   1      22.153  10.689   6.924  0.00  0.00    -0.042 C 
ATOM     19  C20 3J9 d   1      23.641  10.745   7.374  0.00  0.00    -0.032 C 
ATOM     20  H   3J9 d   1      28.995  14.717   9.475  0.00  0.00     0.085 H 
ATOM     21  H   3J9 d   1      25.070  16.547   9.590  0.00  0.00     0.086 H 
ATOM     22  H   3J9 d   1      27.966  12.600   8.633  0.00  0.00     0.087 H 
ATOM     23  H   3J9 d   1      23.110  12.480   9.365  0.00  0.00     0.092 H 
ATOM     24  H   3J9 d   1      22.660  15.002   6.779  0.00  0.00     0.079 H 
ATOM     25  H   3J9 d   1      24.062  16.025   7.242  0.00  0.00     0.079 H 
ATOM     26  H   3J9 d   1      22.811  14.356  10.734  0.00  0.00     0.164 HD
ATOM     27  H   3J9 d   1      21.050  16.277  11.285  0.00  0.00     0.159 HD
ATOM     28  H   3J9 d   1      20.615  17.302   9.892  0.00  0.00     0.159 HD
ATOM     29  H   3J9 d   1      20.248  11.679   7.320  0.00  0.00     0.074 H 
ATOM     30  H   3J9 d   1      21.155  11.203   8.796  0.00  0.00     0.074 H 
ATOM     31  H   3J9 d   1      22.089  11.003   5.872  0.00  0.00     0.036 H 
ATOM     32  H   3J9 d   1      21.792   9.654   7.021  0.00  0.00     0.036 H 
ATOM     33  H   3J9 d   1      23.740  10.244   8.348  0.00  0.00     0.037 H 
ATOM     34  H   3J9 d   1      24.260  10.224   6.629  0.00  0.00     0.037 H 
ENDROOT
BRANCH   2  35
ATOM     35  C7  3J9 d   1      27.646  17.018  10.054  0.00  0.00     0.032 A 
ATOM     36  C22 3J9 d   1      27.221  17.718  11.214  0.00  0.00     0.220 A 
ATOM     37  N23 3J9 d   1      27.722  18.915  11.601  0.00  0.00    -0.232 NA
ATOM     38  F27 3J9 d   1      26.281  17.196  12.008  0.00  0.00    -0.183 F 
ATOM     39  C24 3J9 d   1      28.686  19.490  10.849  0.00  0.00     0.005 A 
ATOM     40  C25 3J9 d   1      29.177  18.883   9.665  0.00  0.00    -0.065 A 
ATOM     41  H   3J9 d   1      29.096  20.444  11.160  0.00  0.00     0.114 H 
ATOM     42  C26 3J9 d   1      28.642  17.636   9.251  0.00  0.00    -0.066 A 
ATOM     43  H   3J9 d   1      29.953  19.367   9.083  0.00  0.00     0.085 H 
ATOM     44  H   3J9 d   1      28.987  17.163   8.338  0.00  0.00     0.085 H 
ENDBRANCH   2  35
BRANCH   8  45
ATOM     45  C21 3J9 d   1      24.310  12.857   6.113  0.00  0.00    -0.045 C 
ATOM     46  H   3J9 d   1      23.341  12.878   5.592  0.00  0.00     0.031 H 
ATOM     47  H   3J9 d   1      25.031  12.273   5.522  0.00  0.00     0.031 H 
ATOM     48  H   3J9 d   1      24.683  13.884   6.236  0.00  0.00     0.031 H 
ENDBRANCH   8  45
TORSDOF 2
