REMARK  9 active torsions:
REMARK  status: ('A' for Active; 'I' for Inactive)
REMARK    1  A    between atoms: CAA_1  and  CAB_2 
REMARK    2  A    between atoms: CAB_2  and  CAC_3 
REMARK    3  A    between atoms: CAB_2  and  CAD_4 
REMARK    4  A    between atoms: CAB_2  and  CAE_5 
REMARK       I    between atoms: CAE_5  and  N_7 
REMARK    5  A    between atoms: N_7  and  CA_8 
REMARK    6  A    between atoms: CA_8  and  C_9 
REMARK    7  A    between atoms: CA_8  and  CAM_13 
REMARK       I    between atoms: C_9  and  NAK_11 
REMARK    8  A    between atoms: NAK_11  and  OAL_12 
REMARK    9  A    between atoms: CAP_18  and  NAQ_19 
ROOT
ATOM      1  CA  R5V d   1      14.230  10.930  11.841  0.00  0.00     0.117 C 
ATOM      2  H   R5V d   1      14.984  11.721  11.966  0.00  0.00     0.095 H 
ENDROOT
BRANCH   1   3
ATOM      3  N   R5V d   1      14.890   9.856  11.082  0.00  0.00    -0.343 N 
ATOM      4  CAE R5V d   1      16.224   9.852  10.972  0.00  0.00     0.226 C 
ATOM      5  OAF R5V d   1      16.947  10.671  11.533  0.00  0.00    -0.273 OA
ATOM      6  H   R5V d   1      14.347   9.135  10.652  0.00  0.00     0.163 HD
BRANCH   4   7
ATOM      7  CAB R5V d   1      16.818   8.763  10.080  0.00  0.00     0.030 C 
BRANCH   7   8
ATOM      8  CAA R5V d   1      18.339   8.902  10.055  0.00  0.00    -0.061 C 
ATOM      9  H   R5V d   1      18.768   8.119   9.413  0.00  0.00     0.029 H 
ATOM     10  H   R5V d   1      18.734   8.796  11.076  0.00  0.00     0.029 H 
ATOM     11  H   R5V d   1      18.610   9.891   9.658  0.00  0.00     0.029 H 
ENDBRANCH   7   8
BRANCH   7  12
ATOM     12  CAC R5V d   1      16.440   7.381  10.597  0.00  0.00    -0.061 C 
ATOM     13  H   R5V d   1      15.345   7.283  10.614  0.00  0.00     0.029 H 
ATOM     14  H   R5V d   1      16.836   7.249  11.615  0.00  0.00     0.029 H 
ATOM     15  H   R5V d   1      16.866   6.613   9.935  0.00  0.00     0.029 H 
ENDBRANCH   7  12
BRANCH   7  16
ATOM     16  CAD R5V d   1      16.275   8.945   8.660  0.00  0.00    -0.061 C 
ATOM     17  H   R5V d   1      16.549   9.943   8.288  0.00  0.00     0.029 H 
ATOM     18  H   R5V d   1      15.180   8.845   8.671  0.00  0.00     0.029 H 
ATOM     19  H   R5V d   1      16.707   8.177   8.001  0.00  0.00     0.029 H 
ENDBRANCH   7  16
ENDBRANCH   4   7
ENDBRANCH   1   3
BRANCH   1  20
ATOM     20  C   R5V d   1      13.111  11.521  10.978  0.00  0.00     0.268 C 
ATOM     21  O   R5V d   1      12.100  10.876  10.704  0.00  0.00    -0.269 OA
ATOM     22  NAK R5V d   1      13.374  12.756  10.526  0.00  0.00    -0.235 N 
ATOM     23  H   R5V d   1      14.228  13.221  10.760  0.00  0.00     0.197 HD
BRANCH  22  24
ATOM     24  OAL R5V d   1      12.393  13.386   9.699  0.00  0.00    -0.287 OA
ATOM     25  H   R5V d   1      12.699  14.250   9.448  0.00  0.00     0.244 HD
ENDBRANCH  22  24
ENDBRANCH   1  20
BRANCH   1  26
ATOM     26  CAM R5V d   1      13.811  10.613  13.143  0.00  0.00    -0.026 A 
ATOM     27  CAW R5V d   1      13.042  11.555  13.813  0.00  0.00    -0.072 A 
ATOM     28  CAV R5V d   1      12.606  11.338  15.111  0.00  0.00    -0.055 A 
ATOM     29  H   R5V d   1      12.777  12.479  13.311  0.00  0.00     0.084 H 
ATOM     30  CAP R5V d   1      12.952  10.163  15.762  0.00  0.00     0.058 A 
ATOM     31  H   R5V d   1      11.999  12.082  15.614  0.00  0.00     0.087 H 
ATOM     32  CAO R5V d   1      13.736   9.216  15.105  0.00  0.00    -0.055 A 
ATOM     33  CAN R5V d   1      14.174   9.439  13.798  0.00  0.00    -0.072 A 
ATOM     34  H   R5V d   1      14.008   8.298  15.613  0.00  0.00     0.087 H 
ATOM     35  H   R5V d   1      14.792   8.703  13.297  0.00  0.00     0.084 H 
BRANCH  30  36
ATOM     36  NAQ R5V d   1      12.537   9.980  17.015  0.00  0.00    -0.245 N 
ATOM     37  NAU R5V d   1      11.758  10.702  17.602  0.00  0.00    -0.180 NA
ATOM     38  CAT R5V d   1      11.565  10.257  18.842  0.00  0.00     0.023 A 
ATOM     39  CAS R5V d   1      12.317   9.175  18.991  0.00  0.00    -0.048 A 
ATOM     40  H   R5V d   1      10.912  10.699  19.593  0.00  0.00     0.117 H 
ATOM     41  CAR R5V d   1      12.940   9.007  17.831  0.00  0.00     0.006 A 
ATOM     42  H   R5V d   1      12.405   8.553  19.881  0.00  0.00     0.087 H 
ATOM     43  H   R5V d   1      13.651   8.218  17.590  0.00  0.00     0.114 H 
ENDBRANCH  30  36
ENDBRANCH   1  26
TORSDOF 9
