REMARK  2 active torsions:
REMARK  status: ('A' for Active; 'I' for Inactive)
REMARK    1  A    between atoms: CAP_19  and  C2_2 
REMARK    2  A    between atoms: CAQ_20  and  CAU_21 
ROOT
ATOM      1  N1  XAV d   1     -21.581  -7.774 -18.102  0.00  0.00    -0.205 NA
ATOM      2  C2  XAV d   1     -21.100  -6.571 -18.440  0.00  0.00     0.162 A 
ATOM      3  N3  XAV d   1     -21.419  -5.451 -17.723  0.00  0.00    -0.236 NA
ATOM      4  C4  XAV d   1     -22.200  -5.531 -16.691  0.00  0.00     0.028 A 
ATOM      5  C5  XAV d   1     -22.748  -6.804 -16.273  0.00  0.00     0.059 A 
ATOM      6  C6  XAV d   1     -22.402  -7.902 -17.025  0.00  0.00     0.189 A 
ATOM      7  O6  XAV d   1     -22.888  -9.060 -16.639  0.00  0.00    -0.174 OA
ATOM      8  CAI XAV d   1     -23.644  -4.265 -15.190  0.00  0.00    -0.018 C 
ATOM      9  CAJ XAV d   1     -22.429  -4.180 -16.073  0.00  0.00    -0.020 C 
ATOM     10  CAK XAV d   1     -23.637  -7.013 -15.121  0.00  0.00    -0.008 C 
ATOM     11  SAN XAV d   1     -23.341  -5.633 -14.025  0.00  0.00    -0.168 SA
ATOM     12  H1  XAV d   1     -21.880  -6.953 -15.614  0.00  0.00     0.063 H 
ATOM     13  H6  XAV d   1     -24.540  -4.472 -15.794  0.00  0.00     0.049 H 
ATOM     14  H7  XAV d   1     -23.782  -3.322 -14.641  0.00  0.00     0.049 H 
ATOM     15  H8  XAV d   1     -22.595  -3.433 -16.863  0.00  0.00     0.043 H 
ATOM     16  H9  XAV d   1     -21.553  -3.892 -15.474  0.00  0.00     0.043 H 
ATOM     17  H10 XAV d   1     -23.396  -7.961 -14.618  0.00  0.00     0.050 H 
ATOM     18  H11 XAV d   1     -24.688  -7.027 -15.445  0.00  0.00     0.050 H 
ENDROOT
BRANCH   2  19
ATOM     19  CAP XAV d   1     -20.286  -6.295 -19.500  0.00  0.00     0.012 A 
ATOM     20  CAE XAV d   1     -20.678  -6.557 -20.811  0.00  0.00    -0.069 A 
ATOM     21  CAG XAV d   1     -19.833  -6.204 -21.876  0.00  0.00    -0.067 A 
ATOM     22  H2  XAV d   1     -21.632  -7.032 -21.009  0.00  0.00     0.085 H 
ATOM     23  CAQ XAV d   1     -18.607  -5.580 -21.611  0.00  0.00     0.048 A 
ATOM     24  H4  XAV d   1     -20.128  -6.413 -22.898  0.00  0.00     0.084 H 
ATOM     25  CAH XAV d   1     -18.212  -5.294 -20.306  0.00  0.00    -0.067 A 
ATOM     26  CAF XAV d   1     -19.038  -5.653 -19.236  0.00  0.00    -0.069 A 
ATOM     27  H5  XAV d   1     -17.268  -4.795 -20.121  0.00  0.00     0.084 H 
ATOM     28  H3  XAV d   1     -18.734  -5.446 -18.216  0.00  0.00     0.085 H 
BRANCH  23  29
ATOM     29  CAU XAV d   1     -17.672  -5.163 -22.751  0.00  0.00     0.417 C 
ATOM     30  FAB XAV d   1     -17.648  -3.796 -22.698  0.00  0.00    -0.166 F 
ATOM     31  FAC XAV d   1     -16.409  -5.718 -22.512  0.00  0.00    -0.166 F 
ATOM     32  FAD XAV d   1     -18.305  -5.539 -23.920  0.00  0.00    -0.166 F 
ENDBRANCH  23  29
ENDBRANCH   2  19
TORSDOF 2
