REMARK  7 active torsions:
REMARK  status: ('A' for Active; 'I' for Inactive)
REMARK    1  A    between atoms: C22_3  and  N26_26 
REMARK    2  A    between atoms: C12_15  and  C03_7 
REMARK    3  A    between atoms: C06_10  and  N07_11 
REMARK    4  A    between atoms: N13_16  and  C12_15 
REMARK    5  A    between atoms: C12_15  and  C14_17 
REMARK       I    between atoms: C18_21  and  N13_16 
REMARK       I    between atoms: C14_17  and  N16_19 
REMARK    6  A    between atoms: N16_19  and  O17_20 
REMARK    7  A    between atoms: C18_21  and  C19_22 
ROOT
ATOM      1  C12 R5X d   1      14.412  10.846  11.895  0.00  0.00     0.117 C 
ATOM      2  H   R5X d   1      15.181  11.632  11.922  0.00  0.00     0.095 H 
ENDROOT
BRANCH   1   3
ATOM      3  C03 R5X d   1      13.901  10.769  13.192  0.00  0.00    -0.026 A 
ATOM      4  C02 R5X d   1      14.130   9.647  13.985  0.00  0.00    -0.072 A 
ATOM      5  C01 R5X d   1      13.628   9.596  15.288  0.00  0.00    -0.055 A 
ATOM      6  H   R5X d   1      14.698   8.812  13.591  0.00  0.00     0.084 H 
ATOM      7  C06 R5X d   1      12.905  10.677  15.797  0.00  0.00     0.058 A 
ATOM      8  H   R5X d   1      13.799   8.720  15.902  0.00  0.00     0.087 H 
ATOM      9  C05 R5X d   1      12.677  11.792  15.007  0.00  0.00    -0.055 A 
ATOM     10  C04 R5X d   1      13.184  11.835  13.710  0.00  0.00    -0.072 A 
ATOM     11  H   R5X d   1      12.107  12.627  15.396  0.00  0.00     0.087 H 
ATOM     12  H   R5X d   1      13.015  12.714  13.098  0.00  0.00     0.084 H 
BRANCH   7  13
ATOM     13  N07 R5X d   1      12.407  10.651  17.029  0.00  0.00    -0.245 N 
ATOM     14  N08 R5X d   1      11.760  11.514  17.520  0.00  0.00    -0.180 NA
ATOM     15  C09 R5X d   1      11.402  11.179  18.760  0.00  0.00     0.023 A 
ATOM     16  C10 R5X d   1      11.910   9.977  18.998  0.00  0.00    -0.048 A 
ATOM     17  H   R5X d   1      10.806  11.778  19.447  0.00  0.00     0.117 H 
ATOM     18  C11 R5X d   1      12.555   9.640  17.888  0.00  0.00     0.006 A 
ATOM     19  H   R5X d   1      11.817   9.391  19.911  0.00  0.00     0.087 H 
ATOM     20  H   R5X d   1      13.101   8.714  17.712  0.00  0.00     0.114 H 
ENDBRANCH   7  13
ENDBRANCH   1   3
BRANCH   1  21
ATOM     21  N13 R5X d   1      15.153   9.593  11.544  0.00  0.00    -0.340 N 
ATOM     22  C18 R5X d   1      16.516   9.611  11.620  0.00  0.00     0.252 C 
ATOM     23  O20 R5X d   1      17.126  10.619  11.950  0.00  0.00    -0.268 OA
ATOM     24  H   R5X d   1      14.664   8.768  11.262  0.00  0.00     0.164 HD
BRANCH  22  25
ATOM     25  C19 R5X d   1      17.267   8.453  11.321  0.00  0.00     0.034 A 
ATOM     26  C21 R5X d   1      17.474   8.014  10.011  0.00  0.00    -0.043 A 
ATOM     27  C22 R5X d   1      18.246   6.876   9.748  0.00  0.00     0.026 A 
ATOM     28  H   R5X d   1      17.031   8.562   9.187  0.00  0.00     0.088 H 
ATOM     29  C23 R5X d   1      18.845   6.172  10.794  0.00  0.00    -0.058 A 
ATOM     30  C24 R5X d   1      18.664   6.616  12.101  0.00  0.00    -0.080 A 
ATOM     31  H   R5X d   1      19.443   5.291  10.591  0.00  0.00     0.086 H 
ATOM     32  C25 R5X d   1      17.890   7.750  12.353  0.00  0.00    -0.068 A 
ATOM     33  H   R5X d   1      19.124   6.081  12.924  0.00  0.00     0.083 H 
ATOM     34  H   R5X d   1      17.770   8.093  13.374  0.00  0.00     0.085 H 
BRANCH  27  35
ATOM     35  N26 R5X d   1      18.414   6.463   8.493  0.00  0.00    -0.399 N 
ATOM     36  H   R5X d   1      17.974   6.979   7.718  0.00  0.00     0.156 HD
ATOM     37  H   R5X d   1      18.984   5.628   8.298  0.00  0.00     0.156 HD
ENDBRANCH  27  35
ENDBRANCH  22  25
ENDBRANCH   1  21
BRANCH   1  38
ATOM     38  C14 R5X d   1      13.360  11.361  10.860  0.00  0.00     0.268 C 
ATOM     39  O15 R5X d   1      12.423  10.695  10.400  0.00  0.00    -0.269 OA
ATOM     40  N16 R5X d   1      13.592  12.610  10.455  0.00  0.00    -0.235 N 
ATOM     41  H   R5X d   1      14.368  13.142  10.795  0.00  0.00     0.197 HD
BRANCH  40  42
ATOM     42  O17 R5X d   1      12.679  13.135   9.520  0.00  0.00    -0.287 OA
ATOM     43  H   R5X d   1      12.931  14.024   9.298  0.00  0.00     0.244 HD
ENDBRANCH  40  42
ENDBRANCH   1  38
TORSDOF 7
