REMARK  4 active torsions:
REMARK  status: ('A' for Active; 'I' for Inactive)
REMARK    1  A    between atoms: C19_2  and  C18_5 
REMARK    2  A    between atoms: C14_13  and  C13_14 
REMARK    3  A    between atoms: C5_23  and  O1_24 
REMARK    4  A    between atoms: O1_24  and  C4_25 
ROOT
ATOM      1  C13 3K3 d   1      16.866  12.109 -16.912  0.00  0.00     0.040 A 
ATOM      2  C9  3K3 d   1      15.741  12.762 -17.716  0.00  0.00     0.064 A 
ATOM      3  O2  3K3 d   1      14.487  12.065 -17.536  0.00  0.00    -0.344 OA
ATOM      4  C10 3K3 d   1      16.111  13.294 -16.322  0.00  0.00     0.013 A 
ATOM      5  C11 3K3 d   1      15.017  12.762 -15.473  0.00  0.00    -0.015 A 
ATOM      6  C8  3K3 d   1      14.121  12.053 -16.219  0.00  0.00     0.076 A 
ATOM      7  C7  3K3 d   1      13.009  11.447 -15.654  0.00  0.00    -0.048 A 
ATOM      8  C6  3K3 d   1      12.837  11.579 -14.275  0.00  0.00    -0.048 A 
ATOM      9  C12 3K3 d   1      14.872  12.889 -14.098  0.00  0.00    -0.041 A 
ATOM     10  C5  3K3 d   1      13.764  12.285 -13.499  0.00  0.00     0.076 A 
ATOM     11  H5  3K3 d   1      16.809  11.094 -16.491  0.00  0.00     0.057 H 
ATOM     12  H6  3K3 d   1      15.879  13.281 -18.676  0.00  0.00     0.086 H 
ATOM     13  H7  3K3 d   1      16.541  14.273 -16.064  0.00  0.00     0.052 H 
ATOM     14  H8  3K3 d   1      12.301  10.893 -16.259  0.00  0.00     0.087 H 
ATOM     15  H9  3K3 d   1      11.974  11.129 -13.798  0.00  0.00     0.087 H 
ATOM     16  H10 3K3 d   1      15.596  13.440 -13.508  0.00  0.00     0.088 H 
ENDROOT
BRANCH  10  17
ATOM     17  O1  3K3 d   1      13.566  12.411 -12.145  0.00  0.00    -0.310 OA
BRANCH  17  18
ATOM     18  C4  3K3 d   1      13.810  11.387 -11.261  0.00  0.00     0.087 A 
ATOM     19  C22 3K3 d   1      14.146  10.107 -11.693  0.00  0.00    -0.033 A 
ATOM     20  C23 3K3 d   1      14.389   9.111 -10.756  0.00  0.00     0.007 A 
ATOM     21  H11 3K3 d   1      14.217   9.889 -12.752  0.00  0.00     0.090 H 
ATOM     22  N2  3K3 d   1      14.307   9.379  -9.444  0.00  0.00    -0.243 NA
ATOM     23  H12 3K3 d   1      14.646   8.111 -11.087  0.00  0.00     0.115 H 
ATOM     24  C24 3K3 d   1      13.990  10.619  -9.000  0.00  0.00     0.138 A 
ATOM     25  N3  3K3 d   1      13.909  10.888  -7.675  0.00  0.00    -0.311 N 
ATOM     26  C3  3K3 d   1      13.737  11.632  -9.902  0.00  0.00     0.022 A 
ATOM     27  C   3K3 d   1      13.032  11.780  -7.206  0.00  0.00     0.223 C 
ATOM     28  H13 3K3 d   1      14.515  10.412  -7.038  0.00  0.00     0.170 HD
ATOM     29  O   3K3 d   1      12.671  11.793  -6.041  0.00  0.00    -0.273 OA
ATOM     30  C1  3K3 d   1      12.477  12.808  -8.167  0.00  0.00     0.013 C 
ATOM     31  C2  3K3 d   1      13.387  12.997  -9.373  0.00  0.00    -0.027 C 
ATOM     32  H16 3K3 d   1      12.376  13.769  -7.642  0.00  0.00     0.047 H 
ATOM     33  H17 3K3 d   1      11.488  12.474  -8.515  0.00  0.00     0.047 H 
ATOM     34  H14 3K3 d   1      12.865  13.577 -10.149  0.00  0.00     0.041 H 
ATOM     35  H15 3K3 d   1      14.302  13.528  -9.072  0.00  0.00     0.041 H 
ENDBRANCH  17  18
ENDBRANCH  10  17
BRANCH   1  36
ATOM     36  C14 3K3 d   1      18.203  12.453 -17.470  0.00  0.00     0.112 A 
ATOM     37  N   3K3 d   1      18.536  13.418 -18.369  0.00  0.00    -0.342 N 
ATOM     38  C15 3K3 d   1      19.882  13.339 -18.591  0.00  0.00     0.062 A 
ATOM     39  H4  3K3 d   1      17.888  14.089 -18.805  0.00  0.00     0.167 HD
ATOM     40  C16 3K3 d   1      20.775  14.057 -19.389  0.00  0.00    -0.054 A 
ATOM     41  C21 3K3 d   1      20.367  12.294 -17.812  0.00  0.00     0.086 A 
ATOM     42  C17 3K3 d   1      22.132  13.716 -19.395  0.00  0.00    -0.066 A 
ATOM     43  H2  3K3 d   1      20.418  14.876 -20.002  0.00  0.00     0.087 H 
ATOM     44  C18 3K3 d   1      22.612  12.664 -18.607  0.00  0.00     0.050 A 
ATOM     45  H1  3K3 d   1      22.821  14.274 -20.019  0.00  0.00     0.084 H 
ATOM     46  C20 3K3 d   1      21.716  11.956 -17.820  0.00  0.00    -0.038 A 
ATOM     47  H3  3K3 d   1      22.069  11.134 -17.207  0.00  0.00     0.088 H 
ATOM     48  N1  3K3 d   1      19.320  11.774 -17.153  0.00  0.00    -0.233 NA
BRANCH  44  49
ATOM     49  C19 3K3 d   1      24.066  12.246 -18.574  0.00  0.00     0.417 C 
ATOM     50  F2  3K3 d   1      24.859  13.297 -18.460  0.00  0.00    -0.166 F 
ATOM     51  F   3K3 d   1      24.390  11.565 -19.667  0.00  0.00    -0.166 F 
ATOM     52  F1  3K3 d   1      24.260  11.466 -17.525  0.00  0.00    -0.166 F 
ENDBRANCH  44  49
ENDBRANCH   1  36
TORSDOF 4
