REMARK  3 active torsions:
REMARK  status: ('A' for Active; 'I' for Inactive)
REMARK    1  A    between atoms: CAW_6  and  CAR_7 
REMARK    2  A    between atoms: CAS_12  and  NAX_13 
REMARK    3  A    between atoms: CAT_21  and  CAQ_22 
REMARK       I    between atoms: CAQ_22  and  NAA_24 
ROOT
ATOM      1  CAR 3JD d   1     -67.301  24.867  28.057  0.00  0.00    -0.052 C 
ATOM      2  CAF 3JD d   1     -67.233  25.056  26.663  0.00  0.00    -0.074 C 
ATOM      3  CAH 3JD d   1     -67.791  24.095  25.804  0.00  0.00    -0.055 C 
ATOM      4  CAE 3JD d   1     -68.024  23.727  28.561  0.00  0.00    -0.074 C 
ATOM      5  CAG 3JD d   1     -68.652  22.790  27.649  0.00  0.00    -0.055 C 
ATOM      6  CAS 3JD d   1     -68.612  23.052  26.212  0.00  0.00     0.058 C 
ATOM      7  H12 3JD d   1     -66.753  25.938  26.255  0.00  0.00     0.084 H 
ATOM      8  H13 3JD d   1     -67.564  24.173  24.747  0.00  0.00     0.087 H 
ATOM      9  H14 3JD d   1     -68.099  23.568  29.631  0.00  0.00     0.084 H 
ATOM     10  H15 3JD d   1     -69.146  21.904  28.030  0.00  0.00     0.087 H 
ENDROOT
BRANCH   6  11
ATOM     11  NAX 3JD d   1     -69.187  22.194  25.304  0.00  0.00    -0.244 N 
ATOM     12  CAJ 3JD d   1     -68.720  21.955  24.062  0.00  0.00     0.017 C 
ATOM     13  CAU 3JD d   1     -69.538  21.003  23.499  0.00  0.00     0.013 A 
ATOM     14  H16 3JD d   1     -67.858  22.427  23.593  0.00  0.00     0.116 H 
ATOM     15  CAV 3JD d   1     -70.468  20.646  24.516  0.00  0.00     0.104 A 
ATOM     16  CAI 3JD d   1     -69.576  20.419  22.220  0.00  0.00    -0.069 A 
ATOM     17  NAO 3JD d   1     -70.118  21.366  25.560  0.00  0.00    -0.166 NA
ATOM     18  CAT 3JD d   1     -71.487  19.697  24.341  0.00  0.00     0.063 A 
ATOM     19  CAD 3JD d   1     -71.558  19.101  23.024  0.00  0.00    -0.065 A 
ATOM     20  CAC 3JD d   1     -70.622  19.469  21.974  0.00  0.00    -0.081 A 
ATOM     21  H19 3JD d   1     -72.326  18.364  22.816  0.00  0.00     0.085 H 
ATOM     22  H18 3JD d   1     -70.716  19.019  20.992  0.00  0.00     0.083 H 
ATOM     23  H17 3JD d   1     -68.850  20.675  21.457  0.00  0.00     0.085 H 
BRANCH  18  24
ATOM     24  CAQ 3JD d   1     -72.426  19.345  25.372  0.00  0.00     0.251 C 
ATOM     25  OAB 3JD d   1     -73.282  18.501  25.186  0.00  0.00    -0.268 OA
ATOM     26  NAA 3JD d   1     -72.425  19.933  26.575  0.00  0.00    -0.366 N 
ATOM     27  H20 3JD d   1     -73.095  19.660  27.265  0.00  0.00     0.159 HD
ATOM     28  H21 3JD d   1     -71.754  20.645  26.783  0.00  0.00     0.159 HD
ENDBRANCH  18  24
ENDBRANCH   6  11
BRANCH   1  29
ATOM     29  CAW 3JD d   1     -66.649  25.819  28.981  0.00  0.00    -0.005 C 
ATOM     30  CAM 3JD d   1     -65.336  25.275  29.660  0.00  0.00    -0.055 C 
ATOM     31  CAK 3JD d   1     -65.225  25.639  31.189  0.00  0.00    -0.042 C 
ATOM     32  H1  3JD d   1     -65.320  24.180  29.560  0.00  0.00     0.034 H 
ATOM     33  H2  3JD d   1     -64.469  25.704  29.136  0.00  0.00     0.034 H 
ATOM     34  CAL 3JD d   1     -65.709  27.059  31.517  0.00  0.00     0.082 C 
ATOM     35  H3  3JD d   1     -64.171  25.552  31.492  0.00  0.00     0.035 H 
ATOM     36  H4  3JD d   1     -65.832  24.923  31.762  0.00  0.00     0.035 H 
ATOM     37  NAP 3JD d   1     -67.098  27.280  31.094  0.00  0.00    -0.074 N 
ATOM     38  H5  3JD d   1     -65.061  27.783  31.000  0.00  0.00     0.075 H 
ATOM     39  H6  3JD d   1     -65.640  27.215  32.604  0.00  0.00     0.075 H 
ATOM     40  CAN 3JD d   1     -67.669  26.369  30.011  0.00  0.00     0.089 C 
ATOM     41  H7  3JD d   1     -67.161  28.227  30.754  0.00  0.00     0.277 HD
ATOM     42  H8  3JD d   1     -67.680  27.177  31.910  0.00  0.00     0.277 HD
ATOM     43  H9  3JD d   1     -68.431  26.938  29.459  0.00  0.00     0.076 H 
ATOM     44  H10 3JD d   1     -68.142  25.510  30.509  0.00  0.00     0.076 H 
ATOM     45  H11 3JD d   1     -66.334  26.675  28.366  0.00  0.00     0.050 H 
ENDBRANCH   1  29
TORSDOF 3
