REMARK  11 active torsions:
REMARK  status: ('A' for Active; 'I' for Inactive)
REMARK    1  A    between atoms: N_1  and  CA_2 
REMARK    2  A    between atoms: CA_2  and  CB_3 
REMARK    3  A    between atoms: CA_2  and  C_6 
REMARK    4  A    between atoms: CB_3  and  CG_4 
REMARK    5  A    between atoms: CG_4  and  SD_5 
REMARK    6  A    between atoms: SD_5  and  C5'_9 
REMARK    7  A    between atoms: C5'_9  and  C4'_10 
REMARK    8  A    between atoms: C3'_12  and  O3'_13 
REMARK    9  A    between atoms: C2'_14  and  O2'_15 
REMARK   10  A    between atoms: C1'_16  and  N9_17 
REMARK   11  A    between atoms: C6_21  and  N6_22 
ROOT
ATOM      1  C4' SAH d   1       8.593   3.982  28.668  0.00  0.00     0.076 C 
ATOM      2  O4' SAH d   1       9.409   3.801  29.848  0.00  0.00    -0.355 OA
ATOM      3  C3' SAH d   1       7.689   5.119  28.954  0.00  0.00     0.090 C 
ATOM      4  C2' SAH d   1       7.949   5.471  30.359  0.00  0.00     0.105 C 
ATOM      5  C1' SAH d   1       8.619   4.247  30.910  0.00  0.00     0.139 C 
ATOM      6  H   SAH d   1       8.031   3.067  28.429  0.00  0.00     0.088 H 
ATOM      7  H   SAH d   1       7.928   5.976  28.308  0.00  0.00     0.091 H 
ATOM      8  H   SAH d   1       8.631   6.332  30.416  0.00  0.00     0.093 H 
ATOM      9  H   SAH d   1       7.859   3.488  31.147  0.00  0.00     0.122 H 
ENDROOT
BRANCH   1  10
ATOM     10  C5' SAH d   1       9.424   4.373  27.578  0.00  0.00     0.003 C 
ATOM     11  H   SAH d   1       9.766   5.402  27.761  0.00  0.00     0.052 H 
ATOM     12  H   SAH d   1      10.292   3.698  27.551  0.00  0.00     0.052 H 
BRANCH  10  13
ATOM     13  SD  SAH d   1       8.625   4.326  25.959  0.00  0.00    -0.166 SA
BRANCH  13  14
ATOM     14  CG  SAH d   1       8.761   2.619  25.355  0.00  0.00    -0.021 C 
ATOM     15  H   SAH d   1       9.013   2.647  24.285  0.00  0.00     0.049 H 
ATOM     16  H   SAH d   1       9.568   2.116  25.909  0.00  0.00     0.049 H 
BRANCH  14  17
ATOM     17  CB  SAH d   1       7.476   1.810  25.530  0.00  0.00    -0.021 C 
ATOM     18  H   SAH d   1       7.267   1.724  26.607  0.00  0.00     0.037 H 
ATOM     19  H   SAH d   1       6.656   2.355  25.039  0.00  0.00     0.037 H 
BRANCH  17  20
ATOM     20  CA  SAH d   1       7.537   0.360  24.923  0.00  0.00     0.183 C 
ATOM     21  H   SAH d   1       6.556  -0.109  25.087  0.00  0.00     0.101 H 
BRANCH  20  22
ATOM     22  N   SAH d   1       8.556  -0.448  25.634  0.00  0.00    -0.065 N 
ATOM     23  H   SAH d   1       8.366  -0.433  26.624  0.00  0.00     0.275 HD
ATOM     24  H   SAH d   1       9.471  -0.062  25.461  0.00  0.00     0.275 HD
ATOM     25  H   SAH d   1       8.524  -1.399  25.300  0.00  0.00     0.275 HD
ENDBRANCH  20  22
BRANCH  20  26
ATOM     26  C   SAH d   1       7.793   0.354  23.466  0.00  0.00     0.204 C 
ATOM     27  O   SAH d   1       8.872  -0.036  23.049  0.00  0.00    -0.646 OA
ATOM     28  OXT SAH d   1       6.967   0.824  22.711  0.00  0.00    -0.646 OA
ENDBRANCH  20  26
ENDBRANCH  17  20
ENDBRANCH  14  17
ENDBRANCH  13  14
ENDBRANCH  10  13
ENDBRANCH   1  10
BRANCH   3  29
ATOM     29  O3' SAH d   1       6.359   4.716  28.708  0.00  0.00    -0.390 OA
ATOM     30  H   SAH d   1       6.142   3.982  29.271  0.00  0.00     0.210 HD
ENDBRANCH   3  29
BRANCH   5  31
ATOM     31  N9  SAH d   1       9.408   4.512  32.171  0.00  0.00    -0.294 N 
ATOM     32  C8  SAH d   1      10.362   5.424  32.360  0.00  0.00     0.071 A 
ATOM     33  N7  SAH d   1      10.813   5.312  33.607  0.00  0.00    -0.236 NA
ATOM     34  H   SAH d   1      10.713   6.140  31.619  0.00  0.00     0.144 H 
ATOM     35  C5  SAH d   1      10.145   4.322  34.228  0.00  0.00     0.149 A 
ATOM     36  C6  SAH d   1      10.200   3.782  35.521  0.00  0.00     0.155 A 
ATOM     37  C4  SAH d   1       9.246   3.796  33.295  0.00  0.00     0.167 A 
ATOM     38  N1  SAH d   1       9.357   2.769  35.806  0.00  0.00    -0.222 NA
ATOM     39  C2  SAH d   1       8.510   2.278  34.890  0.00  0.00     0.091 A 
ATOM     40  N3  SAH d   1       8.430   2.794  33.633  0.00  0.00    -0.222 NA
ATOM     41  H   SAH d   1       7.870   1.445  35.158  0.00  0.00     0.146 H 
BRANCH  36  42
ATOM     42  N6  SAH d   1      11.041   4.285  36.482  0.00  0.00    -0.382 N 
ATOM     43  H   SAH d   1      11.057   3.866  37.423  0.00  0.00     0.157 HD
ATOM     44  H   SAH d   1      11.656   5.082  36.263  0.00  0.00     0.157 HD
ENDBRANCH  36  42
ENDBRANCH   5  31
BRANCH   4  45
ATOM     45  O2' SAH d   1       6.764   5.796  31.043  0.00  0.00    -0.388 OA
ATOM     46  H   SAH d   1       6.175   5.051  31.025  0.00  0.00     0.210 HD
ENDBRANCH   4  45
TORSDOF 11
