REMARK  11 active torsions:
REMARK  status: ('A' for Active; 'I' for Inactive)
REMARK    1  A    between atoms: N_1  and  CA_2 
REMARK    2  A    between atoms: CA_2  and  CB_3 
REMARK    3  A    between atoms: CA_2  and  C_6 
REMARK    4  A    between atoms: CB_3  and  CG_4 
REMARK    5  A    between atoms: CG_4  and  SD_5 
REMARK    6  A    between atoms: SD_5  and  C5'_9 
REMARK    7  A    between atoms: C5'_9  and  C4'_10 
REMARK    8  A    between atoms: C3'_12  and  O3'_13 
REMARK    9  A    between atoms: C2'_14  and  O2'_15 
REMARK   10  A    between atoms: C1'_16  and  N9_17 
REMARK   11  A    between atoms: C6_21  and  N6_22 
ROOT
ATOM      1  C4' SAH d   1       8.894   3.964  28.201  0.00  0.00     0.076 C 
ATOM      2  O4' SAH d   1       9.723   3.698  29.365  0.00  0.00    -0.355 OA
ATOM      3  C3' SAH d   1       8.034   5.105  28.574  0.00  0.00     0.090 C 
ATOM      4  C2' SAH d   1       8.245   5.326  30.002  0.00  0.00     0.105 C 
ATOM      5  C1' SAH d   1       8.971   4.113  30.458  0.00  0.00     0.139 C 
ATOM      6  H   SAH d   1       8.295   3.084  27.924  0.00  0.00     0.088 H 
ATOM      7  H   SAH d   1       8.326   6.001  28.006  0.00  0.00     0.091 H 
ATOM      8  H   SAH d   1       8.841   6.234  30.175  0.00  0.00     0.093 H 
ATOM      9  H   SAH d   1       8.238   3.323  30.678  0.00  0.00     0.122 H 
ENDROOT
BRANCH   1  10
ATOM     10  C5' SAH d   1       9.737   4.359  27.129  0.00  0.00     0.003 C 
ATOM     11  H   SAH d   1      10.060   5.389  27.338  0.00  0.00     0.052 H 
ATOM     12  H   SAH d   1      10.610   3.690  27.145  0.00  0.00     0.052 H 
BRANCH  10  13
ATOM     13  SD  SAH d   1       9.091   4.342  25.441  0.00  0.00    -0.166 SA
BRANCH  13  14
ATOM     14  CG  SAH d   1       8.973   2.615  24.865  0.00  0.00    -0.021 C 
ATOM     15  H   SAH d   1       8.955   2.636  23.765  0.00  0.00     0.049 H 
ATOM     16  H   SAH d   1       9.878   2.092  25.207  0.00  0.00     0.049 H 
BRANCH  14  17
ATOM     17  CB  SAH d   1       7.765   1.792  25.328  0.00  0.00    -0.021 C 
ATOM     18  H   SAH d   1       7.832   1.687  26.421  0.00  0.00     0.037 H 
ATOM     19  H   SAH d   1       6.857   2.357  25.069  0.00  0.00     0.037 H 
BRANCH  17  20
ATOM     20  CA  SAH d   1       7.618   0.339  24.713  0.00  0.00     0.183 C 
ATOM     21  H   SAH d   1       6.567   0.043  24.848  0.00  0.00     0.101 H 
BRANCH  20  22
ATOM     22  N   SAH d   1       8.459  -0.628  25.450  0.00  0.00    -0.065 N 
ATOM     23  H   SAH d   1       8.261  -0.563  26.436  0.00  0.00     0.275 HD
ATOM     24  H   SAH d   1       9.432  -0.419  25.288  0.00  0.00     0.275 HD
ATOM     25  H   SAH d   1       8.258  -1.562  25.128  0.00  0.00     0.275 HD
ENDBRANCH  20  22
BRANCH  20  26
ATOM     26  C   SAH d   1       7.912   0.240  23.268  0.00  0.00     0.204 C 
ATOM     27  O   SAH d   1       9.035  -0.054  22.901  0.00  0.00    -0.646 OA
ATOM     28  OXT SAH d   1       7.036   0.428  22.456  0.00  0.00    -0.646 OA
ENDBRANCH  20  26
ENDBRANCH  17  20
ENDBRANCH  14  17
ENDBRANCH  13  14
ENDBRANCH  10  13
ENDBRANCH   1  10
BRANCH   3  29
ATOM     29  O3' SAH d   1       6.683   4.809  28.310  0.00  0.00    -0.390 OA
ATOM     30  H   SAH d   1       6.423   4.047  28.814  0.00  0.00     0.210 HD
ENDBRANCH   3  29
BRANCH   5  31
ATOM     31  N9  SAH d   1       9.722   4.374  31.743  0.00  0.00    -0.294 N 
ATOM     32  C8  SAH d   1      10.667   5.294  31.985  0.00  0.00     0.071 A 
ATOM     33  N7  SAH d   1      11.046   5.151  33.259  0.00  0.00    -0.236 NA
ATOM     34  H   SAH d   1      11.054   6.023  31.275  0.00  0.00     0.144 H 
ATOM     35  C5  SAH d   1      10.351   4.153  33.819  0.00  0.00     0.149 A 
ATOM     36  C6  SAH d   1      10.338   3.583  35.101  0.00  0.00     0.155 A 
ATOM     37  C4  SAH d   1       9.491   3.645  32.844  0.00  0.00     0.167 A 
ATOM     38  N1  SAH d   1       9.495   2.560  35.346  0.00  0.00    -0.222 NA
ATOM     39  C2  SAH d   1       8.685   2.093  34.398  0.00  0.00     0.091 A 
ATOM     40  N3  SAH d   1       8.673   2.623  33.153  0.00  0.00    -0.222 NA
ATOM     41  H   SAH d   1       8.020   1.269  34.629  0.00  0.00     0.146 H 
BRANCH  36  42
ATOM     42  N6  SAH d   1      11.169   4.053  36.083  0.00  0.00    -0.382 N 
ATOM     43  H   SAH d   1      11.151   3.627  37.020  0.00  0.00     0.157 HD
ATOM     44  H   SAH d   1      11.812   4.833  35.884  0.00  0.00     0.157 HD
ENDBRANCH  36  42
ENDBRANCH   5  31
BRANCH   4  45
ATOM     45  O2' SAH d   1       7.025   5.422  30.676  0.00  0.00    -0.388 OA
ATOM     46  H   SAH d   1       6.536   4.616  30.560  0.00  0.00     0.210 HD
ENDBRANCH   4  45
TORSDOF 11
