REMARK  7 active torsions:
REMARK  status: ('A' for Active; 'I' for Inactive)
REMARK    1  A    between atoms: C23_5  and  N26_6 
REMARK    2  A    between atoms: C18_9  and  C19_8 
REMARK       I    between atoms: N13_11  and  C18_9 
REMARK    3  A    between atoms: C12_12  and  N13_11 
REMARK    4  A    between atoms: C12_12  and  C14_13 
REMARK    5  A    between atoms: C03_17  and  C12_12 
REMARK       I    between atoms: C14_13  and  N16_15 
REMARK    6  A    between atoms: N16_15  and  O17_16 
REMARK    7  A    between atoms: N07_23  and  C06_22 
ROOT
ATOM      1  C12 3MW d   1      87.212  73.314  31.086  0.00  0.00     0.117 C 
ATOM      2  H   3MW d   1      87.482  73.635  32.103  0.00  0.00     0.095 H 
ENDROOT
BRANCH   1   3
ATOM      3  N13 3MW d   1      88.389  72.579  30.575  0.00  0.00    -0.340 N 
ATOM      4  C18 3MW d   1      89.251  72.005  31.430  0.00  0.00     0.252 C 
ATOM      5  O20 3MW d   1      89.091  72.009  32.648  0.00  0.00    -0.268 OA
ATOM      6  H   3MW d   1      88.544  72.509  29.590  0.00  0.00     0.164 HD
BRANCH   4   7
ATOM      7  C19 3MW d   1      90.408  71.460  30.881  0.00  0.00     0.032 A 
ATOM      8  C21 3MW d   1      90.540  71.207  29.520  0.00  0.00    -0.066 A 
ATOM      9  C22 3MW d   1      91.737  70.684  29.034  0.00  0.00    -0.057 A 
ATOM     10  H   3MW d   1      89.719  71.415  28.843  0.00  0.00     0.085 H 
ATOM     11  C23 3MW d   1      92.803  70.431  29.896  0.00  0.00     0.025 A 
ATOM     12  H   3MW d   1      91.840  70.472  27.976  0.00  0.00     0.086 H 
ATOM     13  C24 3MW d   1      92.674  70.700  31.252  0.00  0.00    -0.057 A 
ATOM     14  C25 3MW d   1      91.480  71.218  31.735  0.00  0.00    -0.066 A 
ATOM     15  H   3MW d   1      93.499  70.507  31.928  0.00  0.00     0.086 H 
ATOM     16  H   3MW d   1      91.381  71.437  32.792  0.00  0.00     0.085 H 
BRANCH  11  17
ATOM     17  N26 3MW d   1      93.947  69.932  29.431  0.00  0.00    -0.399 N 
ATOM     18  H   3MW d   1      94.050  69.730  28.426  0.00  0.00     0.156 HD
ATOM     19  H   3MW d   1      94.729  69.748  30.076  0.00  0.00     0.156 HD
ENDBRANCH  11  17
ENDBRANCH   4   7
ENDBRANCH   1   3
BRANCH   1  20
ATOM     20  C14 3MW d   1      86.975  74.581  30.249  0.00  0.00     0.268 C 
ATOM     21  O15 3MW d   1      85.841  75.033  30.085  0.00  0.00    -0.269 OA
ATOM     22  N16 3MW d   1      88.082  75.145  29.753  0.00  0.00    -0.235 N 
ATOM     23  H   3MW d   1      88.989  74.757  29.914  0.00  0.00     0.197 HD
BRANCH  22  24
ATOM     24  O17 3MW d   1      87.897  76.332  28.981  0.00  0.00    -0.287 OA
ATOM     25  H   3MW d   1      88.741  76.647  28.680  0.00  0.00     0.244 HD
ENDBRANCH  22  24
ENDBRANCH   1  20
BRANCH   1  26
ATOM     26  C03 3MW d   1      86.003  72.626  31.212  0.00  0.00    -0.026 A 
ATOM     27  C04 3MW d   1      85.555  71.637  30.339  0.00  0.00    -0.072 A 
ATOM     28  C05 3MW d   1      84.310  71.042  30.565  0.00  0.00    -0.055 A 
ATOM     29  H   3MW d   1      86.164  71.333  29.495  0.00  0.00     0.084 H 
ATOM     30  C06 3MW d   1      83.524  71.446  31.647  0.00  0.00     0.058 A 
ATOM     31  H   3MW d   1      83.954  70.265  29.899  0.00  0.00     0.087 H 
ATOM     32  C01 3MW d   1      83.974  72.440  32.500  0.00  0.00    -0.055 A 
ATOM     33  C02 3MW d   1      85.206  73.026  32.276  0.00  0.00    -0.072 A 
ATOM     34  H   3MW d   1      83.364  72.757  33.338  0.00  0.00     0.087 H 
ATOM     35  H   3MW d   1      85.554  73.808  32.940  0.00  0.00     0.084 H 
BRANCH  30  36
ATOM     36  N07 3MW d   1      82.331  70.916  31.902  0.00  0.00    -0.245 N 
ATOM     37  N08 3MW d   1      81.661  71.204  32.876  0.00  0.00    -0.180 NA
ATOM     38  C09 3MW d   1      80.518  70.528  32.862  0.00  0.00     0.023 A 
ATOM     39  C10 3MW d   1      80.524  69.779  31.769  0.00  0.00    -0.048 A 
ATOM     40  H   3MW d   1      79.726  70.579  33.608  0.00  0.00     0.117 H 
ATOM     41  C11 3MW d   1      81.676  70.028  31.158  0.00  0.00     0.006 A 
ATOM     42  H   3MW d   1      79.742  69.097  31.439  0.00  0.00     0.087 H 
ATOM     43  H   3MW d   1      82.020  69.588  30.223  0.00  0.00     0.114 H 
ENDBRANCH  30  36
ENDBRANCH   1  26
TORSDOF 7
