REMARK  8 active torsions:
REMARK  status: ('A' for Active; 'I' for Inactive)
REMARK    1  A    between atoms: C4_3  and  C9_6 
REMARK    2  A    between atoms: C12_9  and  C4_3 
REMARK    3  A    between atoms: C7_4  and  C13_7 
REMARK       I    between atoms: N6_27  and  C7_4 
REMARK    4  A    between atoms: N1_5  and  C17_21 
REMARK    5  A    between atoms: C9_6  and  C16_20 
REMARK    6  A    between atoms: C13_7  and  C20_24 
REMARK    7  A    between atoms: C19_23  and  C12_9 
REMARK    8  A    between atoms: C19_23  and  C21_25 
ROOT
ATOM      1  C2  3KO d   1      22.178   9.980  23.851  0.00  0.00     0.677 A 
ATOM      2  C3  3KO d   1      21.436  11.894  22.877  0.00  0.00     0.266 A 
ATOM      3  C4  3KO d   1      21.030  10.754  21.974  0.00  0.00     0.129 A 
ATOM      4  N1  3KO d   1      22.082  11.352  23.966  0.00  0.00    -0.154 N 
ATOM      5  N5  3KO d   1      21.603   9.605  22.665  0.00  0.00    -0.208 N 
ATOM      6  N8  3KO d   1      22.716   9.204  24.739  0.00  0.00    -0.234 N 
ATOM      7  O11 3KO d   1      21.181  13.063  22.656  0.00  0.00    -0.270 OA
ATOM      8  H   3KO d   1      21.579   8.639  22.309  0.00  0.00     0.179 HD
ATOM      9  H   3KO d   1      23.119   9.606  25.598  0.00  0.00     0.174 HD
ATOM     10  H   3KO d   1      22.741   8.186  24.586  0.00  0.00     0.174 HD
ENDROOT
BRANCH   3  11
ATOM     11  C9  3KO d   1      21.570  10.888  20.542  0.00  0.00    -0.028 C 
ATOM     12  H   3KO d   1      21.336  11.902  20.187  0.00  0.00     0.038 H 
ATOM     13  H   3KO d   1      21.049  10.150  19.914  0.00  0.00     0.038 H 
BRANCH  11  14
ATOM     14  C16 3KO d   1      23.072  10.668  20.374  0.00  0.00    -0.034 C 
ATOM     15  C10 3KO d   1      23.854  11.861  20.872  0.00  0.00     0.001 C 
ATOM     16  N6  3KO d   1      24.986  11.989  20.010  0.00  0.00    -0.352 N 
ATOM     17  H   3KO d   1      24.182  11.695  21.909  0.00  0.00     0.065 H 
ATOM     18  H   3KO d   1      23.235  12.769  20.824  0.00  0.00     0.065 H 
ATOM     19  C7  3KO d   1      26.073  12.751  20.432  0.00  0.00     0.220 C 
ATOM     20  C14 3KO d   1      24.853  11.182  18.813  0.00  0.00    -0.002 C 
ATOM     21  O15 3KO d   1      25.996  13.592  21.322  0.00  0.00    -0.273 OA
ATOM     22  C18 3KO d   1      23.494  10.529  18.925  0.00  0.00    -0.045 C 
ATOM     23  H   3KO d   1      24.905  11.814  17.914  0.00  0.00     0.064 H 
ATOM     24  H   3KO d   1      25.645  10.420  18.771  0.00  0.00     0.064 H 
ATOM     25  H   3KO d   1      23.558   9.466  18.648  0.00  0.00     0.036 H 
ATOM     26  H   3KO d   1      22.772  11.037  18.268  0.00  0.00     0.036 H 
ATOM     27  H   3KO d   1      23.357   9.765  20.934  0.00  0.00     0.042 H 
BRANCH  19  28
ATOM     28  C13 3KO d   1      27.368  12.505  19.715  0.00  0.00     0.013 C 
ATOM     29  H   3KO d   1      27.880  13.472  19.603  0.00  0.00     0.047 H 
ATOM     30  H   3KO d   1      27.131  12.098  18.721  0.00  0.00     0.047 H 
BRANCH  28  31
ATOM     31  C20 3KO d   1      28.334  11.541  20.396  0.00  0.00    -0.046 C 
ATOM     32  C23 3KO d   1      29.036  12.087  21.611  0.00  0.00    -0.061 C 
ATOM     33  C28 3KO d   1      29.476  10.868  22.395  0.00  0.00    -0.065 C 
ATOM     34  H   3KO d   1      29.907  12.691  21.315  0.00  0.00     0.033 H 
ATOM     35  H   3KO d   1      28.349  12.703  22.209  0.00  0.00     0.033 H 
ATOM     36  C29 3KO d   1      28.703   9.681  21.884  0.00  0.00    -0.065 C 
ATOM     37  H   3KO d   1      30.554  10.701  22.252  0.00  0.00     0.033 H 
ATOM     38  H   3KO d   1      29.267  11.017  23.465  0.00  0.00     0.033 H 
ATOM     39  C22 3KO d   1      27.831  10.158  20.744  0.00  0.00    -0.061 C 
ATOM     40  H   3KO d   1      28.076   9.268  22.688  0.00  0.00     0.033 H 
ATOM     41  H   3KO d   1      29.398   8.907  21.526  0.00  0.00     0.033 H 
ATOM     42  H   3KO d   1      26.778  10.201  21.058  0.00  0.00     0.033 H 
ATOM     43  H   3KO d   1      27.928   9.486  19.879  0.00  0.00     0.033 H 
ATOM     44  H   3KO d   1      29.119  11.382  19.643  0.00  0.00     0.040 H 
ENDBRANCH  28  31
ENDBRANCH  19  28
ENDBRANCH  11  14
ENDBRANCH   3  11
BRANCH   3  45
ATOM     45  C12 3KO d   1      19.507  10.671  21.924  0.00  0.00    -0.032 C 
ATOM     46  H   3KO d   1      19.234   9.726  21.431  0.00  0.00     0.037 H 
ATOM     47  H   3KO d   1      19.140  11.517  21.324  0.00  0.00     0.037 H 
BRANCH  45  48
ATOM     48  C19 3KO d   1      18.803  10.715  23.283  0.00  0.00    -0.059 C 
ATOM     49  H   3KO d   1      18.904  11.729  23.698  0.00  0.00     0.033 H 
ATOM     50  H   3KO d   1      19.291   9.993  23.954  0.00  0.00     0.033 H 
BRANCH  48  51
ATOM     51  C21 3KO d   1      17.326  10.373  23.196  0.00  0.00    -0.054 C 
ATOM     52  C25 3KO d   1      16.807  10.109  24.603  0.00  0.00    -0.062 C 
ATOM     53  C26 3KO d   1      15.334   9.722  24.593  0.00  0.00    -0.065 C 
ATOM     54  H   3KO d   1      17.389   9.289  25.050  0.00  0.00     0.033 H 
ATOM     55  H   3KO d   1      16.933  11.020  25.207  0.00  0.00     0.033 H 
ATOM     56  C30 3KO d   1      14.479  10.729  23.827  0.00  0.00    -0.065 C 
ATOM     57  H   3KO d   1      15.230   8.735  24.118  0.00  0.00     0.033 H 
ATOM     58  H   3KO d   1      14.975   9.669  25.631  0.00  0.00     0.033 H 
ATOM     59  C27 3KO d   1      15.030  11.098  22.453  0.00  0.00    -0.065 C 
ATOM     60  H   3KO d   1      13.476  10.298  23.692  0.00  0.00     0.033 H 
ATOM     61  H   3KO d   1      14.406  11.648  24.428  0.00  0.00     0.033 H 
ATOM     62  C24 3KO d   1      16.512  11.472  22.502  0.00  0.00    -0.062 C 
ATOM     63  H   3KO d   1      14.462  11.955  22.063  0.00  0.00     0.033 H 
ATOM     64  H   3KO d   1      14.905  10.238  21.779  0.00  0.00     0.033 H 
ATOM     65  H   3KO d   1      16.629  12.414  23.059  0.00  0.00     0.033 H 
ATOM     66  H   3KO d   1      16.885  11.604  21.476  0.00  0.00     0.033 H 
ATOM     67  H   3KO d   1      17.219   9.451  22.605  0.00  0.00     0.040 H 
ENDBRANCH  48  51
ENDBRANCH  45  48
ENDBRANCH   3  45
BRANCH   4  68
ATOM     68  C17 3KO d   1      22.596  12.162  25.065  0.00  0.00     0.005 C 
ATOM     69  H   3KO d   1      23.068  11.508  25.813  0.00  0.00     0.058 H 
ATOM     70  H   3KO d   1      21.767  12.714  25.532  0.00  0.00     0.058 H 
ATOM     71  H   3KO d   1      23.340  12.874  24.679  0.00  0.00     0.058 H 
ENDBRANCH   4  68
TORSDOF 8
