REMARK  9 active torsions:
REMARK  status: ('A' for Active; 'I' for Inactive)
REMARK    1  A    between atoms: C12_1  and  N10_13 
REMARK    2  A    between atoms: C7_6  and  C13_2 
REMARK    3  A    between atoms: C1_4  and  N5_10 
REMARK    4  A    between atoms: C4_5  and  C7_6 
REMARK    5  A    between atoms: C4_5  and  C9_8 
REMARK    6  A    between atoms: N2_7  and  C11_9 
REMARK    7  A    between atoms: C9_8  and  C15_15 
REMARK    8  A    between atoms: N10_13  and  C16_16 
REMARK    9  A    between atoms: C15_15  and  C17_17 
ROOT
ATOM      1  C3  3KT d   1      21.182  11.820  23.263  0.00  0.00     0.266 A 
ATOM      2  C1  3KT d   1      22.018   9.891  24.113  0.00  0.00     0.677 A 
ATOM      3  C4  3KT d   1      20.725  10.692  22.360  0.00  0.00     0.129 A 
ATOM      4  N2  3KT d   1      21.881  11.235  24.288  0.00  0.00    -0.154 N 
ATOM      5  N6  3KT d   1      21.342   9.523  22.982  0.00  0.00    -0.208 N 
ATOM      6  O8  3KT d   1      20.909  13.008  23.150  0.00  0.00    -0.270 OA
ATOM      7  H   3KT d   1      21.277   8.560  22.621  0.00  0.00     0.179 HD
ENDROOT
BRANCH   3   8
ATOM      8  C7  3KT d   1      21.133  10.909  20.906  0.00  0.00    -0.029 C 
ATOM      9  H   3KT d   1      20.426  10.340  20.284  0.00  0.00     0.037 H 
ATOM     10  H   3KT d   1      21.022  11.983  20.697  0.00  0.00     0.037 H 
BRANCH   8  11
ATOM     11  C13 3KT d   1      22.538  10.510  20.466  0.00  0.00    -0.050 C 
ATOM     12  C14 3KT d   1      23.626  11.326  21.167  0.00  0.00    -0.035 C 
ATOM     13  C12 3KT d   1      24.989  10.955  20.612  0.00  0.00     0.103 C 
ATOM     14  H   3KT d   1      23.443  12.398  20.999  0.00  0.00     0.036 H 
ATOM     15  H   3KT d   1      23.602  11.115  22.246  0.00  0.00     0.036 H 
ATOM     16  C19 3KT d   1      25.062  11.343  19.134  0.00  0.00    -0.038 C 
ATOM     17  H   3KT d   1      25.139   9.868  20.694  0.00  0.00     0.084 H 
ATOM     18  C18 3KT d   1      23.994  10.551  18.386  0.00  0.00    -0.063 C 
ATOM     19  H   3KT d   1      26.057  11.100  18.733  0.00  0.00     0.036 H 
ATOM     20  H   3KT d   1      24.875  12.421  19.021  0.00  0.00     0.036 H 
ATOM     21  C20 3KT d   1      22.604  10.802  18.971  0.00  0.00    -0.061 C 
ATOM     22  H   3KT d   1      24.226   9.478  18.460  0.00  0.00     0.033 H 
ATOM     23  H   3KT d   1      23.998  10.854  17.329  0.00  0.00     0.033 H 
ATOM     24  H   3KT d   1      22.337  11.856  18.805  0.00  0.00     0.033 H 
ATOM     25  H   3KT d   1      21.881  10.155  18.453  0.00  0.00     0.033 H 
ATOM     26  H   3KT d   1      22.701   9.440  20.661  0.00  0.00     0.040 H 
BRANCH  13  27
ATOM     27  N10 3KT d   1      26.017  11.656  21.463  0.00  0.00    -0.067 N 
ATOM     28  H   3KT d   1      25.994  11.238  22.380  0.00  0.00     0.278 HD
ATOM     29  H   3KT d   1      25.752  12.626  21.529  0.00  0.00     0.278 HD
BRANCH  27  30
ATOM     30  C16 3KT d   1      27.426  11.600  20.971  0.00  0.00     0.102 A 
ATOM     31  C21 3KT d   1      27.873  10.146  20.878  0.00  0.00    -0.038 A 
ATOM     32  C26 3KT d   1      28.937   9.916  21.919  0.00  0.00    -0.063 A 
ATOM     33  H   3KT d   1      28.282   9.945  19.877  0.00  0.00     0.036 H 
ATOM     34  H   3KT d   1      27.018   9.480  21.066  0.00  0.00     0.036 H 
ATOM     35  C27 3KT d   1      29.190  11.229  22.603  0.00  0.00    -0.063 A 
ATOM     36  H   3KT d   1      29.860   9.558  21.440  0.00  0.00     0.033 H 
ATOM     37  H   3KT d   1      28.591   9.171  22.651  0.00  0.00     0.033 H 
ATOM     38  C22 3KT d   1      28.262  12.271  22.034  0.00  0.00    -0.038 A 
ATOM     39  H   3KT d   1      29.006  11.123  23.682  0.00  0.00     0.033 H 
ATOM     40  H   3KT d   1      30.233  11.535  22.437  0.00  0.00     0.033 H 
ATOM     41  H   3KT d   1      27.612  12.669  22.827  0.00  0.00     0.036 H 
ATOM     42  H   3KT d   1      28.845  13.092  21.591  0.00  0.00     0.036 H 
ATOM     43  H   3KT d   1      27.528  12.104  19.999  0.00  0.00     0.084 H 
ENDBRANCH  27  30
ENDBRANCH  13  27
ENDBRANCH   8  11
ENDBRANCH   3   8
BRANCH   3  44
ATOM     44  C9  3KT d   1      19.210  10.551  22.380  0.00  0.00    -0.032 C 
ATOM     45  H   3KT d   1      18.956   9.577  21.936  0.00  0.00     0.037 H 
ATOM     46  H   3KT d   1      18.788  11.357  21.762  0.00  0.00     0.037 H 
BRANCH  44  47
ATOM     47  C15 3KT d   1      18.554  10.624  23.754  0.00  0.00    -0.059 C 
ATOM     48  H   3KT d   1      18.611  11.662  24.113  0.00  0.00     0.033 H 
ATOM     49  H   3KT d   1      19.108   9.967  24.441  0.00  0.00     0.033 H 
BRANCH  47  50
ATOM     50  C17 3KT d   1      17.094  10.195  23.748  0.00  0.00    -0.054 C 
ATOM     51  C23 3KT d   1      16.186  11.219  23.064  0.00  0.00    -0.062 C 
ATOM     52  C28 3KT d   1      14.740  10.732  23.118  0.00  0.00    -0.065 C 
ATOM     53  H   3KT d   1      16.494  11.339  22.015  0.00  0.00     0.033 H 
ATOM     54  H   3KT d   1      16.267  12.186  23.583  0.00  0.00     0.033 H 
ATOM     55  C29 3KT d   1      14.271  10.509  24.549  0.00  0.00    -0.065 C 
ATOM     56  H   3KT d   1      14.663   9.784  22.566  0.00  0.00     0.033 H 
ATOM     57  H   3KT d   1      14.093  11.485  22.645  0.00  0.00     0.033 H 
ATOM     58  C25 3KT d   1      15.185   9.551  25.297  0.00  0.00    -0.065 C 
ATOM     59  H   3KT d   1      14.260  11.475  25.075  0.00  0.00     0.033 H 
ATOM     60  H   3KT d   1      13.254  10.090  24.530  0.00  0.00     0.033 H 
ATOM     61  C24 3KT d   1      16.651   9.969  25.189  0.00  0.00    -0.062 C 
ATOM     62  H   3KT d   1      14.895   9.537  26.358  0.00  0.00     0.033 H 
ATOM     63  H   3KT d   1      15.069   8.543  24.872  0.00  0.00     0.033 H 
ATOM     64  H   3KT d   1      16.793  10.904  25.751  0.00  0.00     0.033 H 
ATOM     65  H   3KT d   1      17.276   9.178  25.629  0.00  0.00     0.033 H 
ATOM     66  H   3KT d   1      17.012   9.246  23.198  0.00  0.00     0.040 H 
ENDBRANCH  47  50
ENDBRANCH  44  47
ENDBRANCH   3  44
BRANCH   4  67
ATOM     67  C11 3KT d   1      22.581  12.008  25.307  0.00  0.00     0.005 C 
ATOM     68  H   3KT d   1      22.290  13.066  25.229  0.00  0.00     0.058 H 
ATOM     69  H   3KT d   1      23.667  11.914  25.157  0.00  0.00     0.058 H 
ATOM     70  H   3KT d   1      22.314  11.627  26.304  0.00  0.00     0.058 H 
ENDBRANCH   4  67
BRANCH   2  71
ATOM     71  N5  3KT d   1      22.690   9.144  24.919  0.00  0.00    -0.234 N 
ATOM     72  H   3KT d   1      22.764   8.132  24.743  0.00  0.00     0.174 HD
ATOM     73  H   3KT d   1      23.154   9.559  25.740  0.00  0.00     0.174 HD
ENDBRANCH   2  71
TORSDOF 9
