REMARK  8 active torsions:
REMARK  status: ('A' for Active; 'I' for Inactive)
REMARK    1  A    between atoms: C2_2  and  C7_7 
REMARK    2  A    between atoms: C24_24  and  C2_2 
REMARK    3  A    between atoms: N5_5  and  C25_25 
REMARK    4  A    between atoms: C7_7  and  C9_9 
REMARK    5  A    between atoms: C8_8  and  C24_24 
REMARK    6  A    between atoms: C9_9  and  C10_10 
REMARK    7  A    between atoms: C12_12  and  N22_22 
REMARK       I    between atoms: N22_22  and  C23_23 
REMARK    8  A    between atoms: C23_23  and  C27_27 
ROOT
ATOM      1  C1  3KU d   1      21.321  11.832  23.228  0.00  0.00     0.266 A 
ATOM      2  C2  3KU d   1      20.912  10.723  22.273  0.00  0.00     0.129 A 
ATOM      3  N3  3KU d   1      21.496   9.548  22.903  0.00  0.00    -0.208 N 
ATOM      4  C4  3KU d   1      22.127   9.890  24.075  0.00  0.00     0.677 A 
ATOM      5  N5  3KU d   1      22.040  11.254  24.248  0.00  0.00    -0.154 N 
ATOM      6  O6  3KU d   1      20.991  12.999  23.130  0.00  0.00    -0.270 OA
ATOM      7  N21 3KU d   1      22.734   9.105  24.902  0.00  0.00    -0.234 N 
ATOM      8  H   3KU d   1      21.444   8.592  22.523  0.00  0.00     0.179 HD
ATOM      9  H   3KU d   1      22.767   8.092  24.721  0.00  0.00     0.174 HD
ATOM     10  H   3KU d   1      23.185   9.492  25.743  0.00  0.00     0.174 HD
ENDROOT
BRANCH   2  11
ATOM     11  C7  3KU d   1      19.396  10.556  22.222  0.00  0.00    -0.032 C 
ATOM     12  H   3KU d   1      19.174   9.613  21.701  0.00  0.00     0.037 H 
ATOM     13  H   3KU d   1      18.980  11.398  21.649  0.00  0.00     0.037 H 
BRANCH  11  14
ATOM     14  C9  3KU d   1      18.698  10.520  23.588  0.00  0.00    -0.059 C 
ATOM     15  H   3KU d   1      18.734  11.531  24.019  0.00  0.00     0.033 H 
ATOM     16  H   3KU d   1      19.250   9.825  24.237  0.00  0.00     0.033 H 
BRANCH  14  17
ATOM     17  C10 3KU d   1      17.244  10.075  23.544  0.00  0.00    -0.054 C 
ATOM     18  C16 3KU d   1      16.807   9.749  24.969  0.00  0.00    -0.062 C 
ATOM     19  C17 3KU d   1      15.340   9.344  25.086  0.00  0.00    -0.065 C 
ATOM     20  H   3KU d   1      16.972  10.639  25.595  0.00  0.00     0.033 H 
ATOM     21  H   3KU d   1      17.427   8.919  25.340  0.00  0.00     0.033 H 
ATOM     22  C18 3KU d   1      14.424  10.367  24.423  0.00  0.00    -0.065 C 
ATOM     23  H   3KU d   1      15.075   9.264  26.151  0.00  0.00     0.033 H 
ATOM     24  H   3KU d   1      15.198   8.368  24.598  0.00  0.00     0.033 H 
ATOM     25  C19 3KU d   1      14.882  10.720  23.012  0.00  0.00    -0.065 C 
ATOM     26  H   3KU d   1      14.416  11.283  25.032  0.00  0.00     0.033 H 
ATOM     27  H   3KU d   1      13.407   9.951  24.372  0.00  0.00     0.033 H 
ATOM     28  C20 3KU d   1      16.346  11.152  22.948  0.00  0.00    -0.062 C 
ATOM     29  H   3KU d   1      14.257  11.544  22.637  0.00  0.00     0.033 H 
ATOM     30  H   3KU d   1      14.749   9.837  22.369  0.00  0.00     0.033 H 
ATOM     31  H   3KU d   1      16.629  11.320  21.898  0.00  0.00     0.033 H 
ATOM     32  H   3KU d   1      16.474  12.085  23.516  0.00  0.00     0.033 H 
ATOM     33  H   3KU d   1      17.165   9.170  22.924  0.00  0.00     0.040 H 
ENDBRANCH  14  17
ENDBRANCH  11  14
ENDBRANCH   2  11
BRANCH   2  34
ATOM     34  C24 3KU d   1      21.415  10.976  20.854  0.00  0.00    -0.029 C 
ATOM     35  H   3KU d   1      20.999  11.936  20.513  0.00  0.00     0.037 H 
ATOM     36  H   3KU d   1      21.040  10.165  20.212  0.00  0.00     0.037 H 
BRANCH  34  37
ATOM     37  C8  3KU d   1      22.929  11.038  20.694  0.00  0.00    -0.050 C 
ATOM     38  C11 3KU d   1      23.379  12.188  19.809  0.00  0.00    -0.043 C 
ATOM     39  C12 3KU d   1      24.899  12.133  19.643  0.00  0.00     0.013 C 
ATOM     40  H   3KU d   1      23.095  13.143  20.274  0.00  0.00     0.036 H 
ATOM     41  H   3KU d   1      22.898  12.103  18.823  0.00  0.00     0.036 H 
ATOM     42  C13 3KU d   1      25.386  10.785  19.124  0.00  0.00    -0.046 C 
ATOM     43  H   3KU d   1      25.334  12.268  20.644  0.00  0.00     0.072 H 
ATOM     44  C14 3KU d   1      24.936   9.689  20.066  0.00  0.00    -0.063 C 
ATOM     45  H   3KU d   1      26.484  10.790  19.065  0.00  0.00     0.035 H 
ATOM     46  H   3KU d   1      24.966  10.604  18.124  0.00  0.00     0.035 H 
ATOM     47  C15 3KU d   1      23.412   9.706  20.131  0.00  0.00    -0.061 C 
ATOM     48  H   3KU d   1      25.353   9.866  21.069  0.00  0.00     0.033 H 
ATOM     49  H   3KU d   1      25.281   8.713  19.693  0.00  0.00     0.033 H 
ATOM     50  H   3KU d   1      23.003   9.568  19.119  0.00  0.00     0.033 H 
ATOM     51  H   3KU d   1      23.066   8.889  20.781  0.00  0.00     0.033 H 
ATOM     52  H   3KU d   1      23.375  11.183  21.689  0.00  0.00     0.040 H 
BRANCH  39  53
ATOM     53  N22 3KU d   1      25.389  13.207  18.818  0.00  0.00    -0.352 N 
ATOM     54  C23 3KU d   1      25.762  14.399  19.420  0.00  0.00     0.252 C 
ATOM     55  O26 3KU d   1      25.681  14.646  20.620  0.00  0.00    -0.268 OA
ATOM     56  H   3KU d   1      25.459  13.095  17.827  0.00  0.00     0.163 HD
BRANCH  54  57
ATOM     57  C27 3KU d   1      26.304  15.410  18.503  0.00  0.00     0.034 A 
ATOM     58  C28 3KU d   1      26.483  16.705  18.955  0.00  0.00    -0.051 A 
ATOM     59  C29 3KU d   1      27.000  17.622  18.061  0.00  0.00     0.003 A 
ATOM     60  H   3KU d   1      26.228  16.989  19.970  0.00  0.00     0.087 H 
ATOM     61  N32 3KU d   1      27.349  17.336  16.797  0.00  0.00    -0.273 NA
ATOM     62  H   3KU d   1      27.133  18.642  18.403  0.00  0.00     0.114 H 
ATOM     63  C31 3KU d   1      27.157  16.068  16.402  0.00  0.00     0.003 A 
ATOM     64  C30 3KU d   1      26.636  15.076  17.207  0.00  0.00    -0.051 A 
ATOM     65  H   3KU d   1      27.428  15.806  15.386  0.00  0.00     0.114 H 
ATOM     66  H   3KU d   1      26.493  14.069  16.834  0.00  0.00     0.087 H 
ENDBRANCH  54  57
ENDBRANCH  39  53
ENDBRANCH  34  37
ENDBRANCH   2  34
BRANCH   5  67
ATOM     67  C25 3KU d   1      22.650  12.016  25.333  0.00  0.00     0.005 C 
ATOM     68  H   3KU d   1      22.411  13.083  25.211  0.00  0.00     0.058 H 
ATOM     69  H   3KU d   1      23.741  11.880  25.308  0.00  0.00     0.058 H 
ATOM     70  H   3KU d   1      22.258  11.660  26.297  0.00  0.00     0.058 H 
ENDBRANCH   5  67
TORSDOF 8
