REMARK  8 active torsions:
REMARK  status: ('A' for Active; 'I' for Inactive)
REMARK    1  A    between atoms: C2_2  and  C7_7 
REMARK    2  A    between atoms: C24_24  and  C2_2 
REMARK    3  A    between atoms: N5_5  and  C25_25 
REMARK    4  A    between atoms: C7_7  and  C9_9 
REMARK    5  A    between atoms: C8_8  and  C24_24 
REMARK    6  A    between atoms: C9_9  and  C10_10 
REMARK    7  A    between atoms: C12_12  and  N22_22 
REMARK       I    between atoms: N22_22  and  C23_23 
REMARK       I    between atoms: C23_23  and  N27_27 
REMARK    8  A    between atoms: N27_27  and  C28_28 
ROOT
ATOM      1  C1  779 d   1      21.296  11.919  23.109  0.00  0.00     0.266 A 
ATOM      2  C2  779 d   1      20.888  10.799  22.168  0.00  0.00     0.129 A 
ATOM      3  N3  779 d   1      21.434   9.626  22.843  0.00  0.00    -0.208 N 
ATOM      4  C4  779 d   1      22.073   9.981  24.006  0.00  0.00     0.677 A 
ATOM      5  N5  779 d   1      21.982  11.341  24.149  0.00  0.00    -0.154 N 
ATOM      6  O6  779 d   1      21.013  13.101  22.965  0.00  0.00    -0.270 OA
ATOM      7  N21 779 d   1      22.679   9.198  24.838  0.00  0.00    -0.234 N 
ATOM      8  H   779 d   1      21.351   8.661  22.494  0.00  0.00     0.179 HD
ATOM      9  H   779 d   1      22.706   8.183  24.664  0.00  0.00     0.174 HD
ATOM     10  H   779 d   1      23.135   9.589  25.675  0.00  0.00     0.174 HD
ENDROOT
BRANCH   2  11
ATOM     11  C7  779 d   1      19.365  10.681  22.097  0.00  0.00    -0.032 C 
ATOM     12  H   779 d   1      19.120   9.773  21.527  0.00  0.00     0.037 H 
ATOM     13  H   779 d   1      18.979  11.563  21.565  0.00  0.00     0.037 H 
BRANCH  11  14
ATOM     14  C9  779 d   1      18.653  10.596  23.456  0.00  0.00    -0.059 C 
ATOM     15  H   779 d   1      18.712  11.584  23.936  0.00  0.00     0.033 H 
ATOM     16  H   779 d   1      19.182   9.856  24.074  0.00  0.00     0.033 H 
BRANCH  14  17
ATOM     17  C10 779 d   1      17.180  10.189  23.382  0.00  0.00    -0.054 C 
ATOM     18  C16 779 d   1      16.670   9.942  24.795  0.00  0.00    -0.062 C 
ATOM     19  C17 779 d   1      15.210   9.487  24.832  0.00  0.00    -0.065 C 
ATOM     20  H   779 d   1      16.761  10.876  25.369  0.00  0.00     0.033 H 
ATOM     21  H   779 d   1      17.292   9.163  25.261  0.00  0.00     0.033 H 
ATOM     22  C18 779 d   1      14.314  10.465  24.096  0.00  0.00    -0.065 C 
ATOM     23  H   779 d   1      14.882   9.418  25.880  0.00  0.00     0.033 H 
ATOM     24  H   779 d   1      15.130   8.498  24.356  0.00  0.00     0.033 H 
ATOM     25  C19 779 d   1      14.835  10.786  22.699  0.00  0.00    -0.065 C 
ATOM     26  H   779 d   1      14.257  11.398  24.676  0.00  0.00     0.033 H 
ATOM     27  H   779 d   1      13.309  10.027  24.007  0.00  0.00     0.033 H 
ATOM     28  C20 779 d   1      16.298  11.226  22.691  0.00  0.00    -0.062 C 
ATOM     29  H   779 d   1      14.224  11.596  22.275  0.00  0.00     0.033 H 
ATOM     30  H   779 d   1      14.737   9.886  22.073  0.00  0.00     0.033 H 
ATOM     31  H   779 d   1      16.632  11.348  21.650  0.00  0.00     0.033 H 
ATOM     32  H   779 d   1      16.389  12.186  23.220  0.00  0.00     0.033 H 
ATOM     33  H   779 d   1      17.112   9.252  22.810  0.00  0.00     0.040 H 
ENDBRANCH  14  17
ENDBRANCH  11  14
ENDBRANCH   2  11
BRANCH   2  34
ATOM     34  C24 779 d   1      21.444  11.000  20.751  0.00  0.00    -0.029 C 
ATOM     35  H   779 d   1      21.029  11.941  20.360  0.00  0.00     0.037 H 
ATOM     36  H   779 d   1      21.094  10.160  20.133  0.00  0.00     0.037 H 
BRANCH  34  37
ATOM     37  C8  779 d   1      22.963  11.073  20.614  0.00  0.00    -0.050 C 
ATOM     38  C11 779 d   1      23.371  11.970  19.445  0.00  0.00    -0.043 C 
ATOM     39  C12 779 d   1      24.893  12.028  19.276  0.00  0.00     0.014 C 
ATOM     40  H   779 d   1      22.994  12.987  19.628  0.00  0.00     0.036 H 
ATOM     41  H   779 d   1      22.925  11.575  18.520  0.00  0.00     0.036 H 
ATOM     42  C13 779 d   1      25.527  10.638  19.201  0.00  0.00    -0.046 C 
ATOM     43  H   779 d   1      25.296  12.527  20.169  0.00  0.00     0.072 H 
ATOM     44  C14 779 d   1      25.082   9.756  20.364  0.00  0.00    -0.063 C 
ATOM     45  H   779 d   1      26.622  10.742  19.230  0.00  0.00     0.035 H 
ATOM     46  H   779 d   1      25.230  10.160  18.256  0.00  0.00     0.035 H 
ATOM     47  C15 779 d   1      23.558   9.670  20.459  0.00  0.00    -0.061 C 
ATOM     48  H   779 d   1      25.474  10.178  21.301  0.00  0.00     0.033 H 
ATOM     49  H   779 d   1      25.488   8.744  20.219  0.00  0.00     0.033 H 
ATOM     50  H   779 d   1      23.162   9.205  19.544  0.00  0.00     0.033 H 
ATOM     51  H   779 d   1      23.281   9.059  21.331  0.00  0.00     0.033 H 
ATOM     52  H   779 d   1      23.367  11.515  21.537  0.00  0.00     0.040 H 
BRANCH  39  53
ATOM     53  N22 779 d   1      25.292  12.811  18.122  0.00  0.00    -0.338 N 
ATOM     54  C23 779 d   1      25.830  14.077  18.297  0.00  0.00     0.321 C 
ATOM     55  O26 779 d   1      25.847  14.652  19.381  0.00  0.00    -0.247 OA
ATOM     56  N27 779 d   1      26.302  14.598  17.117  0.00  0.00    -0.309 N 
ATOM     57  H   779 d   1      26.315  13.981  16.331  0.00  0.00     0.170 HD
ATOM     58  H   779 d   1      25.179  12.438  17.201  0.00  0.00     0.164 HD
BRANCH  56  59
ATOM     59  C28 779 d   1      26.772  15.916  16.894  0.00  0.00     0.036 A 
ATOM     60  C29 779 d   1      27.208  16.223  15.619  0.00  0.00    -0.057 A 
ATOM     61  C30 779 d   1      27.678  17.495  15.332  0.00  0.00    -0.081 A 
ATOM     62  H   779 d   1      27.182  15.468  14.842  0.00  0.00     0.086 H 
ATOM     63  C31 779 d   1      27.696  18.467  16.316  0.00  0.00    -0.083 A 
ATOM     64  H   779 d   1      28.032  17.729  14.334  0.00  0.00     0.083 H 
ATOM     65  C32 779 d   1      27.259  18.171  17.591  0.00  0.00    -0.081 A 
ATOM     66  H   779 d   1      28.054  19.464  16.085  0.00  0.00     0.083 H 
ATOM     67  C33 779 d   1      26.806  16.895  17.881  0.00  0.00    -0.057 A 
ATOM     68  H   779 d   1      27.270  18.933  18.361  0.00  0.00     0.083 H 
ATOM     69  H   779 d   1      26.475  16.657  18.886  0.00  0.00     0.086 H 
ENDBRANCH  56  59
ENDBRANCH  39  53
ENDBRANCH  34  37
ENDBRANCH   2  34
BRANCH   5  70
ATOM     70  C25 779 d   1      22.563  12.116  25.236  0.00  0.00     0.005 C 
ATOM     71  H   779 d   1      22.330  13.181  25.092  0.00  0.00     0.058 H 
ATOM     72  H   779 d   1      23.654  11.977  25.243  0.00  0.00     0.058 H 
ATOM     73  H   779 d   1      22.143  11.776  26.194  0.00  0.00     0.058 H 
ENDBRANCH   5  70
TORSDOF 8
