REMARK  8 active torsions:
REMARK  status: ('A' for Active; 'I' for Inactive)
REMARK    1  A    between atoms: C2_2  and  C7_7 
REMARK    2  A    between atoms: C23_23  and  C2_2 
REMARK    3  A    between atoms: N5_5  and  C24_24 
REMARK    4  A    between atoms: C7_7  and  C9_9 
REMARK    5  A    between atoms: C8_8  and  C23_23 
REMARK    6  A    between atoms: C9_9  and  C10_10 
REMARK    7  A    between atoms: C12_12  and  N22_22 
REMARK    8  A    between atoms: N22_22  and  C25_25 
ROOT
ATOM      1  C1  3KW d   1      21.338  11.738  23.090  0.00  0.00     0.266 A 
ATOM      2  C2  3KW d   1      20.903  10.628  22.176  0.00  0.00     0.129 A 
ATOM      3  N3  3KW d   1      21.470   9.448  22.816  0.00  0.00    -0.208 N 
ATOM      4  C4  3KW d   1      22.139   9.800  23.951  0.00  0.00     0.677 A 
ATOM      5  N5  3KW d   1      22.105  11.172  24.062  0.00  0.00    -0.154 N 
ATOM      6  O6  3KW d   1      21.022  12.911  22.966  0.00  0.00    -0.270 OA
ATOM      7  N21 3KW d   1      22.712   9.023  24.811  0.00  0.00    -0.234 N 
ATOM      8  H   3KW d   1      21.378   8.485  22.462  0.00  0.00     0.179 HD
ATOM      9  H   3KW d   1      22.702   8.003  24.670  0.00  0.00     0.174 HD
ATOM     10  H   3KW d   1      23.178   9.424  25.637  0.00  0.00     0.174 HD
ENDROOT
BRANCH   2  11
ATOM     11  C7  3KW d   1      19.377  10.507  22.126  0.00  0.00    -0.032 C 
ATOM     12  H   3KW d   1      19.128   9.563  21.620  0.00  0.00     0.037 H 
ATOM     13  H   3KW d   1      18.989  11.352  21.538  0.00  0.00     0.037 H 
BRANCH  11  14
ATOM     14  C9  3KW d   1      18.669  10.514  23.492  0.00  0.00    -0.059 C 
ATOM     15  H   3KW d   1      18.690  11.542  23.883  0.00  0.00     0.033 H 
ATOM     16  H   3KW d   1      19.228   9.852  24.170  0.00  0.00     0.033 H 
BRANCH  14  17
ATOM     17  C10 3KW d   1      17.214  10.046  23.464  0.00  0.00    -0.054 C 
ATOM     18  C16 3KW d   1      16.723   9.838  24.895  0.00  0.00    -0.062 C 
ATOM     19  C17 3KW d   1      15.264   9.373  24.934  0.00  0.00    -0.065 C 
ATOM     20  H   3KW d   1      16.808  10.788  25.442  0.00  0.00     0.033 H 
ATOM     21  H   3KW d   1      17.352   9.077  25.380  0.00  0.00     0.033 H 
ATOM     22  C18 3KW d   1      14.344  10.350  24.225  0.00  0.00    -0.065 C 
ATOM     23  H   3KW d   1      14.947   9.282  25.983  0.00  0.00     0.033 H 
ATOM     24  H   3KW d   1      15.189   8.392  24.442  0.00  0.00     0.033 H 
ATOM     25  C19 3KW d   1      14.820  10.583  22.796  0.00  0.00    -0.065 C 
ATOM     26  H   3KW d   1      14.343  11.307  24.768  0.00  0.00     0.033 H 
ATOM     27  H   3KW d   1      13.324   9.939  24.205  0.00  0.00     0.033 H 
ATOM     28  C20 3KW d   1      16.288  11.026  22.752  0.00  0.00    -0.062 C 
ATOM     29  H   3KW d   1      14.198  11.365  22.336  0.00  0.00     0.033 H 
ATOM     30  H   3KW d   1      14.713   9.647  22.227  0.00  0.00     0.033 H 
ATOM     31  H   3KW d   1      16.601  11.107  21.701  0.00  0.00     0.033 H 
ATOM     32  H   3KW d   1      16.375  12.009  23.237  0.00  0.00     0.033 H 
ATOM     33  H   3KW d   1      17.173   9.085  22.930  0.00  0.00     0.040 H 
ENDBRANCH  14  17
ENDBRANCH  11  14
ENDBRANCH   2  11
BRANCH   2  34
ATOM     34  C23 3KW d   1      21.452  10.861  20.759  0.00  0.00    -0.029 C 
ATOM     35  H   3KW d   1      21.011  11.793  20.377  0.00  0.00     0.037 H 
ATOM     36  H   3KW d   1      21.129  10.018  20.131  0.00  0.00     0.037 H 
BRANCH  34  37
ATOM     37  C8  3KW d   1      22.969  10.979  20.636  0.00  0.00    -0.050 C 
ATOM     38  C11 3KW d   1      23.443  11.966  19.568  0.00  0.00    -0.043 C 
ATOM     39  C12 3KW d   1      24.976  11.994  19.467  0.00  0.00     0.011 C 
ATOM     40  H   3KW d   1      23.084  12.973  19.827  0.00  0.00     0.036 H 
ATOM     41  H   3KW d   1      23.026  11.667  18.595  0.00  0.00     0.036 H 
ATOM     42  C13 3KW d   1      25.539  10.577  19.311  0.00  0.00    -0.046 C 
ATOM     43  H   3KW d   1      25.402  12.489  20.352  0.00  0.00     0.072 H 
ATOM     44  C14 3KW d   1      25.108   9.723  20.479  0.00  0.00    -0.063 C 
ATOM     45  H   3KW d   1      26.638  10.622  19.278  0.00  0.00     0.035 H 
ATOM     46  H   3KW d   1      25.162  10.135  18.377  0.00  0.00     0.035 H 
ATOM     47  C15 3KW d   1      23.589   9.609  20.454  0.00  0.00    -0.061 C 
ATOM     48  H   3KW d   1      25.430  10.191  21.421  0.00  0.00     0.033 H 
ATOM     49  H   3KW d   1      25.557   8.723  20.394  0.00  0.00     0.033 H 
ATOM     50  H   3KW d   1      23.270   9.189  19.489  0.00  0.00     0.033 H 
ATOM     51  H   3KW d   1      23.259   8.948  21.269  0.00  0.00     0.033 H 
ATOM     52  H   3KW d   1      23.331  11.371  21.598  0.00  0.00     0.040 H 
BRANCH  39  53
ATOM     53  N22 3KW d   1      25.363  12.680  18.242  0.00  0.00    -0.370 N 
ATOM     54  H   3KW d   1      25.315  12.209  17.327  0.00  0.00     0.161 HD
BRANCH  53  55
ATOM     55  C25 3KW d   1      25.807  14.018  18.356  0.00  0.00     0.124 A 
ATOM     56  C26 3KW d   1      25.675  14.734  19.530  0.00  0.00    -0.038 A 
ATOM     57  C27 3KW d   1      26.112  16.039  19.582  0.00  0.00    -0.067 A 
ATOM     58  H   3KW d   1      25.231  14.272  20.404  0.00  0.00     0.089 H 
ATOM     59  C30 3KW d   1      26.671  16.603  18.458  0.00  0.00    -0.007 A 
ATOM     60  H   3KW d   1      26.017  16.614  20.496  0.00  0.00     0.085 H 
ATOM     61  C29 3KW d   1      26.787  15.834  17.309  0.00  0.00     0.069 A 
ATOM     62  C31 3KW d   1      27.100  17.915  18.501  0.00  0.00    -0.071 A 
ATOM     63  N28 3KW d   1      26.359  14.565  17.263  0.00  0.00    -0.231 NA
ATOM     64  C34 3KW d   1      27.362  16.424  16.199  0.00  0.00    -0.054 A 
ATOM     65  C33 3KW d   1      27.796  17.738  16.226  0.00  0.00    -0.081 A 
ATOM     66  H   3KW d   1      27.475  15.846  15.289  0.00  0.00     0.087 H 
ATOM     67  C32 3KW d   1      27.662  18.488  17.379  0.00  0.00    -0.082 A 
ATOM     68  H   3KW d   1      28.241  18.179  15.342  0.00  0.00     0.083 H 
ATOM     69  H   3KW d   1      27.996  19.519  17.402  0.00  0.00     0.083 H 
ATOM     70  H   3KW d   1      26.996  18.492  19.413  0.00  0.00     0.084 H 
ENDBRANCH  53  55
ENDBRANCH  39  53
ENDBRANCH  34  37
ENDBRANCH   2  34
BRANCH   5  71
ATOM     71  C24 3KW d   1      22.526  11.909  25.237  0.00  0.00     0.005 C 
ATOM     72  H   3KW d   1      22.395  12.987  25.060  0.00  0.00     0.058 H 
ATOM     73  H   3KW d   1      23.586  11.697  25.443  0.00  0.00     0.058 H 
ATOM     74  H   3KW d   1      21.917  11.602  26.100  0.00  0.00     0.058 H 
ENDBRANCH   5  71
TORSDOF 8
