REMARK  7 active torsions:
REMARK  status: ('A' for Active; 'I' for Inactive)
REMARK    1  A    between atoms: C1_1  and  N2_2 
REMARK    2  A    between atoms: C4_4  and  C5_5 
REMARK    3  A    between atoms: C4_4  and  N7_7 
REMARK    4  A    between atoms: N7_7  and  C8_8 
REMARK    5  A    between atoms: N7_7  and  C9_9 
REMARK    6  A    between atoms: C13_13  and  C15_14 
REMARK    7  A    between atoms: C25_24  and  C26_25 
ROOT
ATOM      1  C9  3L0 d   1     -25.653   3.061 -27.618  0.00  0.00     0.044 A 
ATOM      2  C10 3L0 d   1     -25.267   2.259 -28.674  0.00  0.00    -0.028 A 
ATOM      3  C11 3L0 d   1     -24.261   2.651 -29.551  0.00  0.00     0.072 A 
ATOM      4  N12 3L0 d   1     -23.819   1.839 -30.614  0.00  0.00    -0.316 N 
ATOM      5  C13 3L0 d   1     -24.002   0.365 -30.559  0.00  0.00     0.094 C 
ATOM      6  C16 3L0 d   1     -23.612  -0.304 -31.849  0.00  0.00     0.260 C 
ATOM      7  O17 3L0 d   1     -23.865  -1.481 -31.996  0.00  0.00    -0.269 OA
ATOM      8  N18 3L0 d   1     -22.995   0.405 -32.818  0.00  0.00    -0.244 N 
ATOM      9  N19 3L0 d   1     -22.700   1.769 -32.676  0.00  0.00    -0.156 NA
ATOM     10  C20 3L0 d   1     -23.104   2.441 -31.653  0.00  0.00     0.152 C 
ATOM     11  C21 3L0 d   1     -22.759   3.906 -31.550  0.00  0.00     0.082 C 
ATOM     12  O22 3L0 d   1     -22.627   4.272 -30.180  0.00  0.00    -0.341 OA
ATOM     13  C23 3L0 d   1     -23.613   3.877 -29.338  0.00  0.00     0.097 A 
ATOM     14  C24 3L0 d   1     -23.986   4.690 -28.277  0.00  0.00    -0.036 A 
ATOM     15  C25 3L0 d   1     -25.006   4.303 -27.403  0.00  0.00     0.004 A 
ATOM     16  H   3L0 d   1     -25.758   1.304 -28.823  0.00  0.00     0.090 H 
ATOM     17  H   3L0 d   1     -25.068   0.164 -30.376  0.00  0.00     0.087 H 
ATOM     18  H   3L0 d   1     -22.739  -0.058 -33.666  0.00  0.00     0.192 HD
ATOM     19  H   3L0 d   1     -23.558   4.503 -32.013  0.00  0.00     0.087 H 
ATOM     20  H   3L0 d   1     -21.810   4.096 -32.072  0.00  0.00     0.087 H 
ATOM     21  H   3L0 d   1     -23.480   5.637 -28.124  0.00  0.00     0.089 H 
ENDROOT
BRANCH   1  22
ATOM     22  N7  3L0 d   1     -26.689   2.517 -26.855  0.00  0.00    -0.372 N 
BRANCH  22  23
ATOM     23  C4  3L0 d   1     -28.095   2.838 -27.138  0.00  0.00     0.076 C 
ATOM     24  C3  3L0 d   1     -28.888   3.218 -25.872  0.00  0.00     0.107 C 
ATOM     25  N2  3L0 d   1     -29.536   4.318 -26.615  0.00  0.00    -0.070 N 
ATOM     26  H   3L0 d   1     -29.583   2.439 -25.525  0.00  0.00     0.080 H 
ATOM     27  H   3L0 d   1     -28.261   3.551 -25.032  0.00  0.00     0.080 H 
ATOM     28  C6  3L0 d   1     -28.438   4.265 -27.607  0.00  0.00     0.107 C 
ATOM     29  H   3L0 d   1     -30.455   4.110 -26.974  0.00  0.00     0.279 HD
ATOM     30  H   3L0 d   1     -27.639   5.000 -27.434  0.00  0.00     0.080 H 
ATOM     31  H   3L0 d   1     -28.773   4.327 -28.653  0.00  0.00     0.080 H 
BRANCH  25  32
ATOM     32  C1  3L0 d   1     -29.539   5.593 -25.871  0.00  0.00     0.067 C 
ATOM     33  H   3L0 d   1     -30.367   5.593 -25.146  0.00  0.00     0.068 H 
ATOM     34  H   3L0 d   1     -29.668   6.428 -26.575  0.00  0.00     0.068 H 
ATOM     35  H   3L0 d   1     -28.584   5.708 -25.337  0.00  0.00     0.068 H 
ENDBRANCH  25  32
BRANCH  23  36
ATOM     36  C5  3L0 d   1     -28.740   1.745 -28.004  0.00  0.00    -0.050 C 
ATOM     37  H   3L0 d   1     -28.102   1.546 -28.878  0.00  0.00     0.030 H 
ATOM     38  H   3L0 d   1     -29.731   2.082 -28.342  0.00  0.00     0.030 H 
ATOM     39  H   3L0 d   1     -28.848   0.824 -27.412  0.00  0.00     0.030 H 
ENDBRANCH  23  36
ENDBRANCH  22  23
BRANCH  22  40
ATOM     40  C8  3L0 d   1     -26.371   1.511 -25.834  0.00  0.00    -0.018 C 
ATOM     41  H   3L0 d   1     -25.279   1.400 -25.756  0.00  0.00     0.056 H 
ATOM     42  H   3L0 d   1     -26.818   0.547 -26.117  0.00  0.00     0.056 H 
ATOM     43  H   3L0 d   1     -26.777   1.832 -24.863  0.00  0.00     0.056 H 
ENDBRANCH  22  40
ENDBRANCH   1  22
BRANCH  15  44
ATOM     44  C26 3L0 d   1     -25.331   5.239 -26.294  0.00  0.00    -0.024 A 
ATOM     45  C27 3L0 d   1     -25.630   6.583 -26.556  0.00  0.00    -0.072 A 
ATOM     46  C28 3L0 d   1     -25.915   7.445 -25.507  0.00  0.00    -0.082 A 
ATOM     47  H   3L0 d   1     -25.639   6.948 -27.577  0.00  0.00     0.084 H 
ATOM     48  C29 3L0 d   1     -25.893   6.986 -24.193  0.00  0.00    -0.083 A 
ATOM     49  H   3L0 d   1     -26.156   8.482 -25.712  0.00  0.00     0.083 H 
ATOM     50  C30 3L0 d   1     -25.586   5.661 -23.927  0.00  0.00    -0.082 A 
ATOM     51  H   3L0 d   1     -26.116   7.665 -23.378  0.00  0.00     0.083 H 
ATOM     52  C31 3L0 d   1     -25.303   4.788 -24.967  0.00  0.00    -0.072 A 
ATOM     53  H   3L0 d   1     -25.567   5.306 -22.903  0.00  0.00     0.083 H 
ATOM     54  H   3L0 d   1     -25.059   3.754 -24.753  0.00  0.00     0.084 H 
ENDBRANCH  15  44
BRANCH   5  55
ATOM     55  C15 3L0 d   1     -23.186  -0.246 -29.405  0.00  0.00    -0.049 C 
ATOM     56  H   3L0 d   1     -23.338  -1.335 -29.385  0.00  0.00     0.030 H 
ATOM     57  H   3L0 d   1     -23.519   0.188 -28.451  0.00  0.00     0.030 H 
ATOM     58  H   3L0 d   1     -22.118  -0.027 -29.555  0.00  0.00     0.030 H 
ENDBRANCH   5  55
TORSDOF 7
