REMARK  13 active torsions:
REMARK  status: ('A' for Active; 'I' for Inactive)
REMARK    1  A    between atoms: PBC_2  and  CAP_5 
REMARK    2  A    between atoms: CAP_5  and  CAK_6 
REMARK    3  A    between atoms: CAK_6  and  OAU_7 
REMARK    4  A    between atoms: OAU_7  and  CAJ_8 
REMARK    5  A    between atoms: CAJ_8  and  CAL_9 
REMARK    6  A    between atoms: CAL_9  and  NBA_10 
REMARK    7  A    between atoms: NBA_10  and  CAN_11 
REMARK    8  A    between atoms: NBA_10  and  CAM_17 
REMARK    9  A    between atoms: CAN_11  and  CAQ_12 
REMARK   10  A    between atoms: CAQ_12  and  PBD_13 
REMARK   11  A    between atoms: CAM_17  and  CAO_18 
REMARK   12  A    between atoms: CAO_18  and  N9_19 
REMARK   13  A    between atoms: C2_22  and  N2_23 
ROOT
ATOM      1  NBA 3L3 d   1      13.295  30.923  14.751  0.00  0.00    -0.067 N 
ATOM      2  H9  3L3 d   1      13.231  31.927  14.691  0.00  0.00     0.280 HD
ENDROOT
BRANCH   1   3
ATOM      3  CAL 3L3 d   1      14.708  30.547  14.984  0.00  0.00     0.103 C 
ATOM      4  H7  3L3 d   1      15.002  30.962  15.959  0.00  0.00     0.079 H 
ATOM      5  H8  3L3 d   1      14.753  29.449  15.024  0.00  0.00     0.079 H 
BRANCH   3   6
ATOM      6  CAJ 3L3 d   1      15.751  31.012  13.954  0.00  0.00     0.042 C 
ATOM      7  H5  3L3 d   1      15.655  32.103  13.848  0.00  0.00     0.076 H 
ATOM      8  H6  3L3 d   1      16.747  30.769  14.352  0.00  0.00     0.076 H 
BRANCH   6   9
ATOM      9  OAU 3L3 d   1      15.655  30.459  12.698  0.00  0.00    -0.389 OA
BRANCH   9  10
ATOM     10  CAK 3L3 d   1      16.388  30.994  11.636  0.00  0.00     0.031 C 
ATOM     11  H3  3L3 d   1      17.266  31.499  12.065  0.00  0.00     0.075 H 
ATOM     12  H4  3L3 d   1      16.719  30.153  11.009  0.00  0.00     0.075 H 
BRANCH  10  13
ATOM     13  CAP 3L3 d   1      15.692  31.988  10.729  0.00  0.00     0.059 C 
ATOM     14  H1  3L3 d   1      15.057  31.420  10.033  0.00  0.00     0.057 H 
ATOM     15  H2  3L3 d   1      15.060  32.632  11.359  0.00  0.00     0.057 H 
BRANCH  13  16
ATOM     16  PBC 3L3 d   1      16.804  33.097   9.713  0.00  0.00     0.261 P 
ATOM     17  OAE 3L3 d   1      17.590  32.243   8.675  0.00  0.00    -0.640 OA
ATOM     18  OAF 3L3 d   1      17.848  33.824  10.660  0.00  0.00    -0.640 OA
ATOM     19  OAC 3L3 d   1      15.985  34.113   9.010  0.00  0.00    -0.640 OA
ENDBRANCH  13  16
ENDBRANCH  10  13
ENDBRANCH   9  10
ENDBRANCH   6   9
ENDBRANCH   3   6
ENDBRANCH   1   3
BRANCH   1  20
ATOM     20  CAN 3L3 d   1      12.465  30.459  15.851  0.00  0.00     0.095 C 
ATOM     21  H10 3L3 d   1      12.655  29.383  15.976  0.00  0.00     0.077 H 
ATOM     22  H11 3L3 d   1      11.416  30.615  15.560  0.00  0.00     0.077 H 
BRANCH  20  23
ATOM     23  CAQ 3L3 d   1      12.664  31.120  17.216  0.00  0.00     0.061 C 
ATOM     24  H12 3L3 d   1      12.744  32.204  17.046  0.00  0.00     0.056 H 
ATOM     25  H13 3L3 d   1      13.612  30.742  17.628  0.00  0.00     0.056 H 
BRANCH  23  26
ATOM     26  PBD 3L3 d   1      11.371  30.862  18.496  0.00  0.00     0.261 P 
ATOM     27  OAG 3L3 d   1      10.305  31.978  18.375  0.00  0.00    -0.640 OA
ATOM     28  OAH 3L3 d   1      10.732  29.537  18.291  0.00  0.00    -0.640 OA
ATOM     29  OAD 3L3 d   1      12.025  30.918  19.925  0.00  0.00    -0.640 OA
ENDBRANCH  23  26
ENDBRANCH  20  23
ENDBRANCH   1  20
BRANCH   1  30
ATOM     30  CAM 3L3 d   1      12.803  30.332  13.488  0.00  0.00     0.099 C 
ATOM     31  H14 3L3 d   1      12.883  29.238  13.571  0.00  0.00     0.078 H 
ATOM     32  H15 3L3 d   1      13.451  30.686  12.672  0.00  0.00     0.078 H 
BRANCH  30  33
ATOM     33  CAO 3L3 d   1      11.352  30.675  13.123  0.00  0.00     0.026 C 
ATOM     34  H16 3L3 d   1      11.283  31.772  13.073  0.00  0.00     0.067 H 
ATOM     35  H17 3L3 d   1      10.718  30.305  13.942  0.00  0.00     0.067 H 
BRANCH  33  36
ATOM     36  N9  3L3 d   1      10.787  30.149  11.867  0.00  0.00    -0.306 N 
ATOM     37  C4  3L3 d   1      10.021  29.003  11.752  0.00  0.00     0.184 A 
ATOM     38  N3  3L3 d   1       9.574  28.058  12.662  0.00  0.00    -0.044 NA
ATOM     39  C5  3L3 d   1       9.683  28.870  10.398  0.00  0.00     0.160 A 
ATOM     40  C2  3L3 d   1       8.826  27.033  12.246  0.00  0.00     0.702 A 
ATOM     41  N1  3L3 d   1       8.480  26.877  10.922  0.00  0.00    -0.164 N 
ATOM     42  C6  3L3 d   1       8.881  27.750  10.001  0.00  0.00     0.226 A 
ATOM     43  H20 3L3 d   1       7.919  26.096  10.649  0.00  0.00     0.186 HD
ATOM     44  O6  3L3 d   1       8.512  27.563   8.671  0.00  0.00    -0.169 OA
ATOM     45  N7  3L3 d   1      10.252  29.939   9.725  0.00  0.00    -0.216 NA
ATOM     46  C8  3L3 d   1      10.914  30.701  10.626  0.00  0.00     0.180 A 
ATOM     47 BR8  3L3 d   1      11.895  32.334  10.212  0.00  0.00    -0.008 Br
BRANCH  40  48
ATOM     48  N2  3L3 d   1       8.367  26.051  13.200  0.00  0.00    -0.233 N 
ATOM     49  H18 3L3 d   1       8.613  26.146  14.196  0.00  0.00     0.174 HD
ATOM     50  H19 3L3 d   1       7.794  25.255  12.885  0.00  0.00     0.174 HD
ENDBRANCH  40  48
ENDBRANCH  33  36
ENDBRANCH  30  33
ENDBRANCH   1  30
TORSDOF 13
