REMARK  12 active torsions:
REMARK  status: ('A' for Active; 'I' for Inactive)
REMARK    1  A    between atoms: PBB_2  and  CAP_5 
REMARK    2  A    between atoms: CAP_5  and  OAT_6 
REMARK    3  A    between atoms: OAT_6  and  CAJ_7 
REMARK    4  A    between atoms: CAJ_7  and  CAK_8 
REMARK    5  A    between atoms: CAK_8  and  NAY_9 
REMARK    6  A    between atoms: NAY_9  and  CAM_10 
REMARK    7  A    between atoms: NAY_9  and  CAL_16 
REMARK    8  A    between atoms: CAM_10  and  CAO_11 
REMARK    9  A    between atoms: CAO_11  and  PBA_12 
REMARK   10  A    between atoms: CAL_16  and  CAN_17 
REMARK   11  A    between atoms: CAN_17  and  N9_18 
REMARK   12  A    between atoms: C2_21  and  N2_22 
ROOT
ATOM      1  NAY 3L4 d   1      -6.790  41.952 -23.829  0.00  0.00    -0.067 N 
ATOM      2  H7  3L4 d   1      -6.206  42.362 -24.541  0.00  0.00     0.280 HD
ENDROOT
BRANCH   1   3
ATOM      3  CAK 3L4 d   1      -7.894  41.391 -24.513  0.00  0.00     0.103 C 
ATOM      4  H5  3L4 d   1      -8.640  41.015 -23.797  0.00  0.00     0.079 H 
ATOM      5  H6  3L4 d   1      -8.361  42.140 -25.170  0.00  0.00     0.079 H 
BRANCH   3   6
ATOM      6  CAJ 3L4 d   1      -7.315  40.239 -25.340  0.00  0.00     0.043 C 
ATOM      7  H3  3L4 d   1      -6.600  40.684 -26.047  0.00  0.00     0.076 H 
ATOM      8  H4  3L4 d   1      -6.778  39.583 -24.639  0.00  0.00     0.076 H 
BRANCH   6   9
ATOM      9  OAT 3L4 d   1      -8.145  39.442 -26.068  0.00  0.00    -0.376 OA
BRANCH   9  10
ATOM     10  CAP 3L4 d   1      -7.605  38.876 -27.209  0.00  0.00     0.122 C 
ATOM     11  H1  3L4 d   1      -8.278  39.096 -28.051  0.00  0.00     0.095 H 
ATOM     12  H2  3L4 d   1      -6.625  39.342 -27.391  0.00  0.00     0.095 H 
BRANCH  10  13
ATOM     13  PBB 3L4 d   1      -7.363  37.040 -27.131  0.00  0.00     0.283 P 
ATOM     14  OAG 3L4 d   1      -7.860  36.512 -28.501  0.00  0.00    -0.638 OA
ATOM     15  OAH 3L4 d   1      -5.853  36.769 -26.914  0.00  0.00    -0.638 OA
ATOM     16  OAD 3L4 d   1      -8.174  36.432 -26.061  0.00  0.00    -0.638 OA
ENDBRANCH  10  13
ENDBRANCH   9  10
ENDBRANCH   6   9
ENDBRANCH   3   6
ENDBRANCH   1   3
BRANCH   1  17
ATOM     17  CAM 3L4 d   1      -7.048  43.080 -22.848  0.00  0.00     0.095 C 
ATOM     18  H8  3L4 d   1      -7.400  43.926 -23.456  0.00  0.00     0.077 H 
ATOM     19  H9  3L4 d   1      -6.067  43.324 -22.413  0.00  0.00     0.077 H 
BRANCH  17  20
ATOM     20  CAO 3L4 d   1      -7.982  42.998 -21.702  0.00  0.00     0.061 C 
ATOM     21  H10 3L4 d   1      -7.526  42.381 -20.914  0.00  0.00     0.056 H 
ATOM     22  H11 3L4 d   1      -8.919  42.530 -22.038  0.00  0.00     0.056 H 
BRANCH  20  23
ATOM     23  PBA 3L4 d   1      -8.357  44.642 -21.020  0.00  0.00     0.261 P 
ATOM     24  OAE 3L4 d   1      -9.187  45.479 -22.051  0.00  0.00    -0.640 OA
ATOM     25  OAF 3L4 d   1      -9.225  44.567 -19.729  0.00  0.00    -0.640 OA
ATOM     26  OAC 3L4 d   1      -7.049  45.352 -20.747  0.00  0.00    -0.640 OA
ENDBRANCH  20  23
ENDBRANCH  17  20
ENDBRANCH   1  17
BRANCH   1  27
ATOM     27  CAL 3L4 d   1      -6.005  40.802 -23.225  0.00  0.00     0.099 C 
ATOM     28  H12 3L4 d   1      -6.045  39.951 -23.921  0.00  0.00     0.078 H 
ATOM     29  H13 3L4 d   1      -6.480  40.520 -22.274  0.00  0.00     0.078 H 
BRANCH  27  30
ATOM     30  CAN 3L4 d   1      -4.534  41.134 -22.951  0.00  0.00     0.025 C 
ATOM     31  H14 3L4 d   1      -4.381  42.191 -23.215  0.00  0.00     0.067 H 
ATOM     32  H15 3L4 d   1      -3.925  40.499 -23.612  0.00  0.00     0.067 H 
BRANCH  30  33
ATOM     33  N9  3L4 d   1      -4.055  40.954 -21.634  0.00  0.00    -0.322 N 
ATOM     34  C4  3L4 d   1      -3.475  39.772 -21.212  0.00  0.00     0.183 A 
ATOM     35  N3  3L4 d   1      -3.238  38.578 -21.871  0.00  0.00    -0.044 NA
ATOM     36  C5  3L4 d   1      -3.103  39.930 -19.917  0.00  0.00     0.159 A 
ATOM     37  C2  3L4 d   1      -2.659  37.568 -21.240  0.00  0.00     0.702 A 
ATOM     38  N1  3L4 d   1      -2.283  37.701 -19.954  0.00  0.00    -0.164 N 
ATOM     39  C6  3L4 d   1      -2.469  38.822 -19.244  0.00  0.00     0.226 A 
ATOM     40  H18 3L4 d   1      -1.842  36.923 -19.506  0.00  0.00     0.186 HD
ATOM     41  O6  3L4 d   1      -2.042  38.864 -17.911  0.00  0.00    -0.169 OA
ATOM     42  N7  3L4 d   1      -3.476  41.237 -19.572  0.00  0.00    -0.235 NA
ATOM     43  C8  3L4 d   1      -4.053  41.844 -20.617  0.00  0.00     0.068 A 
ATOM     44  H19 3L4 d   1      -4.445  42.860 -20.642  0.00  0.00     0.143 H 
BRANCH  37  45
ATOM     45  N2  3L4 d   1      -2.441  36.348 -21.973  0.00  0.00    -0.233 N 
ATOM     46  H16 3L4 d   1      -2.740  36.277 -22.956  0.00  0.00     0.174 HD
ATOM     47  H17 3L4 d   1      -1.986  35.546 -21.514  0.00  0.00     0.174 HD
ENDBRANCH  37  45
ENDBRANCH  30  33
ENDBRANCH  27  30
ENDBRANCH   1  27
TORSDOF 12
