REMARK  9 active torsions:
REMARK  status: ('A' for Active; 'I' for Inactive)
REMARK    1  A    between atoms: CAI_3  and  CAJ_4 
REMARK    2  A    between atoms: CAJ_4  and  NAV_5 
REMARK    3  A    between atoms: NAV_5  and  CAL_6 
REMARK    4  A    between atoms: NAV_5  and  CAK_12 
REMARK    5  A    between atoms: CAL_6  and  CAN_7 
REMARK    6  A    between atoms: CAN_7  and  PAX_8 
REMARK    7  A    between atoms: CAK_12  and  CAM_13 
REMARK    8  A    between atoms: CAM_13  and  N9_14 
REMARK    9  A    between atoms: C2_17  and  N2_18 
ROOT
ATOM      1  NAA 3L6 d   1     -17.184 -15.387  26.270  0.00  0.00    -0.102 N 
ATOM      2  CAG 3L6 d   1     -17.758 -15.072  25.184  0.00  0.00    -0.019 C 
ATOM      3  CAI 3L6 d   1     -18.438 -14.706  23.909  0.00  0.00     0.025 C 
ATOM      4  H1  3L6 d   1     -18.823 -13.684  24.038  0.00  0.00     0.055 H 
ATOM      5  H2  3L6 d   1     -19.281 -15.402  23.790  0.00  0.00     0.055 H 
ENDROOT
BRANCH   3   6
ATOM      6  CAJ 3L6 d   1     -17.695 -14.720  22.638  0.00  0.00     0.094 C 
ATOM      7  H3  3L6 d   1     -16.786 -14.121  22.799  0.00  0.00     0.077 H 
ATOM      8  H4  3L6 d   1     -18.335 -14.222  21.895  0.00  0.00     0.077 H 
BRANCH   6   9
ATOM      9  NAV 3L6 d   1     -17.271 -15.959  22.050  0.00  0.00    -0.068 N 
ATOM     10  H5  3L6 d   1     -16.415 -16.266  22.485  0.00  0.00     0.280 HD
BRANCH   9  11
ATOM     11  CAL 3L6 d   1     -18.306 -16.979  22.248  0.00  0.00     0.095 C 
ATOM     12  H6  3L6 d   1     -19.296 -16.523  22.097  0.00  0.00     0.077 H 
ATOM     13  H7  3L6 d   1     -18.235 -17.371  23.273  0.00  0.00     0.077 H 
BRANCH  11  14
ATOM     14  CAN 3L6 d   1     -18.124 -18.148  21.241  0.00  0.00     0.061 C 
ATOM     15  H8  3L6 d   1     -17.166 -18.022  20.715  0.00  0.00     0.056 H 
ATOM     16  H9  3L6 d   1     -18.948 -18.126  20.513  0.00  0.00     0.056 H 
BRANCH  14  17
ATOM     17  PAX 3L6 d   1     -18.127 -19.780  22.105  0.00  0.00     0.261 P 
ATOM     18  OAD 3L6 d   1     -19.109 -20.749  21.376  0.00  0.00    -0.640 OA
ATOM     19  OAF 3L6 d   1     -18.592 -19.625  23.625  0.00  0.00    -0.640 OA
ATOM     20  OAE 3L6 d   1     -16.734 -20.349  22.060  0.00  0.00    -0.640 OA
ENDBRANCH  14  17
ENDBRANCH  11  14
ENDBRANCH   9  11
BRANCH   9  21
ATOM     21  CAK 3L6 d   1     -17.039 -15.730  20.612  0.00  0.00     0.099 C 
ATOM     22  H10 3L6 d   1     -17.707 -14.935  20.249  0.00  0.00     0.078 H 
ATOM     23  H11 3L6 d   1     -17.233 -16.656  20.052  0.00  0.00     0.078 H 
BRANCH  21  24
ATOM     24  CAM 3L6 d   1     -15.599 -15.312  20.426  0.00  0.00     0.025 C 
ATOM     25  H12 3L6 d   1     -14.970 -15.851  21.150  0.00  0.00     0.067 H 
ATOM     26  H13 3L6 d   1     -15.512 -14.229  20.600  0.00  0.00     0.067 H 
BRANCH  24  27
ATOM     27  N9  3L6 d   1     -15.145 -15.615  19.085  0.00  0.00    -0.322 N 
ATOM     28  C4  3L6 d   1     -14.989 -14.688  18.086  0.00  0.00     0.183 A 
ATOM     29  N3  3L6 d   1     -15.197 -13.373  18.058  0.00  0.00    -0.044 NA
ATOM     30  C5  3L6 d   1     -14.530 -15.389  16.956  0.00  0.00     0.159 A 
ATOM     31  C2  3L6 d   1     -14.972 -12.692  16.947  0.00  0.00     0.702 A 
ATOM     32  N1  3L6 d   1     -14.521 -13.332  15.825  0.00  0.00    -0.164 N 
ATOM     33  C6  3L6 d   1     -14.295 -14.648  15.787  0.00  0.00     0.226 A 
ATOM     34  H16 3L6 d   1     -14.354 -12.793  15.000  0.00  0.00     0.186 HD
ATOM     35  O6  3L6 d   1     -13.838 -15.257  14.614  0.00  0.00    -0.169 OA
ATOM     36  N7  3L6 d   1     -14.422 -16.740  17.335  0.00  0.00    -0.235 NA
ATOM     37  C8  3L6 d   1     -14.798 -16.870  18.640  0.00  0.00     0.068 A 
ATOM     38  H17 3L6 d   1     -14.819 -17.792  19.219  0.00  0.00     0.143 H 
BRANCH  31  39
ATOM     39  N2  3L6 d   1     -15.193 -11.288  16.916  0.00  0.00    -0.233 N 
ATOM     40  H14 3L6 d   1     -15.533 -10.801  17.758  0.00  0.00     0.174 HD
ATOM     41  H15 3L6 d   1     -15.014 -10.757  16.052  0.00  0.00     0.174 HD
ENDBRANCH  31  39
ENDBRANCH  24  27
ENDBRANCH  21  24
ENDBRANCH   9  21
ENDBRANCH   6   9
ENDBRANCH   3   6
TORSDOF 9
