REMARK  12 active torsions:
REMARK  status: ('A' for Active; 'I' for Inactive)
REMARK    1  A    between atoms: PBA_2  and  CAP_5 
REMARK    2  A    between atoms: CAP_5  and  CAK_6 
REMARK    3  A    between atoms: CAK_6  and  OAU_7 
REMARK    4  A    between atoms: OAU_7  and  CAJ_8 
REMARK    5  A    between atoms: CAJ_8  and  CAL_9 
REMARK    6  A    between atoms: CAL_9  and  NAY_10 
REMARK    7  A    between atoms: NAY_10  and  CAN_11 
REMARK    8  A    between atoms: NAY_10  and  CAM_17 
REMARK    9  A    between atoms: CAN_11  and  CAQ_12 
REMARK   10  A    between atoms: CAQ_12  and  PBB_13 
REMARK   11  A    between atoms: CAM_17  and  CAO_18 
REMARK   12  A    between atoms: CAO_18  and  N9_19 
ROOT
ATOM      1  NAY 3L7 d   1      27.521   8.046  12.781  0.00  0.00    -0.067 N 
ATOM      2  H9  3L7 d   1      26.904   7.382  13.222  0.00  0.00     0.280 HD
ENDROOT
BRANCH   1   3
ATOM      3  CAL 3L7 d   1      27.517   9.287  13.579  0.00  0.00     0.103 C 
ATOM      4  H7  3L7 d   1      28.522   9.730  13.518  0.00  0.00     0.079 H 
ATOM      5  H8  3L7 d   1      26.785   9.975  13.130  0.00  0.00     0.079 H 
BRANCH   3   6
ATOM      6  CAJ 3L7 d   1      27.165   9.126  15.052  0.00  0.00     0.042 C 
ATOM      7  H5  3L7 d   1      26.441   8.302  15.132  0.00  0.00     0.076 H 
ATOM      8  H6  3L7 d   1      28.088   8.857  15.586  0.00  0.00     0.076 H 
BRANCH   6   9
ATOM      9  OAU 3L7 d   1      26.627  10.207  15.682  0.00  0.00    -0.389 OA
BRANCH   9  10
ATOM     10  CAK 3L7 d   1      25.461  10.764  15.216  0.00  0.00     0.031 C 
ATOM     11  H3  3L7 d   1      25.458  11.825  15.504  0.00  0.00     0.075 H 
ATOM     12  H4  3L7 d   1      25.465  10.682  14.119  0.00  0.00     0.075 H 
BRANCH  10  13
ATOM     13  CAP 3L7 d   1      24.163  10.139  15.725  0.00  0.00     0.059 C 
ATOM     14  H1  3L7 d   1      24.050   9.176  15.206  0.00  0.00     0.057 H 
ATOM     15  H2  3L7 d   1      24.297   9.962  16.802  0.00  0.00     0.057 H 
BRANCH  13  16
ATOM     16  PBA 3L7 d   1      22.534  11.057  15.525  0.00  0.00     0.261 P 
ATOM     17  OAD 3L7 d   1      22.653  12.169  14.376  0.00  0.00    -0.640 OA
ATOM     18  OAE 3L7 d   1      21.468  10.018  15.123  0.00  0.00    -0.640 OA
ATOM     19  OAB 3L7 d   1      22.136  11.700  16.830  0.00  0.00    -0.640 OA
ENDBRANCH  13  16
ENDBRANCH  10  13
ENDBRANCH   9  10
ENDBRANCH   6   9
ENDBRANCH   3   6
ENDBRANCH   1   3
BRANCH   1  20
ATOM     20  CAN 3L7 d   1      28.860   7.450  12.701  0.00  0.00     0.095 C 
ATOM     21  H10 3L7 d   1      29.430   7.768  13.586  0.00  0.00     0.077 H 
ATOM     22  H11 3L7 d   1      29.351   7.830  11.793  0.00  0.00     0.077 H 
BRANCH  20  23
ATOM     23  CAQ 3L7 d   1      28.877   5.945  12.648  0.00  0.00     0.061 C 
ATOM     24  H12 3L7 d   1      28.336   5.641  11.739  0.00  0.00     0.056 H 
ATOM     25  H13 3L7 d   1      28.339   5.578  13.535  0.00  0.00     0.056 H 
BRANCH  23  26
ATOM     26  PBB 3L7 d   1      30.472   5.138  12.617  0.00  0.00     0.261 P 
ATOM     27  OAF 3L7 d   1      31.444   5.868  11.684  0.00  0.00    -0.640 OA
ATOM     28  OAG 3L7 d   1      31.063   5.124  14.091  0.00  0.00    -0.640 OA
ATOM     29  OAC 3L7 d   1      30.306   3.744  12.188  0.00  0.00    -0.640 OA
ENDBRANCH  23  26
ENDBRANCH  20  23
ENDBRANCH   1  20
BRANCH   1  30
ATOM     30  CAM 3L7 d   1      27.017   8.334  11.416  0.00  0.00     0.099 C 
ATOM     31  H14 3L7 d   1      25.976   8.675  11.514  0.00  0.00     0.078 H 
ATOM     32  H15 3L7 d   1      27.042   7.391  10.850  0.00  0.00     0.078 H 
BRANCH  30  33
ATOM     33  CAO 3L7 d   1      27.744   9.349  10.621  0.00  0.00     0.025 C 
ATOM     34  H16 3L7 d   1      28.816   9.296  10.863  0.00  0.00     0.067 H 
ATOM     35  H17 3L7 d   1      27.360  10.348  10.874  0.00  0.00     0.067 H 
BRANCH  33  36
ATOM     36  N9  3L7 d   1      27.558   9.108   9.137  0.00  0.00    -0.322 N 
ATOM     37  C4  3L7 d   1      26.435   9.513   8.408  0.00  0.00     0.165 A 
ATOM     38  N3  3L7 d   1      25.257  10.231   8.767  0.00  0.00    -0.224 NA
ATOM     39  C5  3L7 d   1      26.645   9.085   7.113  0.00  0.00     0.158 A 
ATOM     40  C2  3L7 d   1      24.329  10.487   7.820  0.00  0.00     0.068 A 
ATOM     41  N1  3L7 d   1      24.520  10.071   6.534  0.00  0.00    -0.327 N 
ATOM     42  H18 3L7 d   1      23.422  11.029   8.084  0.00  0.00     0.143 H 
ATOM     43  C6  3L7 d   1      25.627   9.382   6.116  0.00  0.00     0.212 A 
ATOM     44  H19 3L7 d   1      23.812  10.281   5.860  0.00  0.00     0.168 HD
ATOM     45  O6  3L7 d   1      25.771   8.997   4.853  0.00  0.00    -0.169 OA
ATOM     46  N7  3L7 d   1      27.882   8.418   7.071  0.00  0.00    -0.235 NA
ATOM     47  C8  3L7 d   1      28.403   8.442   8.315  0.00  0.00     0.068 A 
ATOM     48  H20 3L7 d   1      29.352   7.997   8.611  0.00  0.00     0.143 H 
ENDBRANCH  33  36
ENDBRANCH  30  33
ENDBRANCH   1  30
TORSDOF 12
