REMARK  11 active torsions:
REMARK  status: ('A' for Active; 'I' for Inactive)
REMARK    1  A    between atoms: PBA_2  and  CAP_5 
REMARK    2  A    between atoms: CAP_5  and  OAT_6 
REMARK    3  A    between atoms: OAT_6  and  CAJ_7 
REMARK    4  A    between atoms: CAJ_7  and  CAK_8 
REMARK    5  A    between atoms: CAK_8  and  NAX_9 
REMARK    6  A    between atoms: NAX_9  and  CAM_10 
REMARK    7  A    between atoms: NAX_9  and  CAL_16 
REMARK    8  A    between atoms: CAM_10  and  CAO_11 
REMARK    9  A    between atoms: CAO_11  and  PAZ_12 
REMARK   10  A    between atoms: CAL_16  and  CAN_17 
REMARK   11  A    between atoms: CAN_17  and  N9_18 
ROOT
ATOM      1  NAX 3L8 d   1      66.490  -5.388   0.570  0.00  0.00    -0.067 N 
ATOM      2  H7  3L8 d   1      67.313  -4.867   0.830  0.00  0.00     0.280 HD
ENDROOT
BRANCH   1   3
ATOM      3  CAK 3L8 d   1      65.666  -5.532   1.758  0.00  0.00     0.103 C 
ATOM      4  H5  3L8 d   1      64.893  -6.279   1.525  0.00  0.00     0.079 H 
ATOM      5  H6  3L8 d   1      66.318  -5.915   2.557  0.00  0.00     0.079 H 
BRANCH   3   6
ATOM      6  CAJ 3L8 d   1      64.959  -4.326   2.308  0.00  0.00     0.043 C 
ATOM      7  H3  3L8 d   1      65.514  -3.977   3.191  0.00  0.00     0.076 H 
ATOM      8  H4  3L8 d   1      64.968  -3.542   1.536  0.00  0.00     0.076 H 
BRANCH   6   9
ATOM      9  OAT 3L8 d   1      63.629  -4.547   2.689  0.00  0.00    -0.376 OA
BRANCH   9  10
ATOM     10  CAP 3L8 d   1      63.230  -4.220   3.994  0.00  0.00     0.122 C 
ATOM     11  H1  3L8 d   1      62.944  -5.153   4.501  0.00  0.00     0.095 H 
ATOM     12  H2  3L8 d   1      64.095  -3.774   4.507  0.00  0.00     0.095 H 
BRANCH  10  13
ATOM     13  PBA 3L8 d   1      61.814  -3.039   4.146  0.00  0.00     0.283 P 
ATOM     14  OAF 3L8 d   1      61.503  -2.740   5.657  0.00  0.00    -0.638 OA
ATOM     15  OAG 3L8 d   1      62.245  -1.708   3.431  0.00  0.00    -0.638 OA
ATOM     16  OAC 3L8 d   1      60.607  -3.646   3.486  0.00  0.00    -0.638 OA
ENDBRANCH  10  13
ENDBRANCH   9  10
ENDBRANCH   6   9
ENDBRANCH   3   6
ENDBRANCH   1   3
BRANCH   1  17
ATOM     17  CAM 3L8 d   1      66.937  -6.701   0.113  0.00  0.00     0.095 C 
ATOM     18  H8  3L8 d   1      66.484  -7.436   0.794  0.00  0.00     0.077 H 
ATOM     19  H9  3L8 d   1      68.030  -6.715   0.233  0.00  0.00     0.077 H 
BRANCH  17  20
ATOM     20  CAO 3L8 d   1      66.659  -7.189  -1.282  0.00  0.00     0.061 C 
ATOM     21  H10 3L8 d   1      66.816  -6.350  -1.976  0.00  0.00     0.056 H 
ATOM     22  H11 3L8 d   1      65.609  -7.512  -1.329  0.00  0.00     0.056 H 
BRANCH  20  23
ATOM     23  PAZ 3L8 d   1      67.713  -8.590  -1.832  0.00  0.00     0.261 P 
ATOM     24  OAD 3L8 d   1      67.985  -9.581  -0.666  0.00  0.00    -0.640 OA
ATOM     25  OAE 3L8 d   1      67.009  -9.392  -2.972  0.00  0.00    -0.640 OA
ATOM     26  OAB 3L8 d   1      69.013  -8.028  -2.320  0.00  0.00    -0.640 OA
ENDBRANCH  20  23
ENDBRANCH  17  20
ENDBRANCH   1  17
BRANCH   1  27
ATOM     27  CAL 3L8 d   1      65.799  -4.608  -0.467  0.00  0.00     0.099 C 
ATOM     28  H12 3L8 d   1      64.735  -4.532  -0.197  0.00  0.00     0.078 H 
ATOM     29  H13 3L8 d   1      65.897  -5.137  -1.427  0.00  0.00     0.078 H 
BRANCH  27  30
ATOM     30  CAN 3L8 d   1      66.364  -3.192  -0.630  0.00  0.00     0.025 C 
ATOM     31  H14 3L8 d   1      67.402  -3.208  -0.265  0.00  0.00     0.067 H 
ATOM     32  H15 3L8 d   1      65.763  -2.523   0.004  0.00  0.00     0.067 H 
BRANCH  30  33
ATOM     33  N9  3L8 d   1      66.383  -2.616  -1.983  0.00  0.00    -0.322 N 
ATOM     34  C4  3L8 d   1      65.611  -1.524  -2.366  0.00  0.00     0.165 A 
ATOM     35  N3  3L8 d   1      64.698  -0.765  -1.664  0.00  0.00    -0.224 NA
ATOM     36  C5  3L8 d   1      65.899  -1.277  -3.694  0.00  0.00     0.158 A 
ATOM     37  C2  3L8 d   1      64.076   0.234  -2.305  0.00  0.00     0.068 A 
ATOM     38  N1  3L8 d   1      64.335   0.498  -3.605  0.00  0.00    -0.327 N 
ATOM     39  H16 3L8 d   1      63.350   0.843  -1.769  0.00  0.00     0.143 H 
ATOM     40  C6  3L8 d   1      65.210  -0.208  -4.342  0.00  0.00     0.212 A 
ATOM     41  H17 3L8 d   1      63.851   1.257  -4.041  0.00  0.00     0.168 HD
ATOM     42  O6  3L8 d   1      65.441   0.109  -5.648  0.00  0.00    -0.169 OA
ATOM     43  N7  3L8 d   1      66.845  -2.204  -4.098  0.00  0.00    -0.235 NA
ATOM     44  C8  3L8 d   1      67.123  -3.006  -3.036  0.00  0.00     0.068 A 
ATOM     45  H18 3L8 d   1      67.832  -3.833  -3.038  0.00  0.00     0.143 H 
ENDBRANCH  30  33
ENDBRANCH  27  30
ENDBRANCH   1  27
TORSDOF 11
