REMARK  6 active torsions:
REMARK  status: ('A' for Active; 'I' for Inactive)
REMARK    1  A    between atoms: C16_17  and  C13_9 
REMARK    2  A    between atoms: C23_14  and  C33_15 
REMARK    3  A    between atoms: C22_16  and  C23_14 
REMARK    4  A    between atoms: C22_16  and  C16_17 
REMARK    5  A    between atoms: C19_22  and  N21_24 
REMARK    6  A    between atoms: C1_26  and  C15_27 
ROOT
ATOM      1  C4  3LL d   1      71.196  50.441   8.776  0.00  0.00     0.087 A 
ATOM      2  C14 3LL d   1      67.224  50.727  10.095  0.00  0.00    -0.050 A 
ATOM      3  C5  3LL d   1      70.304  49.536   8.172  0.00  0.00     0.012 A 
ATOM      4  C6  3LL d   1      70.779  48.648   7.204  0.00  0.00    -0.060 A 
ATOM      5  C8  3LL d   1      69.534  51.417  10.142  0.00  0.00     0.178 A 
ATOM      6  C9  3LL d   1      68.531  50.579   9.625  0.00  0.00     0.032 A 
ATOM      7  C10 3LL d   1      68.822  49.497   8.567  0.00  0.00     0.117 A 
ATOM      8  C12 3LL d   1      67.994  52.516  11.499  0.00  0.00     0.023 A 
ATOM      9  C13 3LL d   1      66.959  51.702  11.044  0.00  0.00     0.036 A 
ATOM     10  C3  3LL d   1      72.529  50.430   8.388  0.00  0.00    -0.049 A 
ATOM     11  N11 3LL d   1      69.226  52.360  11.047  0.00  0.00    -0.235 NA
ATOM     12  O7  3LL d   1      70.834  51.353   9.742  0.00  0.00    -0.291 OA
ATOM     13  C17 3LL d   1      68.425  48.103   9.061  0.00  0.00     0.060 A 
ATOM     14  O18 3LL d   1      67.452  47.583   8.089  0.00  0.00    -0.319 OA
ATOM     15  C19 3LL d   1      67.157  48.593   7.197  0.00  0.00     0.213 A 
ATOM     16  N20 3LL d   1      67.906  49.692   7.394  0.00  0.00    -0.337 N 
ATOM     17  C2  3LL d   1      72.992  49.538   7.426  0.00  0.00    -0.069 A 
ATOM     18  C1  3LL d   1      72.122  48.646   6.820  0.00  0.00    -0.021 A 
ATOM     19  H1  3LL d   1      66.430  50.090   9.724  0.00  0.00     0.086 H 
ATOM     20  H2  3LL d   1      70.093  47.947   6.742  0.00  0.00     0.086 H 
ATOM     21  H3  3LL d   1      67.786  53.287  12.233  0.00  0.00     0.117 H 
ATOM     22  H4  3LL d   1      73.222  51.129   8.843  0.00  0.00     0.087 H 
ATOM     23  H12 3LL d   1      67.968  48.168  10.059  0.00  0.00     0.080 H 
ATOM     24  H13 3LL d   1      69.308  47.448   9.104  0.00  0.00     0.080 H 
ATOM     25  H14 3LL d   1      67.858  50.547   6.821  0.00  0.00     0.164 HD
ATOM     26  H17 3LL d   1      74.040  49.541   7.149  0.00  0.00     0.085 H 
ENDROOT
BRANCH   9  27
ATOM     27  C16 3LL d   1      65.648  51.908  11.561  0.00  0.00    -0.065 C 
BRANCH  27  28
ATOM     28  C22 3LL d   1      64.548  52.103  12.016  0.00  0.00    -0.087 C 
BRANCH  28  29
ATOM     29  C23 3LL d   1      63.218  52.320  12.578  0.00  0.00     0.063 A 
ATOM     30  C30 3LL d   1      63.032  53.645  13.287  0.00  0.00     0.038 A 
ATOM     31  O31 3LL d   1      63.041  52.959  14.564  0.00  0.00    -0.388 OA
ATOM     32  H5  3LL d   1      63.865  54.349  13.149  0.00  0.00     0.077 H 
ATOM     33  H6  3LL d   1      62.083  54.150  13.055  0.00  0.00     0.077 H 
ATOM     34  C32 3LL d   1      63.154  51.652  13.942  0.00  0.00     0.038 A 
ATOM     35  H7  3LL d   1      62.275  51.006  14.087  0.00  0.00     0.077 H 
ATOM     36  H8  3LL d   1      64.065  51.099  14.216  0.00  0.00     0.077 H 
BRANCH  29  37
ATOM     37  C33 3LL d   1      62.041  51.908  11.662  0.00  0.00    -0.055 C 
ATOM     38  H9  3LL d   1      62.136  52.418  10.692  0.00  0.00     0.029 H 
ATOM     39  H10 3LL d   1      61.090  52.194  12.135  0.00  0.00     0.029 H 
ATOM     40  H11 3LL d   1      62.060  50.819  11.507  0.00  0.00     0.029 H 
ENDBRANCH  29  37
ENDBRANCH  28  29
ENDBRANCH  27  28
ENDBRANCH   9  27
BRANCH  15  41
ATOM     41  N21 3LL d   1      66.213  48.452   6.238  0.00  0.00    -0.365 N 
ATOM     42  H15 3LL d   1      66.019  49.227   5.589  0.00  0.00     0.159 HD
ATOM     43  H16 3LL d   1      65.689  47.569   6.157  0.00  0.00     0.159 HD
ENDBRANCH  15  41
BRANCH  18  44
ATOM     44  C15 3LL d   1      72.583  47.758   5.841  0.00  0.00     0.032 A 
ATOM     45  C28 3LL d   1      73.604  46.861   6.134  0.00  0.00    -0.066 A 
ATOM     46  C27 3LL d   1      74.014  45.988   5.131  0.00  0.00    -0.065 A 
ATOM     47  H18 3LL d   1      74.067  46.842   7.114  0.00  0.00     0.085 H 
ATOM     48  C26 3LL d   1      73.413  46.033   3.871  0.00  0.00     0.005 A 
ATOM     49  H19 3LL d   1      74.802  45.271   5.328  0.00  0.00     0.085 H 
ATOM     50  N25 3LL d   1      72.451  46.900   3.601  0.00  0.00    -0.232 NA
ATOM     51  H20 3LL d   1      73.741  45.345   3.100  0.00  0.00     0.114 H 
ATOM     52  C24 3LL d   1      72.023  47.743   4.554  0.00  0.00     0.220 A 
ATOM     53  F29 3LL d   1      71.064  48.612   4.230  0.00  0.00    -0.183 F 
ENDBRANCH  18  44
TORSDOF 6
