REMARK  8 active torsions:
REMARK  status: ('A' for Active; 'I' for Inactive)
REMARK    1  A    between atoms: C13_10  and  O16_21 
REMARK    2  A    between atoms: C15_17  and  C1_18 
REMARK    3  A    between atoms: O16_21  and  C22_22 
REMARK    4  A    between atoms: C22_22  and  C23_23 
REMARK    5  A    between atoms: C23_23  and  C30_24 
REMARK    6  A    between atoms: C23_23  and  C31_25 
REMARK    7  A    between atoms: C23_23  and  C24_26 
REMARK    8  A    between atoms: C19_29  and  N21_30 
ROOT
ATOM      1  C4  3LN d   1      71.223  50.223   8.788  0.00  0.00     0.085 A 
ATOM      2  C14 3LN d   1      67.177  50.596   9.964  0.00  0.00    -0.039 A 
ATOM      3  C5  3LN d   1      70.338  49.365   8.135  0.00  0.00     0.012 A 
ATOM      4  C6  3LN d   1      70.826  48.542   7.123  0.00  0.00    -0.060 A 
ATOM      5  C11 3LN d   1      69.217  52.119  11.055  0.00  0.00    -0.047 A 
ATOM      6  C8  3LN d   1      69.518  51.164  10.104  0.00  0.00     0.085 A 
ATOM      7  C9  3LN d   1      68.498  50.392   9.556  0.00  0.00     0.013 A 
ATOM      8  C10 3LN d   1      68.831  49.346   8.500  0.00  0.00     0.115 A 
ATOM      9  C12 3LN d   1      67.921  52.324  11.470  0.00  0.00    -0.048 A 
ATOM     10  C13 3LN d   1      66.891  51.569  10.943  0.00  0.00     0.069 A 
ATOM     11  C3  3LN d   1      72.564  50.239   8.441  0.00  0.00    -0.049 A 
ATOM     12  C1  3LN d   1      72.177  48.561   6.765  0.00  0.00    -0.022 A 
ATOM     13  C2  3LN d   1      73.050  49.405   7.435  0.00  0.00    -0.070 A 
ATOM     14  O7  3LN d   1      70.838  51.061   9.783  0.00  0.00    -0.310 OA
ATOM     15  C17 3LN d   1      68.373  47.953   8.940  0.00  0.00     0.060 A 
ATOM     16  O18 3LN d   1      67.447  47.516   7.904  0.00  0.00    -0.319 OA
ATOM     17  C19 3LN d   1      67.229  48.561   7.059  0.00  0.00     0.213 A 
ATOM     18  N20 3LN d   1      67.987  49.625   7.315  0.00  0.00    -0.337 N 
ATOM     19  H   3LN d   1      66.376  50.009   9.530  0.00  0.00     0.088 H 
ATOM     20  H   3LN d   1      70.147  47.875   6.604  0.00  0.00     0.086 H 
ATOM     21  H   3LN d   1      70.014  52.717  11.482  0.00  0.00     0.087 H 
ATOM     22  H   3LN d   1      67.707  53.082  12.215  0.00  0.00     0.087 H 
ATOM     23  H   3LN d   1      73.243  50.908   8.957  0.00  0.00     0.087 H 
ATOM     24  H   3LN d   1      74.103  49.416   7.178  0.00  0.00     0.085 H 
ATOM     25  H   3LN d   1      67.867  48.003   9.915  0.00  0.00     0.080 H 
ATOM     26  H   3LN d   1      69.230  47.267   9.007  0.00  0.00     0.080 H 
ATOM     27  H   3LN d   1      67.987  50.502   6.775  0.00  0.00     0.164 HD
ENDROOT
BRANCH  10  28
ATOM     28  O16 3LN d   1      65.645  51.895  11.416  0.00  0.00    -0.350 OA
BRANCH  28  29
ATOM     29  C22 3LN d   1      64.685  50.895  11.431  0.00  0.00     0.032 C 
ATOM     30  H   3LN d   1      65.091  49.989  11.905  0.00  0.00     0.076 H 
ATOM     31  H   3LN d   1      64.368  50.661  10.404  0.00  0.00     0.076 H 
BRANCH  29  32
ATOM     32  C23 3LN d   1      63.498  51.422  12.239  0.00  0.00    -0.029 C 
BRANCH  32  33
ATOM     33  C30 3LN d   1      62.475  51.938  11.234  0.00  0.00    -0.068 C 
ATOM     34  H   3LN d   1      61.599  52.329  11.771  0.00  0.00     0.028 H 
ATOM     35  H   3LN d   1      62.163  51.116  10.573  0.00  0.00     0.028 H 
ATOM     36  H   3LN d   1      62.925  52.741  10.632  0.00  0.00     0.028 H 
ENDBRANCH  32  33
BRANCH  32  37
ATOM     37  C31 3LN d   1      62.978  50.242  13.067  0.00  0.00    -0.068 C 
ATOM     38  H   3LN d   1      63.758  49.916  13.771  0.00  0.00     0.028 H 
ATOM     39  H   3LN d   1      62.718  49.410  12.396  0.00  0.00     0.028 H 
ATOM     40  H   3LN d   1      62.085  50.553  13.628  0.00  0.00     0.028 H 
ENDBRANCH  32  37
BRANCH  32  41
ATOM     41  C24 3LN d   1      63.884  52.559  13.200  0.00  0.00    -0.068 C 
ATOM     42  H   3LN d   1      64.260  53.416  12.622  0.00  0.00     0.028 H 
ATOM     43  H   3LN d   1      64.668  52.208  13.887  0.00  0.00     0.028 H 
ATOM     44  H   3LN d   1      63.000  52.866  13.778  0.00  0.00     0.028 H 
ENDBRANCH  32  41
ENDBRANCH  29  32
ENDBRANCH  28  29
ENDBRANCH  10  28
BRANCH  17  45
ATOM     45  N21 3LN d   1      66.344  48.500   6.077  0.00  0.00    -0.365 N 
ATOM     46  H   3LN d   1      66.206  49.311   5.457  0.00  0.00     0.159 HD
ATOM     47  H   3LN d   1      65.793  47.642   5.933  0.00  0.00     0.159 HD
ENDBRANCH  17  45
BRANCH  12  48
ATOM     48  C15 3LN d   1      72.649  47.701   5.774  0.00  0.00     0.009 A 
ATOM     49  C25 3LN d   1      73.769  46.902   6.020  0.00  0.00     0.015 A 
ATOM     50  N26 3LN d   1      74.188  46.056   5.098  0.00  0.00    -0.253 NA
ATOM     51  H   3LN d   1      74.292  46.977   6.966  0.00  0.00     0.116 H 
ATOM     52  C27 3LN d   1      73.565  45.952   3.937  0.00  0.00     0.086 A 
ATOM     53  N28 3LN d   1      72.494  46.690   3.670  0.00  0.00    -0.253 NA
ATOM     54  H   3LN d   1      73.933  45.255   3.193  0.00  0.00     0.146 H 
ATOM     55  C29 3LN d   1      72.005  47.556   4.550  0.00  0.00     0.015 A 
ATOM     56  H   3LN d   1      71.121  48.139   4.319  0.00  0.00     0.116 H 
ENDBRANCH  12  48
TORSDOF 8
