REMARK  3 active torsions:
REMARK  status: ('A' for Active; 'I' for Inactive)
REMARK    1  A    between atoms: C1_28  and  C14_2 
REMARK    2  A    between atoms: C15_21  and  C12_10 
REMARK    3  A    between atoms: C17_26  and  N2_13 
ROOT
ATOM      1  C4  3LO d   1      71.014  50.141   8.793  0.00  0.00     0.085 A 
ATOM      2  C5  3LO d   1      70.153  49.255   8.123  0.00  0.00     0.012 A 
ATOM      3  C6  3LO d   1      70.673  48.428   7.134  0.00  0.00    -0.060 A 
ATOM      4  C11 3LO d   1      67.562  52.143  11.430  0.00  0.00    -0.036 A 
ATOM      5  C7  3LO d   1      69.260  51.080  10.078  0.00  0.00     0.123 A 
ATOM      6  C8  3LO d   1      68.283  50.233   9.533  0.00  0.00     0.014 A 
ATOM      7  C9  3LO d   1      68.662  49.192   8.485  0.00  0.00     0.115 A 
ATOM      8  C10 3LO d   1      68.887  52.014  11.023  0.00  0.00     0.151 A 
ATOM      9  C12 3LO d   1      66.577  51.308  10.906  0.00  0.00    -0.047 A 
ATOM     10  C13 3LO d   1      66.953  50.355   9.951  0.00  0.00    -0.064 A 
ATOM     11  N1  3LO d   1      67.798  49.421   7.301  0.00  0.00    -0.337 N 
ATOM     12  C3  3LO d   1      72.362  50.158   8.456  0.00  0.00    -0.049 A 
ATOM     13  F1  3LO d   1      69.833  52.813  11.554  0.00  0.00    -0.203 F 
ATOM     14  O1  3LO d   1      70.580  51.008   9.751  0.00  0.00    -0.306 OA
ATOM     15  C16 3LO d   1      68.246  47.773   8.918  0.00  0.00     0.060 C 
ATOM     16  O2  3LO d   1      67.442  47.247   7.813  0.00  0.00    -0.319 OA
ATOM     17  C17 3LO d   1      67.137  48.317   7.006  0.00  0.00     0.213 C 
ATOM     18  C2  3LO d   1      72.868  49.317   7.470  0.00  0.00    -0.069 A 
ATOM     19  C1  3LO d   1      72.023  48.437   6.789  0.00  0.00    -0.021 A 
ATOM     20  H   3LO d   1      70.005  47.752   6.613  0.00  0.00     0.086 H 
ATOM     21  H   3LO d   1      67.294  52.898  12.160  0.00  0.00     0.089 H 
ATOM     22  H   3LO d   1      66.200  49.700   9.528  0.00  0.00     0.085 H 
ATOM     23  H   3LO d   1      67.725  50.310   6.785  0.00  0.00     0.164 HD
ATOM     24  H   3LO d   1      73.031  50.838   8.970  0.00  0.00     0.087 H 
ATOM     25  H   3LO d   1      67.651  47.812   9.842  0.00  0.00     0.080 H 
ATOM     26  H   3LO d   1      69.134  47.145   9.080  0.00  0.00     0.080 H 
ATOM     27  H   3LO d   1      73.924  49.345   7.229  0.00  0.00     0.085 H 
ENDROOT
BRANCH   9  28
ATOM     28  C15 3LO d   1      65.244  51.456  11.323  0.00  0.00    -0.009 C 
ATOM     29  C22 3LO d   1      64.152  50.426  11.073  0.00  0.00    -0.035 C 
ATOM     30  C23 3LO d   1      62.756  51.058  11.083  0.00  0.00     0.026 C 
ATOM     31  H   3LO d   1      64.323  49.958  10.093  0.00  0.00     0.037 H 
ATOM     32  H   3LO d   1      64.200  49.659  11.860  0.00  0.00     0.037 H 
ATOM     33  O3  3LO d   1      62.554  51.763  12.307  0.00  0.00    -0.363 OA
ATOM     34  H   3LO d   1      61.997  50.268  10.987  0.00  0.00     0.075 H 
ATOM     35  H   3LO d   1      62.666  51.758  10.239  0.00  0.00     0.075 H 
ATOM     36  C24 3LO d   1      63.534  52.802  12.436  0.00  0.00     0.009 C 
ATOM     37  C25 3LO d   1      64.864  52.622  12.009  0.00  0.00    -0.074 C 
ATOM     38  H   3LO d   1      63.242  53.755  12.876  0.00  0.00     0.122 H 
ATOM     39  H   3LO d   1      65.605  53.394  12.212  0.00  0.00     0.080 H 
ATOM     40  H   3LO d   1      65.496  50.958  12.271  0.00  0.00     0.053 H 
ENDBRANCH   9  28
BRANCH  17  41
ATOM     41  N2  3LO d   1      66.271  48.223   6.002  0.00  0.00    -0.365 N 
ATOM     42  H   3LO d   1      65.786  47.332   5.822  0.00  0.00     0.159 HD
ATOM     43  H   3LO d   1      66.085  49.041   5.404  0.00  0.00     0.159 HD
ENDBRANCH  17  41
BRANCH  19  44
ATOM     44  C14 3LO d   1      72.518  47.570   5.806  0.00  0.00     0.032 A 
ATOM     45  C21 3LO d   1      73.525  46.661   6.129  0.00  0.00    -0.066 A 
ATOM     46  C20 3LO d   1      73.988  45.791   5.148  0.00  0.00    -0.065 A 
ATOM     47  H   3LO d   1      73.941  46.633   7.130  0.00  0.00     0.085 H 
ATOM     48  C19 3LO d   1      73.440  45.812   3.869  0.00  0.00     0.005 A 
ATOM     49  H   3LO d   1      74.782  45.091   5.381  0.00  0.00     0.085 H 
ATOM     50  N3  3LO d   1      72.476  46.658   3.584  0.00  0.00    -0.232 NA
ATOM     51  H   3LO d   1      73.808  45.132   3.109  0.00  0.00     0.114 H 
ATOM     52  C18 3LO d   1      72.009  47.521   4.498  0.00  0.00     0.220 A 
ATOM     53  F2  3LO d   1      71.043  48.369   4.126  0.00  0.00    -0.183 F 
ENDBRANCH  19  44
TORSDOF 3
