REMARK  9 active torsions:
REMARK  status: ('A' for Active; 'I' for Inactive)
REMARK    1  A    between atoms: PB_1  and  O3A_5 
REMARK    2  A    between atoms: O3A_5  and  PA_6 
REMARK    3  A    between atoms: PA_6  and  O5'_9 
REMARK    4  A    between atoms: O5'_9  and  C5'_10 
REMARK    5  A    between atoms: C5'_10  and  C4'_11 
REMARK    6  A    between atoms: C3'_13  and  O3'_14 
REMARK    7  A    between atoms: C2'_15  and  O2'_16 
REMARK    8  A    between atoms: C1'_17  and  N9_18 
REMARK    9  A    between atoms: C2_25  and  N2_26 
ROOT
ATOM      1  C4' GDP d   1     -11.142 -13.430 -35.088  0.00  0.00     0.089 C 
ATOM      2  O4' GDP d   1     -11.488 -12.592 -36.211  0.00  0.00    -0.353 OA
ATOM      3  C3' GDP d   1      -9.768 -12.967 -34.640  0.00  0.00     0.091 C 
ATOM      4  C2' GDP d   1      -9.879 -11.471 -34.962  0.00  0.00     0.105 C 
ATOM      5  C1' GDP d   1     -10.572 -11.478 -36.302  0.00  0.00     0.139 C 
ATOM      6  H3  GDP d   1     -11.155 -14.487 -35.392  0.00  0.00     0.090 H 
ATOM      7  H4  GDP d   1      -9.602 -13.121 -33.564  0.00  0.00     0.091 H 
ATOM      8  H6  GDP d   1     -10.481 -10.954 -34.200  0.00  0.00     0.093 H 
ATOM      9  H8  GDP d   1      -9.851 -11.648 -37.115  0.00  0.00     0.122 H 
ENDROOT
BRANCH   5  10
ATOM     10  N9  GDP d   1     -11.243 -10.187 -36.521  0.00  0.00    -0.295 N 
ATOM     11  C8  GDP d   1     -12.307  -9.715 -35.830  0.00  0.00     0.071 A 
ATOM     12  N7  GDP d   1     -12.707  -8.517 -36.317  0.00  0.00    -0.234 NA
ATOM     13  H9  GDP d   1     -12.778 -10.230 -34.994  0.00  0.00     0.144 H 
ATOM     14  C5  GDP d   1     -11.897  -8.232 -37.329  0.00  0.00     0.171 A 
ATOM     15  C6  GDP d   1     -11.761  -7.129 -38.257  0.00  0.00     0.292 A 
ATOM     16  C4  GDP d   1     -10.953  -9.319 -37.468  0.00  0.00     0.161 A 
ATOM     17  O6  GDP d   1     -12.520  -6.165 -38.210  0.00  0.00    -0.265 OA
ATOM     18  N1  GDP d   1     -10.808  -7.175 -39.176  0.00  0.00    -0.154 N 
ATOM     19  C2  GDP d   1      -9.987  -8.228 -39.268  0.00  0.00     0.680 A 
ATOM     20  H10 GDP d   1     -10.700  -6.410 -39.811  0.00  0.00     0.187 HD
ATOM     21  N3  GDP d   1     -10.049  -9.281 -38.444  0.00  0.00    -0.174 N 
ATOM     22  H13 GDP d   1      -9.393 -10.066 -38.566  0.00  0.00     0.186 HD
BRANCH  19  23
ATOM     23  N2  GDP d   1      -9.056  -8.215 -40.236  0.00  0.00    -0.234 N 
ATOM     24  H11 GDP d   1      -8.407  -9.008 -40.337  0.00  0.00     0.174 HD
ATOM     25  H12 GDP d   1      -8.991  -7.412 -40.877  0.00  0.00     0.174 HD
ENDBRANCH  19  23
ENDBRANCH   5  10
BRANCH   4  26
ATOM     26  O2' GDP d   1      -8.629 -10.831 -35.082  0.00  0.00    -0.388 OA
ATOM     27  H7  GDP d   1      -8.132 -11.238 -35.782  0.00  0.00     0.210 HD
ENDBRANCH   4  26
BRANCH   1  28
ATOM     28  C5' GDP d   1     -11.969 -13.227 -33.830  0.00  0.00     0.058 C 
ATOM     29  H1  GDP d   1     -12.119 -14.212 -33.364  0.00  0.00     0.079 H 
ATOM     30  H2  GDP d   1     -11.393 -12.583 -33.149  0.00  0.00     0.079 H 
BRANCH  28  31
ATOM     31  O5' GDP d   1     -13.222 -12.645 -34.009  0.00  0.00    -0.287 OA
BRANCH  31  32
ATOM     32  PA  GDP d   1     -14.143 -12.788 -32.716  0.00  0.00     0.418 P 
ATOM     33  O1A GDP d   1     -14.583 -11.391 -32.341  0.00  0.00    -0.624 OA
ATOM     34  O2A GDP d   1     -13.481 -13.604 -31.653  0.00  0.00    -0.624 OA
BRANCH  32  35
ATOM     35  O3A GDP d   1     -15.285 -13.524 -33.597  0.00  0.00    -0.173 OA
BRANCH  35  36
ATOM     36  PB  GDP d   1     -16.513 -14.345 -33.012  0.00  0.00     0.431 P 
ATOM     37  O1B GDP d   1     -16.958 -13.740 -31.706  0.00  0.00    -0.616 OA
ATOM     38  O2B GDP d   1     -17.387 -14.171 -34.237  0.00  0.00    -0.616 OA
ATOM     39  O3B GDP d   1     -16.021 -15.774 -32.982  0.00  0.00    -0.616 OA
ENDBRANCH  35  36
ENDBRANCH  32  35
ENDBRANCH  31  32
ENDBRANCH  28  31
ENDBRANCH   1  28
BRANCH   3  40
ATOM     40  O3' GDP d   1      -8.790 -13.710 -35.377  0.00  0.00    -0.390 OA
ATOM     41  H5  GDP d   1      -7.920 -13.436 -35.112  0.00  0.00     0.210 HD
ENDBRANCH   3  40
TORSDOF 9
