REMARK  24 active torsions:
REMARK  status: ('A' for Active; 'I' for Inactive)
REMARK    1  A    between atoms: C_1  and  CH3_3 
REMARK       I    between atoms: N_5  and  C_1 
REMARK    2  A    between atoms: CA_7  and  C_4 
REMARK       I    between atoms: C_4  and  N_28 
REMARK    3  A    between atoms: CA_7  and  N_5 
REMARK    4  A    between atoms: CB_8  and  CA_7 
REMARK    5  A    between atoms: CG_9  and  CB_8 
REMARK    6  A    between atoms: C27_10  and  C28_11 
REMARK    7  A    between atoms: C27_10  and  ND1_24 
REMARK    8  A    between atoms: C28_11  and  C29_12 
REMARK    9  A    between atoms: C29_12  and  C30_13 
REMARK   10  A    between atoms: C30_13  and  C31_14 
REMARK   11  A    between atoms: C31_14  and  C32_15 
REMARK   12  A    between atoms: C32_15  and  C33_16 
REMARK   13  A    between atoms: C33_16  and  C34_17 
REMARK   14  A    between atoms: C34_17  and  C35_18 
REMARK   15  A    between atoms: N_28  and  CA_29 
REMARK   16  A    between atoms: CA_29  and  C_30 
REMARK   17  A    between atoms: CA_29  and  CB_32 
REMARK       I    between atoms: C_30  and  N_34 
REMARK   18  A    between atoms: CB_32  and  OG_33 
REMARK   19  A    between atoms: N_34  and  CA_35 
REMARK   20  A    between atoms: CA_35  and  CB_36 
REMARK   21  A    between atoms: CA_35  and  C_43 
REMARK   22  A    between atoms: CB_36  and  CG2_37 
REMARK   23  A    between atoms: CB_36  and  OG1_38 
REMARK   24  A    between atoms: OG1_38  and  P_39 
REMARK       I    between atoms: C_43  and  N_45 
ROOT
ATOM      1  CB  56A d   1      -7.537  -2.646  17.769  0.00  0.00     0.002 C 
ATOM      2  H   56A d   1      -7.944  -2.796  16.758  0.00  0.00     0.046 H 
ATOM      3  H   56A d   1      -7.002  -1.686  17.810  0.00  0.00     0.046 H 
ENDROOT
BRANCH   1   4
ATOM      4  CA  56A d   1      -6.537  -3.793  18.084  0.00  0.00     0.094 C 
ATOM      5  H   56A d   1      -5.875  -3.904  17.213  0.00  0.00     0.088 H 
BRANCH   4   6
ATOM      6  C   56A d   1      -5.691  -3.395  19.281  0.00  0.00     0.241 C 
ATOM      7  O   56A d   1      -5.728  -4.040  20.324  0.00  0.00    -0.271 OA
ATOM      8  N   SER d   1      -4.921  -2.326  19.121  0.00  0.00    -0.344 N 
ATOM      9  H   SER d   1      -4.941  -1.836  18.250  0.00  0.00     0.163 HD
BRANCH   8  10
ATOM     10  CA  SER d   1      -4.050  -1.851  20.182  0.00  0.00     0.109 C 
ATOM     11  H   SER d   1      -3.497  -2.707  20.595  0.00  0.00     0.090 H 
BRANCH  10  12
ATOM     12  C   SER d   1      -4.872  -1.217  21.297  0.00  0.00     0.243 C 
ATOM     13  O   SER d   1      -6.099  -1.144  21.218  0.00  0.00    -0.271 OA
ATOM     14  N   TPO d   1      -4.199  -0.746  22.355  0.00  0.00    -0.344 N 
ATOM     15  H   TPO d   1      -3.214  -0.588  22.288  0.00  0.00     0.163 HD
BRANCH  14  16
ATOM     16  CA  TPO d   1      -4.895  -0.464  23.601  0.00  0.00     0.114 C 
ATOM     17  H   TPO d   1      -5.508  -1.333  23.885  0.00  0.00     0.091 H 
BRANCH  16  18
ATOM     18  CB  TPO d   1      -3.930  -0.110  24.750  0.00  0.00     0.076 C 
ATOM     19  H   TPO d   1      -3.381   0.815  24.518  0.00  0.00     0.087 H 
BRANCH  18  20
ATOM     20  CG2 TPO d   1      -4.654   0.060  26.066  0.00  0.00    -0.049 C 
ATOM     21  H   TPO d   1      -3.929   0.311  26.854  0.00  0.00     0.031 H 
ATOM     22  H   TPO d   1      -5.168  -0.877  26.326  0.00  0.00     0.031 H 
ATOM     23  H   TPO d   1      -5.393   0.870  25.976  0.00  0.00     0.031 H 
ENDBRANCH  18  20
BRANCH  18  24
ATOM     24  OG1 TPO d   1      -3.032  -1.233  24.814  0.00  0.00    -0.275 OA
BRANCH  24  25
ATOM     25  P   TPO d   1      -1.463  -1.126  24.467  0.00  0.00     0.422 P 
ATOM     26  O1P TPO d   1      -0.794  -0.005  25.191  0.00  0.00    -0.617 OA
ATOM     27  O2P TPO d   1      -0.954  -2.509  24.834  0.00  0.00    -0.617 OA
ATOM     28  O3P TPO d   1      -1.456  -0.918  22.958  0.00  0.00    -0.617 OA
ENDBRANCH  24  25
ENDBRANCH  18  24
ENDBRANCH  16  18
BRANCH  16  29
ATOM     29  C   TPO d   1      -5.769   0.760  23.374  0.00  0.00     0.240 C 
ATOM     30  O   TPO d   1      -5.344   1.762  22.846  0.00  0.00    -0.271 OA
ATOM     31  N   NH2 d   1      -7.028   0.672  23.791  0.00  0.00    -0.368 N 
ATOM     32  H   NH2 d   1      -7.650   1.445  23.669  0.00  0.00     0.159 HD
ATOM     33  H   NH2 d   1      -7.353  -0.167  24.227  0.00  0.00     0.159 HD
ENDBRANCH  16  29
ENDBRANCH  14  16
ENDBRANCH  10  12
BRANCH  10  34
ATOM     34  CB  SER d   1      -3.044  -0.837  19.622  0.00  0.00     0.044 C 
ATOM     35  H   SER d   1      -2.419  -1.334  18.866  0.00  0.00     0.077 H 
ATOM     36  H   SER d   1      -2.408  -0.475  20.443  0.00  0.00     0.077 H 
BRANCH  34  37
ATOM     37  OG  SER d   1      -3.699   0.272  19.022  0.00  0.00    -0.398 OA
ATOM     38  H   SER d   1      -4.237   0.710  19.671  0.00  0.00     0.209 HD
ENDBRANCH  34  37
ENDBRANCH  10  34
ENDBRANCH   8  10
ENDBRANCH   4   6
BRANCH   4  39
ATOM     39  N   56A d   1      -7.165  -5.094  18.321  0.00  0.00    -0.348 N 
ATOM     40  C   ACE d   1      -7.527  -5.840  17.271  0.00  0.00     0.214 C 
ATOM     41  O   ACE d   1      -7.456  -5.420  16.118  0.00  0.00    -0.274 OA
ATOM     42  H   56A d   1      -7.321  -5.420  19.253  0.00  0.00     0.163 HD
BRANCH  40  43
ATOM     43  CH3 ACE d   1      -8.031  -7.228  17.566  0.00  0.00    -0.003 C 
ATOM     44  H   ACE d   1      -8.014  -7.401  18.652  0.00  0.00     0.040 H 
ATOM     45  H   ACE d   1      -7.386  -7.966  17.067  0.00  0.00     0.040 H 
ATOM     46  H   ACE d   1      -9.061  -7.330  17.195  0.00  0.00     0.040 H 
ENDBRANCH  40  43
ENDBRANCH   4  39
ENDBRANCH   1   4
BRANCH   1  47
ATOM     47  CG  56A d   1      -8.663  -2.610  18.740  0.00  0.00     0.032 C 
ATOM     48  ND1 56A d   1     -10.003  -2.752  18.355  0.00  0.00    -0.344 N 
ATOM     49  CE1 56A d   1     -10.747  -2.687  19.490  0.00  0.00     0.066 C 
ATOM     50  NE2 56A d   1     -10.011  -2.381  20.539  0.00  0.00    -0.254 NA
ATOM     51  H   56A d   1     -11.820  -2.866  19.528  0.00  0.00     0.143 H 
ATOM     52  CD2 56A d   1      -8.705  -2.447  20.096  0.00  0.00     0.025 C 
ATOM     53  H   56A d   1      -7.829  -2.379  20.739  0.00  0.00     0.117 H 
BRANCH  48  54
ATOM     54  C27 56A d   1     -10.467  -2.928  16.966  0.00  0.00     0.001 C 
ATOM     55  H   56A d   1     -10.303  -1.989  16.417  0.00  0.00     0.065 H 
ATOM     56  H   56A d   1      -9.883  -3.734  16.498  0.00  0.00     0.065 H 
BRANCH  54  57
ATOM     57  C28 56A d   1     -11.940  -3.286  16.889  0.00  0.00    -0.050 C 
ATOM     58  H   56A d   1     -12.526  -2.443  17.283  0.00  0.00     0.035 H 
ATOM     59  H   56A d   1     -12.117  -4.177  17.509  0.00  0.00     0.035 H 
BRANCH  57  60
ATOM     60  C29 56A d   1     -12.408  -3.581  15.477  0.00  0.00    -0.064 C 
ATOM     61  H   56A d   1     -13.428  -3.989  15.536  0.00  0.00     0.033 H 
ATOM     62  H   56A d   1     -11.735  -4.338  15.048  0.00  0.00     0.033 H 
BRANCH  60  63
ATOM     63  C30 56A d   1     -12.434  -2.393  14.538  0.00  0.00    -0.065 C 
ATOM     64  H   56A d   1     -11.412  -1.997  14.438  0.00  0.00     0.033 H 
ATOM     65  H   56A d   1     -13.087  -1.618  14.965  0.00  0.00     0.033 H 
BRANCH  63  66
ATOM     66  C31 56A d   1     -12.953  -2.765  13.155  0.00  0.00    -0.065 C 
ATOM     67  H   56A d   1     -13.939  -3.237  13.279  0.00  0.00     0.033 H 
ATOM     68  H   56A d   1     -12.252  -3.489  12.714  0.00  0.00     0.033 H 
BRANCH  66  69
ATOM     69  C32 56A d   1     -13.108  -1.601  12.172  0.00  0.00    -0.065 C 
ATOM     70  H   56A d   1     -13.805  -0.872  12.612  0.00  0.00     0.033 H 
ATOM     71  H   56A d   1     -13.533  -1.997  11.238  0.00  0.00     0.033 H 
BRANCH  69  72
ATOM     72  C33 56A d   1     -11.813  -0.872  11.831  0.00  0.00    -0.061 C 
ATOM     73  H   56A d   1     -11.076  -1.611  11.483  0.00  0.00     0.033 H 
ATOM     74  H   56A d   1     -11.438  -0.379  12.740  0.00  0.00     0.033 H 
BRANCH  72  75
ATOM     75  C34 56A d   1     -11.995   0.188  10.740  0.00  0.00    -0.041 C 
ATOM     76  H   56A d   1     -11.044   0.726  10.615  0.00  0.00     0.040 H 
ATOM     77  H   56A d   1     -12.774   0.892  11.066  0.00  0.00     0.040 H 
BRANCH  75  78
ATOM     78  C35 56A d   1     -12.399  -0.386   9.400  0.00  0.00    -0.058 A 
ATOM     79  C36 56A d   1     -11.441  -0.851   8.509  0.00  0.00    -0.077 A 
ATOM     80  C37 56A d   1     -11.808  -1.398   7.291  0.00  0.00    -0.082 A 
ATOM     81  H   56A d   1     -10.391  -0.785   8.771  0.00  0.00     0.084 H 
ATOM     82  C38 56A d   1     -13.138  -1.488   6.944  0.00  0.00    -0.083 A 
ATOM     83  H   56A d   1     -11.046  -1.757   6.608  0.00  0.00     0.083 H 
ATOM     84  C39 56A d   1     -14.100  -1.006   7.807  0.00  0.00    -0.082 A 
ATOM     85  H   56A d   1     -13.427  -1.935   5.999  0.00  0.00     0.083 H 
ATOM     86  C40 56A d   1     -13.733  -0.465   9.029  0.00  0.00    -0.077 A 
ATOM     87  H   56A d   1     -15.147  -1.050   7.529  0.00  0.00     0.083 H 
ATOM     88  H   56A d   1     -14.498  -0.099   9.704  0.00  0.00     0.084 H 
ENDBRANCH  75  78
ENDBRANCH  72  75
ENDBRANCH  69  72
ENDBRANCH  66  69
ENDBRANCH  63  66
ENDBRANCH  60  63
ENDBRANCH  57  60
ENDBRANCH  54  57
ENDBRANCH  48  54
ENDBRANCH   1  47
TORSDOF 24
