REMARK  5 active torsions:
REMARK  status: ('A' for Active; 'I' for Inactive)
REMARK    1  A    between atoms: C2_2  and  O2_12 
REMARK    2  A    between atoms: C3_4  and  O3_11 
REMARK    3  A    between atoms: C4_5  and  O4_13 
REMARK    4  A    between atoms: C5_6  and  C6_7 
REMARK    5  A    between atoms: C6_7  and  O6_14 
ROOT
ATOM      1  C1  GIM d   1       8.349  13.663  12.984  0.00  0.00     0.138 A 
ATOM      2  C2  GIM d   1       8.112  12.201  13.171  0.00  0.00     0.119 C 
ATOM      3  N10 GIM d   1       9.197  14.197  12.098  0.00  0.00    -0.332 N 
ATOM      4  C3  GIM d   1       9.013  11.397  12.220  0.00  0.00     0.093 C 
ATOM      5  C4  GIM d   1       9.240  12.115  10.896  0.00  0.00     0.085 C 
ATOM      6  C5  GIM d   1      10.044  13.385  11.179  0.00  0.00     0.065 C 
ATOM      7  C7  GIM d   1       8.235  15.841  13.181  0.00  0.00     0.019 A 
ATOM      8  C8  GIM d   1       9.143  15.533  12.202  0.00  0.00    -0.001 A 
ATOM      9  N1  GIM d   1       7.760  14.676  13.651  0.00  0.00    -0.243 NA
ATOM     10  H1  GIM d   1       7.059  11.977  12.943  0.00  0.00     0.099 H 
ATOM     11  H2  GIM d   1       9.992  11.272  12.706  0.00  0.00     0.091 H 
ATOM     12  H3  GIM d   1       8.265  12.399  10.472  0.00  0.00     0.090 H 
ATOM     13  H4  GIM d   1      10.967  13.097  11.704  0.00  0.00     0.080 H 
ATOM     14  H7  GIM d   1       7.953  16.839  13.514  0.00  0.00     0.117 H 
ATOM     15  H8  GIM d   1       9.718  16.246  11.613  0.00  0.00     0.113 H 
ENDROOT
BRANCH   6  16
ATOM     16  C6  GIM d   1      10.464  14.191   9.938  0.00  0.00     0.038 C 
ATOM     17  H5  GIM d   1      10.908  13.503   9.203  0.00  0.00     0.077 H 
ATOM     18  H6  GIM d   1      11.212  14.939  10.239  0.00  0.00     0.077 H 
BRANCH  16  19
ATOM     19  O6  GIM d   1       9.350  14.871   9.322  0.00  0.00    -0.399 OA
ATOM     20  H12 GIM d   1       8.701  14.232   9.052  0.00  0.00     0.209 HD
ENDBRANCH  16  19
ENDBRANCH   6  16
BRANCH   5  21
ATOM     21  O4  GIM d   1       9.908  11.267   9.954  0.00  0.00    -0.391 OA
ATOM     22  H11 GIM d   1      10.027  11.736   9.136  0.00  0.00     0.210 HD
ENDBRANCH   5  21
BRANCH   4  23
ATOM     23  O3  GIM d   1       8.453  10.101  12.002  0.00  0.00    -0.390 OA
ATOM     24  H9  GIM d   1       9.048   9.585  11.471  0.00  0.00     0.210 HD
ENDBRANCH   4  23
BRANCH   2  25
ATOM     25  O2  GIM d   1       8.386  11.826  14.531  0.00  0.00    -0.385 OA
ATOM     26  H10 GIM d   1       9.297  12.007  14.731  0.00  0.00     0.210 HD
ENDBRANCH   2  25
TORSDOF 5
