REMARK  9 active torsions:
REMARK  status: ('A' for Active; 'I' for Inactive)
REMARK    1  A    between atoms: C01_1  and  N02_2 
REMARK    2  A    between atoms: C01_1  and  C03_18 
REMARK    3  A    between atoms: C01_1  and  C04_29 
REMARK    4  A    between atoms: C09_3  and  C23_7 
REMARK    5  A    between atoms: C23_7  and  N24_8 
REMARK       I    between atoms: N24_8  and  C25_9 
REMARK    6  A    between atoms: C25_9  and  C26_10 
REMARK    7  A    between atoms: C03_18  and  C13_19 
REMARK    8  A    between atoms: C04_29  and  C05_30 
REMARK       I    between atoms: C05_30  and  N06_31 
REMARK    9  A    between atoms: N06_31  and  O08_33 
ROOT
ATOM      1  C01 3M9 d   1      82.373 141.010  63.982  0.00  0.00     0.048 C 
ATOM      2  H1  3M9 d   1      82.852 141.664  64.726  0.00  0.00     0.077 H 
ENDROOT
BRANCH   1   3
ATOM      3  N02 3M9 d   1      82.312 141.804  62.788  0.00  0.00    -0.247 N 
ATOM      4  C09 3M9 d   1      83.136 142.887  62.470  0.00  0.00     0.069 A 
ATOM      5  C10 3M9 d   1      82.683 143.349  61.190  0.00  0.00     0.050 A 
ATOM      6  N11 3M9 d   1      81.642 142.529  60.844  0.00  0.00    -0.142 NA
ATOM      7  H2  3M9 d   1      83.084 144.180  60.612  0.00  0.00     0.120 H 
ATOM      8  N12 3M9 d   1      81.451 141.636  61.810  0.00  0.00    -0.066 NA
BRANCH   4   9
ATOM      9  C23 3M9 d   1      84.282 143.488  63.268  0.00  0.00     0.036 C 
ATOM     10  H3  3M9 d   1      85.242 143.093  62.904  0.00  0.00     0.073 H 
ATOM     11  H4  3M9 d   1      84.166 143.245  64.335  0.00  0.00     0.073 H 
BRANCH   9  12
ATOM     12  N24 3M9 d   1      84.232 144.928  63.077  0.00  0.00    -0.351 N 
ATOM     13  C25 3M9 d   1      85.317 145.888  63.262  0.00  0.00     0.251 C 
ATOM     14  O27 3M9 d   1      85.064 147.071  63.051  0.00  0.00    -0.268 OA
ATOM     15  H5  3M9 d   1      83.353 145.305  62.785  0.00  0.00     0.163 HD
BRANCH  13  16
ATOM     16  C26 3M9 d   1      86.762 145.551  63.714  0.00  0.00     0.032 A 
ATOM     17  C28 3M9 d   1      87.790 146.470  63.364  0.00  0.00    -0.065 A 
ATOM     18  C29 3M9 d   1      89.127 146.237  63.743  0.00  0.00    -0.045 A 
ATOM     19  H6  3M9 d   1      87.542 147.361  62.798  0.00  0.00     0.085 H 
ATOM     20  C30 3M9 d   1      89.434 145.111  64.472  0.00  0.00     0.116 A 
ATOM     21  H7  3M9 d   1      89.906 146.937  63.463  0.00  0.00     0.088 H 
ATOM     22  C31 3M9 d   1      88.420 144.187  64.834  0.00  0.00    -0.045 A 
ATOM     23  F33 3M9 d   1      90.718 144.900  64.840  0.00  0.00    -0.206 F 
ATOM     24  C32 3M9 d   1      87.072 144.420  64.449  0.00  0.00    -0.065 A 
ATOM     25  H8  3M9 d   1      88.674 143.302  65.405  0.00  0.00     0.088 H 
ATOM     26  H9  3M9 d   1      86.294 143.719  64.728  0.00  0.00     0.085 H 
ENDBRANCH  13  16
ENDBRANCH   9  12
ENDBRANCH   4   9
ENDBRANCH   1   3
BRANCH   1  27
ATOM     27  C03 3M9 d   1      83.299 139.775  63.892  0.00  0.00    -0.020 C 
ATOM     28  H10 3M9 d   1      83.642 139.676  62.852  0.00  0.00     0.043 H 
ATOM     29  H11 3M9 d   1      82.716 138.886  64.172  0.00  0.00     0.043 H 
BRANCH  27  30
ATOM     30  C13 3M9 d   1      84.540 139.846  64.805  0.00  0.00    -0.055 A 
ATOM     31  C14 3M9 d   1      85.212 138.668  65.162  0.00  0.00    -0.066 A 
ATOM     32  C15 3M9 d   1      86.378 138.711  66.005  0.00  0.00    -0.025 A 
ATOM     33  H12 3M9 d   1      84.849 137.713  64.799  0.00  0.00     0.085 H 
ATOM     34  C16 3M9 d   1      86.845 139.946  66.472  0.00  0.00    -0.026 A 
ATOM     35  C19 3M9 d   1      87.061 137.509  66.368  0.00  0.00    -0.072 A 
ATOM     36  C17 3M9 d   1      86.164 141.147  66.109  0.00  0.00    -0.072 A 
ATOM     37  C22 3M9 d   1      88.016 139.990  67.321  0.00  0.00    -0.072 A 
ATOM     38  C18 3M9 d   1      85.017 141.101  65.282  0.00  0.00    -0.076 A 
ATOM     39  H13 3M9 d   1      86.529 142.102  66.470  0.00  0.00     0.084 H 
ATOM     40  H14 3M9 d   1      84.503 142.017  65.012  0.00  0.00     0.084 H 
ATOM     41  C21 3M9 d   1      88.686 138.804  67.678  0.00  0.00    -0.082 A 
ATOM     42  H18 3M9 d   1      88.380 140.944  67.685  0.00  0.00     0.084 H 
ATOM     43  C20 3M9 d   1      88.211 137.556  67.203  0.00  0.00    -0.082 A 
ATOM     44  H17 3M9 d   1      89.563 138.845  68.314  0.00  0.00     0.083 H 
ATOM     45  H16 3M9 d   1      88.723 136.640  67.475  0.00  0.00     0.083 H 
ATOM     46  H15 3M9 d   1      86.700 136.554  66.004  0.00  0.00     0.084 H 
ENDBRANCH  27  30
ENDBRANCH   1  27
BRANCH   1  47
ATOM     47  C04 3M9 d   1      81.020 140.694  64.559  0.00  0.00     0.032 C 
ATOM     48  H19 3M9 d   1      80.369 141.549  64.323  0.00  0.00     0.050 H 
ATOM     49  H20 3M9 d   1      81.151 140.623  65.649  0.00  0.00     0.050 H 
BRANCH  47  50
ATOM     50  C05 3M9 d   1      80.265 139.434  64.124  0.00  0.00     0.242 C 
ATOM     51  N06 3M9 d   1      78.878 139.288  64.459  0.00  0.00    -0.237 N 
ATOM     52  H21 3M9 d   1      78.405 140.002  64.974  0.00  0.00     0.197 HD
ATOM     53  O07 3M9 d   1      80.798 138.523  63.497  0.00  0.00    -0.271 OA
BRANCH  51  54
ATOM     54  O08 3M9 d   1      78.207 138.158  64.065  0.00  0.00    -0.287 OA
ATOM     55  H22 3M9 d   1      78.229 138.092  63.118  0.00  0.00     0.244 HD
ENDBRANCH  51  54
ENDBRANCH  47  50
ENDBRANCH   1  47
TORSDOF 9
