REMARK  5 active torsions:
REMARK  status: ('A' for Active; 'I' for Inactive)
REMARK    1  A    between atoms: C18_1  and  C13_2 
REMARK    2  A    between atoms: C10_6  and  C19_7 
REMARK    3  A    between atoms: C3_10  and  O3_11 
REMARK    4  A    between atoms: C14_17  and  O14_18 
REMARK    5  A    between atoms: C17_21  and  C20_22 
ROOT
ATOM      1  C13 BUF d   1       7.168  20.933  -1.039  0.00  0.00    -0.005 C 
ATOM      2  C12 BUF d   1       6.667  19.515  -1.201  0.00  0.00    -0.055 C 
ATOM      3  C11 BUF d   1       6.853  18.966  -2.588  0.00  0.00    -0.060 C 
ATOM      4  C9  BUF d   1       6.302  19.846  -3.715  0.00  0.00    -0.041 C 
ATOM      5  C10 BUF d   1       6.443  19.181  -5.124  0.00  0.00    -0.036 C 
ATOM      6  C1  BUF d   1       5.665  17.835  -5.125  0.00  0.00    -0.055 C 
ATOM      7  C2  BUF d   1       4.152  17.966  -5.068  0.00  0.00    -0.040 C 
ATOM      8  C3  BUF d   1       3.712  18.746  -6.285  0.00  0.00     0.036 C 
ATOM      9  C4  BUF d   1       4.375  20.143  -6.287  0.00  0.00    -0.037 C 
ATOM     10  C5  BUF d   1       5.922  20.107  -6.252  0.00  0.00    -0.044 C 
ATOM     11  C6  BUF d   1       6.542  21.506  -6.137  0.00  0.00    -0.060 C 
ATOM     12  C7  BUF d   1       6.476  22.154  -4.759  0.00  0.00    -0.058 C 
ATOM     13  C8  BUF d   1       6.958  21.236  -3.627  0.00  0.00    -0.019 C 
ATOM     14  C14 BUF d   1       6.719  21.872  -2.208  0.00  0.00     0.070 C 
ATOM     15  C15 BUF d   1       5.268  22.190  -1.862  0.00  0.00    -0.035 C 
ATOM     16  C16 BUF d   1       5.129  22.033  -0.339  0.00  0.00    -0.055 C 
ATOM     17  C17 BUF d   1       6.442  21.437   0.220  0.00  0.00    -0.021 C 
ATOM     18  H4  BUF d   1       5.594  19.496  -0.960  0.00  0.00     0.034 H 
ATOM     19  H5  BUF d   1       7.213  18.871  -0.496  0.00  0.00     0.034 H 
ATOM     20  H6  BUF d   1       6.347  17.991  -2.639  0.00  0.00     0.033 H 
ATOM     21  H7  BUF d   1       7.931  18.829  -2.759  0.00  0.00     0.033 H 
ATOM     22  H8  BUF d   1       5.225  19.979  -3.535  0.00  0.00     0.042 H 
ATOM     23  H12 BUF d   1       5.990  17.253  -4.250  0.00  0.00     0.034 H 
ATOM     24  H13 BUF d   1       5.926  17.291  -6.045  0.00  0.00     0.034 H 
ATOM     25  H14 BUF d   1       3.857  18.501  -4.153  0.00  0.00     0.036 H 
ATOM     26  H15 BUF d   1       3.689  16.968  -5.075  0.00  0.00     0.036 H 
ATOM     27  H16 BUF d   1       2.617  18.854  -6.296  0.00  0.00     0.082 H 
ATOM     28  H18 BUF d   1       4.022  20.694  -5.403  0.00  0.00     0.037 H 
ATOM     29  H19 BUF d   1       4.062  20.673  -7.199  0.00  0.00     0.037 H 
ATOM     30  H20 BUF d   1       6.257  19.681  -7.209  0.00  0.00     0.041 H 
ATOM     31  H21 BUF d   1       6.018  22.166  -6.845  0.00  0.00     0.033 H 
ATOM     32  H22 BUF d   1       7.601  21.429  -6.423  0.00  0.00     0.033 H 
ATOM     33  H23 BUF d   1       5.433  22.437  -4.557  0.00  0.00     0.033 H 
ATOM     34  H24 BUF d   1       7.106  23.056  -4.768  0.00  0.00     0.033 H 
ATOM     35  H25 BUF d   1       8.043  21.102  -3.752  0.00  0.00     0.045 H 
ATOM     36  H27 BUF d   1       4.594  21.490  -2.378  0.00  0.00     0.037 H 
ATOM     37  H28 BUF d   1       5.025  23.221  -2.160  0.00  0.00     0.037 H 
ATOM     38  H29 BUF d   1       4.290  21.359  -0.111  0.00  0.00     0.034 H 
ATOM     39  H30 BUF d   1       4.944  23.016   0.119  0.00  0.00     0.034 H 
ATOM     40  H31 BUF d   1       6.173  20.556   0.821  0.00  0.00     0.048 H 
ENDROOT
BRANCH  17  41
ATOM     41  C20 BUF d   1       7.254  22.318   1.159  0.00  0.00    -0.054 A 
ATOM     42  C22 BUF d   1       7.516  23.710   0.890  0.00  0.00    -0.089 A 
ATOM     43  C23 BUF d   1       8.236  24.460   1.741  0.00  0.00     0.031 A 
ATOM     44  H32 BUF d   1       7.123  24.162  -0.020  0.00  0.00     0.078 H 
ATOM     45  C24 BUF d   1       8.772  23.895   2.969  0.00  0.00     0.262 A 
ATOM     46  H33 BUF d   1       7.592  25.300   2.039  0.00  0.00     0.053 H 
ATOM     47  H34 BUF d   1       9.096  24.841   1.171  0.00  0.00     0.053 H 
ATOM     48  O24 BUF d   1       9.432  24.438   3.832  0.00  0.00    -0.265 OA
ATOM     49  O21 BUF d   1       8.505  22.567   3.205  0.00  0.00    -0.317 OA
ATOM     50  C21 BUF d   1       7.781  21.848   2.328  0.00  0.00     0.049 A 
ATOM     51  H35 BUF d   1       8.428  21.007   2.038  0.00  0.00     0.082 H 
ATOM     52  H36 BUF d   1       6.923  21.469   2.902  0.00  0.00     0.082 H 
ENDBRANCH  17  41
BRANCH   1  53
ATOM     53  C18 BUF d   1       8.686  21.036  -0.897  0.00  0.00    -0.066 C 
ATOM     54  H1  BUF d   1       9.023  20.382  -0.079  0.00  0.00     0.028 H 
ATOM     55  H2  BUF d   1       8.964  22.076  -0.673  0.00  0.00     0.028 H 
ATOM     56  H3  BUF d   1       9.164  20.723  -1.837  0.00  0.00     0.028 H 
ENDBRANCH   1  53
BRANCH  14  57
ATOM     57  O14 BUF d   1       7.469  23.056  -2.167  0.00  0.00    -0.389 OA
ATOM     58  H26 BUF d   1       8.388  22.852  -2.297  0.00  0.00     0.210 HD
ENDBRANCH  14  57
BRANCH   5  59
ATOM     59  C19 BUF d   1       7.909  18.829  -5.373  0.00  0.00    -0.068 C 
ATOM     60  H9  BUF d   1       8.011  18.361  -6.363  0.00  0.00     0.028 H 
ATOM     61  H10 BUF d   1       8.254  18.128  -4.599  0.00  0.00     0.028 H 
ATOM     62  H11 BUF d   1       8.517  19.745  -5.336  0.00  0.00     0.028 H 
ENDBRANCH   5  59
BRANCH   8  63
ATOM     63  O3  BUF d   1       4.146  18.010  -7.406  0.00  0.00    -0.396 OA
ATOM     64  H17 BUF d   1       3.890  18.464  -8.200  0.00  0.00     0.210 HD
ENDBRANCH   8  63
TORSDOF 5
