REMARK  18 active torsions:
REMARK  status: ('A' for Active; 'I' for Inactive)
REMARK    1  A    between atoms: O3_4  and  C3_3 
REMARK    2  A    between atoms: C1X_23  and  O3_4 
REMARK    3  A    between atoms: C10_11  and  C19_22 
REMARK    4  A    between atoms: C12_13  and  O12_14 
REMARK    5  A    between atoms: C13_15  and  C18_21 
REMARK    6  A    between atoms: C14_16  and  O14_17 
REMARK    7  A    between atoms: C17_20  and  C20_26 
REMARK    8  A    between atoms: C1Y_24  and  O4X_42 
REMARK    9  A    between atoms: O4Y_44  and  C1Z_25 
REMARK   10  A    between atoms: C3X_35  and  O3X_36 
REMARK   11  A    between atoms: C3Y_37  and  O3Y_38 
REMARK   12  A    between atoms: C3Z_39  and  O3Z_40 
REMARK   13  A    between atoms: O4X_42  and  C4X_41 
REMARK   14  A    between atoms: C4Y_43  and  O4Y_44 
REMARK   15  A    between atoms: C4Z_45  and  O4Z_46 
REMARK   16  A    between atoms: C5X_47  and  C6X_53 
REMARK   17  A    between atoms: C5Y_49  and  C6Y_54 
REMARK   18  A    between atoms: C5Z_51  and  C6Z_55 
ROOT
ATOM      1  C1  DGX d   1     -27.819 -18.989  72.859  0.00  0.00    -0.055 C 
ATOM      2  C2  DGX d   1     -29.282 -18.708  73.178  0.00  0.00    -0.040 C 
ATOM      3  C3  DGX d   1     -29.884 -19.596  74.275  0.00  0.00     0.042 C 
ATOM      4  C4  DGX d   1     -29.541 -21.054  73.874  0.00  0.00    -0.037 C 
ATOM      5  C5  DGX d   1     -28.082 -21.355  73.545  0.00  0.00    -0.044 C 
ATOM      6  C6  DGX d   1     -27.881 -22.824  73.139  0.00  0.00    -0.060 C 
ATOM      7  C7  DGX d   1     -28.279 -23.169  71.699  0.00  0.00    -0.058 C 
ATOM      8  C8  DGX d   1     -27.546 -22.277  70.692  0.00  0.00    -0.019 C 
ATOM      9  C9  DGX d   1     -27.878 -20.813  71.017  0.00  0.00    -0.038 C 
ATOM     10  C10 DGX d   1     -27.464 -20.447  72.483  0.00  0.00    -0.036 C 
ATOM     11  C11 DGX d   1     -27.158 -19.876  70.050  0.00  0.00    -0.036 C 
ATOM     12  C12 DGX d   1     -27.398 -20.160  68.571  0.00  0.00     0.046 C 
ATOM     13  C13 DGX d   1     -27.126 -21.646  68.181  0.00  0.00     0.021 C 
ATOM     14  C14 DGX d   1     -27.803 -22.618  69.214  0.00  0.00     0.072 C 
ATOM     15  C15 DGX d   1     -29.280 -22.637  68.781  0.00  0.00    -0.035 C 
ATOM     16  C16 DGX d   1     -29.315 -22.114  67.334  0.00  0.00    -0.054 C 
ATOM     17  C17 DGX d   1     -27.882 -21.869  66.836  0.00  0.00    -0.018 C 
ATOM     18  H1  DGX d   1     -27.226 -18.718  73.745  0.00  0.00     0.034 H 
ATOM     19  H2  DGX d   1     -27.531 -18.346  72.014  0.00  0.00     0.034 H 
ATOM     20  H3  DGX d   1     -29.867 -18.856  72.258  0.00  0.00     0.036 H 
ATOM     21  H4  DGX d   1     -29.366 -17.660  73.501  0.00  0.00     0.036 H 
ATOM     22  H5  DGX d   1     -30.980 -19.502  74.250  0.00  0.00     0.083 H 
ATOM     23  H6  DGX d   1     -30.140 -21.304  72.986  0.00  0.00     0.037 H 
ATOM     24  H7  DGX d   1     -29.834 -21.706  74.710  0.00  0.00     0.037 H 
ATOM     25  H8  DGX d   1     -27.515 -21.190  74.473  0.00  0.00     0.041 H 
ATOM     26  H9  DGX d   1     -28.482 -23.448  73.816  0.00  0.00     0.033 H 
ATOM     27  H10 DGX d   1     -26.816 -23.068  73.264  0.00  0.00     0.033 H 
ATOM     28  H11 DGX d   1     -29.363 -23.026  71.582  0.00  0.00     0.033 H 
ATOM     29  H12 DGX d   1     -28.025 -24.220  71.499  0.00  0.00     0.033 H 
ATOM     30  H13 DGX d   1     -26.468 -22.419  70.859  0.00  0.00     0.045 H 
ATOM     31  H14 DGX d   1     -28.963 -20.670  70.910  0.00  0.00     0.042 H 
ATOM     32  H15 DGX d   1     -26.078 -19.955  70.241  0.00  0.00     0.037 H 
ATOM     33  H16 DGX d   1     -27.493 -18.849  70.258  0.00  0.00     0.037 H 
ATOM     34  H17 DGX d   1     -28.432 -19.889  68.310  0.00  0.00     0.084 H 
ATOM     35  H20 DGX d   1     -29.877 -21.985  69.436  0.00  0.00     0.037 H 
ATOM     36  H21 DGX d   1     -29.676 -23.662  68.825  0.00  0.00     0.037 H 
ATOM     37  H22 DGX d   1     -29.880 -21.171  67.300  0.00  0.00     0.034 H 
ATOM     38  H23 DGX d   1     -29.804 -22.858  66.688  0.00  0.00     0.034 H 
ATOM     39  H24 DGX d   1     -27.893 -20.908  66.301  0.00  0.00     0.048 H 
ENDROOT
BRANCH   3  40
ATOM     40  O3  DGX d   1     -29.465 -19.124  75.564  0.00  0.00    -0.356 OA
BRANCH  40  41
ATOM     41  C1X DGX d   1     -29.949 -17.819  75.888  0.00  0.00     0.134 C 
ATOM     42  C2X DGX d   1     -30.270 -17.821  77.392  0.00  0.00     0.007 C 
ATOM     43  C3X DGX d   1     -30.681 -16.418  77.887  0.00  0.00     0.067 C 
ATOM     44  H37 DGX d   1     -29.378 -18.148  77.947  0.00  0.00     0.044 H 
ATOM     45  H38 DGX d   1     -31.097 -18.522  77.580  0.00  0.00     0.044 H 
ATOM     46  C4X DGX d   1     -29.590 -15.363  77.574  0.00  0.00     0.091 C 
ATOM     47  H43 DGX d   1     -30.863 -16.447  78.972  0.00  0.00     0.087 H 
ATOM     48  C5X DGX d   1     -29.250 -15.532  76.025  0.00  0.00     0.065 C 
ATOM     49  H49 DGX d   1     -28.677 -15.583  78.146  0.00  0.00     0.091 H 
ATOM     50  O5X DGX d   1     -28.897 -16.880  75.710  0.00  0.00    -0.354 OA
ATOM     51  H53 DGX d   1     -30.121 -15.226  75.427  0.00  0.00     0.086 H 
ATOM     52  H31 DGX d   1     -30.829 -17.557  75.282  0.00  0.00     0.129 H 
BRANCH  43  53
ATOM     53  O3X DGX d   1     -31.850 -16.057  77.209  0.00  0.00    -0.393 OA
ATOM     54  H44 DGX d   1     -32.127 -15.194  77.495  0.00  0.00     0.210 HD
ENDBRANCH  43  53
BRANCH  46  55
ATOM     55  O4X DGX d   1     -30.087 -14.094  78.019  0.00  0.00    -0.351 OA
BRANCH  55  56
ATOM     56  C1Y DGX d   1     -29.263 -13.462  79.015  0.00  0.00     0.134 C 
ATOM     57  C2Y DGX d   1     -30.077 -12.287  79.528  0.00  0.00     0.007 C 
ATOM     58  C3Y DGX d   1     -29.291 -11.507  80.566  0.00  0.00     0.067 C 
ATOM     59  H39 DGX d   1     -31.006 -12.662  79.984  0.00  0.00     0.044 H 
ATOM     60  H40 DGX d   1     -30.323 -11.623  78.687  0.00  0.00     0.044 H 
ATOM     61  C4Y DGX d   1     -29.022 -12.426  81.798  0.00  0.00     0.091 C 
ATOM     62  H45 DGX d   1     -29.855 -10.616  80.879  0.00  0.00     0.087 H 
ATOM     63  C5Y DGX d   1     -28.258 -13.685  81.227  0.00  0.00     0.065 C 
ATOM     64  H50 DGX d   1     -29.978 -12.775  82.216  0.00  0.00     0.091 H 
ATOM     65  O5Y DGX d   1     -29.044 -14.304  80.161  0.00  0.00    -0.354 OA
ATOM     66  H54 DGX d   1     -27.274 -13.383  80.839  0.00  0.00     0.086 H 
ATOM     67  H32 DGX d   1     -28.305 -13.143  78.579  0.00  0.00     0.129 H 
BRANCH  58  68
ATOM     68  O3Y DGX d   1     -28.065 -11.127  79.992  0.00  0.00    -0.393 OA
ATOM     69  H46 DGX d   1     -27.557 -10.636  80.628  0.00  0.00     0.210 HD
ENDBRANCH  58  68
BRANCH  61  70
ATOM     70  O4Y DGX d   1     -28.372 -11.650  82.817  0.00  0.00    -0.351 OA
BRANCH  70  71
ATOM     71  C1Z DGX d   1     -29.068 -11.420  84.044  0.00  0.00     0.134 C 
ATOM     72  C2Z DGX d   1     -28.557 -12.463  85.080  0.00  0.00     0.007 C 
ATOM     73  C3Z DGX d   1     -29.099 -12.182  86.493  0.00  0.00     0.067 C 
ATOM     74  H41 DGX d   1     -27.458 -12.428  85.107  0.00  0.00     0.044 H 
ATOM     75  H42 DGX d   1     -28.884 -13.465  84.766  0.00  0.00     0.044 H 
ATOM     76  C4Z DGX d   1     -28.738 -10.728  86.890  0.00  0.00     0.085 C 
ATOM     77  H47 DGX d   1     -28.664 -12.886  87.217  0.00  0.00     0.087 H 
ATOM     78  C5Z DGX d   1     -29.237  -9.749  85.772  0.00  0.00     0.065 C 
ATOM     79  H51 DGX d   1     -27.651 -10.628  87.026  0.00  0.00     0.090 H 
ATOM     80  O5Z DGX d   1     -28.725 -10.105  84.492  0.00  0.00    -0.354 OA
ATOM     81  H55 DGX d   1     -30.336  -9.764  85.736  0.00  0.00     0.086 H 
ATOM     82  H33 DGX d   1     -30.155 -11.512  83.904  0.00  0.00     0.129 H 
BRANCH  73  83
ATOM     83  O3Z DGX d   1     -30.488 -12.333  86.449  0.00  0.00    -0.393 OA
ATOM     84  H48 DGX d   1     -30.851 -12.165  87.311  0.00  0.00     0.210 HD
ENDBRANCH  73  83
BRANCH  76  85
ATOM     85  O4Z DGX d   1     -29.412 -10.419  88.083  0.00  0.00    -0.390 OA
ATOM     86  H52 DGX d   1     -30.349 -10.498  87.946  0.00  0.00     0.210 HD
ENDBRANCH  76  85
BRANCH  78  87
ATOM     87  C6Z DGX d   1     -28.744  -8.340  86.141  0.00  0.00    -0.050 C 
ATOM     88  H62 DGX d   1     -29.077  -7.623  85.376  0.00  0.00     0.031 H 
ATOM     89  H63 DGX d   1     -27.645  -8.338  86.192  0.00  0.00     0.031 H 
ATOM     90  H64 DGX d   1     -29.157  -8.051  87.118  0.00  0.00     0.031 H 
ENDBRANCH  78  87
ENDBRANCH  70  71
ENDBRANCH  61  70
BRANCH  63  91
ATOM     91  C6Y DGX d   1     -28.090 -14.700  82.361  0.00  0.00    -0.050 C 
ATOM     92  H59 DGX d   1     -27.559 -15.586  81.984  0.00  0.00     0.031 H 
ATOM     93  H60 DGX d   1     -29.080 -14.998  82.736  0.00  0.00     0.031 H 
ATOM     94  H61 DGX d   1     -27.510 -14.245  83.177  0.00  0.00     0.031 H 
ENDBRANCH  63  91
ENDBRANCH  55  56
ENDBRANCH  46  55
BRANCH  48  95
ATOM     95  C6X DGX d   1     -28.038 -14.668  75.672  0.00  0.00    -0.050 C 
ATOM     96  H56 DGX d   1     -27.803 -14.784  74.604  0.00  0.00     0.031 H 
ATOM     97  H57 DGX d   1     -27.174 -14.985  76.274  0.00  0.00     0.031 H 
ATOM     98  H58 DGX d   1     -28.265 -13.613  75.885  0.00  0.00     0.031 H 
ENDBRANCH  48  95
ENDBRANCH  40  41
ENDBRANCH   3  40
BRANCH  10  99
ATOM     99  C19 DGX d   1     -25.932 -20.597  72.593  0.00  0.00    -0.068 C 
ATOM    100  H28 DGX d   1     -25.611 -20.346  73.615  0.00  0.00     0.028 H 
ATOM    101  H29 DGX d   1     -25.445 -19.917  71.878  0.00  0.00     0.028 H 
ATOM    102  H30 DGX d   1     -25.648 -21.635  72.364  0.00  0.00     0.028 H 
ENDBRANCH  10  99
BRANCH  14 103
ATOM    103  O14 DGX d   1     -27.241 -23.867  68.960  0.00  0.00    -0.389 OA
ATOM    104  H19 DGX d   1     -26.300 -23.822  69.086  0.00  0.00     0.210 HD
ENDBRANCH  14 103
BRANCH  12 105
ATOM    105  O12 DGX d   1     -26.473 -19.395  67.827  0.00  0.00    -0.395 OA
ATOM    106  H18 DGX d   1     -26.604 -19.556  66.900  0.00  0.00     0.210 HD
ENDBRANCH  12 105
BRANCH  13 107
ATOM    107  C18 DGX d   1     -25.655 -21.900  67.974  0.00  0.00    -0.063 C 
ATOM    108  H25 DGX d   1     -25.119 -21.743  68.922  0.00  0.00     0.028 H 
ATOM    109  H26 DGX d   1     -25.267 -21.206  67.214  0.00  0.00     0.028 H 
ATOM    110  H27 DGX d   1     -25.506 -22.936  67.635  0.00  0.00     0.028 H 
ENDBRANCH  13 107
BRANCH  17 111
ATOM    111  C20 DGX d   1     -27.249 -22.821  65.853  0.00  0.00    -0.045 C 
ATOM    112  C21 DGX d   1     -27.463 -24.330  65.858  0.00  0.00     0.050 C 
ATOM    113  O21 DGX d   1     -26.778 -24.834  64.722  0.00  0.00    -0.314 OA
ATOM    114  H34 DGX d   1     -28.536 -24.563  65.790  0.00  0.00     0.082 H 
ATOM    115  H35 DGX d   1     -27.050 -24.770  66.778  0.00  0.00     0.082 H 
ATOM    116  C23 DGX d   1     -26.568 -23.786  63.854  0.00  0.00     0.283 C 
ATOM    117  C22 DGX d   1     -26.778 -22.528  64.619  0.00  0.00    -0.006 C 
ATOM    118  O23 DGX d   1     -26.280 -24.016  62.712  0.00  0.00    -0.260 OA
ATOM    119  H36 DGX d   1     -26.583 -21.525  64.243  0.00  0.00     0.093 H 
ENDBRANCH  17 111
TORSDOF 18
