REMARK  11 active torsions:
REMARK  status: ('A' for Active; 'I' for Inactive)
REMARK    1  A    between atoms: C2_2  and  N9_9 
REMARK    2  A    between atoms: C4_4  and  C24_24 
REMARK    3  A    between atoms: N6_6  and  C7_7 
REMARK    4  A    between atoms: N9_9  and  C10_10 
REMARK    5  A    between atoms: C13_13  and  C16_16 
REMARK       I    between atoms: C16_16  and  N18_18 
REMARK    6  A    between atoms: C28_28  and  N31_31 
REMARK    7  A    between atoms: C29_29  and  C30_30 
REMARK    8  A    between atoms: C30_30  and  O45_45 
REMARK    9  A    between atoms: C38_38  and  N41_41 
REMARK   10  A    between atoms: N41_41  and  C42_42 
REMARK   11  A    between atoms: N41_41  and  C43_43 
ROOT
ATOM      1  C24 3OU d   1      24.881   6.983   3.474  0.00  0.00    -0.014 A 
ATOM      2  C25 3OU d   1      26.122   6.353   3.186  0.00  0.00    -0.071 A 
ATOM      3  C26 3OU d   1      27.289   6.690   3.858  0.00  0.00    -0.080 A 
ATOM      4  C27 3OU d   1      27.245   7.660   4.898  0.00  0.00    -0.056 A 
ATOM      5  C28 3OU d   1      26.031   8.306   5.178  0.00  0.00     0.046 A 
ATOM      6  C29 3OU d   1      24.842   7.949   4.515  0.00  0.00     0.003 A 
ATOM      7  H   3OU d   1      26.158   5.587   2.420  0.00  0.00     0.084 H 
ATOM      8  H   3OU d   1      28.228   6.217   3.592  0.00  0.00     0.083 H 
ATOM      9  H   3OU d   1      28.137   7.897   5.466  0.00  0.00     0.086 H 
ENDROOT
BRANCH   1  10
ATOM     10  C4  3OU d   1      23.708   6.523   2.673  0.00  0.00    -0.007 A 
ATOM     11  C3  3OU d   1      23.867   6.371   1.260  0.00  0.00    -0.040 A 
ATOM     12  C2  3OU d   1      22.813   5.914   0.529  0.00  0.00     0.103 A 
ATOM     13  H   3OU d   1      24.812   6.616   0.778  0.00  0.00     0.088 H 
ATOM     14  C1  3OU d   1      21.590   5.629   1.215  0.00  0.00     0.274 A 
ATOM     15  N6  3OU d   1      21.454   5.785   2.561  0.00  0.00    -0.326 N 
ATOM     16  O8  3OU d   1      20.661   5.221   0.516  0.00  0.00    -0.266 OA
ATOM     17  C5  3OU d   1      22.501   6.233   3.295  0.00  0.00    -0.007 A 
ATOM     18  H   3OU d   1      22.396   6.365   4.371  0.00  0.00     0.113 H 
BRANCH  12  19
ATOM     19  N9  3OU d   1      22.780   5.717  -0.881  0.00  0.00    -0.337 N 
ATOM     20  H   3OU d   1      21.849   5.486  -1.256  0.00  0.00     0.168 HD
BRANCH  19  21
ATOM     21  C10 3OU d   1      23.775   5.782  -1.830  0.00  0.00     0.127 A 
ATOM     22  C11 3OU d   1      23.503   5.356  -3.148  0.00  0.00    -0.038 A 
ATOM     23  C12 3OU d   1      24.501   5.452  -4.091  0.00  0.00    -0.063 A 
ATOM     24  H   3OU d   1      22.529   4.962  -3.412  0.00  0.00     0.089 H 
ATOM     25  C13 3OU d   1      25.747   5.973  -3.691  0.00  0.00     0.049 A 
ATOM     26  H   3OU d   1      24.333   5.135  -5.114  0.00  0.00     0.085 H 
ATOM     27  C14 3OU d   1      25.939   6.398  -2.350  0.00  0.00     0.020 A 
ATOM     28  N15 3OU d   1      24.956   6.286  -1.464  0.00  0.00    -0.242 NA
ATOM     29  H   3OU d   1      26.892   6.816  -2.048  0.00  0.00     0.116 H 
BRANCH  25  30
ATOM     30  C16 3OU d   1      26.896   6.153  -4.629  0.00  0.00     0.255 C 
ATOM     31  O17 3OU d   1      27.968   5.668  -4.329  0.00  0.00    -0.267 OA
ATOM     32  N18 3OU d   1      26.787   6.930  -5.749  0.00  0.00    -0.344 N 
ATOM     33  C19 3OU d   1      27.982   7.116  -6.637  0.00  0.00     0.018 C 
ATOM     34  C23 3OU d   1      25.492   7.612  -6.094  0.00  0.00     0.018 C 
ATOM     35  C20 3OU d   1      27.600   7.634  -8.034  0.00  0.00     0.034 C 
ATOM     36  H   3OU d   1      28.494   6.149  -6.747  0.00  0.00     0.067 H 
ATOM     37  H   3OU d   1      28.663   7.840  -6.166  0.00  0.00     0.067 H 
ATOM     38  O21 3OU d   1      26.661   8.716  -7.879  0.00  0.00    -0.388 OA
ATOM     39  H   3OU d   1      27.139   6.823  -8.617  0.00  0.00     0.076 H 
ATOM     40  H   3OU d   1      28.499   7.995  -8.555  0.00  0.00     0.076 H 
ATOM     41  C22 3OU d   1      25.400   8.142  -7.533  0.00  0.00     0.034 C 
ATOM     42  H   3OU d   1      25.166   7.315  -8.220  0.00  0.00     0.076 H 
ATOM     43  H   3OU d   1      24.612   8.907  -7.598  0.00  0.00     0.076 H 
ATOM     44  H   3OU d   1      25.361   8.462  -5.408  0.00  0.00     0.067 H 
ATOM     45  H   3OU d   1      24.676   6.890  -5.944  0.00  0.00     0.067 H 
ENDBRANCH  25  30
ENDBRANCH  19  21
ENDBRANCH  12  19
BRANCH  15  46
ATOM     46  C7  3OU d   1      20.140   5.490   3.212  0.00  0.00    -0.011 C 
ATOM     47  H   3OU d   1      19.425   5.140   2.453  0.00  0.00     0.057 H 
ATOM     48  H   3OU d   1      19.753   6.404   3.687  0.00  0.00     0.057 H 
ATOM     49  H   3OU d   1      20.276   4.709   3.975  0.00  0.00     0.057 H 
ENDBRANCH  15  46
ENDBRANCH   1  10
BRANCH   6  50
ATOM     50  C30 3OU d   1      23.512   8.656   4.763  0.00  0.00     0.043 C 
ATOM     51  H   3OU d   1      22.854   8.482   3.899  0.00  0.00     0.081 H 
ATOM     52  H   3OU d   1      23.700   9.735   4.869  0.00  0.00     0.081 H 
BRANCH  50  53
ATOM     53  O45 3OU d   1      22.846   8.181   5.958  0.00  0.00    -0.396 OA
ATOM     54  H   3OU d   1      22.027   8.649   6.070  0.00  0.00     0.209 HD
ENDBRANCH  50  53
ENDBRANCH   6  50
BRANCH   5  55
ATOM     55  N31 3OU d   1      25.922   9.268   6.229  0.00  0.00    -0.313 N 
ATOM     56  C32 3OU d   1      26.035  10.702   5.843  0.00  0.00     0.007 C 
ATOM     57  C33 3OU d   1      25.078  11.527   6.680  0.00  0.00    -0.025 C 
ATOM     58  H   3OU d   1      25.783  10.816   4.778  0.00  0.00     0.065 H 
ATOM     59  H   3OU d   1      27.065  11.048   6.015  0.00  0.00     0.065 H 
ATOM     60  C36 3OU d   1      25.125  11.202   8.137  0.00  0.00    -0.039 A 
ATOM     61  H   3OU d   1      24.055  11.348   6.317  0.00  0.00     0.042 H 
ATOM     62  H   3OU d   1      25.332  12.590   6.553  0.00  0.00     0.042 H 
ATOM     63  C35 3OU d   1      25.502   9.886   8.565  0.00  0.00     0.039 A 
ATOM     64  C37 3OU d   1      24.795  12.156   9.089  0.00  0.00    -0.050 A 
ATOM     65  C34 3OU d   1      25.749   8.858   7.517  0.00  0.00     0.259 C 
ATOM     66  C40 3OU d   1      25.471   9.536   9.923  0.00  0.00    -0.065 A 
ATOM     67  O44 3OU d   1      25.663   7.650   7.836  0.00  0.00    -0.267 OA
ATOM     68  C39 3OU d   1      25.156  10.496  10.887  0.00  0.00    -0.056 A 
ATOM     69  H   3OU d   1      25.692   8.518  10.225  0.00  0.00     0.085 H 
ATOM     70  C38 3OU d   1      24.766  11.792  10.468  0.00  0.00     0.029 A 
ATOM     71  H   3OU d   1      25.209  10.253  11.942  0.00  0.00     0.086 H 
ATOM     72  H   3OU d   1      24.561  13.171   8.787  0.00  0.00     0.087 H 
BRANCH  70  73
ATOM     73  N41 3OU d   1      24.444  12.741  11.475  0.00  0.00    -0.390 N 
BRANCH  73  74
ATOM     74  C42 3OU d   1      23.762  14.030  11.106  0.00  0.00    -0.019 C 
ATOM     75  H   3OU d   1      23.596  14.630  12.013  0.00  0.00     0.056 H 
ATOM     76  H   3OU d   1      22.795  13.810  10.630  0.00  0.00     0.056 H 
ATOM     77  H   3OU d   1      24.396  14.593  10.405  0.00  0.00     0.056 H 
ENDBRANCH  73  74
BRANCH  73  78
ATOM     78  C43 3OU d   1      24.699  12.497  12.884  0.00  0.00    -0.019 C 
ATOM     79  H   3OU d   1      25.199  11.524  13.003  0.00  0.00     0.056 H 
ATOM     80  H   3OU d   1      23.746  12.489  13.433  0.00  0.00     0.056 H 
ATOM     81  H   3OU d   1      25.346  13.293  13.283  0.00  0.00     0.056 H 
ENDBRANCH  73  78
ENDBRANCH  70  73
ENDBRANCH   5  55
TORSDOF 11
