REMARK  11 active torsions:
REMARK  status: ('A' for Active; 'I' for Inactive)
REMARK    1  A    between atoms: C2_2  and  N9_9 
REMARK    2  A    between atoms: C4_4  and  C24_24 
REMARK    3  A    between atoms: N6_6  and  C7_7 
REMARK    4  A    between atoms: N9_9  and  C10_10 
REMARK    5  A    between atoms: C13_13  and  C16_16 
REMARK       I    between atoms: C16_16  and  N18_18 
REMARK    6  A    between atoms: C28_28  and  N31_31 
REMARK    7  A    between atoms: C29_29  and  C30_30 
REMARK    8  A    between atoms: C30_30  and  O45_45 
REMARK    9  A    between atoms: C38_38  and  N41_41 
REMARK   10  A    between atoms: N41_41  and  C42_42 
REMARK   11  A    between atoms: N41_41  and  C43_43 
ROOT
ATOM      1  C1  3OV d   1      22.029   5.182   1.188  0.00  0.00     0.274 A 
ATOM      2  C2  3OV d   1      23.263   5.443   0.612  0.00  0.00     0.103 A 
ATOM      3  C3  3OV d   1      24.368   5.823   1.304  0.00  0.00    -0.040 A 
ATOM      4  C4  3OV d   1      24.256   5.949   2.750  0.00  0.00    -0.007 A 
ATOM      5  C5  3OV d   1      23.031   5.705   3.295  0.00  0.00    -0.007 A 
ATOM      6  N6  3OV d   1      21.952   5.328   2.567  0.00  0.00    -0.326 N 
ATOM      7  O8  3OV d   1      21.006   4.821   0.592  0.00  0.00    -0.266 OA
ATOM      8  H   3OV d   1      25.308   6.027   0.793  0.00  0.00     0.088 H 
ATOM      9  H   3OV d   1      22.913   5.819   4.372  0.00  0.00     0.113 H 
ENDROOT
BRANCH   4  10
ATOM     10  C24 3OV d   1      25.417   6.309   3.549  0.00  0.00    -0.014 A 
ATOM     11  C25 3OV d   1      26.637   5.665   3.340  0.00  0.00    -0.071 A 
ATOM     12  C26 3OV d   1      27.785   5.924   4.047  0.00  0.00    -0.080 A 
ATOM     13  H   3OV d   1      26.681   4.908   2.566  0.00  0.00     0.084 H 
ATOM     14  C27 3OV d   1      27.705   6.893   5.084  0.00  0.00    -0.056 A 
ATOM     15  H   3OV d   1      28.713   5.411   3.824  0.00  0.00     0.083 H 
ATOM     16  C28 3OV d   1      26.491   7.510   5.326  0.00  0.00     0.051 A 
ATOM     17  H   3OV d   1      28.579   7.144   5.674  0.00  0.00     0.087 H 
ATOM     18  C29 3OV d   1      25.348   7.308   4.589  0.00  0.00     0.004 A 
BRANCH  16  19
ATOM     19  N31 3OV d   1      26.442   8.529   6.360  0.00  0.00    -0.288 N 
ATOM     20  C32 3OV d   1      26.491   9.859   5.987  0.00  0.00    -0.011 A 
ATOM     21  C33 3OV d   1      26.248  10.869   6.843  0.00  0.00    -0.056 A 
ATOM     22  H   3OV d   1      26.737  10.101   4.954  0.00  0.00     0.112 H 
ATOM     23  C36 3OV d   1      25.887  10.517   8.210  0.00  0.00    -0.014 A 
ATOM     24  H   3OV d   1      26.319  11.909   6.526  0.00  0.00     0.086 H 
ATOM     25  C35 3OV d   1      25.890   9.159   8.614  0.00  0.00     0.081 A 
ATOM     26  C37 3OV d   1      25.563  11.564   9.116  0.00  0.00    -0.046 A 
ATOM     27  C34 3OV d   1      26.132   8.123   7.617  0.00  0.00     0.266 A 
ATOM     28  C40 3OV d   1      25.523   8.966   9.931  0.00  0.00     0.135 A 
ATOM     29  O44 3OV d   1      26.038   6.920   7.908  0.00  0.00    -0.267 OA
ATOM     30  C39 3OV d   1      25.250   9.934  10.873  0.00  0.00    -0.019 A 
ATOM     31  F46 3OV d   1      25.441   7.670  10.385  0.00  0.00    -0.205 F 
ATOM     32  C38 3OV d   1      25.232  11.266  10.429  0.00  0.00     0.033 A 
ATOM     33  H   3OV d   1      25.058   9.679  11.909  0.00  0.00     0.091 H 
ATOM     34  H   3OV d   1      25.575  12.595   8.780  0.00  0.00     0.088 H 
BRANCH  32  35
ATOM     35  N41 3OV d   1      24.888  12.261  11.309  0.00  0.00    -0.389 N 
BRANCH  35  36
ATOM     36  C42 3OV d   1      24.517  13.606  10.800  0.00  0.00    -0.019 C 
ATOM     37  H   3OV d   1      24.275  14.265  11.647  0.00  0.00     0.056 H 
ATOM     38  H   3OV d   1      23.641  13.520  10.140  0.00  0.00     0.056 H 
ATOM     39  H   3OV d   1      25.361  14.030  10.236  0.00  0.00     0.056 H 
ENDBRANCH  35  36
BRANCH  35  40
ATOM     40  C43 3OV d   1      25.067  12.069  12.744  0.00  0.00    -0.019 C 
ATOM     41  H   3OV d   1      25.338  11.021  12.943  0.00  0.00     0.056 H 
ATOM     42  H   3OV d   1      24.130  12.311  13.266  0.00  0.00     0.056 H 
ATOM     43  H   3OV d   1      25.869  12.730  13.105  0.00  0.00     0.056 H 
ENDBRANCH  35  40
ENDBRANCH  32  35
ENDBRANCH  16  19
BRANCH  18  44
ATOM     44  C30 3OV d   1      24.114   8.133   4.819  0.00  0.00     0.043 C 
ATOM     45  H   3OV d   1      23.474   8.093   3.925  0.00  0.00     0.081 H 
ATOM     46  H   3OV d   1      24.401   9.176   5.018  0.00  0.00     0.081 H 
BRANCH  44  47
ATOM     47  O45 3OV d   1      23.393   7.609   5.950  0.00  0.00    -0.396 OA
ATOM     48  H   3OV d   1      22.612   8.130   6.096  0.00  0.00     0.209 HD
ENDBRANCH  44  47
ENDBRANCH  18  44
ENDBRANCH   4  10
BRANCH   2  49
ATOM     49  N9  3OV d   1      23.225   5.234  -0.819  0.00  0.00    -0.337 N 
ATOM     50  H   3OV d   1      22.300   5.017  -1.218  0.00  0.00     0.168 HD
BRANCH  49  51
ATOM     51  C10 3OV d   1      24.259   5.288  -1.706  0.00  0.00     0.127 A 
ATOM     52  C11 3OV d   1      23.939   4.904  -3.040  0.00  0.00    -0.038 A 
ATOM     53  C12 3OV d   1      24.950   4.944  -3.963  0.00  0.00    -0.063 A 
ATOM     54  H   3OV d   1      22.937   4.593  -3.313  0.00  0.00     0.089 H 
ATOM     55  C13 3OV d   1      26.247   5.270  -3.597  0.00  0.00     0.049 A 
ATOM     56  H   3OV d   1      24.732   4.716  -5.000  0.00  0.00     0.085 H 
ATOM     57  C14 3OV d   1      26.467   5.638  -2.260  0.00  0.00     0.020 A 
ATOM     58  N15 3OV d   1      25.462   5.617  -1.366  0.00  0.00    -0.242 NA
ATOM     59  H   3OV d   1      27.458   5.943  -1.944  0.00  0.00     0.116 H 
BRANCH  55  60
ATOM     60  C16 3OV d   1      27.350   5.309  -4.569  0.00  0.00     0.255 C 
ATOM     61  O17 3OV d   1      27.150   5.990  -5.567  0.00  0.00    -0.267 OA
ATOM     62  N18 3OV d   1      28.491   4.588  -4.390  0.00  0.00    -0.344 N 
ATOM     63  C19 3OV d   1      29.537   4.631  -5.500  0.00  0.00     0.018 C 
ATOM     64  C23 3OV d   1      28.718   3.684  -3.237  0.00  0.00     0.018 C 
ATOM     65  C20 3OV d   1      30.931   4.698  -4.860  0.00  0.00     0.034 C 
ATOM     66  H   3OV d   1      29.375   5.520  -6.128  0.00  0.00     0.067 H 
ATOM     67  H   3OV d   1      29.457   3.725  -6.119  0.00  0.00     0.067 H 
ATOM     68  O21 3OV d   1      31.129   3.553  -4.009  0.00  0.00    -0.388 OA
ATOM     69  H   3OV d   1      31.015   5.617  -4.262  0.00  0.00     0.076 H 
ATOM     70  H   3OV d   1      31.696   4.703  -5.650  0.00  0.00     0.076 H 
ATOM     71  C22 3OV d   1      30.189   3.507  -2.874  0.00  0.00     0.034 C 
ATOM     72  H   3OV d   1      30.464   4.308  -2.172  0.00  0.00     0.076 H 
ATOM     73  H   3OV d   1      30.302   2.531  -2.379  0.00  0.00     0.076 H 
ATOM     74  H   3OV d   1      28.300   2.697  -3.483  0.00  0.00     0.067 H 
ATOM     75  H   3OV d   1      28.192   4.097  -2.364  0.00  0.00     0.067 H 
ENDBRANCH  55  60
ENDBRANCH  49  51
ENDBRANCH   2  49
BRANCH   6  76
ATOM     76  C7  3OV d   1      20.638   5.128   3.147  0.00  0.00    -0.011 C 
ATOM     77  H   3OV d   1      19.932   4.826   2.360  0.00  0.00     0.057 H 
ATOM     78  H   3OV d   1      20.294   6.066   3.608  0.00  0.00     0.057 H 
ATOM     79  H   3OV d   1      20.691   4.340   3.913  0.00  0.00     0.057 H 
ENDBRANCH   6  76
TORSDOF 11
