REMARK  12 active torsions:
REMARK  status: ('A' for Active; 'I' for Inactive)
REMARK    1  A    between atoms: C1_1  and  N7_7 
REMARK    2  A    between atoms: C3_3  and  C8_8 
REMARK    3  A    between atoms: N6_6  and  C27_27 
REMARK    4  A    between atoms: N7_7  and  C29_29 
REMARK    5  A    between atoms: C12_12  and  N14_14 
REMARK    6  A    between atoms: C13_13  and  C25_25 
REMARK    7  A    between atoms: C21_21  and  C41_41 
REMARK    8  A    between atoms: C25_25  and  O26_26 
REMARK    9  A    between atoms: C32_32  and  N35_35 
REMARK   10  A    between atoms: N38_38  and  C46_46 
REMARK   11  A    between atoms: C41_41  and  C43_43 
REMARK   12  A    between atoms: C41_41  and  C44_44 
ROOT
ATOM      1  C41 3P0 d   1      25.167  12.309  11.373  0.00  0.00     0.069 C 
ATOM      2  C42 3P0 d   1      23.932  13.093  11.140  0.00  0.00     0.073 C 
ATOM      3  N45 3P0 d   1      22.973  13.702  10.963  0.00  0.00    -0.196 NA
ENDROOT
BRANCH   1   4
ATOM      4  C21 3P0 d   1      25.324  11.192  10.375  0.00  0.00    -0.033 A 
ATOM      5  C20 3P0 d   1      25.278  11.492   9.017  0.00  0.00    -0.068 A 
ATOM      6  C19 3P0 d   1      25.456  10.502   8.063  0.00  0.00    -0.037 A 
ATOM      7  H   3P0 d   1      25.101  12.514   8.701  0.00  0.00     0.085 H 
ATOM      8  C16 3P0 d   1      25.374  10.899   6.603  0.00  0.00    -0.025 C 
ATOM      9  C18 3P0 d   1      25.713   9.174   8.466  0.00  0.00     0.077 A 
ATOM     10  C15 3P0 d   1      26.190   9.973   5.703  0.00  0.00     0.007 C 
ATOM     11  H   3P0 d   1      24.321  10.863   6.285  0.00  0.00     0.042 H 
ATOM     12  H   3P0 d   1      25.756  11.925   6.494  0.00  0.00     0.042 H 
ATOM     13  N14 3P0 d   1      26.089   8.558   6.093  0.00  0.00    -0.313 N 
ATOM     14  H   3P0 d   1      25.827  10.079   4.670  0.00  0.00     0.065 H 
ATOM     15  H   3P0 d   1      27.246  10.276   5.753  0.00  0.00     0.065 H 
ATOM     16  C17 3P0 d   1      25.872   8.144   7.394  0.00  0.00     0.262 C 
ATOM     17  O24 3P0 d   1      25.809   6.948   7.676  0.00  0.00    -0.267 OA
ATOM     18  C23 3P0 d   1      25.740   8.871   9.850  0.00  0.00     0.133 A 
ATOM     19  C22 3P0 d   1      25.557   9.879  10.783  0.00  0.00    -0.037 A 
ATOM     20  F47 3P0 d   1      25.953   7.619  10.309  0.00  0.00    -0.205 F 
ATOM     21  H   3P0 d   1      25.595   9.645  11.841  0.00  0.00     0.089 H 
BRANCH  13  22
ATOM     22  C12 3P0 d   1      26.187   7.587   5.083  0.00  0.00     0.046 A 
ATOM     23  C11 3P0 d   1      27.410   6.962   4.821  0.00  0.00    -0.056 A 
ATOM     24  C10 3P0 d   1      27.476   5.983   3.841  0.00  0.00    -0.080 A 
ATOM     25  H   3P0 d   1      28.297   7.240   5.378  0.00  0.00     0.086 H 
ATOM     26  C9  3P0 d   1      26.346   5.626   3.116  0.00  0.00    -0.071 A 
ATOM     27  H   3P0 d   1      28.420   5.491   3.638  0.00  0.00     0.083 H 
ATOM     28  C8  3P0 d   1      25.101   6.232   3.350  0.00  0.00    -0.014 A 
ATOM     29  H   3P0 d   1      26.427   4.862   2.352  0.00  0.00     0.084 H 
ATOM     30  C13 3P0 d   1      25.024   7.230   4.364  0.00  0.00     0.003 A 
BRANCH  28  31
ATOM     31  C3  3P0 d   1      23.912   5.784   2.541  0.00  0.00    -0.007 A 
ATOM     32  C2  3P0 d   1      23.959   5.667   1.120  0.00  0.00    -0.040 A 
ATOM     33  C1  3P0 d   1      22.835   5.247   0.414  0.00  0.00     0.103 A 
ATOM     34  H   3P0 d   1      24.877   5.907   0.586  0.00  0.00     0.088 H 
ATOM     35  C5  3P0 d   1      21.634   4.947   1.143  0.00  0.00     0.274 A 
ATOM     36  N6  3P0 d   1      21.624   5.055   2.507  0.00  0.00    -0.326 N 
ATOM     37  O28 3P0 d   1      20.631   4.594   0.524  0.00  0.00    -0.266 OA
ATOM     38  C4  3P0 d   1      22.742   5.455   3.188  0.00  0.00    -0.007 A 
ATOM     39  H   3P0 d   1      22.705   5.515   4.275  0.00  0.00     0.113 H 
BRANCH  33  40
ATOM     40  N7  3P0 d   1      22.799   5.115  -0.995  0.00  0.00    -0.337 N 
ATOM     41  H   3P0 d   1      21.870   4.961  -1.413  0.00  0.00     0.168 HD
BRANCH  40  42
ATOM     42  C29 3P0 d   1      23.878   5.169  -1.889  0.00  0.00     0.127 A 
ATOM     43  C30 3P0 d   1      23.640   4.805  -3.227  0.00  0.00    -0.037 A 
ATOM     44  C31 3P0 d   1      24.687   4.837  -4.144  0.00  0.00    -0.057 A 
ATOM     45  H   3P0 d   1      22.648   4.502  -3.542  0.00  0.00     0.089 H 
ATOM     46  C32 3P0 d   1      25.964   5.245  -3.702  0.00  0.00     0.028 A 
ATOM     47  H   3P0 d   1      24.525   4.554  -5.178  0.00  0.00     0.086 H 
ATOM     48  C33 3P0 d   1      26.116   5.595  -2.349  0.00  0.00     0.025 A 
ATOM     49  N34 3P0 d   1      25.095   5.559  -1.501  0.00  0.00    -0.242 NA
ATOM     50  H   3P0 d   1      27.091   5.902  -1.989  0.00  0.00     0.117 H 
BRANCH  46  51
ATOM     51  N35 3P0 d   1      27.069   5.283  -4.594  0.00  0.00    -0.279 NA
ATOM     52  C36 3P0 d   1      26.967   4.144  -5.545  0.00  0.00     0.006 C 
ATOM     53  C37 3P0 d   1      28.195   4.046  -6.477  0.00  0.00     0.094 C 
ATOM     54  H   3P0 d   1      26.065   4.277  -6.161  0.00  0.00     0.058 H 
ATOM     55  H   3P0 d   1      26.884   3.210  -4.970  0.00  0.00     0.058 H 
ATOM     56  N38 3P0 d   1      29.452   3.947  -5.695  0.00  0.00    -0.073 N 
ATOM     57  H   3P0 d   1      28.237   4.943  -7.112  0.00  0.00     0.077 H 
ATOM     58  H   3P0 d   1      28.095   3.152  -7.111  0.00  0.00     0.077 H 
ATOM     59  C39 3P0 d   1      29.584   5.079  -4.747  0.00  0.00     0.094 C 
ATOM     60  H   3P0 d   1      29.407   3.100  -5.151  0.00  0.00     0.279 HD
ATOM     61  C40 3P0 d   1      28.348   5.199  -3.832  0.00  0.00     0.006 C 
ATOM     62  H   3P0 d   1      29.697   6.012  -5.318  0.00  0.00     0.077 H 
ATOM     63  H   3P0 d   1      30.476   4.920  -4.123  0.00  0.00     0.077 H 
ATOM     64  H   3P0 d   1      28.309   4.316  -3.177  0.00  0.00     0.058 H 
ATOM     65  H   3P0 d   1      28.452   6.106  -3.219  0.00  0.00     0.058 H 
BRANCH  56  66
ATOM     66  C46 3P0 d   1      30.628   3.842  -6.586  0.00  0.00     0.066 C 
ATOM     67  H   3P0 d   1      30.493   2.993  -7.273  0.00  0.00     0.068 H 
ATOM     68  H   3P0 d   1      31.533   3.684  -5.981  0.00  0.00     0.068 H 
ATOM     69  H   3P0 d   1      30.732   4.770  -7.167  0.00  0.00     0.068 H 
ENDBRANCH  56  66
ENDBRANCH  46  51
ENDBRANCH  40  42
ENDBRANCH  33  40
BRANCH  36  70
ATOM     70  C27 3P0 d   1      20.423   4.760   3.281  0.00  0.00    -0.011 C 
ATOM     71  H   3P0 d   1      20.631   4.909   4.351  0.00  0.00     0.057 H 
ATOM     72  H   3P0 d   1      20.122   3.716   3.108  0.00  0.00     0.057 H 
ATOM     73  H   3P0 d   1      19.611   5.433   2.968  0.00  0.00     0.057 H 
ENDBRANCH  36  70
ENDBRANCH  28  31
BRANCH  30  74
ATOM     74  C25 3P0 d   1      23.705   7.931   4.668  0.00  0.00     0.043 C 
ATOM     75  H   3P0 d   1      22.990   7.700   3.865  0.00  0.00     0.081 H 
ATOM     76  H   3P0 d   1      23.882   9.016   4.701  0.00  0.00     0.081 H 
BRANCH  74  77
ATOM     77  O26 3P0 d   1      23.142   7.521   5.914  0.00  0.00    -0.396 OA
ATOM     78  H   3P0 d   1      22.325   7.983   6.058  0.00  0.00     0.209 HD
ENDBRANCH  74  77
ENDBRANCH  30  74
ENDBRANCH  13  22
ENDBRANCH   1   4
BRANCH   1  79
ATOM     79  C43 3P0 d   1      25.194  11.781  12.812  0.00  0.00    -0.053 C 
ATOM     80  H   3P0 d   1      25.077  12.621  13.513  0.00  0.00     0.030 H 
ATOM     81  H   3P0 d   1      26.154  11.277  13.000  0.00  0.00     0.030 H 
ATOM     82  H   3P0 d   1      24.370  11.066  12.956  0.00  0.00     0.030 H 
ENDBRANCH   1  79
BRANCH   1  83
ATOM     83  C44 3P0 d   1      26.403  13.186  11.169  0.00  0.00    -0.053 C 
ATOM     84  H   3P0 d   1      26.408  13.579  10.142  0.00  0.00     0.030 H 
ATOM     85  H   3P0 d   1      27.310  12.586  11.337  0.00  0.00     0.030 H 
ATOM     86  H   3P0 d   1      26.380  14.024  11.882  0.00  0.00     0.030 H 
ENDBRANCH   1  83
TORSDOF 12
