REMARK  6 active torsions:
REMARK  status: ('A' for Active; 'I' for Inactive)
REMARK    1  A    between atoms: C1_1  and  C2_4 
REMARK    2  A    between atoms: C2_4  and  C3_5 
REMARK    3  A    between atoms: C3_5  and  O7_6 
REMARK    4  A    between atoms: C3_5  and  C4_7 
REMARK    5  A    between atoms: C3_5  and  C6_11 
REMARK    6  A    between atoms: C4_7  and  C5_8 
ROOT
ATOM      1  C3  CIT d   1      45.451  19.687  88.973  0.00  0.00     0.164 C 
ENDROOT
BRANCH   1   2
ATOM      2  C2  CIT d   1      46.190  20.867  88.365  0.00  0.00     0.054 C 
ATOM      3  H1  CIT d   1      46.703  20.504  87.463  0.00  0.00     0.054 H 
ATOM      4  H2  CIT d   1      45.436  21.616  88.082  0.00  0.00     0.054 H 
BRANCH   2   5
ATOM      5  C1  CIT d   1      47.217  21.562  89.218  0.00  0.00     0.176 C 
ATOM      6  O1  CIT d   1      47.772  20.829  90.068  0.00  0.00    -0.648 OA
ATOM      7  O2  CIT d   1      47.494  22.803  88.984  0.00  0.00    -0.648 OA
ENDBRANCH   2   5
ENDBRANCH   1   2
BRANCH   1   8
ATOM      8  O7  CIT d   1      44.862  19.977  90.291  0.00  0.00    -0.378 OA
ATOM      9  H3  CIT d   1      44.417  19.203  90.615  0.00  0.00     0.211 HD
ENDBRANCH   1   8
BRANCH   1  10
ATOM     10  C4  CIT d   1      44.359  19.368  87.955  0.00  0.00     0.054 C 
ATOM     11  H4  CIT d   1      44.827  19.248  86.967  0.00  0.00     0.054 H 
ATOM     12  H5  CIT d   1      43.652  20.210  87.926  0.00  0.00     0.054 H 
BRANCH  10  13
ATOM     13  C5  CIT d   1      43.578  18.087  88.283  0.00  0.00     0.176 C 
ATOM     14  O3  CIT d   1      43.781  17.492  89.392  0.00  0.00    -0.648 OA
ATOM     15  O4  CIT d   1      42.728  17.726  87.386  0.00  0.00    -0.648 OA
ENDBRANCH  10  13
ENDBRANCH   1  10
BRANCH   1  16
ATOM     16  C6  CIT d   1      46.360  18.496  89.119  0.00  0.00     0.210 C 
ATOM     17  O5  CIT d   1      46.470  18.090  90.271  0.00  0.00    -0.646 OA
ATOM     18  O6  CIT d   1      46.890  17.971  88.162  0.00  0.00    -0.646 OA
ENDBRANCH   1  16
TORSDOF 6
