REMARK  22 active torsions:
REMARK  status: ('A' for Active; 'I' for Inactive)
REMARK    1  A    between atoms: N_1  and  CA_2 
REMARK    2  A    between atoms: CA_2  and  C_3 
REMARK    3  A    between atoms: CA_2  and  CB_5 
REMARK       I    between atoms: C_3  and  N_12 
REMARK    4  A    between atoms: CB_5  and  CG_6 
REMARK    5  A    between atoms: N_12  and  CA_13 
REMARK    6  A    between atoms: CA_13  and  C_14 
REMARK    7  A    between atoms: CA_13  and  CB_16 
REMARK       I    between atoms: C_14  and  N_18 
REMARK    8  A    between atoms: CB_16  and  OG_17 
REMARK    9  A    between atoms: N_18  and  CA_19 
REMARK   10  A    between atoms: CA_19  and  C_20 
REMARK   11  A    between atoms: CA_19  and  CB_22 
REMARK       I    between atoms: C_20  and  N_23 
REMARK   12  A    between atoms: N_23  and  CA_24 
REMARK   13  A    between atoms: CA_24  and  C_25 
REMARK   14  A    between atoms: CA_24  and  CB_27 
REMARK       I    between atoms: C_25  and  N_39 
REMARK   15  A    between atoms: CB_27  and  CG_28 
REMARK   16  A    between atoms: CZ_33  and  OH_34 
REMARK   17  A    between atoms: OH_34  and  P_35 
REMARK   18  A    between atoms: CA_40  and  C_41 
REMARK       I    between atoms: C_41  and  N_46 
REMARK   19  A    between atoms: N_46  and  CA_47 
REMARK   20  A    between atoms: CA_47  and  C_48 
REMARK   21  A    between atoms: CA_47  and  CB_50 
REMARK   22  A    between atoms: CB_50  and  OG_51 
ROOT
ATOM      1  CA  PTR d   1      11.752  17.716  15.118  0.00  0.00     0.093 C 
ATOM      2  H23 PTR d   1      10.855  17.719  15.755  0.00  0.00     0.088 H 
ENDROOT
BRANCH   1   3
ATOM      3  N   PTR d   1      11.705  18.832  14.171  0.00  0.00    -0.346 N 
ATOM      4  C   ALA d   1      11.607  20.083  14.609  0.00  0.00     0.240 C 
ATOM      5  O   ALA d   1      11.408  20.380  15.791  0.00  0.00    -0.271 OA
ATOM      6  H22 PTR d   1      11.747  18.652  13.188  0.00  0.00     0.163 HD
BRANCH   4   7
ATOM      7  CA  ALA d   1      11.804  21.153  13.563  0.00  0.00     0.086 C 
ATOM      8  H18 ALA d   1      11.391  20.801  12.606  0.00  0.00     0.086 H 
BRANCH   7   9
ATOM      9  N   ALA d   1      11.096  22.380  13.953  0.00  0.00    -0.346 N 
ATOM     10  C   SER d   1       9.765  22.482  13.888  0.00  0.00     0.243 C 
ATOM     11  O   SER d   1       9.047  21.661  13.332  0.00  0.00    -0.271 OA
ATOM     12  H17 ALA d   1      11.627  23.163  14.277  0.00  0.00     0.163 HD
BRANCH  10  13
ATOM     13  CA  SER d   1       9.141  23.709  14.543  0.00  0.00     0.109 C 
ATOM     14  H13 SER d   1       9.868  24.534  14.513  0.00  0.00     0.090 H 
BRANCH  13  15
ATOM     15  N   SER d   1       7.929  24.135  13.850  0.00  0.00    -0.344 N 
ATOM     16  C   PHE d   1       7.885  25.194  13.043  0.00  0.00     0.249 C 
ATOM     17  O   PHE d   1       8.875  25.830  12.690  0.00  0.00    -0.271 OA
ATOM     18  H12 SER d   1       7.091  23.606  13.988  0.00  0.00     0.163 HD
BRANCH  16  19
ATOM     19  CA  PHE d   1       6.510  25.614  12.578  0.00  0.00     0.179 C 
ATOM     20  H4  PHE d   1       5.754  25.170  13.242  0.00  0.00     0.099 H 
BRANCH  19  21
ATOM     21  N   PHE d   1       6.436  27.091  12.674  0.00  0.00    -0.066 N 
ATOM     22  H1  PHE d   1       5.527  27.402  12.369  0.00  0.00     0.275 HD
ATOM     23  H2  PHE d   1       7.146  27.502  12.088  0.00  0.00     0.275 HD
ATOM     24  H3  PHE d   1       6.585  27.373  13.630  0.00  0.00     0.275 HD
ENDBRANCH  19  21
BRANCH  19  25
ATOM     25  CB  PHE d   1       6.234  25.144  11.148  0.00  0.00    -0.006 C 
ATOM     26  H5  PHE d   1       6.338  24.049  11.115  0.00  0.00     0.043 H 
ATOM     27  H6  PHE d   1       6.979  25.603  10.481  0.00  0.00     0.043 H 
BRANCH  25  28
ATOM     28  CG  PHE d   1       4.854  25.509  10.647  0.00  0.00    -0.056 A 
ATOM     29  CD1 PHE d   1       3.731  25.158  11.372  0.00  0.00    -0.077 A 
ATOM     30  CE1 PHE d   1       2.459  25.518  10.939  0.00  0.00    -0.082 A 
ATOM     31  H7  PHE d   1       3.843  24.594  12.291  0.00  0.00     0.084 H 
ATOM     32  CZ  PHE d   1       2.308  26.199   9.781  0.00  0.00    -0.083 A 
ATOM     33  H9  PHE d   1       1.590  25.253  11.530  0.00  0.00     0.083 H 
ATOM     34  CE2 PHE d   1       3.425  26.593   9.056  0.00  0.00    -0.082 A 
ATOM     35  H11 PHE d   1       1.315  26.438   9.418  0.00  0.00     0.083 H 
ATOM     36  CD2 PHE d   1       4.694  26.236   9.489  0.00  0.00    -0.077 A 
ATOM     37  H10 PHE d   1       3.306  27.179   8.152  0.00  0.00     0.083 H 
ATOM     38  H8  PHE d   1       5.564  26.531   8.913  0.00  0.00     0.084 H 
ENDBRANCH  25  28
ENDBRANCH  19  25
ENDBRANCH  16  19
ENDBRANCH  13  15
BRANCH  13  39
ATOM     39  CB  SER d   1       8.819  23.376  16.010  0.00  0.00     0.044 C 
ATOM     40  H14 SER d   1       9.746  23.071  16.517  0.00  0.00     0.077 H 
ATOM     41  H15 SER d   1       8.097  22.547  16.036  0.00  0.00     0.077 H 
BRANCH  39  42
ATOM     42  OG  SER d   1       8.268  24.482  16.692  0.00  0.00    -0.398 OA
ATOM     43  H16 SER d   1       8.083  24.238  17.591  0.00  0.00     0.209 HD
ENDBRANCH  39  42
ENDBRANCH  13  39
ENDBRANCH  10  13
ENDBRANCH   7   9
BRANCH   7  44
ATOM     44  CB  ALA d   1      13.286  21.398  13.393  0.00  0.00    -0.049 C 
ATOM     45  H19 ALA d   1      13.782  20.460  13.102  0.00  0.00     0.030 H 
ATOM     46  H20 ALA d   1      13.710  21.757  14.342  0.00  0.00     0.030 H 
ATOM     47  H21 ALA d   1      13.445  22.155  12.611  0.00  0.00     0.030 H 
ENDBRANCH   7  44
ENDBRANCH   4   7
ENDBRANCH   1   3
BRANCH   1  48
ATOM     48  C   PTR d   1      12.999  17.887  15.995  0.00  0.00     0.243 C 
ATOM     49  O   PTR d   1      14.104  17.878  15.448  0.00  0.00    -0.271 OA
ATOM     50  N   PRO d   1      12.828  17.972  17.332  0.00  0.00    -0.337 N 
ATOM     51  CA  PRO d   1      13.964  18.188  18.228  0.00  0.00     0.091 C 
ATOM     52  CD  PRO d   1      11.555  17.972  18.064  0.00  0.00    -0.001 C 
ATOM     53  CB  PRO d   1      13.309  18.201  19.611  0.00  0.00    -0.036 C 
ATOM     54  H30 PRO d   1      14.436  19.157  18.009  0.00  0.00     0.087 H 
ATOM     55  CG  PRO d   1      11.938  18.564  19.401  0.00  0.00    -0.048 C 
ATOM     56  H31 PRO d   1      13.803  18.939  20.260  0.00  0.00     0.036 H 
ATOM     57  H32 PRO d   1      13.373  17.205  20.073  0.00  0.00     0.036 H 
ATOM     58  H33 PRO d   1      11.831  19.659  19.380  0.00  0.00     0.035 H 
ATOM     59  H34 PRO d   1      11.305  18.149  20.199  0.00  0.00     0.035 H 
ATOM     60  H35 PRO d   1      11.165  16.950  18.180  0.00  0.00     0.064 H 
ATOM     61  H36 PRO d   1      10.805  18.595  17.555  0.00  0.00     0.064 H 
BRANCH  51  62
ATOM     62  C   PRO d   1      15.028  17.107  18.164  0.00  0.00     0.241 C 
ATOM     63  O   PRO d   1      14.728  15.985  17.782  0.00  0.00    -0.271 OA
ATOM     64  N   SER d   1      16.266  17.444  18.513  0.00  0.00    -0.343 N 
ATOM     65  H37 SER d   1      16.485  18.407  18.672  0.00  0.00     0.163 HD
BRANCH  64  66
ATOM     66  CA  SER d   1      17.317  16.431  18.669  0.00  0.00     0.116 C 
ATOM     67  H38 SER d   1      17.156  15.643  17.919  0.00  0.00     0.093 H 
BRANCH  66  68
ATOM     68  C   SER d   1      17.266  15.796  20.062  0.00  0.00     0.198 C 
ATOM     69  O   SER d   1      16.786  16.420  21.016  0.00  0.00    -0.646 OA
ATOM     70  OXT SER d   1      17.704  14.654  20.245  0.00  0.00    -0.646 OA
ENDBRANCH  66  68
BRANCH  66  71
ATOM     71  CB  SER d   1      18.689  17.059  18.434  0.00  0.00     0.045 C 
ATOM     72  H39 SER d   1      19.279  16.405  17.775  0.00  0.00     0.077 H 
ATOM     73  H40 SER d   1      19.206  17.172  19.398  0.00  0.00     0.077 H 
BRANCH  71  74
ATOM     74  OG  SER d   1      18.550  18.333  17.826  0.00  0.00    -0.398 OA
ATOM     75  H41 SER d   1      18.042  18.900  18.394  0.00  0.00     0.209 HD
ENDBRANCH  71  74
ENDBRANCH  66  71
ENDBRANCH  64  66
ENDBRANCH  51  62
ENDBRANCH   1  48
BRANCH   1  76
ATOM     76  CB  PTR d   1      11.794  16.427  14.308  0.00  0.00    -0.014 C 
ATOM     77  H24 PTR d   1      12.783  16.370  13.830  0.00  0.00     0.043 H 
ATOM     78  H25 PTR d   1      11.016  16.499  13.534  0.00  0.00     0.043 H 
BRANCH  76  79
ATOM     79  CG  PTR d   1      11.575  15.128  15.052  0.00  0.00    -0.056 A 
ATOM     80  CD1 PTR d   1      12.303  14.002  14.705  0.00  0.00    -0.074 A 
ATOM     81  CE1 PTR d   1      12.085  12.786  15.336  0.00  0.00    -0.050 A 
ATOM     82  H26 PTR d   1      13.055  14.072  13.928  0.00  0.00     0.084 H 
ATOM     83  CZ  PTR d   1      11.126  12.668  16.314  0.00  0.00     0.082 A 
ATOM     84  H28 PTR d   1      12.676  11.921  15.056  0.00  0.00     0.087 H 
ATOM     85  CE2 PTR d   1      10.385  13.785  16.669  0.00  0.00    -0.050 A 
ATOM     86  CD2 PTR d   1      10.604  14.991  16.038  0.00  0.00    -0.074 A 
ATOM     87  H29 PTR d   1       9.632  13.710  17.445  0.00  0.00     0.087 H 
ATOM     88  H27 PTR d   1      10.006  15.851  16.317  0.00  0.00     0.084 H 
BRANCH  83  89
ATOM     89  OH  PTR d   1      10.994  11.436  16.866  0.00  0.00    -0.240 OA
BRANCH  89  90
ATOM     90  P   PTR d   1      10.018  10.277  16.301  0.00  0.00     0.427 P 
ATOM     91  O1P PTR d   1      10.159  10.228  14.814  0.00  0.00    -0.617 OA
ATOM     92  O2P PTR d   1      10.580   9.022  16.963  0.00  0.00    -0.617 OA
ATOM     93  O3P PTR d   1       8.607  10.616  16.795  0.00  0.00    -0.617 OA
ENDBRANCH  89  90
ENDBRANCH  83  89
ENDBRANCH  76  79
ENDBRANCH   1  76
TORSDOF 22
