REMARK  12 active torsions:
REMARK  status: ('A' for Active; 'I' for Inactive)
REMARK    1  A    between atoms: PBA_2  and  CAL_5 
REMARK    2  A    between atoms: CAL_5  and  CAJ_6 
REMARK    3  A    between atoms: CAJ_6  and  OAS_7 
REMARK    4  A    between atoms: OAS_7  and  CAN_8 
REMARK    5  A    between atoms: CAN_8  and  CAY_9 
REMARK    6  A    between atoms: CAY_9  and  OAT_10 
REMARK    7  A    between atoms: CAY_9  and  CAO_17 
REMARK    8  A    between atoms: OAT_10  and  CAK_11 
REMARK    9  A    between atoms: CAK_11  and  CAM_12 
REMARK   10  A    between atoms: CAM_12  and  PBB_13 
REMARK   11  A    between atoms: CAO_17  and  N9_18 
REMARK   12  A    between atoms: C2_21  and  N2_22 
ROOT
ATOM      1  CAY 3QE d   1      33.075   2.055  -6.774  0.00  0.00     0.074 C 
ATOM      2  H7  3QE d   1      33.404   1.957  -5.729  0.00  0.00     0.089 H 
ENDROOT
BRANCH   1   3
ATOM      3  CAN 3QE d   1      33.123   3.576  -7.262  0.00  0.00     0.045 C 
ATOM      4  H5  3QE d   1      33.006   4.243  -6.396  0.00  0.00     0.078 H 
ATOM      5  H6  3QE d   1      34.089   3.775  -7.750  0.00  0.00     0.078 H 
BRANCH   3   6
ATOM      6  OAS 3QE d   1      32.074   3.807  -8.181  0.00  0.00    -0.388 OA
BRANCH   6   7
ATOM      7  CAJ 3QE d   1      31.950   5.223  -8.569  0.00  0.00     0.031 C 
ATOM      8  H3  3QE d   1      31.164   5.335  -9.331  0.00  0.00     0.075 H 
ATOM      9  H4  3QE d   1      31.697   5.832  -7.689  0.00  0.00     0.075 H 
BRANCH   7  10
ATOM     10  CAL 3QE d   1      33.288   5.666  -9.137  0.00  0.00     0.059 C 
ATOM     11  H1  3QE d   1      33.988   4.819  -9.087  0.00  0.00     0.057 H 
ATOM     12  H2  3QE d   1      33.143   5.961 -10.187  0.00  0.00     0.057 H 
BRANCH  10  13
ATOM     13  PBA 3QE d   1      34.062   7.171  -8.169  0.00  0.00     0.261 P 
ATOM     14  OAE 3QE d   1      35.075   7.791  -9.123  0.00  0.00    -0.640 OA
ATOM     15  OAF 3QE d   1      32.898   8.111  -7.890  0.00  0.00    -0.640 OA
ATOM     16  OAC 3QE d   1      34.685   6.575  -6.917  0.00  0.00    -0.640 OA
ENDBRANCH  10  13
ENDBRANCH   7  10
ENDBRANCH   6   7
ENDBRANCH   3   6
ENDBRANCH   1   3
BRANCH   1  17
ATOM     17  OAT 3QE d   1      33.893   1.329  -7.647  0.00  0.00    -0.381 OA
BRANCH  17  18
ATOM     18  CAK 3QE d   1      33.316   0.019  -8.000  0.00  0.00     0.032 C 
ATOM     19  H8  3QE d   1      33.027   0.010  -9.061  0.00  0.00     0.075 H 
ATOM     20  H9  3QE d   1      32.432  -0.181  -7.377  0.00  0.00     0.075 H 
BRANCH  18  21
ATOM     21  CAM 3QE d   1      34.372  -1.029  -7.746  0.00  0.00     0.059 C 
ATOM     22  H10 3QE d   1      34.382  -1.266  -6.672  0.00  0.00     0.057 H 
ATOM     23  H11 3QE d   1      35.351  -0.622  -8.041  0.00  0.00     0.057 H 
BRANCH  21  24
ATOM     24  PBB 3QE d   1      34.053  -2.663  -8.741  0.00  0.00     0.261 P 
ATOM     25  OAG 3QE d   1      32.708  -3.175  -8.270  0.00  0.00    -0.640 OA
ATOM     26  OAH 3QE d   1      35.226  -3.570  -8.385  0.00  0.00    -0.640 OA
ATOM     27  OAD 3QE d   1      34.073  -2.250 -10.207  0.00  0.00    -0.640 OA
ENDBRANCH  21  24
ENDBRANCH  18  21
ENDBRANCH  17  18
ENDBRANCH   1  17
BRANCH   1  28
ATOM     28  CAO 3QE d   1      31.553   1.489  -6.978  0.00  0.00     0.028 C 
ATOM     29  H12 3QE d   1      31.595   0.623  -7.655  0.00  0.00     0.069 H 
ATOM     30  H13 3QE d   1      30.948   2.285  -7.437  0.00  0.00     0.069 H 
BRANCH  28  31
ATOM     31  N9  3QE d   1      30.860   1.047  -5.670  0.00  0.00    -0.321 N 
ATOM     32  C4  3QE d   1      30.423   1.812  -4.597  0.00  0.00     0.183 A 
ATOM     33  N3  3QE d   1      30.455   3.167  -4.366  0.00  0.00    -0.044 NA
ATOM     34  C5  3QE d   1      29.859   0.857  -3.656  0.00  0.00     0.159 A 
ATOM     35  C2  3QE d   1      29.906   3.524  -3.165  0.00  0.00     0.702 A 
ATOM     36  N1  3QE d   1      29.340   2.722  -2.186  0.00  0.00    -0.164 N 
ATOM     37  C6  3QE d   1      29.332   1.394  -2.460  0.00  0.00     0.226 A 
ATOM     38  H16 3QE d   1      28.964   3.096  -1.338  0.00  0.00     0.186 HD
ATOM     39  O6  3QE d   1      28.788   0.546  -1.535  0.00  0.00    -0.169 OA
ATOM     40  N7  3QE d   1      29.968  -0.448  -4.167  0.00  0.00    -0.235 NA
ATOM     41  C8  3QE d   1      30.583  -0.305  -5.397  0.00  0.00     0.068 A 
ATOM     42  H17 3QE d   1      30.822  -1.130  -6.066  0.00  0.00     0.143 H 
BRANCH  35  43
ATOM     43  N2  3QE d   1      29.922   4.912  -2.895  0.00  0.00    -0.233 N 
ATOM     44  H14 3QE d   1      30.328   5.565  -3.580  0.00  0.00     0.174 HD
ATOM     45  H15 3QE d   1      29.528   5.270  -2.013  0.00  0.00     0.174 HD
ENDBRANCH  35  43
ENDBRANCH  28  31
ENDBRANCH   1  28
TORSDOF 12
