REMARK  4 active torsions:
REMARK  status: ('A' for Active; 'I' for Inactive)
REMARK    1  A    between atoms: C1_1  and  C10_10 
REMARK    2  A    between atoms: C6_6  and  N13_13 
REMARK       I    between atoms: C10_10  and  N11_11 
REMARK    3  A    between atoms: N13_13  and  C14_14 
REMARK    4  A    between atoms: C18_18  and  C19_19 
ROOT
ATOM      1  N13 3QX d   1       1.248 -14.837  -4.587  0.00  0.00    -0.379 N 
ATOM      2  H   3QX d   1       1.960 -14.129  -4.356  0.00  0.00     0.160 HD
ENDROOT
BRANCH   1   3
ATOM      3  C6  3QX d   1      -0.031 -14.590  -4.094  0.00  0.00     0.075 A 
ATOM      4  C1  3QX d   1      -0.475 -13.263  -3.887  0.00  0.00     0.079 A 
ATOM      5  C2  3QX d   1      -1.777 -13.058  -3.405  0.00  0.00     0.040 A 
ATOM      6  N3  3QX d   1      -2.690 -14.025  -3.157  0.00  0.00    -0.179 NA
ATOM      7  H   3QX d   1      -2.079 -12.029  -3.214  0.00  0.00     0.119 H 
ATOM      8  N4  3QX d   1      -2.221 -15.321  -3.371  0.00  0.00    -0.243 N 
ATOM      9  C5  3QX d   1      -0.946 -15.644  -3.788  0.00  0.00     0.085 A 
ATOM     10  C7  3QX d   1      -2.958 -16.471  -3.126  0.00  0.00     0.004 A 
ATOM     11  C9  3QX d   1      -0.870 -17.027  -3.782  0.00  0.00    -0.051 A 
ATOM     12  C8  3QX d   1      -2.141 -17.534  -3.364  0.00  0.00    -0.064 A 
ATOM     13  H   3QX d   1       0.002 -17.623  -4.048  0.00  0.00     0.087 H 
ATOM     14  H   3QX d   1      -2.408 -18.584  -3.255  0.00  0.00     0.085 H 
ATOM     15  H   3QX d   1      -3.997 -16.515  -2.803  0.00  0.00     0.114 H 
BRANCH   4  16
ATOM     16  C10 3QX d   1       0.419 -12.093  -4.191  0.00  0.00     0.253 C 
ATOM     17  N11 3QX d   1      -0.024 -10.860  -3.880  0.00  0.00    -0.366 N 
ATOM     18  H   3QX d   1       0.547 -10.061  -4.069  0.00  0.00     0.159 HD
ATOM     19  H   3QX d   1      -0.924 -10.743  -3.459  0.00  0.00     0.159 HD
ATOM     20  O12 3QX d   1       1.531 -12.281  -4.690  0.00  0.00    -0.268 OA
ENDBRANCH   4  16
ENDBRANCH   1   3
BRANCH   1  21
ATOM     21  C14 3QX d   1       1.715 -15.964  -5.387  0.00  0.00     0.044 C 
ATOM     22  C15 3QX d   1       2.895 -16.634  -4.687  0.00  0.00    -0.043 C 
ATOM     23  C16 3QX d   1       3.640 -17.386  -5.768  0.00  0.00    -0.060 C 
ATOM     24  H   3QX d   1       2.537 -17.329  -3.913  0.00  0.00     0.036 H 
ATOM     25  H   3QX d   1       3.548 -15.877  -4.227  0.00  0.00     0.036 H 
ATOM     26  C17 3QX d   1       3.384 -16.631  -7.070  0.00  0.00    -0.030 C 
ATOM     27  H   3QX d   1       3.262 -18.416  -5.845  0.00  0.00     0.033 H 
ATOM     28  H   3QX d   1       4.717 -17.406  -5.545  0.00  0.00     0.033 H 
ATOM     29  C18 3QX d   1       2.397 -15.521  -6.730  0.00  0.00     0.120 C 
ATOM     30  H   3QX d   1       2.954 -17.306  -7.824  0.00  0.00     0.037 H 
ATOM     31  H   3QX d   1       4.322 -16.203  -7.454  0.00  0.00     0.037 H 
ATOM     32  F20 3QX d   1       3.116 -14.337  -6.486  0.00  0.00    -0.241 F 
ATOM     33  H   3QX d   1       0.885 -16.663  -5.566  0.00  0.00     0.077 H 
BRANCH  29  34
ATOM     34  C19 3QX d   1       1.380 -15.275  -7.851  0.00  0.00    -0.041 C 
ATOM     35  H   3QX d   1       0.695 -14.467  -7.554  0.00  0.00     0.032 H 
ATOM     36  H   3QX d   1       0.805 -16.195  -8.033  0.00  0.00     0.032 H 
ATOM     37  H   3QX d   1       1.910 -14.986  -8.770  0.00  0.00     0.032 H 
ENDBRANCH  29  34
ENDBRANCH   1  21
TORSDOF 4
