REMARK WARNING: 32 MAX_TORS EXCEEDED!!!
REMARK  73 active torsions:
REMARK  status: ('A' for Active; 'I' for Inactive)
REMARK    1  A    between atoms: N_1  and  CA_2 
REMARK    2  A    between atoms: CA_2  and  C_3 
REMARK    3  A    between atoms: CA_2  and  CB_5 
REMARK       I    between atoms: C_3  and  N_12 
REMARK    4  A    between atoms: CB_5  and  CG_6 
REMARK    5  A    between atoms: CG_6  and  CD_7 
REMARK    6  A    between atoms: CD_7  and  NE_8 
REMARK       I    between atoms: NE_8  and  CZ_9 
REMARK       I    between atoms: CZ_9  and  NH1_10 
REMARK    7  A    between atoms: N_12  and  CA_13 
REMARK    8  A    between atoms: CA_13  and  C_14 
REMARK    9  A    between atoms: CA_13  and  CB_16 
REMARK       I    between atoms: C_14  and  N_20 
REMARK   10  A    between atoms: CB_16  and  CG_17 
REMARK   11  A    between atoms: N_20  and  CA_21 
REMARK   12  A    between atoms: CA_21  and  C_22 
REMARK   13  A    between atoms: CA_21  and  CB_24 
REMARK       I    between atoms: C_22  and  N_29 
REMARK   14  A    between atoms: CB_24  and  CG_25 
REMARK   15  A    between atoms: CG_25  and  CD_26 
REMARK   16  A    between atoms: CD_26  and  CE_27 
REMARK   17  A    between atoms: CE_27  and  NZ_28 
REMARK   18  A    between atoms: N_29  and  CA_30 
REMARK   19  A    between atoms: CA_30  and  C_31 
REMARK   20  A    between atoms: CA_30  and  CB_33 
REMARK       I    between atoms: C_31  and  N_38 
REMARK   21  A    between atoms: CB_33  and  CG_34 
REMARK   22  A    between atoms: CG_34  and  CD_35 
REMARK   23  A    between atoms: CD_35  and  CE_36 
REMARK   24  A    between atoms: CE_36  and  NZ_37 
REMARK   25  A    between atoms: N_38  and  CA_39 
REMARK   26  A    between atoms: CA_39  and  C_40 
REMARK   27  A    between atoms: CA_39  and  CB_42 
REMARK       I    between atoms: C_40  and  N_47 
REMARK   28  A    between atoms: CB_42  and  CG_43 
REMARK   29  A    between atoms: CG_43  and  CD_44 
REMARK       I    between atoms: CD_44  and  NE2_46 
REMARK   30  A    between atoms: N_47  and  CA_48 
REMARK   31  A    between atoms: CA_48  and  C_49 
REMARK   32  A    between atoms: CA_48  and  CB_51 
REMARK       I    between atoms: C_49  and  N_56 
REMARK   33  A    between atoms: CB_51  and  CG_52 
REMARK   34  A    between atoms: CG_52  and  CD_53 
REMARK   35  A    between atoms: CD_53  and  CE_54 
REMARK   36  A    between atoms: CE_54  and  NZ_55 
REMARK   37  A    between atoms: N_56  and  CA_57 
REMARK   38  A    between atoms: CA_57  and  C_58 
REMARK   39  A    between atoms: CA_57  and  CB_60 
REMARK       I    between atoms: C_58  and  N_63 
REMARK   40  A    between atoms: CB_60  and  CG1_61 
REMARK   41  A    between atoms: CB_60  and  CG2_62 
REMARK   42  A    between atoms: N_63  and  CA_64 
REMARK   43  A    between atoms: CA_64  and  C_65 
REMARK   44  A    between atoms: CA_64  and  CB_67 
REMARK       I    between atoms: C_65  and  N_73 
REMARK   45  A    between atoms: CB_67  and  CG_68 
REMARK   46  A    between atoms: N_73  and  CA_74 
REMARK   47  A    between atoms: CA_74  and  C_75 
REMARK   48  A    between atoms: CA_74  and  CB_77 
REMARK       I    between atoms: C_75  and  N_78 
REMARK   49  A    between atoms: N_78  and  CA_79 
REMARK   50  A    between atoms: CA_79  and  C_80 
REMARK   51  A    between atoms: CA_79  and  CB_82 
REMARK       I    between atoms: C_80  and  N_86 
REMARK   52  A    between atoms: CB_82  and  CG_83 
REMARK   53  A    between atoms: CG_83  and  CD1_84 
REMARK   54  A    between atoms: CG_83  and  CD2_85 
REMARK   55  A    between atoms: N_86  and  CA_87 
REMARK   56  A    between atoms: CA_87  and  C_88 
REMARK   57  A    between atoms: CA_87  and  CB_90 
REMARK       I    between atoms: C_88  and  N_97 
REMARK   58  A    between atoms: CB_90  and  CG_91 
REMARK   59  A    between atoms: N_97  and  CA_98 
REMARK   60  A    between atoms: CA_98  and  C_99 
REMARK   61  A    between atoms: CA_98  and  CB_101 
REMARK       I    between atoms: C_99  and  N_109 
REMARK   62  A    between atoms: CB_101  and  CG_102 
REMARK   63  A    between atoms: CZ_107  and  OH_108 
REMARK   64  A    between atoms: N_109  and  CA_110 
REMARK   65  A    between atoms: CA_110  and  C_111 
REMARK   66  A    between atoms: CA_110  and  CB_113 
REMARK       I    between atoms: C_111  and  N_118 
REMARK   67  A    between atoms: CB_113  and  CG_114 
REMARK   68  A    between atoms: CG_114  and  CD_115 
REMARK   69  A    between atoms: CD_115  and  CE_116 
REMARK   70  A    between atoms: CE_116  and  NZ_117 
REMARK   71  A    between atoms: N_118  and  CA_119 
REMARK   72  A    between atoms: CA_119  and  C_120 
REMARK   73  A    between atoms: CA_119  and  CB_122 
ROOT
ATOM      1  CA  VAL d   1      23.684-111.043 100.759  0.00  0.00     0.092 C 
ATOM      2  H68 VAL d   1      24.682-111.357 101.098  0.00  0.00     0.088 H 
ENDROOT
BRANCH   1   3
ATOM      3  N   VAL d   1      22.729-111.681 101.660  0.00  0.00    -0.346 N 
ATOM      4  C   LYS d   1      22.972-111.675 102.973  0.00  0.00     0.241 C 
ATOM      5  O   LYS d   1      23.969-111.141 103.446  0.00  0.00    -0.271 OA
ATOM      6  H67 VAL d   1      21.904-112.117 101.299  0.00  0.00     0.163 HD
BRANCH   4   7
ATOM      7  CA  LYS d   1      21.975-112.367 103.905  0.00  0.00     0.089 C 
ATOM      8  H55 LYS d   1      22.149-111.969 104.915  0.00  0.00     0.087 H 
BRANCH   7   9
ATOM      9  N   LYS d   1      20.569-112.112 103.584  0.00  0.00    -0.346 N 
ATOM     10  C   GLN d   1      20.054-110.882 103.553  0.00  0.00     0.241 C 
ATOM     11  O   GLN d   1      20.726-109.872 103.757  0.00  0.00    -0.271 OA
ATOM     12  H54 LYS d   1      19.973-112.889 103.380  0.00  0.00     0.163 HD
BRANCH  10  13
ATOM     13  CA  GLN d   1      18.561-110.764 103.189  0.00  0.00     0.090 C 
ATOM     14  H47 GLN d   1      18.352-109.709 102.959  0.00  0.00     0.087 H 
BRANCH  13  15
ATOM     15  N   GLN d   1      18.257-111.557 102.003  0.00  0.00    -0.346 N 
ATOM     16  C   LYS d   1      18.965-111.429 100.883  0.00  0.00     0.241 C 
ATOM     17  O   LYS d   1      19.850-110.574 100.730  0.00  0.00    -0.271 OA
ATOM     18  H46 GLN d   1      17.501-112.211 102.032  0.00  0.00     0.163 HD
BRANCH  16  19
ATOM     19  CA  LYS d   1      18.626-112.408  99.768  0.00  0.00     0.089 C 
ATOM     20  H34 LYS d   1      19.481-112.468  99.078  0.00  0.00     0.087 H 
BRANCH  19  21
ATOM     21  N   LYS d   1      18.389-113.723 100.320  0.00  0.00    -0.346 N 
ATOM     22  C   LYS d   1      19.393-114.450 100.802  0.00  0.00     0.241 C 
ATOM     23  O   LYS d   1      20.567-114.075 100.746  0.00  0.00    -0.271 OA
ATOM     24  H33 LYS d   1      17.459-114.090 100.340  0.00  0.00     0.163 HD
BRANCH  22  25
ATOM     25  CA  LYS d   1      19.031-115.799 101.453  0.00  0.00     0.089 C 
ATOM     26  H21 LYS d   1      19.826-116.021 102.181  0.00  0.00     0.087 H 
BRANCH  25  27
ATOM     27  N   LYS d   1      17.770-115.765 102.211  0.00  0.00    -0.346 N 
ATOM     28  C   ASP d   1      17.668-114.961 103.263  0.00  0.00     0.241 C 
ATOM     29  O   ASP d   1      18.609-114.277 103.642  0.00  0.00    -0.271 OA
ATOM     30  H20 LYS d   1      16.999-116.340 101.937  0.00  0.00     0.163 HD
BRANCH  28  31
ATOM     31  CA  ASP d   1      16.334-114.884 104.017  0.00  0.00     0.098 C 
ATOM     32  H17 ASP d   1      16.362-113.932 104.568  0.00  0.00     0.088 H 
BRANCH  31  33
ATOM     33  N   ASP d   1      15.139-114.819 103.191  0.00  0.00    -0.345 N 
ATOM     34  C   ARG d   1      14.819-113.693 102.568  0.00  0.00     0.249 C 
ATOM     35  O   ARG d   1      15.623-112.788 102.379  0.00  0.00    -0.271 OA
ATOM     36  H16 ASP d   1      14.557-115.626 103.093  0.00  0.00     0.163 HD
BRANCH  34  37
ATOM     37  CA  ARG d   1      13.393-113.579 102.061  0.00  0.00     0.176 C 
ATOM     38  H4  ARG d   1      12.720-113.537 102.930  0.00  0.00     0.099 H 
BRANCH  37  39
ATOM     39  N   ARG d   1      13.213-112.353 101.291  0.00  0.00    -0.067 N 
ATOM     40  H1  ARG d   1      12.261-112.298 100.965  0.00  0.00     0.275 HD
ATOM     41  H2  ARG d   1      13.839-112.357 100.501  0.00  0.00     0.275 HD
ATOM     42  H3  ARG d   1      13.415-111.557 101.875  0.00  0.00     0.275 HD
ENDBRANCH  37  39
BRANCH  37  43
ATOM     43  CB  ARG d   1      13.032-114.817 101.237  0.00  0.00    -0.029 C 
ATOM     44  H5  ARG d   1      13.162-115.705 101.873  0.00  0.00     0.036 H 
ATOM     45  H6  ARG d   1      13.721-114.875 100.382  0.00  0.00     0.036 H 
BRANCH  43  46
ATOM     46  CG  ARG d   1      11.611-114.818 100.704  0.00  0.00    -0.047 C 
ATOM     47  H7  ARG d   1      11.155-113.833 100.880  0.00  0.00     0.035 H 
ATOM     48  H8  ARG d   1      11.027-115.591 101.225  0.00  0.00     0.035 H 
BRANCH  46  49
ATOM     49  CD  ARG d   1      11.618-115.110  99.219  0.00  0.00     0.009 C 
ATOM     50  H9  ARG d   1      10.688-114.727  98.773  0.00  0.00     0.064 H 
ATOM     51  H10 ARG d   1      11.676-116.198  99.067  0.00  0.00     0.064 H 
BRANCH  49  52
ATOM     52  NE  ARG d   1      12.761-114.474  98.562  0.00  0.00    -0.227 N 
ATOM     53  CZ  ARG d   1      12.792-113.205  98.159  0.00  0.00     0.665 C 
ATOM     54  NH1 ARG d   1      11.736-112.422  98.342  0.00  0.00    -0.235 N 
ATOM     55  NH2 ARG d   1      13.880-112.718  97.573  0.00  0.00    -0.235 N 
ATOM     56  H12 ARG d   1      11.762-111.441  98.030  0.00  0.00     0.174 HD
ATOM     57  H13 ARG d   1      10.890-112.796  98.796  0.00  0.00     0.174 HD
ATOM     58  H14 ARG d   1      14.702-113.322  97.429  0.00  0.00     0.174 HD
ATOM     59  H15 ARG d   1      13.902-111.736  97.263  0.00  0.00     0.174 HD
ATOM     60  H11 ARG d   1      13.601-115.048  98.400  0.00  0.00     0.177 HD
ENDBRANCH  49  52
ENDBRANCH  46  49
ENDBRANCH  43  46
ENDBRANCH  37  43
ENDBRANCH  34  37
ENDBRANCH  31  33
BRANCH  31  61
ATOM     61  CB  ASP d   1      16.225-115.987 105.067  0.00  0.00     0.043 C 
ATOM     62  H18 ASP d   1      16.762-116.875 104.704  0.00  0.00     0.052 H 
ATOM     63  H19 ASP d   1      15.163-116.234 105.211  0.00  0.00     0.052 H 
BRANCH  61  64
ATOM     64  CG  ASP d   1      16.813-115.573 106.398  0.00  0.00     0.175 C 
ATOM     65  OD1 ASP d   1      16.649-114.394 106.785  0.00  0.00    -0.648 OA
ATOM     66  OD2 ASP d   1      17.446-116.427 107.054  0.00  0.00    -0.648 OA
ENDBRANCH  61  64
ENDBRANCH  31  61
ENDBRANCH  28  31
ENDBRANCH  25  27
BRANCH  25  67
ATOM     67  CB  LYS d   1      19.046-116.931 100.416  0.00  0.00    -0.038 C 
ATOM     68  H22 LYS d   1      19.734-116.649  99.606  0.00  0.00     0.036 H 
ATOM     69  H23 LYS d   1      18.029-117.043 100.011  0.00  0.00     0.036 H 
BRANCH  67  70
ATOM     70  CG  LYS d   1      19.491-118.278 100.977  0.00  0.00    -0.061 C 
ATOM     71  H24 LYS d   1      18.725-118.645 101.676  0.00  0.00     0.033 H 
ATOM     72  H25 LYS d   1      20.443-118.146 101.512  0.00  0.00     0.033 H 
BRANCH  70  73
ATOM     73  CD  LYS d   1      19.683-119.299  99.878  0.00  0.00    -0.043 C 
ATOM     74  H26 LYS d   1      20.125-120.209 100.310  0.00  0.00     0.035 H 
ATOM     75  H27 LYS d   1      20.364-118.884  99.121  0.00  0.00     0.035 H 
BRANCH  73  76
ATOM     76  CE  LYS d   1      18.359-119.661  99.208  0.00  0.00     0.080 C 
ATOM     77  H28 LYS d   1      18.004-118.790  98.637  0.00  0.00     0.075 H 
ATOM     78  H29 LYS d   1      17.626-119.911  99.989  0.00  0.00     0.075 H 
BRANCH  76  79
ATOM     79  NZ  LYS d   1      18.482-120.819  98.283  0.00  0.00    -0.079 N 
ATOM     80  H30 LYS d   1      17.584-121.015  97.869  0.00  0.00     0.274 HD
ATOM     81  H31 LYS d   1      18.799-121.627  98.796  0.00  0.00     0.274 HD
ATOM     82  H32 LYS d   1      19.146-120.600  97.557  0.00  0.00     0.274 HD
ENDBRANCH  76  79
ENDBRANCH  73  76
ENDBRANCH  70  73
ENDBRANCH  67  70
ENDBRANCH  25  67
ENDBRANCH  22  25
ENDBRANCH  19  21
BRANCH  19  83
ATOM     83  CB  LYS d   1      17.414-111.910  98.994  0.00  0.00    -0.038 C 
ATOM     84  H35 LYS d   1      16.533-111.959  99.651  0.00  0.00     0.036 H 
ATOM     85  H36 LYS d   1      17.259-112.566  98.124  0.00  0.00     0.036 H 
BRANCH  83  86
ATOM     86  CG  LYS d   1      17.572-110.488  98.504  0.00  0.00    -0.061 C 
ATOM     87  H37 LYS d   1      18.508-110.074  98.906  0.00  0.00     0.033 H 
ATOM     88  H38 LYS d   1      16.722-109.890  98.864  0.00  0.00     0.033 H 
BRANCH  86  89
ATOM     89  CD  LYS d   1      17.614-110.422  97.001  0.00  0.00    -0.043 C 
ATOM     90  H39 LYS d   1      17.639-109.366  96.693  0.00  0.00     0.035 H 
ATOM     91  H40 LYS d   1      16.708-110.900  96.600  0.00  0.00     0.035 H 
BRANCH  89  92
ATOM     92  CE  LYS d   1      18.825-111.123  96.434  0.00  0.00     0.080 C 
ATOM     93  H41 LYS d   1      18.944-112.109  96.907  0.00  0.00     0.075 H 
ATOM     94  H42 LYS d   1      19.727-110.519  96.613  0.00  0.00     0.075 H 
BRANCH  92  95
ATOM     95  NZ  LYS d   1      18.604-111.284  94.977  0.00  0.00    -0.079 N 
ATOM     96  H43 LYS d   1      19.398-111.751  94.566  0.00  0.00     0.274 HD
ATOM     97  H44 LYS d   1      18.491-110.377  94.552  0.00  0.00     0.274 HD
ATOM     98  H45 LYS d   1      17.774-111.834  94.822  0.00  0.00     0.274 HD
ENDBRANCH  92  95
ENDBRANCH  89  92
ENDBRANCH  86  89
ENDBRANCH  83  86
ENDBRANCH  19  83
ENDBRANCH  16  19
ENDBRANCH  13  15
BRANCH  13  99
ATOM     99  CB  GLN d   1      17.660-111.180 104.356  0.00  0.00    -0.030 C 
ATOM    100  H48 GLN d   1      17.607-112.278 104.375  0.00  0.00     0.037 H 
ATOM    101  H49 GLN d   1      16.656-110.767 104.179  0.00  0.00     0.037 H 
BRANCH  99 102
ATOM    102  CG  GLN d   1      18.135-110.705 105.716  0.00  0.00     0.011 C 
ATOM    103  H50 GLN d   1      19.135-111.124 105.904  0.00  0.00     0.047 H 
ATOM    104  H51 GLN d   1      17.434-111.072 106.480  0.00  0.00     0.047 H 
BRANCH 102 105
ATOM    105  CD  GLN d   1      18.216-109.193 105.819  0.00  0.00     0.215 C 
ATOM    106  OE1 GLN d   1      17.333-108.475 105.337  0.00  0.00    -0.274 OA
ATOM    107  NE2 GLN d   1      19.280-108.698 106.448  0.00  0.00    -0.370 N 
ATOM    108  H52 GLN d   1      19.387-107.709 106.546  0.00  0.00     0.159 HD
ATOM    109  H53 GLN d   1      19.972-109.316 106.822  0.00  0.00     0.159 HD
ENDBRANCH 102 105
ENDBRANCH  99 102
ENDBRANCH  13  99
ENDBRANCH  10  13
ENDBRANCH   7   9
BRANCH   7 110
ATOM    110  CB  LYS d   1      22.254-113.872 103.941  0.00  0.00    -0.038 C 
ATOM    111  H56 LYS d   1      23.332-114.023 104.097  0.00  0.00     0.036 H 
ATOM    112  H57 LYS d   1      21.959-114.305 102.974  0.00  0.00     0.036 H 
BRANCH 110 113
ATOM    113  CG  LYS d   1      21.507-114.594 105.035  0.00  0.00    -0.061 C 
ATOM    114  H58 LYS d   1      20.433-114.381 104.935  0.00  0.00     0.033 H 
ATOM    115  H59 LYS d   1      21.863-114.231 106.010  0.00  0.00     0.033 H 
BRANCH 113 116
ATOM    116  CD  LYS d   1      21.721-116.089 104.959  0.00  0.00    -0.043 C 
ATOM    117  H60 LYS d   1      22.800-116.301 104.994  0.00  0.00     0.035 H 
ATOM    118  H61 LYS d   1      21.305-116.465 104.013  0.00  0.00     0.035 H 
BRANCH 116 119
ATOM    119  CE  LYS d   1      21.037-116.795 106.119  0.00  0.00     0.080 C 
ATOM    120  H62 LYS d   1      19.949-116.654 106.034  0.00  0.00     0.075 H 
ATOM    121  H63 LYS d   1      21.390-116.357 107.064  0.00  0.00     0.075 H 
BRANCH 119 122
ATOM    122  NZ  LYS d   1      21.340-118.251 106.115  0.00  0.00    -0.079 N 
ATOM    123  H64 LYS d   1      20.875-118.693 106.892  0.00  0.00     0.274 HD
ATOM    124  H65 LYS d   1      22.335-118.387 106.197  0.00  0.00     0.274 HD
ATOM    125  H66 LYS d   1      21.015-118.659 105.253  0.00  0.00     0.274 HD
ENDBRANCH 119 122
ENDBRANCH 116 119
ENDBRANCH 113 116
ENDBRANCH 110 113
ENDBRANCH   7 110
ENDBRANCH   4   7
ENDBRANCH   1   3
BRANCH   1 126
ATOM    126  C   VAL d   1      23.639-109.528 100.889  0.00  0.00     0.241 C 
ATOM    127  O   VAL d   1      24.669-108.864 100.793  0.00  0.00    -0.271 OA
ATOM    128  N   HIS d   1      22.449-108.992 101.160  0.00  0.00    -0.346 N 
ATOM    129  H76 HIS d   1      21.640-109.579 101.160  0.00  0.00     0.163 HD
BRANCH 128 130
ATOM    130  CA  HIS d   1      22.295-107.572 101.456  0.00  0.00     0.094 C 
ATOM    131  H77 HIS d   1      22.627-106.997 100.579  0.00  0.00     0.088 H 
BRANCH 130 132
ATOM    132  C   HIS d   1      23.135-107.162 102.656  0.00  0.00     0.241 C 
ATOM    133  O   HIS d   1      23.787-106.119 102.640  0.00  0.00    -0.271 OA
ATOM    134  N   ALA d   1      23.115-107.994 103.691  0.00  0.00    -0.346 N 
ATOM    135  H83 ALA d   1      22.592-108.843 103.618  0.00  0.00     0.163 HD
BRANCH 134 136
ATOM    136  CA  ALA d   1      23.831-107.710 104.931  0.00  0.00     0.086 C 
ATOM    137  H84 ALA d   1      23.580-106.691 105.260  0.00  0.00     0.086 H 
BRANCH 136 138
ATOM    138  C   ALA d   1      25.335-107.792 104.694  0.00  0.00     0.240 C 
ATOM    139  O   ALA d   1      26.125-107.171 105.408  0.00  0.00    -0.271 OA
ATOM    140  N   LEU d   1      25.717-108.560 103.677  0.00  0.00    -0.346 N 
ATOM    141  H88 LEU d   1      25.018-109.027 103.135  0.00  0.00     0.163 HD
BRANCH 140 142
ATOM    142  CA  LEU d   1      27.107-108.741 103.330  0.00  0.00     0.089 C 
ATOM    143  H89 LEU d   1      27.711-108.776 104.249  0.00  0.00     0.087 H 
BRANCH 142 144
ATOM    144  C   LEU d   1      27.588-107.607 102.446  0.00  0.00     0.241 C 
ATOM    145  O   LEU d   1      28.646-107.035 102.669  0.00  0.00    -0.271 OA
ATOM    146  N   PHE d   1      26.791-107.271 101.445  0.00  0.00    -0.346 N 
ATOM    147  H99 PHE d   1      25.833-107.558 101.461  0.00  0.00     0.163 HD
BRANCH 146 148
ATOM    148  CA  PHE d   1      27.286-106.492 100.324  0.00  0.00     0.093 C 
ATOM    149 0H10 PHE d   1      28.373-106.394 100.465  0.00  0.00     0.088 H 
BRANCH 148 150
ATOM    150  C   PHE d   1      26.737-105.075 100.182  0.00  0.00     0.241 C 
ATOM    151  O   PHE d   1      27.329-104.269  99.469  0.00  0.00    -0.271 OA
ATOM    152  N   TYR d   1      25.620-104.752 100.830  0.00  0.00    -0.346 N 
ATOM    153 8H10 TYR d   1      25.227-105.372 101.509  0.00  0.00     0.163 HD
BRANCH 152 154
ATOM    154  CA  TYR d   1      24.978-103.471 100.529  0.00  0.00     0.093 C 
ATOM    155 9H10 TYR d   1      24.951-103.412  99.431  0.00  0.00     0.088 H 
BRANCH 154 156
ATOM    156  C   TYR d   1      25.718-102.217 100.997  0.00  0.00     0.241 C 
ATOM    157  O   TYR d   1      26.087-102.090 102.163  0.00  0.00    -0.271 OA
ATOM    158  N   LYS d   1      25.900-101.292 100.055  0.00  0.00    -0.346 N 
ATOM    159 7H11 LYS d   1      25.702-101.544  99.108  0.00  0.00     0.163 HD
BRANCH 158 160
ATOM    160  CA  LYS d   1      26.371 -99.932 100.316  0.00  0.00     0.089 C 
ATOM    161 8H11 LYS d   1      26.210 -99.683 101.375  0.00  0.00     0.087 H 
BRANCH 160 162
ATOM    162  C   LYS d   1      25.583 -98.960  99.430  0.00  0.00     0.241 C 
ATOM    163  O   LYS d   1      25.317 -99.254  98.263  0.00  0.00    -0.271 OA
ATOM    164  N   ALA d   1      25.223 -97.800  99.967  0.00  0.00    -0.345 N 
ATOM    165 0H13 ALA d   1      25.541 -97.562 100.885  0.00  0.00     0.163 HD
BRANCH 164 166
ATOM    166  CA  ALA d   1      24.366 -96.862  99.234  0.00  0.00     0.093 C 
ATOM    167 1H13 ALA d   1      23.454 -97.412  98.959  0.00  0.00     0.089 H 
BRANCH 166 168
ATOM    168  C   ALA d   1      24.983 -96.344  97.928  0.00  0.00     0.196 C 
ATOM    169  O   ALA d   1      26.087 -95.798  97.916  0.00  0.00    -0.646 OA
ATOM    170  OXT ALA d   1      24.392 -96.459  96.853  0.00  0.00    -0.646 OA
ENDBRANCH 166 168
BRANCH 166 171
ATOM    171  CB  ALA d   1      23.948 -95.702 100.131  0.00  0.00    -0.048 C 
ATOM    172 2H13 ALA d   1      23.307 -95.012  99.563  0.00  0.00     0.030 H 
ATOM    173 3H13 ALA d   1      24.844 -95.167 100.480  0.00  0.00     0.030 H 
ATOM    174 4H13 ALA d   1      23.392 -96.090 100.997  0.00  0.00     0.030 H 
ENDBRANCH 166 171
ENDBRANCH 164 166
ENDBRANCH 160 162
BRANCH 160 175
ATOM    175  CB  LYS d   1      27.854 -99.821  99.989  0.00  0.00    -0.038 C 
ATOM    176 9H11 LYS d   1      28.186 -98.803 100.242  0.00  0.00     0.036 H 
ATOM    177 0H12 LYS d   1      27.981 -99.991  98.910  0.00  0.00     0.036 H 
BRANCH 175 178
ATOM    178  CG  LYS d   1      28.738-100.805 100.730  0.00  0.00    -0.061 C 
ATOM    179 1H12 LYS d   1      29.620-101.032 100.113  0.00  0.00     0.033 H 
ATOM    180 2H12 LYS d   1      28.172-101.730 100.914  0.00  0.00     0.033 H 
BRANCH 178 181
ATOM    181  CD  LYS d   1      29.195-100.229 102.058  0.00  0.00    -0.043 C 
ATOM    182 3H12 LYS d   1      28.315-100.036 102.689  0.00  0.00     0.035 H 
ATOM    183 4H12 LYS d   1      29.730 -99.285 101.876  0.00  0.00     0.035 H 
BRANCH 181 184
ATOM    184  CE  LYS d   1      30.123-101.196 102.780  0.00  0.00     0.080 C 
ATOM    185 5H12 LYS d   1      30.942-101.474 102.100  0.00  0.00     0.075 H 
ATOM    186 6H12 LYS d   1      29.552-102.096 103.053  0.00  0.00     0.075 H 
BRANCH 184 187
ATOM    187  NZ  LYS d   1      30.711-100.605 104.023  0.00  0.00    -0.079 N 
ATOM    188 7H12 LYS d   1      31.315-101.281 104.463  0.00  0.00     0.274 HD
ATOM    189 8H12 LYS d   1      29.970-100.353 104.658  0.00  0.00     0.274 HD
ATOM    190 9H12 LYS d   1      31.244 -99.783 103.785  0.00  0.00     0.274 HD
ENDBRANCH 184 187
ENDBRANCH 181 184
ENDBRANCH 178 181
ENDBRANCH 175 178
ENDBRANCH 160 175
ENDBRANCH 158 160
ENDBRANCH 154 156
BRANCH 154 191
ATOM    191  CB  TYR d   1      23.527-103.414 101.004  0.00  0.00    -0.014 C 
ATOM    192 0H11 TYR d   1      23.504-103.570 102.093  0.00  0.00     0.043 H 
ATOM    193 1H11 TYR d   1      22.959-104.215 100.507  0.00  0.00     0.043 H 
BRANCH 191 194
ATOM    194  CG  TYR d   1      22.874-102.081 100.686  0.00  0.00    -0.056 A 
ATOM    195  CD1 TYR d   1      22.287-101.853  99.453  0.00  0.00    -0.074 A 
ATOM    196  CE1 TYR d   1      21.701-100.634  99.158  0.00  0.00    -0.051 A 
ATOM    197 2H11 TYR d   1      22.286-102.640  98.708  0.00  0.00     0.084 H 
ATOM    198  CZ  TYR d   1      21.702 -99.621 100.102  0.00  0.00     0.065 A 
ATOM    199 4H11 TYR d   1      21.242-100.473  98.189  0.00  0.00     0.087 H 
ATOM    200  CE2 TYR d   1      22.284 -99.821 101.334  0.00  0.00    -0.051 A 
ATOM    201  CD2 TYR d   1      22.866-101.042 101.619  0.00  0.00    -0.074 A 
ATOM    202 5H11 TYR d   1      22.286 -99.028 102.073  0.00  0.00     0.087 H 
ATOM    203 3H11 TYR d   1      23.326-101.196 102.588  0.00  0.00     0.084 H 
BRANCH 198 204
ATOM    204  OH  TYR d   1      21.125 -98.403  99.813  0.00  0.00    -0.361 OA
ATOM    205 6H11 TYR d   1      20.770 -98.423  98.932  0.00  0.00     0.217 HD
ENDBRANCH 198 204
ENDBRANCH 191 194
ENDBRANCH 154 191
ENDBRANCH 152 154
ENDBRANCH 148 150
BRANCH 148 206
ATOM    206  CB  PHE d   1      27.044-107.267  99.022  0.00  0.00    -0.014 C 
ATOM    207 1H10 PHE d   1      27.390-106.649  98.180  0.00  0.00     0.043 H 
ATOM    208 2H10 PHE d   1      25.964-107.450  98.922  0.00  0.00     0.043 H 
BRANCH 206 209
ATOM    209  CG  PHE d   1      27.757-108.589  98.966  0.00  0.00    -0.056 A 
ATOM    210  CD1 PHE d   1      29.102-108.680  99.290  0.00  0.00    -0.077 A 
ATOM    211  CE1 PHE d   1      29.763-109.905  99.249  0.00  0.00    -0.082 A 
ATOM    212 3H10 PHE d   1      29.645-107.787  99.579  0.00  0.00     0.084 H 
ATOM    213  CZ  PHE d   1      29.068-111.044  98.889  0.00  0.00    -0.083 A 
ATOM    214 5H10 PHE d   1      30.816-109.965  99.498  0.00  0.00     0.083 H 
ATOM    215  CE2 PHE d   1      27.718-110.962  98.574  0.00  0.00    -0.082 A 
ATOM    216 7H10 PHE d   1      29.576-112.001  98.853  0.00  0.00     0.083 H 
ATOM    217  CD2 PHE d   1      27.076-109.742  98.613  0.00  0.00    -0.077 A 
ATOM    218 6H10 PHE d   1      27.170-111.855  98.298  0.00  0.00     0.083 H 
ATOM    219 4H10 PHE d   1      26.023-109.685  98.364  0.00  0.00     0.084 H 
ENDBRANCH 206 209
ENDBRANCH 148 206
ENDBRANCH 146 148
ENDBRANCH 142 144
BRANCH 142 220
ATOM    220  CB  LEU d   1      27.270-110.042 102.553  0.00  0.00    -0.035 C 
ATOM    221  H90 LEU d   1      27.653-109.785 101.554  0.00  0.00     0.037 H 
ATOM    222  H91 LEU d   1      26.273-110.497 102.457  0.00  0.00     0.037 H 
BRANCH 220 223
ATOM    223  CG  LEU d   1      28.198-111.093 103.142  0.00  0.00    -0.059 C 
ATOM    224  H92 LEU d   1      27.726-111.504 104.047  0.00  0.00     0.038 H 
BRANCH 223 225
ATOM    225  CD1 LEU d   1      28.400-112.230 102.151  0.00  0.00    -0.073 C 
ATOM    226  H93 LEU d   1      29.072-112.983 102.589  0.00  0.00     0.028 H 
ATOM    227  H94 LEU d   1      28.845-111.835 101.225  0.00  0.00     0.028 H 
ATOM    228  H95 LEU d   1      27.429-112.694 101.923  0.00  0.00     0.028 H 
ENDBRANCH 223 225
BRANCH 223 229
ATOM    229  CD2 LEU d   1      29.531-110.471 103.541  0.00  0.00    -0.073 C 
ATOM    230  H96 LEU d   1      29.355-109.654 104.256  0.00  0.00     0.028 H 
ATOM    231  H97 LEU d   1      30.032-110.073 102.646  0.00  0.00     0.028 H 
ATOM    232  H98 LEU d   1      30.168-111.237 104.008  0.00  0.00     0.028 H 
ENDBRANCH 223 229
ENDBRANCH 220 223
ENDBRANCH 142 220
ENDBRANCH 140 142
ENDBRANCH 136 138
BRANCH 136 233
ATOM    233  CB  ALA d   1      23.412-108.684 106.010  0.00  0.00    -0.049 C 
ATOM    234  H85 ALA d   1      23.958-108.460 106.938  0.00  0.00     0.030 H 
ATOM    235  H86 ALA d   1      23.643-109.710 105.688  0.00  0.00     0.030 H 
ATOM    236  H87 ALA d   1      22.331-108.590 106.189  0.00  0.00     0.030 H 
ENDBRANCH 136 233
ENDBRANCH 134 136
ENDBRANCH 130 132
BRANCH 130 237
ATOM    237  CB  HIS d   1      20.844-107.241 101.738  0.00  0.00     0.004 C 
ATOM    238  H78 HIS d   1      20.802-106.259 102.233  0.00  0.00     0.046 H 
ATOM    239  H79 HIS d   1      20.438-108.009 102.412  0.00  0.00     0.046 H 
BRANCH 237 240
ATOM    240  CG  HIS d   1      19.990-107.189 100.515  0.00  0.00     0.053 A 
ATOM    241  ND1 HIS d   1      20.476-106.804  99.285  0.00  0.00    -0.247 NA
ATOM    242  CE1 HIS d   1      19.500-106.859  98.397  0.00  0.00     0.064 A 
ATOM    243  NE2 HIS d   1      18.399-107.258  99.010  0.00  0.00    -0.359 N 
ATOM    244  H81 HIS d   1      19.587-106.617  97.339  0.00  0.00     0.143 H 
ATOM    245  CD2 HIS d   1      18.680-107.473 100.334  0.00  0.00     0.002 A 
ATOM    246  H82 HIS d   1      17.479-107.386  98.565  0.00  0.00     0.166 HD
ATOM    247  H80 HIS d   1      17.980-107.809 101.097  0.00  0.00     0.114 H 
ENDBRANCH 237 240
ENDBRANCH 130 237
ENDBRANCH 128 130
ENDBRANCH   1 126
BRANCH   1 248
ATOM    248  CB  VAL d   1      23.568-111.506  99.292  0.00  0.00    -0.033 C 
ATOM    249  H69 VAL d   1      24.273-110.909  98.695  0.00  0.00     0.042 H 
BRANCH 248 250
ATOM    250  CG1 VAL d   1      23.972-112.965  99.168  0.00  0.00    -0.071 C 
ATOM    251  H70 VAL d   1      23.885-113.282  98.118  0.00  0.00     0.028 H 
ATOM    252  H71 VAL d   1      23.311-113.583  99.793  0.00  0.00     0.028 H 
ATOM    253  H72 VAL d   1      25.013-113.087  99.502  0.00  0.00     0.028 H 
ENDBRANCH 248 250
BRANCH 248 254
ATOM    254  CG2 VAL d   1      22.182-111.265  98.735  0.00  0.00    -0.071 C 
ATOM    255  H73 VAL d   1      21.924-110.201  98.841  0.00  0.00     0.028 H 
ATOM    256  H74 VAL d   1      21.453-111.876  99.288  0.00  0.00     0.028 H 
ATOM    257  H75 VAL d   1      22.161-111.543  97.671  0.00  0.00     0.028 H 
ENDBRANCH 248 254
ENDBRANCH   1 248
TORSDOF 73
