REMARK  6 active torsions:
REMARK  status: ('A' for Active; 'I' for Inactive)
REMARK    1  A    between atoms: C9_6  and  N6_12 
REMARK    2  A    between atoms: C13_8  and  N15_15 
REMARK    3  A    between atoms: C3_9  and  O2_11 
REMARK    4  A    between atoms: O2_11  and  C1_10 
REMARK    5  A    between atoms: N15_15  and  C16_16 
REMARK    6  A    between atoms: N22_22  and  C23_23 
ROOT
ATOM      1  N15 3QS d   1      -2.943 -28.748  42.573  0.00  0.00    -0.325 N 
ATOM      2  H   3QS d   1      -3.356 -29.216  41.754  0.00  0.00     0.169 HD
ENDROOT
BRANCH   1   3
ATOM      3  C13 3QS d   1      -3.518 -27.533  42.944  0.00  0.00     0.149 A 
ATOM      4  C12 3QS d   1      -4.548 -27.044  42.130  0.00  0.00    -0.020 A 
ATOM      5  C11 3QS d   1      -5.152 -25.838  42.466  0.00  0.00     0.025 A 
ATOM      6  H   3QS d   1      -4.868 -27.596  41.254  0.00  0.00     0.091 H 
ATOM      7  N10 3QS d   1      -4.731 -25.182  43.550  0.00  0.00    -0.075 NA
ATOM      8  H   3QS d   1      -5.953 -25.436  41.857  0.00  0.00     0.115 H 
ATOM      9  C9  3QS d   1      -3.754 -25.661  44.316  0.00  0.00     0.726 A 
ATOM     10  N14 3QS d   1      -3.145 -26.820  44.021  0.00  0.00    -0.045 NA
BRANCH   9  11
ATOM     11  N6  3QS d   1      -3.392 -24.918  45.435  0.00  0.00    -0.214 N 
ATOM     12  C5  3QS d   1      -3.638 -23.451  45.401  0.00  0.00     0.014 C 
ATOM     13  C4  3QS d   1      -2.345 -22.617  45.486  0.00  0.00    -0.025 C 
ATOM     14  H   3QS d   1      -4.152 -23.204  44.460  0.00  0.00     0.065 H 
ATOM     15  H   3QS d   1      -4.282 -23.185  46.252  0.00  0.00     0.065 H 
ATOM     16  C3  3QS d   1      -1.438 -23.200  46.582  0.00  0.00     0.041 C 
ATOM     17  H   3QS d   1      -2.595 -21.574  45.732  0.00  0.00     0.039 H 
ATOM     18  H   3QS d   1      -1.821 -22.650  44.519  0.00  0.00     0.039 H 
ATOM     19  C8  3QS d   1      -1.065 -24.643  46.210  0.00  0.00    -0.025 C 
ATOM     20  H   3QS d   1      -1.996 -23.211  47.530  0.00  0.00     0.083 H 
ATOM     21  C7  3QS d   1      -2.346 -25.470  46.329  0.00  0.00     0.014 C 
ATOM     22  H   3QS d   1      -0.682 -24.682  45.179  0.00  0.00     0.039 H 
ATOM     23  H   3QS d   1      -0.300 -25.027  46.900  0.00  0.00     0.039 H 
ATOM     24  H   3QS d   1      -2.703 -25.440  47.369  0.00  0.00     0.065 H 
ATOM     25  H   3QS d   1      -2.135 -26.511  46.043  0.00  0.00     0.065 H 
BRANCH  16  26
ATOM     26  O2  3QS d   1      -0.258 -22.411  46.763  0.00  0.00    -0.391 OA
BRANCH  26  27
ATOM     27  C1  3QS d   1       0.214 -22.392  48.114  0.00  0.00     0.004 C 
ATOM     28  H   3QS d   1       1.119 -21.770  48.178  0.00  0.00     0.066 H 
ATOM     29  H   3QS d   1       0.451 -23.417  48.434  0.00  0.00     0.066 H 
ATOM     30  H   3QS d   1      -0.565 -21.974  48.769  0.00  0.00     0.066 H 
ENDBRANCH  26  27
ENDBRANCH  16  26
ENDBRANCH   9  11
ENDBRANCH   1   3
BRANCH   1  31
ATOM     31  C16 3QS d   1      -1.869 -29.406  43.185  0.00  0.00     0.131 A 
ATOM     32  C17 3QS d   1      -1.025 -28.774  44.102  0.00  0.00    -0.012 A 
ATOM     33  C18 3QS d   1       0.020 -29.484  44.672  0.00  0.00     0.050 A 
ATOM     34  H   3QS d   1      -1.187 -27.735  44.366  0.00  0.00     0.092 H 
ATOM     35  C19 3QS d   1       0.198 -30.837  44.288  0.00  0.00     0.010 A 
ATOM     36  N22 3QS d   1       1.007 -29.176  45.581  0.00  0.00    -0.351 N 
ATOM     37  C20 3QS d   1       1.359 -31.315  45.045  0.00  0.00    -0.054 A 
ATOM     38  C28 3QS d   1      -0.689 -31.406  43.365  0.00  0.00     0.017 A 
ATOM     39  C21 3QS d   1       1.788 -30.292  45.796  0.00  0.00    -0.019 A 
ATOM     40  H   3QS d   1       1.791 -32.314  45.004  0.00  0.00     0.087 H 
ATOM     41  H   3QS d   1       2.634 -30.336  46.480  0.00  0.00     0.111 H 
ATOM     42  N29 3QS d   1      -1.678 -30.683  42.847  0.00  0.00    -0.242 NA
ATOM     43  H   3QS d   1      -0.569 -32.442  43.071  0.00  0.00     0.116 H 
BRANCH  36  44
ATOM     44  C23 3QS d   1       1.142 -27.871  46.245  0.00  0.00     0.017 C 
ATOM     45  C24 3QS d   1       0.430 -27.955  47.623  0.00  0.00    -0.046 C 
ATOM     46  C25 3QS d   1       1.199 -26.994  48.574  0.00  0.00    -0.063 C 
ATOM     47  H   3QS d   1       0.469 -28.984  48.009  0.00  0.00     0.036 H 
ATOM     48  H   3QS d   1      -0.619 -27.638  47.529  0.00  0.00     0.036 H 
ATOM     49  C26 3QS d   1       2.359 -26.412  47.714  0.00  0.00    -0.063 C 
ATOM     50  H   3QS d   1       1.598 -27.544  49.439  0.00  0.00     0.033 H 
ATOM     51  H   3QS d   1       0.538 -26.188  48.926  0.00  0.00     0.033 H 
ATOM     52  C27 3QS d   1       2.579 -27.504  46.641  0.00  0.00    -0.046 C 
ATOM     53  H   3QS d   1       3.265 -26.265  48.320  0.00  0.00     0.033 H 
ATOM     54  H   3QS d   1       2.068 -25.457  47.252  0.00  0.00     0.033 H 
ATOM     55  H   3QS d   1       3.140 -27.110  45.781  0.00  0.00     0.036 H 
ATOM     56  H   3QS d   1       3.111 -28.372  47.059  0.00  0.00     0.036 H 
ATOM     57  H   3QS d   1       0.707 -27.089  45.606  0.00  0.00     0.073 H 
ENDBRANCH  36  44
ENDBRANCH   1  31
TORSDOF 6
