REMARK  9 active torsions:
REMARK  status: ('A' for Active; 'I' for Inactive)
REMARK    1  A    between atoms: C7_5  and  N19_18 
REMARK    2  A    between atoms: C12_8  and  C13_9 
REMARK    3  A    between atoms: C2_12  and  C3_10 
REMARK    4  A    between atoms: C2_12  and  C1_11 
REMARK    5  A    between atoms: C2_12  and  N4_13 
REMARK    6  A    between atoms: N19_18  and  C20_19 
REMARK    7  A    between atoms: C24_23  and  N26_25 
REMARK    8  A    between atoms: C29_28  and  O32_31 
REMARK    9  A    between atoms: O32_31  and  C33_32 
ROOT
ATOM      1  C5  3QW d   1     -52.484   0.551 -20.786  0.00  0.00     0.050 A 
ATOM      2  C6  3QW d   1     -53.129   0.739 -22.018  0.00  0.00    -0.012 A 
ATOM      3  C11 3QW d   1     -52.073   0.969 -18.548  0.00  0.00    -0.043 A 
ATOM      4  C7  3QW d   1     -54.152   1.679 -22.128  0.00  0.00     0.131 A 
ATOM      5  C9  3QW d   1     -53.939   2.272 -19.882  0.00  0.00     0.017 A 
ATOM      6  C10 3QW d   1     -52.909   1.345 -19.687  0.00  0.00     0.011 A 
ATOM      7  C12 3QW d   1     -51.217   0.006 -18.977  0.00  0.00     0.049 A 
ATOM      8  N4  3QW d   1     -51.454  -0.259 -20.334  0.00  0.00    -0.341 N 
ATOM      9  N8  3QW d   1     -54.519   2.398 -21.066  0.00  0.00    -0.242 NA
ATOM     10  H   3QW d   1     -52.832   0.155 -22.882  0.00  0.00     0.092 H 
ATOM     11  H   3QW d   1     -52.127   1.384 -17.543  0.00  0.00     0.088 H 
ATOM     12  H   3QW d   1     -54.265   2.893 -19.056  0.00  0.00     0.116 H 
ENDROOT
BRANCH   4  13
ATOM     13  N19 3QW d   1     -54.811   1.951 -23.335  0.00  0.00    -0.326 N 
ATOM     14  H   3QW d   1     -55.269   2.872 -23.398  0.00  0.00     0.169 HD
BRANCH  13  15
ATOM     15  C20 3QW d   1     -54.928   1.136 -24.464  0.00  0.00     0.133 A 
ATOM     16  C21 3QW d   1     -56.084   1.247 -25.263  0.00  0.00    -0.021 A 
ATOM     17  C22 3QW d   1     -56.198   0.436 -26.385  0.00  0.00     0.009 A 
ATOM     18  H   3QW d   1     -56.868   1.951 -25.007  0.00  0.00     0.091 H 
ATOM     19  N23 3QW d   1     -55.214  -0.416 -26.668  0.00  0.00    -0.231 NA
ATOM     20  H   3QW d   1     -57.074   0.496 -27.020  0.00  0.00     0.115 H 
ATOM     21  C24 3QW d   1     -54.117  -0.518 -25.898  0.00  0.00     0.205 A 
ATOM     22  N25 3QW d   1     -53.981   0.256 -24.818  0.00  0.00    -0.201 NA
BRANCH  21  23
ATOM     23  N26 3QW d   1     -53.106  -1.427 -26.228  0.00  0.00    -0.251 NA
ATOM     24  C27 3QW d   1     -52.815  -1.436 -27.689  0.00  0.00    -0.011 C 
ATOM     25  C28 3QW d   1     -51.721  -2.432 -28.065  0.00  0.00    -0.029 C 
ATOM     26  H   3QW d   1     -52.492  -0.428 -27.990  0.00  0.00     0.056 H 
ATOM     27  H   3QW d   1     -53.735  -1.703 -28.230  0.00  0.00     0.056 H 
ATOM     28  C29 3QW d   1     -50.450  -2.109 -27.260  0.00  0.00     0.040 C 
ATOM     29  H   3QW d   1     -51.506  -2.354 -29.141  0.00  0.00     0.038 H 
ATOM     30  H   3QW d   1     -52.056  -3.453 -27.831  0.00  0.00     0.038 H 
ATOM     31  C30 3QW d   1     -50.764  -2.198 -25.749  0.00  0.00    -0.029 C 
ATOM     32  H   3QW d   1     -50.087  -1.100 -27.506  0.00  0.00     0.083 H 
ATOM     33  C31 3QW d   1     -51.917  -1.269 -25.350  0.00  0.00    -0.011 C 
ATOM     34  H   3QW d   1     -49.865  -1.914 -25.181  0.00  0.00     0.038 H 
ATOM     35  H   3QW d   1     -51.041  -3.234 -25.503  0.00  0.00     0.038 H 
ATOM     36  H   3QW d   1     -52.211  -1.496 -24.314  0.00  0.00     0.056 H 
ATOM     37  H   3QW d   1     -51.568  -0.228 -25.412  0.00  0.00     0.056 H 
BRANCH  28  38
ATOM     38  O32 3QW d   1     -49.467  -3.091 -27.615  0.00  0.00    -0.391 OA
BRANCH  38  39
ATOM     39  C33 3QW d   1     -48.100  -2.724 -27.421  0.00  0.00     0.004 C 
ATOM     40  H   3QW d   1     -47.450  -3.556 -27.728  0.00  0.00     0.066 H 
ATOM     41  H   3QW d   1     -47.928  -2.498 -26.358  0.00  0.00     0.066 H 
ATOM     42  H   3QW d   1     -47.869  -1.835 -28.027  0.00  0.00     0.066 H 
ENDBRANCH  38  39
ENDBRANCH  28  38
ENDBRANCH  21  23
ENDBRANCH  13  15
ENDBRANCH   4  13
BRANCH   8  43
ATOM     43  C2  3QW d   1     -50.719  -1.245 -21.163  0.00  0.00     0.010 C 
ATOM     44  H   3QW d   1     -50.050  -1.766 -20.462  0.00  0.00     0.072 H 
BRANCH  43  45
ATOM     45  C3  3QW d   1     -49.799  -0.598 -22.198  0.00  0.00    -0.057 C 
ATOM     46  H   3QW d   1     -49.288  -1.382 -22.775  0.00  0.00     0.030 H 
ATOM     47  H   3QW d   1     -49.052   0.026 -21.686  0.00  0.00     0.030 H 
ATOM     48  H   3QW d   1     -50.395   0.028 -22.878  0.00  0.00     0.030 H 
ENDBRANCH  43  45
BRANCH  43  49
ATOM     49  C1  3QW d   1     -51.603  -2.343 -21.770  0.00  0.00    -0.057 C 
ATOM     50  H   3QW d   1     -52.243  -2.774 -20.986  0.00  0.00     0.030 H 
ATOM     51  H   3QW d   1     -50.967  -3.131 -22.198  0.00  0.00     0.030 H 
ATOM     52  H   3QW d   1     -52.233  -1.911 -22.561  0.00  0.00     0.030 H 
ENDBRANCH  43  49
ENDBRANCH   8  43
BRANCH   7  53
ATOM     53  C13 3QW d   1     -50.159  -0.565 -18.095  0.00  0.00     0.027 A 
ATOM     54  C14 3QW d   1     -50.120  -0.474 -16.732  0.00  0.00     0.035 A 
ATOM     55  N15 3QW d   1     -48.971  -1.044 -16.305  0.00  0.00    -0.187 NA
ATOM     56  H   3QW d   1     -50.882  -0.021 -16.100  0.00  0.00     0.118 H 
ATOM     57  N17 3QW d   1     -48.255  -1.491 -17.422  0.00  0.00    -0.289 N 
ATOM     58  C18 3QW d   1     -48.946  -1.183 -18.489  0.00  0.00     0.009 A 
ATOM     59  H   3QW d   1     -47.346  -1.976 -17.406  0.00  0.00     0.188 HD
ATOM     60  H   3QW d   1     -48.638  -1.371 -19.517  0.00  0.00     0.115 H 
ENDBRANCH   7  53
TORSDOF 9
