REMARK  6 active torsions:
REMARK  status: ('A' for Active; 'I' for Inactive)
REMARK    1  A    between atoms: C9_6  and  N6_12 
REMARK    2  A    between atoms: C13_8  and  N15_15 
REMARK    3  A    between atoms: C3_9  and  O2_11 
REMARK    4  A    between atoms: O2_11  and  C1_10 
REMARK    5  A    between atoms: N15_15  and  C16_16 
REMARK    6  A    between atoms: C21_21  and  C24_23 
ROOT
ATOM      1  C11 3QY d   1     -51.483   1.071 -16.970  0.00  0.00     0.009 A 
ATOM      2  C9  3QY d   1     -50.569  -0.052 -18.806  0.00  0.00     0.205 A 
ATOM      3  C12 3QY d   1     -52.535   1.517 -17.760  0.00  0.00    -0.021 A 
ATOM      4  C13 3QY d   1     -52.567   1.140 -19.116  0.00  0.00     0.133 A 
ATOM      5  N10 3QY d   1     -50.531   0.307 -17.514  0.00  0.00    -0.231 NA
ATOM      6  N14 3QY d   1     -51.582   0.354 -19.581  0.00  0.00    -0.201 NA
ATOM      7  H   3QY d   1     -51.435   1.340 -15.921  0.00  0.00     0.115 H 
ATOM      8  H   3QY d   1     -53.315   2.142 -17.341  0.00  0.00     0.091 H 
ENDROOT
BRANCH   4   9
ATOM      9  N15 3QY d   1     -53.627   1.595 -19.914  0.00  0.00    -0.326 N 
ATOM     10  H   3QY d   1     -54.342   2.159 -19.433  0.00  0.00     0.169 HD
BRANCH   9  11
ATOM     11  C16 3QY d   1     -53.836   1.378 -21.287  0.00  0.00     0.131 A 
ATOM     12  C17 3QY d   1     -53.031   0.514 -22.023  0.00  0.00    -0.012 A 
ATOM     13  C18 3QY d   1     -53.285   0.325 -23.380  0.00  0.00     0.048 A 
ATOM     14  H   3QY d   1     -52.211  -0.009 -21.544  0.00  0.00     0.092 H 
ATOM     15  C19 3QY d   1     -54.376   1.009 -23.978  0.00  0.00     0.011 A 
ATOM     16  N22 3QY d   1     -52.678  -0.422 -24.356  0.00  0.00    -0.355 N 
ATOM     17  C20 3QY d   1     -54.381   0.594 -25.385  0.00  0.00    -0.043 A 
ATOM     18  C30 3QY d   1     -55.165   1.839 -23.166  0.00  0.00     0.017 A 
ATOM     19  C21 3QY d   1     -53.336  -0.264 -25.552  0.00  0.00     0.046 A 
ATOM     20  H   3QY d   1     -55.087   0.912 -26.151  0.00  0.00     0.088 H 
ATOM     21  N31 3QY d   1     -54.860   2.003 -21.881  0.00  0.00    -0.242 NA
ATOM     22  H   3QY d   1     -56.025   2.348 -23.587  0.00  0.00     0.116 H 
ATOM     23  H   3QY d   1     -51.849  -1.016 -24.213  0.00  0.00     0.166 HD
BRANCH  19  24
ATOM     24  C24 3QY d   1     -52.888  -0.927 -26.800  0.00  0.00     0.027 A 
ATOM     25  C25 3QY d   1     -51.758  -0.616 -27.502  0.00  0.00     0.035 A 
ATOM     26  N26 3QY d   1     -51.694  -1.445 -28.563  0.00  0.00    -0.187 NA
ATOM     27  H   3QY d   1     -51.038   0.162 -27.250  0.00  0.00     0.118 H 
ATOM     28  N28 3QY d   1     -52.806  -2.292 -28.529  0.00  0.00    -0.289 N 
ATOM     29  C29 3QY d   1     -53.512  -1.999 -27.470  0.00  0.00     0.009 A 
ATOM     30  H   3QY d   1     -53.030  -3.022 -29.221  0.00  0.00     0.188 HD
ATOM     31  H   3QY d   1     -54.428  -2.498 -27.157  0.00  0.00     0.115 H 
ENDBRANCH  19  24
ENDBRANCH   9  11
ENDBRANCH   4   9
BRANCH   2  32
ATOM     32  N6  3QY d   1     -49.569  -0.851 -19.372  0.00  0.00    -0.251 NA
ATOM     33  C5  3QY d   1     -48.777  -0.142 -20.404  0.00  0.00    -0.011 C 
ATOM     34  C4  3QY d   1     -47.951  -1.137 -21.236  0.00  0.00    -0.029 C 
ATOM     35  H   3QY d   1     -49.460   0.406 -21.070  0.00  0.00     0.056 H 
ATOM     36  H   3QY d   1     -48.097   0.569 -19.912  0.00  0.00     0.056 H 
ATOM     37  C3  3QY d   1     -47.099  -2.038 -20.312  0.00  0.00     0.040 C 
ATOM     38  H   3QY d   1     -47.286  -0.580 -21.912  0.00  0.00     0.038 H 
ATOM     39  H   3QY d   1     -48.632  -1.766 -21.828  0.00  0.00     0.038 H 
ATOM     40  C8  3QY d   1     -47.889  -2.666 -19.139  0.00  0.00    -0.029 C 
ATOM     41  H   3QY d   1     -46.410  -1.336 -19.820  0.00  0.00     0.083 H 
ATOM     42  C7  3QY d   1     -48.717  -1.592 -18.410  0.00  0.00    -0.011 C 
ATOM     43  H   3QY d   1     -48.565  -3.440 -19.531  0.00  0.00     0.038 H 
ATOM     44  H   3QY d   1     -47.182  -3.122 -18.430  0.00  0.00     0.038 H 
ATOM     45  H   3QY d   1     -48.036  -0.886 -17.912  0.00  0.00     0.056 H 
ATOM     46  H   3QY d   1     -49.357  -2.077 -17.658  0.00  0.00     0.056 H 
BRANCH  37  47
ATOM     47  O2  3QY d   1     -46.223  -2.950 -21.009  0.00  0.00    -0.391 OA
BRANCH  47  48
ATOM     48  C1  3QY d   1     -46.779  -4.013 -21.810  0.00  0.00     0.004 C 
ATOM     49  H   3QY d   1     -45.963  -4.598 -22.259  0.00  0.00     0.066 H 
ATOM     50  H   3QY d   1     -47.404  -3.583 -22.607  0.00  0.00     0.066 H 
ATOM     51  H   3QY d   1     -47.394  -4.668 -21.175  0.00  0.00     0.066 H 
ENDBRANCH  47  48
ENDBRANCH  37  47
ENDBRANCH   2  32
TORSDOF 6
