REMARK  6 active torsions:
REMARK  status: ('A' for Active; 'I' for Inactive)
REMARK    1  A    between atoms: C9_6  and  N6_12 
REMARK    2  A    between atoms: C13_8  and  N15_15 
REMARK    3  A    between atoms: C3_9  and  O2_11 
REMARK    4  A    between atoms: O2_11  and  C1_10 
REMARK    5  A    between atoms: N15_15  and  C16_16 
REMARK    6  A    between atoms: C23_23  and  C26_25 
ROOT
ATOM      1  C11 3R0 d   1     -52.115   1.286 -17.279  0.00  0.00     0.009 A 
ATOM      2  C9  3R0 d   1     -50.996   0.081 -18.938  0.00  0.00     0.205 A 
ATOM      3  C12 3R0 d   1     -53.011   1.742 -18.247  0.00  0.00    -0.021 A 
ATOM      4  C13 3R0 d   1     -52.893   1.311 -19.587  0.00  0.00     0.133 A 
ATOM      5  N10 3R0 d   1     -51.136   0.464 -17.658  0.00  0.00    -0.231 NA
ATOM      6  N14 3R0 d   1     -51.870   0.487 -19.876  0.00  0.00    -0.201 NA
ATOM      7  H   3R0 d   1     -52.213   1.593 -16.244  0.00  0.00     0.115 H 
ATOM      8  H   3R0 d   1     -53.801   2.430 -17.969  0.00  0.00     0.091 H 
ENDROOT
BRANCH   4   9
ATOM      9  N15 3R0 d   1     -53.801   1.805 -20.542  0.00  0.00    -0.326 N 
ATOM     10  H   3R0 d   1     -54.430   2.557 -20.225  0.00  0.00     0.169 HD
BRANCH   9  11
ATOM     11  C16 3R0 d   1     -53.952   1.393 -21.881  0.00  0.00     0.131 A 
ATOM     12  C17 3R0 d   1     -53.068   0.496 -22.475  0.00  0.00    -0.011 A 
ATOM     13  C18 3R0 d   1     -53.284   0.089 -23.794  0.00  0.00     0.068 A 
ATOM     14  H   3R0 d   1     -52.219   0.116 -21.918  0.00  0.00     0.093 H 
ATOM     15  C19 3R0 d   1     -54.389   0.585 -24.541  0.00  0.00     0.103 A 
ATOM     16  N24 3R0 d   1     -52.623  -0.777 -24.621  0.00  0.00    -0.338 N 
ATOM     17  C20 3R0 d   1     -55.227   1.488 -23.876  0.00  0.00     0.034 A 
ATOM     18  N22 3R0 d   1     -54.355  -0.012 -25.772  0.00  0.00    -0.227 NA
ATOM     19  N21 3R0 d   1     -54.973   1.863 -22.614  0.00  0.00    -0.241 NA
ATOM     20  H   3R0 d   1     -56.093   1.890 -24.389  0.00  0.00     0.118 H 
ATOM     21  C23 3R0 d   1     -53.307  -0.823 -25.797  0.00  0.00     0.142 A 
ATOM     22  H   3R0 d   1     -51.764  -1.299 -24.395  0.00  0.00     0.167 HD
BRANCH  21  23
ATOM     23  C26 3R0 d   1     -52.747  -1.620 -26.896  0.00  0.00     0.046 A 
ATOM     24  C27 3R0 d   1     -53.369  -2.074 -28.027  0.00  0.00     0.036 A 
ATOM     25  N28 3R0 d   1     -52.440  -2.737 -28.732  0.00  0.00    -0.187 NA
ATOM     26  H   3R0 d   1     -54.413  -1.926 -28.301  0.00  0.00     0.118 H 
ATOM     27  N30 3R0 d   1     -51.218  -2.696 -28.047  0.00  0.00    -0.289 N 
ATOM     28  C31 3R0 d   1     -51.396  -2.031 -26.948  0.00  0.00     0.011 A 
ATOM     29  H   3R0 d   1     -50.333  -3.120 -28.361  0.00  0.00     0.188 HD
ATOM     30  H   3R0 d   1     -50.636  -1.825 -26.196  0.00  0.00     0.115 H 
ENDBRANCH  21  23
ENDBRANCH   9  11
ENDBRANCH   4   9
BRANCH   2  31
ATOM     31  N6  3R0 d   1     -49.951  -0.781 -19.291  0.00  0.00    -0.251 NA
ATOM     32  C5  3R0 d   1     -49.440  -0.562 -20.666  0.00  0.00    -0.011 C 
ATOM     33  C4  3R0 d   1     -48.619  -1.784 -21.105  0.00  0.00    -0.029 C 
ATOM     34  H   3R0 d   1     -50.287  -0.422 -21.354  0.00  0.00     0.056 H 
ATOM     35  H   3R0 d   1     -48.802   0.334 -20.682  0.00  0.00     0.056 H 
ATOM     36  C3  3R0 d   1     -47.449  -2.024 -20.119  0.00  0.00     0.040 C 
ATOM     37  H   3R0 d   1     -48.215  -1.607 -22.113  0.00  0.00     0.038 H 
ATOM     38  H   3R0 d   1     -49.269  -2.672 -21.121  0.00  0.00     0.038 H 
ATOM     39  C8  3R0 d   1     -47.927  -2.083 -18.648  0.00  0.00    -0.029 C 
ATOM     40  H   3R0 d   1     -46.749  -1.181 -20.214  0.00  0.00     0.083 H 
ATOM     41  C7  3R0 d   1     -48.850  -0.900 -18.299  0.00  0.00    -0.011 C 
ATOM     42  H   3R0 d   1     -48.477  -3.022 -18.490  0.00  0.00     0.038 H 
ATOM     43  H   3R0 d   1     -47.048  -2.056 -17.987  0.00  0.00     0.038 H 
ATOM     44  H   3R0 d   1     -48.262   0.029 -18.300  0.00  0.00     0.056 H 
ATOM     45  H   3R0 d   1     -49.281  -1.061 -17.300  0.00  0.00     0.056 H 
BRANCH  36  46
ATOM     46  O2  3R0 d   1     -46.749  -3.234 -20.462  0.00  0.00    -0.391 OA
BRANCH  46  47
ATOM     47  C1  3R0 d   1     -45.496  -3.053 -21.138  0.00  0.00     0.004 C 
ATOM     48  H   3R0 d   1     -45.049  -4.035 -21.351  0.00  0.00     0.066 H 
ATOM     49  H   3R0 d   1     -44.815  -2.472 -20.499  0.00  0.00     0.066 H 
ATOM     50  H   3R0 d   1     -45.663  -2.514 -22.082  0.00  0.00     0.066 H 
ENDBRANCH  46  47
ENDBRANCH  36  46
ENDBRANCH   2  31
TORSDOF 6
