REMARK  10 active torsions:
REMARK  status: ('A' for Active; 'I' for Inactive)
REMARK    1  A    between atoms: C4_1  and  N14_13 
REMARK    2  A    between atoms: N8_11  and  C6_2 
REMARK    3  A    between atoms: C9_4  and  C11_3 
REMARK    4  A    between atoms: C9_4  and  C12_5 
REMARK    5  A    between atoms: C9_4  and  N8_11 
REMARK    6  A    between atoms: C12_5  and  O13_12 
REMARK    7  A    between atoms: C2_8  and  C1_7 
REMARK    8  A    between atoms: N14_13  and  C15_14 
REMARK    9  A    between atoms: C17_16  and  N21_20 
REMARK       I    between atoms: N21_20  and  C22_21 
REMARK   10  A    between atoms: C22_21  and  C24_23 
ROOT
ATOM      1  N14 3R1 d   1     -53.908   1.682 -19.762  0.00  0.00    -0.325 N 
ATOM      2  H   3R1 d   1     -54.678   2.260 -19.395  0.00  0.00     0.169 HD
ENDROOT
BRANCH   1   3
ATOM      3  C4  3R1 d   1     -52.973   1.232 -18.822  0.00  0.00     0.150 A 
ATOM      4  C3  3R1 d   1     -53.079   1.632 -17.472  0.00  0.00    -0.014 A 
ATOM      5  C2  3R1 d   1     -52.112   1.164 -16.574  0.00  0.00     0.053 A 
ATOM      6  H   3R1 d   1     -53.883   2.280 -17.142  0.00  0.00     0.092 H 
ATOM      7  N7  3R1 d   1     -51.110   0.399 -17.025  0.00  0.00    -0.068 NA
ATOM      8  C6  3R1 d   1     -51.012   0.060 -18.311  0.00  0.00     0.725 A 
ATOM      9  N5  3R1 d   1     -51.941   0.453 -19.176  0.00  0.00    -0.045 NA
BRANCH   5  10
ATOM     10  C1  3R1 d   1     -52.169   1.531 -15.110  0.00  0.00    -0.035 C 
ATOM     11  H   3R1 d   1     -51.324   1.065 -14.582  0.00  0.00     0.035 H 
ATOM     12  H   3R1 d   1     -53.115   1.171 -14.678  0.00  0.00     0.035 H 
ATOM     13  H   3R1 d   1     -52.110   2.624 -15.003  0.00  0.00     0.035 H 
ENDBRANCH   5  10
BRANCH   8  14
ATOM     14  N8  3R1 d   1     -49.947  -0.733 -18.731  0.00  0.00    -0.216 N 
ATOM     15  H   3R1 d   1     -49.319  -1.128 -18.017  0.00  0.00     0.178 HD
BRANCH  14  16
ATOM     16  C9  3R1 d   1     -49.677  -1.033 -20.145  0.00  0.00     0.043 C 
ATOM     17  H   3R1 d   1     -50.046  -0.207 -20.771  0.00  0.00     0.075 H 
BRANCH  16  18
ATOM     18  C11 3R1 d   1     -48.175  -1.194 -20.339  0.00  0.00    -0.055 C 
ATOM     19  H   3R1 d   1     -47.964  -1.419 -21.395  0.00  0.00     0.030 H 
ATOM     20  H   3R1 d   1     -47.810  -2.018 -19.709  0.00  0.00     0.030 H 
ATOM     21  H   3R1 d   1     -47.666  -0.261 -20.054  0.00  0.00     0.030 H 
ENDBRANCH  16  18
BRANCH  16  22
ATOM     22  C12 3R1 d   1     -50.377  -2.340 -20.556  0.00  0.00     0.036 C 
ATOM     23  H   3R1 d   1     -51.316  -2.440 -19.993  0.00  0.00     0.077 H 
ATOM     24  H   3R1 d   1     -49.719  -3.191 -20.326  0.00  0.00     0.077 H 
BRANCH  22  25
ATOM     25  O13 3R1 d   1     -50.668  -2.333 -21.965  0.00  0.00    -0.399 OA
ATOM     26  H   3R1 d   1     -51.099  -3.146 -22.202  0.00  0.00     0.209 HD
ENDBRANCH  22  25
ENDBRANCH  16  22
ENDBRANCH  14  16
ENDBRANCH   8  14
ENDBRANCH   1   3
BRANCH   1  27
ATOM     27  C15 3R1 d   1     -53.923   1.441 -21.145  0.00  0.00     0.130 A 
ATOM     28  C16 3R1 d   1     -53.101   0.472 -21.720  0.00  0.00    -0.013 A 
ATOM     29  C17 3R1 d   1     -53.146   0.232 -23.095  0.00  0.00     0.040 A 
ATOM     30  H   3R1 d   1     -52.423  -0.098 -21.096  0.00  0.00     0.092 H 
ATOM     31  C18 3R1 d   1     -54.082   0.975 -23.861  0.00  0.00    -0.040 A 
ATOM     32  C19 3R1 d   1     -54.914   1.891 -23.232  0.00  0.00     0.007 A 
ATOM     33  H   3R1 d   1     -54.147   0.828 -24.933  0.00  0.00     0.089 H 
ATOM     34  N20 3R1 d   1     -54.798   2.107 -21.917  0.00  0.00    -0.243 NA
ATOM     35  H   3R1 d   1     -55.658   2.431 -23.806  0.00  0.00     0.114 H 
BRANCH  29  36
ATOM     36  N21 3R1 d   1     -52.298  -0.787 -23.581  0.00  0.00    -0.323 N 
ATOM     37  C22 3R1 d   1     -52.382  -1.384 -24.792  0.00  0.00     0.259 C 
ATOM     38  O23 3R1 d   1     -53.196  -1.018 -25.645  0.00  0.00    -0.267 OA
ATOM     39  H   3R1 d   1     -51.567  -1.096 -22.973  0.00  0.00     0.169 HD
BRANCH  37  40
ATOM     40  C24 3R1 d   1     -51.484  -2.499 -25.180  0.00  0.00     0.075 A 
ATOM     41  C25 3R1 d   1     -50.388  -2.238 -26.015  0.00  0.00     0.051 A 
ATOM     42  C26 3R1 d   1     -49.627  -3.285 -26.516  0.00  0.00    -0.061 A 
ATOM     43 CL2  3R1 d   1     -49.957  -0.595 -26.352  0.00  0.00    -0.083 Cl
ATOM     44  C27 3R1 d   1     -49.970  -4.601 -26.222  0.00  0.00    -0.080 A 
ATOM     45  H   3R1 d   1     -48.764  -3.077 -27.138  0.00  0.00     0.086 H 
ATOM     46  C28 3R1 d   1     -51.073  -4.879 -25.425  0.00  0.00    -0.061 A 
ATOM     47  H   3R1 d   1     -49.373  -5.415 -26.617  0.00  0.00     0.083 H 
ATOM     48  C29 3R1 d   1     -51.835  -3.839 -24.920  0.00  0.00     0.051 A 
ATOM     49  H   3R1 d   1     -51.336  -5.906 -25.199  0.00  0.00     0.086 H 
ATOM     50 CL1  3R1 d   1     -53.187  -4.220 -23.914  0.00  0.00    -0.083 Cl
ENDBRANCH  37  40
ENDBRANCH  29  36
ENDBRANCH   1  27
TORSDOF 10
