REMARK  4 active torsions:
REMARK  status: ('A' for Active; 'I' for Inactive)
REMARK    1  A    between atoms: N11_4  and  C12_3 
REMARK       I    between atoms: C9_5  and  N11_4 
REMARK    2  A    between atoms: O8_7  and  C9_5 
REMARK    3  A    between atoms: C7_8  and  O8_7 
REMARK    4  A    between atoms: C1_14  and  C7_8 
ROOT
ATOM      1  N14 3S9 d   1      17.099 -12.931 -22.995  0.00  0.00    -0.196 NA
ATOM      2  C13 3S9 d   1      16.230 -12.775 -23.749  0.00  0.00     0.078 C 
ATOM      3  C12 3S9 d   1      15.129 -12.587 -24.708  0.00  0.00     0.076 C 
ATOM      4  H1  3S9 d   1      14.393 -13.388 -24.548  0.00  0.00     0.086 H 
ATOM      5  H2  3S9 d   1      15.541 -12.666 -25.725  0.00  0.00     0.086 H 
ENDROOT
BRANCH   3   6
ATOM      6  N11 3S9 d   1      14.439 -11.303 -24.593  0.00  0.00    -0.325 N 
ATOM      7  C9  3S9 d   1      13.322 -11.033 -23.915  0.00  0.00     0.361 C 
ATOM      8  O10 3S9 d   1      12.730 -11.873 -23.255  0.00  0.00    -0.238 OA
ATOM      9  H3  3S9 d   1      14.854 -10.535 -25.081  0.00  0.00     0.165 HD
BRANCH   7  10
ATOM     10  O8  3S9 d   1      12.771  -9.688 -23.939  0.00  0.00    -0.299 OA
BRANCH  10  11
ATOM     11  C7  3S9 d   1      11.502  -9.451 -23.331  0.00  0.00     0.054 C 
ATOM     12  H4  3S9 d   1      11.655  -9.123 -22.292  0.00  0.00     0.082 H 
ATOM     13  H5  3S9 d   1      10.918 -10.383 -23.339  0.00  0.00     0.082 H 
BRANCH  11  14
ATOM     14  C1  3S9 d   1      10.740  -8.383 -24.080  0.00  0.00    -0.034 A 
ATOM     15  C2  3S9 d   1      11.355  -7.195 -24.448  0.00  0.00    -0.075 A 
ATOM     16  C3  3S9 d   1      10.636  -6.221 -25.132  0.00  0.00    -0.082 A 
ATOM     17  H6  3S9 d   1      12.397  -7.026 -24.202  0.00  0.00     0.084 H 
ATOM     18  C4  3S9 d   1       9.298  -6.432 -25.450  0.00  0.00    -0.083 A 
ATOM     19  H7  3S9 d   1      11.120  -5.294 -25.419  0.00  0.00     0.083 H 
ATOM     20  C5  3S9 d   1       8.684  -7.620 -25.081  0.00  0.00    -0.082 A 
ATOM     21  H8  3S9 d   1       8.738  -5.672 -25.983  0.00  0.00     0.083 H 
ATOM     22  C6  3S9 d   1       9.404  -8.591 -24.394  0.00  0.00    -0.075 A 
ATOM     23  H9  3S9 d   1       7.643  -7.791 -25.328  0.00  0.00     0.083 H 
ATOM     24  H10 3S9 d   1       8.919  -9.516 -24.102  0.00  0.00     0.084 H 
ENDBRANCH  11  14
ENDBRANCH  10  11
ENDBRANCH   7  10
ENDBRANCH   3   6
TORSDOF 4
