REMARK  4 active torsions:
REMARK  status: ('A' for Active; 'I' for Inactive)
REMARK    1  A    between atoms: C02_2  and  C04_4 
REMARK    2  A    between atoms: C07_7  and  C08_8 
REMARK    3  A    between atoms: C08_8  and  N09_9 
REMARK    4  A    between atoms: N10_10  and  C11_11 
ROOT
ATOM      1  C11 E91 d   1      20.900   8.705  22.444  0.00  0.00     0.101 A 
ATOM      2  C12 E91 d   1      20.255   9.103  23.676  0.00  0.00     0.006 A 
ATOM      3  C13 E91 d   1      19.686  10.326  23.976  0.00  0.00    -0.070 A 
ATOM      4  C14 E91 d   1      19.120  10.500  25.248  0.00  0.00    -0.082 A 
ATOM      5  C15 E91 d   1      19.156   9.452  26.160  0.00  0.00    -0.082 A 
ATOM      6  C16 E91 d   1      19.729   8.206  25.843  0.00  0.00    -0.071 A 
ATOM      7  C17 E91 d   1      20.300   8.030  24.592  0.00  0.00    -0.012 A 
ATOM      8  C18 E91 d   1      20.977   6.884  23.938  0.00  0.00    -0.012 A 
ATOM      9  C19 E91 d   1      21.299   5.584  24.349  0.00  0.00    -0.071 A 
ATOM     10  C20 E91 d   1      21.972   4.712  23.453  0.00  0.00    -0.082 A 
ATOM     11  C21 E91 d   1      22.323   5.131  22.177  0.00  0.00    -0.082 A 
ATOM     12  C22 E91 d   1      22.002   6.439  21.758  0.00  0.00    -0.070 A 
ATOM     13  C23 E91 d   1      21.342   7.288  22.644  0.00  0.00     0.006 A 
ATOM     14  H   E91 d   1      19.677  11.129  23.248  0.00  0.00     0.084 H 
ATOM     15  H   E91 d   1      18.659  11.443  25.517  0.00  0.00     0.083 H 
ATOM     16  H   E91 d   1      18.730   9.599  27.146  0.00  0.00     0.083 H 
ATOM     17  H   E91 d   1      19.724   7.397  26.565  0.00  0.00     0.084 H 
ATOM     18  H   E91 d   1      21.036   5.246  25.345  0.00  0.00     0.084 H 
ATOM     19  H   E91 d   1      22.215   3.704  23.770  0.00  0.00     0.083 H 
ATOM     20  H   E91 d   1      22.841   4.456  21.506  0.00  0.00     0.083 H 
ATOM     21  H   E91 d   1      22.265   6.778  20.762  0.00  0.00     0.084 H 
ENDROOT
BRANCH   1  22
ATOM     22  N10 E91 d   1      21.014   9.279  21.311  0.00  0.00    -0.149 NA
ATOM     23  N09 E91 d   1      21.497   9.074  20.192  0.00  0.00    -0.161 NA
BRANCH  23  24
ATOM     24  C08 E91 d   1      21.367   9.718  19.046  0.00  0.00     0.034 C 
ATOM     25  H   E91 d   1      20.769  10.627  19.016  0.00  0.00     0.118 H 
BRANCH  24  26
ATOM     26  C07 E91 d   1      21.984   9.260  17.851  0.00  0.00    -0.017 A 
ATOM     27  C06 E91 d   1      21.690   9.834  16.646  0.00  0.00    -0.071 A 
ATOM     28  C05 E91 d   1      22.291   9.334  15.492  0.00  0.00    -0.066 A 
ATOM     29  H   E91 d   1      20.999  10.667  16.588  0.00  0.00     0.084 H 
ATOM     30  C04 E91 d   1      23.219   8.311  15.552  0.00  0.00     0.040 A 
ATOM     31  H   E91 d   1      22.026   9.755  14.529  0.00  0.00     0.085 H 
ATOM     32  C25 E91 d   1      23.531   7.741  16.796  0.00  0.00    -0.066 A 
ATOM     33  C24 E91 d   1      22.912   8.203  17.934  0.00  0.00    -0.071 A 
ATOM     34  H   E91 d   1      24.258   6.939  16.860  0.00  0.00     0.085 H 
ATOM     35  H   E91 d   1      23.138   7.754  18.895  0.00  0.00     0.084 H 
BRANCH  30  36
ATOM     36  C02 E91 d   1      23.761   7.771  14.313  0.00  0.00     0.209 C 
ATOM     37  O01 E91 d   1      23.151   8.119  13.289  0.00  0.00    -0.644 OA
ATOM     38  O03 E91 d   1      24.637   6.865  14.378  0.00  0.00    -0.644 OA
ENDBRANCH  30  36
ENDBRANCH  24  26
ENDBRANCH  23  24
ENDBRANCH   1  22
TORSDOF 4
