REMARK  3 active torsions:
REMARK  status: ('A' for Active; 'I' for Inactive)
REMARK    1  A    between atoms: C02_2  and  C04_4 
REMARK    2  A    between atoms: C07_7  and  C08_8 
REMARK    3  A    between atoms: N09_9  and  N10_10 
ROOT
ATOM      1  N10 E91 d   1     -17.451  18.976  46.745  0.00  0.00    -0.149 NA
ATOM      2  C11 E91 d   1     -17.357  20.122  46.167  0.00  0.00     0.101 A 
ATOM      3  C12 E91 d   1     -17.366  21.535  46.646  0.00  0.00     0.006 A 
ATOM      4  C13 E91 d   1     -17.582  22.023  47.934  0.00  0.00    -0.070 A 
ATOM      5  C14 E91 d   1     -17.543  23.418  48.152  0.00  0.00    -0.082 A 
ATOM      6  C15 E91 d   1     -17.296  24.274  47.095  0.00  0.00    -0.082 A 
ATOM      7  C16 E91 d   1     -17.079  23.777  45.790  0.00  0.00    -0.071 A 
ATOM      8  C17 E91 d   1     -17.112  22.400  45.557  0.00  0.00    -0.012 A 
ATOM      9  C18 E91 d   1     -16.927  21.575  44.335  0.00  0.00    -0.012 A 
ATOM     10  C19 E91 d   1     -16.657  21.892  43.001  0.00  0.00    -0.071 A 
ATOM     11  C20 E91 d   1     -16.533  20.865  42.038  0.00  0.00    -0.082 A 
ATOM     12  C21 E91 d   1     -16.678  19.542  42.398  0.00  0.00    -0.082 A 
ATOM     13  C22 E91 d   1     -16.951  19.205  43.740  0.00  0.00    -0.070 A 
ATOM     14  C23 E91 d   1     -17.072  20.221  44.689  0.00  0.00     0.006 A 
ATOM     15  H   E91 d   1     -17.777  21.343  48.755  0.00  0.00     0.084 H 
ATOM     16  H   E91 d   1     -17.706  23.817  49.147  0.00  0.00     0.083 H 
ATOM     17  H   E91 d   1     -17.268  25.343  47.270  0.00  0.00     0.083 H 
ATOM     18  H   E91 d   1     -16.887  24.462  44.972  0.00  0.00     0.084 H 
ATOM     19  H   E91 d   1     -16.542  22.928  42.704  0.00  0.00     0.084 H 
ATOM     20  H   E91 d   1     -16.322  21.120  41.006  0.00  0.00     0.083 H 
ATOM     21  H   E91 d   1     -16.582  18.762  41.651  0.00  0.00     0.083 H 
ATOM     22  H   E91 d   1     -17.066  18.167  44.031  0.00  0.00     0.084 H 
ENDROOT
BRANCH   1  23
ATOM     23  N09 E91 d   1     -17.283  17.763  46.532  0.00  0.00    -0.161 NA
ATOM     24  C08 E91 d   1     -17.594  16.651  47.202  0.00  0.00     0.034 C 
ATOM     25  H   E91 d   1     -18.101  16.786  48.157  0.00  0.00     0.118 H 
BRANCH  24  26
ATOM     26  C07 E91 d   1     -17.333  15.292  46.801  0.00  0.00    -0.017 A 
ATOM     27  C06 E91 d   1     -17.169  14.260  47.727  0.00  0.00    -0.071 A 
ATOM     28  C05 E91 d   1     -16.918  12.952  47.280  0.00  0.00    -0.066 A 
ATOM     29  H   E91 d   1     -17.235  14.468  48.789  0.00  0.00     0.084 H 
ATOM     30  C04 E91 d   1     -16.821  12.642  45.922  0.00  0.00     0.040 A 
ATOM     31  H   E91 d   1     -16.796  12.161  48.011  0.00  0.00     0.085 H 
ATOM     32  C25 E91 d   1     -16.982  13.681  45.018  0.00  0.00    -0.066 A 
ATOM     33  C24 E91 d   1     -17.233  14.988  45.444  0.00  0.00    -0.071 A 
ATOM     34  H   E91 d   1     -16.912  13.475  43.956  0.00  0.00     0.085 H 
ATOM     35  H   E91 d   1     -17.352  15.776  44.709  0.00  0.00     0.084 H 
BRANCH  30  36
ATOM     36  C02 E91 d   1     -16.534  11.208  45.421  0.00  0.00     0.209 C 
ATOM     37  O01 E91 d   1     -16.675  10.986  44.191  0.00  0.00    -0.644 OA
ATOM     38  O03 E91 d   1     -16.162  10.379  46.267  0.00  0.00    -0.644 OA
ENDBRANCH  30  36
ENDBRANCH  24  26
ENDBRANCH   1  23
TORSDOF 3
