REMARK  7 active torsions:
REMARK  status: ('A' for Active; 'I' for Inactive)
REMARK    1  A    between atoms: N4_18  and  C5_7 
REMARK    2  A    between atoms: RU_8  and  N3_17 
REMARK    3  A    between atoms: C15_29  and  O3_16 
REMARK    4  A    between atoms: O3_16  and  C25_39 
REMARK    5  A    between atoms: C21_35  and  N4_18 
REMARK    6  A    between atoms: C7_21  and  C8_22 
REMARK    7  A    between atoms: C12_26  and  C11_25 
ROOT
ATOM      1  C1  72B d   1      75.289  33.178   8.972  0.00  0.00     0.187 C 
ATOM      2  S4  72B d   1      75.534  34.078  10.237  0.00  0.00    -0.053 SA
ATOM      3  N3  72B d   1      75.099  32.405   7.894  0.00  0.00    -0.134 NA
ENDROOT
BRANCH   3   4
ATOM      4 RU   72B d   1      76.129  30.704   7.656  0.00  0.00     0.000 Ru
ATOM      5  N1  72B d   1      75.940  30.738   5.551  0.00  0.00    -0.245 N 
ATOM      6  C18 72B d   1      75.218  30.358   4.440  0.00  0.00     0.069 A 
ATOM      7  C19 72B d   1      77.016  31.414   5.034  0.00  0.00     0.099 A 
ATOM      8  C13 72B d   1      75.851  30.809   3.222  0.00  0.00     0.009 A 
ATOM      9  C17 72B d   1      74.048  29.651   4.325  0.00  0.00    -0.052 A 
ATOM     10  C12 72B d   1      77.001  31.483   3.658  0.00  0.00     0.025 A 
ATOM     11  C14 72B d   1      75.341  30.563   2.030  0.00  0.00    -0.038 A 
ATOM     12  C15 72B d   1      74.170  29.861   1.883  0.00  0.00     0.069 A 
ATOM     13  H15 72B d   1      75.858  30.923   1.148  0.00  0.00     0.089 H 
ATOM     14  C16 72B d   1      73.526  29.409   2.990  0.00  0.00    -0.049 A 
ATOM     15  H16 72B d   1      72.601  28.855   2.875  0.00  0.00     0.087 H 
ATOM     16  H17 72B d   1      73.529  29.284   5.203  0.00  0.00     0.087 H 
ATOM     17  C20 72B d   1      78.021  31.978   5.833  0.00  0.00     0.097 A 
ATOM     18  N2  72B d   1      77.885  31.820   7.192  0.00  0.00    -0.255 N 
ATOM     19  C7  72B d   1      79.093  32.665   5.220  0.00  0.00     0.015 A 
ATOM     20  C26 72B d   1      78.853  32.356   7.995  0.00  0.00     0.040 A 
ATOM     21  C27 72B d   1      79.872  33.007   7.457  0.00  0.00     0.134 A 
ATOM     22  H28 72B d   1      78.786  32.248   9.072  0.00  0.00     0.119 H 
ATOM     23  F1  72B d   1      80.785  33.513   8.297  0.00  0.00    -0.205 F 
ATOM     24  C6  72B d   1      80.044  33.197   6.063  0.00  0.00    -0.031 A 
ATOM     25  H14 72B d   1      80.896  33.743   5.673  0.00  0.00     0.089 H 
ATOM     26  S1  72B d   1      74.318  29.319   7.854  0.00  0.00    -0.166 SA
ATOM     27  C4  72B d   1      73.408  29.615   9.349  0.00  0.00     0.006 C 
ATOM     28  C3  72B d   1      74.935  27.638   8.207  0.00  0.00    -0.015 C 
ATOM     29  C21 72B d   1      74.132  29.556  10.681  0.00  0.00     0.148 C 
ATOM     30  H7  72B d   1      72.602  28.867   9.388  0.00  0.00     0.052 H 
ATOM     31  H8  72B d   1      72.971  30.621   9.265  0.00  0.00     0.052 H 
ATOM     32  C22 72B d   1      75.133  30.683  10.968  0.00  0.00     0.006 C 
ATOM     33  H18 72B d   1      74.770  28.664  10.591  0.00  0.00     0.090 H 
ATOM     34  S2  72B d   1      76.573  30.847   9.902  0.00  0.00    -0.166 SA
ATOM     35  H19 72B d   1      74.578  31.631  10.912  0.00  0.00     0.052 H 
ATOM     36  H20 72B d   1      75.503  30.535  11.993  0.00  0.00     0.052 H 
ATOM     37  C23 72B d   1      77.570  29.300  10.324  0.00  0.00    -0.015 C 
ATOM     38  C24 72B d   1      78.167  28.688   9.237  0.00  0.00    -0.015 C 
ATOM     39  H21 72B d   1      78.360  29.584  11.035  0.00  0.00     0.050 H 
ATOM     40  H22 72B d   1      76.893  28.574  10.798  0.00  0.00     0.050 H 
ATOM     41  S3  72B d   1      77.416  28.833   7.584  0.00  0.00    -0.168 SA
ATOM     42  H23 72B d   1      78.222  27.614   9.468  0.00  0.00     0.050 H 
ATOM     43  H24 72B d   1      79.184  29.099   9.161  0.00  0.00     0.050 H 
ATOM     44  C2  72B d   1      76.280  27.451   7.488  0.00  0.00    -0.015 C 
ATOM     45  H3  72B d   1      76.071  27.260   6.425  0.00  0.00     0.050 H 
ATOM     46  H4  72B d   1      76.778  26.574   7.927  0.00  0.00     0.050 H 
ATOM     47  H5  72B d   1      75.073  27.514   9.291  0.00  0.00     0.050 H 
ATOM     48  H6  72B d   1      74.212  26.893   7.842  0.00  0.00     0.050 H 
BRANCH  10  49
ATOM     49  C11 72B d   1      78.078  32.176   3.040  0.00  0.00     0.062 A 
ATOM     50  C8  72B d   1      79.057  32.723   3.819  0.00  0.00     0.061 A 
ATOM     51  C9  72B d   1      80.023  33.361   2.897  0.00  0.00     0.260 A 
ATOM     52  O1  72B d   1      81.077  33.988   3.158  0.00  0.00    -0.267 OA
ATOM     53  N5  72B d   1      79.550  33.150   1.623  0.00  0.00    -0.289 N 
ATOM     54  C10 72B d   1      78.370  32.433   1.639  0.00  0.00     0.260 A 
ATOM     55  H13 72B d   1      80.002  33.474   0.792  0.00  0.00     0.172 HD
ATOM     56  O2  72B d   1      77.758  32.115   0.630  0.00  0.00    -0.267 OA
ENDBRANCH  10  49
BRANCH  12  57
ATOM     57  O3  72B d   1      73.530  29.539   0.694  0.00  0.00    -0.356 OA
BRANCH  57  58
ATOM     58  C25 72B d   1      74.280  29.890  -0.547  0.00  0.00     0.010 C 
ATOM     59  H25 72B d   1      73.690  29.595  -1.427  0.00  0.00     0.066 H 
ATOM     60  H26 72B d   1      75.243  29.358  -0.556  0.00  0.00     0.066 H 
ATOM     61  H27 72B d   1      74.460  30.975  -0.572  0.00  0.00     0.066 H 
ENDBRANCH  57  58
ENDBRANCH  12  57
BRANCH  29  62
ATOM     62  N4  72B d   1      73.205  29.234  11.848  0.00  0.00     0.085 N 
ATOM     63  H12 72B d   1      73.303  30.013  12.589  0.00  0.00     0.315 HD
BRANCH  62  64
ATOM     64  C5  72B d   1      73.516  27.885  12.513  0.00  0.00     0.094 C 
ATOM     65  H9  72B d   1      72.814  27.715  13.343  0.00  0.00     0.071 H 
ATOM     66  H10 72B d   1      74.546  27.896  12.900  0.00  0.00     0.071 H 
ATOM     67  H11 72B d   1      73.411  27.078  11.773  0.00  0.00     0.071 H 
ENDBRANCH  62  64
ENDBRANCH  29  62
ENDBRANCH   3   4
TORSDOF 7
