REMARK WARNING: 32 MAX_TORS EXCEEDED!!!
REMARK  61 active torsions:
REMARK  status: ('A' for Active; 'I' for Inactive)
REMARK    1  A    between atoms: N_1  and  CA_2 
REMARK    2  A    between atoms: CA_2  and  C_3 
REMARK    3  A    between atoms: CA_2  and  CB_5 
REMARK       I    between atoms: C_3  and  N_10 
REMARK    4  A    between atoms: CB_5  and  CG_6 
REMARK    5  A    between atoms: CG_6  and  CD_7 
REMARK    6  A    between atoms: CD_7  and  CE_8 
REMARK    7  A    between atoms: CE_8  and  NZ_9 
REMARK    8  A    between atoms: N_10  and  CA_11 
REMARK    9  A    between atoms: CA_11  and  C_12 
REMARK   10  A    between atoms: CA_11  and  CB_14 
REMARK       I    between atoms: C_12  and  N_20 
REMARK   11  A    between atoms: CB_14  and  CG_15 
REMARK   12  A    between atoms: N_20  and  CA_21 
REMARK   13  A    between atoms: CA_21  and  C_22 
REMARK   14  A    between atoms: CA_21  and  CB_24 
REMARK       I    between atoms: C_22  and  N_29 
REMARK   15  A    between atoms: CB_24  and  CG_25 
REMARK   16  A    between atoms: CG_25  and  CD_26 
REMARK   17  A    between atoms: CD_26  and  CE_27 
REMARK   18  A    between atoms: CE_27  and  NZ_28 
REMARK   19  A    between atoms: N_29  and  CA_30 
REMARK   20  A    between atoms: CA_30  and  C_31 
REMARK   21  A    between atoms: CA_30  and  CB_33 
REMARK       I    between atoms: C_31  and  N_37 
REMARK   22  A    between atoms: CB_33  and  CG1_34 
REMARK   23  A    between atoms: CB_33  and  CG2_35 
REMARK   24  A    between atoms: CG1_34  and  CD1_36 
REMARK   25  A    between atoms: N_37  and  CA_38 
REMARK   26  A    between atoms: CA_38  and  C_39 
REMARK   27  A    between atoms: CA_38  and  CB_41 
REMARK       I    between atoms: C_39  and  N_45 
REMARK   28  A    between atoms: CB_41  and  CG_42 
REMARK   29  A    between atoms: CG_42  and  CD1_43 
REMARK   30  A    between atoms: CG_42  and  CD2_44 
REMARK   31  A    between atoms: N_45  and  CA_46 
REMARK   32  A    between atoms: CA_46  and  C_47 
REMARK   33  A    between atoms: CA_46  and  CB_49 
REMARK       I    between atoms: C_47  and  N_55 
REMARK   34  A    between atoms: CB_49  and  CG_50 
REMARK   35  A    between atoms: N_55  and  CA_56 
REMARK   36  A    between atoms: CA_56  and  C_57 
REMARK   37  A    between atoms: CA_56  and  CB_59 
REMARK       I    between atoms: C_57  and  N_66 
REMARK   38  A    between atoms: CB_59  and  CG_60 
REMARK   39  A    between atoms: CG_60  and  CD_61 
REMARK   40  A    between atoms: CD_61  and  NE_62 
REMARK       I    between atoms: NE_62  and  CZ_63 
REMARK       I    between atoms: CZ_63  and  NH1_64 
REMARK   41  A    between atoms: N_66  and  CA_67 
REMARK   42  A    between atoms: CA_67  and  C_68 
REMARK   43  A    between atoms: CA_67  and  CB_70 
REMARK       I    between atoms: C_68  and  N_74 
REMARK   44  A    between atoms: CB_70  and  CG_71 
REMARK   45  A    between atoms: CG_71  and  CD1_72 
REMARK   46  A    between atoms: CG_71  and  CD2_73 
REMARK   47  A    between atoms: N_74  and  CA_75 
REMARK   48  A    between atoms: CA_75  and  C_76 
REMARK   49  A    between atoms: CA_75  and  CB_78 
REMARK       I    between atoms: C_76  and  N_82 
REMARK   50  A    between atoms: CB_78  and  CG_79 
REMARK   51  A    between atoms: CG_79  and  CD1_80 
REMARK   52  A    between atoms: CG_79  and  CD2_81 
REMARK   53  A    between atoms: N_82  and  CA_83 
REMARK   54  A    between atoms: CA_83  and  C_84 
REMARK   55  A    between atoms: CA_83  and  CB_86 
REMARK       I    between atoms: C_84  and  N_91 
REMARK   56  A    between atoms: CB_86  and  CG_87 
REMARK   57  A    between atoms: CG_87  and  CD_88 
REMARK       I    between atoms: CD_88  and  NE2_90 
REMARK   58  A    between atoms: N_91  and  CA_92 
REMARK   59  A    between atoms: CA_92  and  C_93 
REMARK   60  A    between atoms: CA_92  and  CB_95 
REMARK   61  A    between atoms: CB_95  and  CG_96 
ROOT
ATOM      1  CA  HIS d   1      59.167  46.272   8.620  0.00  0.00     0.094 C 
ATOM      2  H59 HIS d   1      59.003  47.360   8.608  0.00  0.00     0.088 H 
ENDROOT
BRANCH   1   3
ATOM      3  N   HIS d   1      59.718  45.910   9.927  0.00  0.00    -0.346 N 
ATOM      4  C   LEU d   1      59.047  46.141  11.054  0.00  0.00     0.241 C 
ATOM      5  O   LEU d   1      57.933  46.664  11.069  0.00  0.00    -0.271 OA
ATOM      6  H58 HIS d   1      60.619  45.479   9.975  0.00  0.00     0.163 HD
BRANCH   4   7
ATOM      7  CA  LEU d   1      59.719  45.724  12.363  0.00  0.00     0.089 C 
ATOM      8  H48 LEU d   1      58.961  45.767  13.159  0.00  0.00     0.087 H 
BRANCH   7   9
ATOM      9  N   LEU d   1      60.238  44.368  12.315  0.00  0.00    -0.346 N 
ATOM     10  C   ILE d   1      59.477  43.345  11.941  0.00  0.00     0.241 C 
ATOM     11  O   ILE d   1      58.299  43.475  11.593  0.00  0.00    -0.271 OA
ATOM     12  H47 LEU d   1      61.191  44.200  12.569  0.00  0.00     0.163 HD
BRANCH  10  13
ATOM     13  CA  ILE d   1      60.143  41.967  11.947  0.00  0.00     0.092 C 
ATOM     14  H37 ILE d   1      59.435  41.246  11.513  0.00  0.00     0.088 H 
BRANCH  13  15
ATOM     15  N   ILE d   1      61.363  41.928  11.155  0.00  0.00    -0.346 N 
ATOM     16  C   LYS d   1      61.408  42.321   9.888  0.00  0.00     0.241 C 
ATOM     17  O   LYS d   1      60.422  42.743   9.279  0.00  0.00    -0.271 OA
ATOM     18  H36 ILE d   1      62.202  41.591  11.583  0.00  0.00     0.163 HD
BRANCH  16  19
ATOM     19  CA  LYS d   1      62.772  42.198   9.198  0.00  0.00     0.089 C 
ATOM     20  H24 LYS d   1      62.657  42.583   8.174  0.00  0.00     0.087 H 
BRANCH  19  21
ATOM     21  N   LYS d   1      63.862  42.955   9.821  0.00  0.00    -0.346 N 
ATOM     22  C   HIS d   1      63.793  44.266  10.052  0.00  0.00     0.241 C 
ATOM     23  O   HIS d   1      62.806  44.951   9.773  0.00  0.00    -0.271 OA
ATOM     24  H23 LYS d   1      64.694  42.466  10.084  0.00  0.00     0.163 HD
BRANCH  22  25
ATOM     25  CA  HIS d   1      65.020  44.907  10.706  0.00  0.00     0.094 C 
ATOM     26  H17 HIS d   1      65.066  44.573  11.753  0.00  0.00     0.088 H 
BRANCH  25  27
ATOM     27  N   HIS d   1      66.262  44.500  10.048  0.00  0.00    -0.346 N 
ATOM     28  C   LYS d   1      66.437  44.530   8.727  0.00  0.00     0.249 C 
ATOM     29  O   LYS d   1      65.570  44.905   7.934  0.00  0.00    -0.271 OA
ATOM     30  H16 HIS d   1      67.019  44.183  10.619  0.00  0.00     0.163 HD
BRANCH  28  31
ATOM     31  CA  LYS d   1      67.803  44.062   8.224  0.00  0.00     0.176 C 
ATOM     32  H4  LYS d   1      68.055  43.120   8.733  0.00  0.00     0.099 H 
BRANCH  31  33
ATOM     33  N   LYS d   1      67.777  43.812   6.756  0.00  0.00    -0.067 N 
ATOM     34  H1  LYS d   1      68.688  43.505   6.451  0.00  0.00     0.275 HD
ATOM     35  H2  LYS d   1      67.530  44.663   6.275  0.00  0.00     0.275 HD
ATOM     36  H3  LYS d   1      67.096  43.099   6.549  0.00  0.00     0.275 HD
ENDBRANCH  31  33
BRANCH  31  37
ATOM     37  CB  LYS d   1      68.884  45.104   8.557  0.00  0.00    -0.030 C 
ATOM     38  H5  LYS d   1      69.868  44.629   8.433  0.00  0.00     0.036 H 
ATOM     39  H6  LYS d   1      68.754  45.410   9.605  0.00  0.00     0.036 H 
BRANCH  37  40
ATOM     40  CG  LYS d   1      68.846  46.358   7.686  0.00  0.00    -0.061 C 
ATOM     41  H7  LYS d   1      67.875  46.858   7.820  0.00  0.00     0.033 H 
ATOM     42  H8  LYS d   1      68.966  46.066   6.632  0.00  0.00     0.033 H 
BRANCH  40  43
ATOM     43  CD  LYS d   1      69.960  47.329   8.062  0.00  0.00    -0.043 C 
ATOM     44  H9  LYS d   1      70.919  46.790   8.057  0.00  0.00     0.035 H 
ATOM     45  H10 LYS d   1      69.765  47.721   9.071  0.00  0.00     0.035 H 
BRANCH  43  46
ATOM     46  CE  LYS d   1      70.046  48.500   7.084  0.00  0.00     0.080 C 
ATOM     47  H11 LYS d   1      70.241  48.103   6.077  0.00  0.00     0.075 H 
ATOM     48  H12 LYS d   1      70.878  49.152   7.389  0.00  0.00     0.075 H 
BRANCH  46  49
ATOM     49  NZ  LYS d   1      68.796  49.311   7.042  0.00  0.00    -0.079 N 
ATOM     50  H13 LYS d   1      68.907  50.066   6.384  0.00  0.00     0.274 HD
ATOM     51  H14 LYS d   1      68.609  49.688   7.958  0.00  0.00     0.274 HD
ATOM     52  H15 LYS d   1      68.026  48.727   6.756  0.00  0.00     0.274 HD
ENDBRANCH  46  49
ENDBRANCH  43  46
ENDBRANCH  40  43
ENDBRANCH  37  40
ENDBRANCH  31  37
ENDBRANCH  28  31
ENDBRANCH  25  27
BRANCH  25  53
ATOM     53  CB  HIS d   1      64.869  46.438  10.691  0.00  0.00     0.004 C 
ATOM     54  H18 HIS d   1      64.226  46.730  11.535  0.00  0.00     0.046 H 
ATOM     55  H19 HIS d   1      64.388  46.728   9.746  0.00  0.00     0.046 H 
BRANCH  53  56
ATOM     56  CG  HIS d   1      66.165  47.182  10.807  0.00  0.00     0.053 A 
ATOM     57  ND1 HIS d   1      67.152  46.830  11.704  0.00  0.00    -0.247 NA
ATOM     58  CE1 HIS d   1      68.180  47.650  11.567  0.00  0.00     0.064 A 
ATOM     59  NE2 HIS d   1      67.894  48.522  10.617  0.00  0.00    -0.359 N 
ATOM     60  H21 HIS d   1      69.105  47.613  12.140  0.00  0.00     0.143 H 
ATOM     61  CD2 HIS d   1      66.639  48.253  10.126  0.00  0.00     0.002 A 
ATOM     62  H22 HIS d   1      68.512  49.281  10.296  0.00  0.00     0.166 HD
ATOM     63  H20 HIS d   1      66.122  48.798   9.338  0.00  0.00     0.114 H 
ENDBRANCH  53  56
ENDBRANCH  25  53
ENDBRANCH  22  25
ENDBRANCH  19  21
BRANCH  19  64
ATOM     64  CB  LYS d   1      63.142  40.711   9.117  0.00  0.00    -0.038 C 
ATOM     65  H25 LYS d   1      62.218  40.137   8.950  0.00  0.00     0.036 H 
ATOM     66  H26 LYS d   1      63.588  40.416  10.079  0.00  0.00     0.036 H 
BRANCH  64  67
ATOM     67  CG  LYS d   1      64.124  40.358   8.013  0.00  0.00    -0.061 C 
ATOM     68  H27 LYS d   1      65.106  40.793   8.251  0.00  0.00     0.033 H 
ATOM     69  H28 LYS d   1      63.761  40.772   7.061  0.00  0.00     0.033 H 
BRANCH  67  70
ATOM     70  CD  LYS d   1      64.265  38.851   7.880  0.00  0.00    -0.043 C 
ATOM     71  H29 LYS d   1      63.263  38.397   7.874  0.00  0.00     0.035 H 
ATOM     72  H30 LYS d   1      64.837  38.468   8.738  0.00  0.00     0.035 H 
BRANCH  70  73
ATOM     73  CE  LYS d   1      64.987  38.473   6.596  0.00  0.00     0.080 C 
ATOM     74  H31 LYS d   1      66.020  38.847   6.644  0.00  0.00     0.075 H 
ATOM     75  H32 LYS d   1      64.468  38.937   5.745  0.00  0.00     0.075 H 
BRANCH  73  76
ATOM     76  NZ  LYS d   1      65.016  36.994   6.398  0.00  0.00    -0.079 N 
ATOM     77  H33 LYS d   1      65.500  36.779   5.540  0.00  0.00     0.274 HD
ATOM     78  H34 LYS d   1      64.072  36.643   6.348  0.00  0.00     0.274 HD
ATOM     79  H35 LYS d   1      65.495  36.561   7.172  0.00  0.00     0.274 HD
ENDBRANCH  73  76
ENDBRANCH  70  73
ENDBRANCH  67  70
ENDBRANCH  64  67
ENDBRANCH  19  64
ENDBRANCH  16  19
ENDBRANCH  13  15
BRANCH  13  80
ATOM     80  CB  ILE d   1      60.442  41.547  13.397  0.00  0.00    -0.030 C 
ATOM     81  H38 ILE d   1      61.157  42.259  13.834  0.00  0.00     0.043 H 
BRANCH  80  82
ATOM     82  CG1 ILE d   1      61.075  40.147  13.400  0.00  0.00    -0.063 C 
ATOM     83  H39 ILE d   1      61.850  40.119  12.620  0.00  0.00     0.033 H 
ATOM     84  H40 ILE d   1      60.289  39.414  13.163  0.00  0.00     0.033 H 
BRANCH  82  85
ATOM     85  CD1 ILE d   1      61.714  39.747  14.718  0.00  0.00    -0.076 C 
ATOM     86  H44 ILE d   1      62.139  38.736  14.628  0.00  0.00     0.027 H 
ATOM     87  H45 ILE d   1      60.953  39.755  15.512  0.00  0.00     0.027 H 
ATOM     88  H46 ILE d   1      62.513  40.460  14.969  0.00  0.00     0.027 H 
ENDBRANCH  82  85
ENDBRANCH  80  82
BRANCH  80  89
ATOM     89  CG2 ILE d   1      59.163  41.573  14.226  0.00  0.00    -0.071 C 
ATOM     90  H41 ILE d   1      58.733  42.585  14.206  0.00  0.00     0.028 H 
ATOM     91  H42 ILE d   1      59.394  41.294  15.265  0.00  0.00     0.028 H 
ATOM     92  H43 ILE d   1      58.439  40.859  13.806  0.00  0.00     0.028 H 
ENDBRANCH  80  89
ENDBRANCH  13  80
ENDBRANCH  10  13
ENDBRANCH   7   9
BRANCH   7  93
ATOM     93  CB  LEU d   1      60.841  46.703  12.715  0.00  0.00    -0.035 C 
ATOM     94  H49 LEU d   1      61.579  46.673  11.900  0.00  0.00     0.037 H 
ATOM     95  H50 LEU d   1      61.310  46.354  13.647  0.00  0.00     0.037 H 
BRANCH  93  96
ATOM     96  CG  LEU d   1      60.431  48.164  12.919  0.00  0.00    -0.059 C 
ATOM     97  H51 LEU d   1      59.997  48.548  11.984  0.00  0.00     0.038 H 
BRANCH  96  98
ATOM     98  CD1 LEU d   1      59.402  48.262  14.014  0.00  0.00    -0.073 C 
ATOM     99  H52 LEU d   1      59.114  49.314  14.153  0.00  0.00     0.028 H 
ATOM    100  H53 LEU d   1      59.825  47.871  14.951  0.00  0.00     0.028 H 
ATOM    101  H54 LEU d   1      58.515  47.673  13.738  0.00  0.00     0.028 H 
ENDBRANCH  96  98
BRANCH  96 102
ATOM    102  CD2 LEU d   1      61.650  48.997  13.277  0.00  0.00    -0.073 C 
ATOM    103  H55 LEU d   1      62.396  48.920  12.472  0.00  0.00     0.028 H 
ATOM    104  H56 LEU d   1      62.085  48.626  14.217  0.00  0.00     0.028 H 
ATOM    105  H57 LEU d   1      61.352  50.049  13.401  0.00  0.00     0.028 H 
ENDBRANCH  96 102
ENDBRANCH  93  96
ENDBRANCH   7  93
ENDBRANCH   4   7
ENDBRANCH   1   3
BRANCH   1 106
ATOM    106  C   HIS d   1      57.835  45.575   8.361  0.00  0.00     0.241 C 
ATOM    107  O   HIS d   1      56.857  46.214   7.967  0.00  0.00    -0.271 OA
ATOM    108  N   ARG d   1      57.809  44.263   8.580  0.00  0.00    -0.346 N 
ATOM    109  H65 ARG d   1      58.639  43.809   8.904  0.00  0.00     0.163 HD
BRANCH 108 110
ATOM    110  CA  ARG d   1      56.604  43.465   8.362  0.00  0.00     0.089 C 
ATOM    111  H66 ARG d   1      56.339  43.521   7.296  0.00  0.00     0.087 H 
BRANCH 110 112
ATOM    112  C   ARG d   1      55.437  43.982   9.176  0.00  0.00     0.241 C 
ATOM    113  O   ARG d   1      54.309  44.042   8.687  0.00  0.00    -0.271 OA
ATOM    114  N   LEU d   1      55.716  44.370  10.416  0.00  0.00    -0.346 N 
ATOM    115  H78 LEU d   1      56.657  44.316  10.749  0.00  0.00     0.163 HD
BRANCH 114 116
ATOM    116  CA  LEU d   1      54.672  44.871  11.294  0.00  0.00     0.089 C 
ATOM    117  H79 LEU d   1      53.839  44.154  11.262  0.00  0.00     0.087 H 
BRANCH 116 118
ATOM    118  C   LEU d   1      54.128  46.223  10.855  0.00  0.00     0.241 C 
ATOM    119  O   LEU d   1      52.923  46.455  10.917  0.00  0.00    -0.271 OA
ATOM    120  N   LEU d   1      55.007  47.106  10.390  0.00  0.00    -0.346 N 
ATOM    121  H89 LEU d   1      55.973  46.853  10.336  0.00  0.00     0.163 HD
BRANCH 120 122
ATOM    122  CA  LEU d   1      54.590  48.441   9.955  0.00  0.00     0.089 C 
ATOM    123  H90 LEU d   1      53.946  48.859  10.742  0.00  0.00     0.087 H 
BRANCH 122 124
ATOM    124  C   LEU d   1      53.790  48.450   8.651  0.00  0.00     0.241 C 
ATOM    125  O   LEU d   1      52.892  49.271   8.468  0.00  0.00    -0.271 OA
ATOM    126  N   GLN d   1      54.126  47.531   7.753  0.00  0.00    -0.346 N 
ATOM    127 0H10 GLN d   1      54.859  46.887   7.974  0.00  0.00     0.163 HD
BRANCH 126 128
ATOM    128  CA  GLN d   1      53.468  47.425   6.458  0.00  0.00     0.090 C 
ATOM    129 1H10 GLN d   1      53.433  48.433   6.019  0.00  0.00     0.087 H 
BRANCH 128 130
ATOM    130  C   GLN d   1      52.039  46.914   6.537  0.00  0.00     0.241 C 
ATOM    131  O   GLN d   1      51.156  47.448   5.871  0.00  0.00    -0.271 OA
ATOM    132  N   ASP d   1      51.814  45.892   7.356  0.00  0.00    -0.344 N 
ATOM    133 8H10 ASP d   1      52.577  45.522   7.887  0.00  0.00     0.163 HD
BRANCH 132 134
ATOM    134  CA  ASP d   1      50.489  45.288   7.509  0.00  0.00     0.105 C 
ATOM    135 9H10 ASP d   1      50.196  44.898   6.523  0.00  0.00     0.090 H 
BRANCH 134 136
ATOM    136  C   ASP d   1      49.390  46.266   7.953  0.00  0.00     0.197 C 
ATOM    137  O   ASP d   1      49.012  46.246   9.143  0.00  0.00    -0.646 OA
ATOM    138  OXT ASP d   1      48.908  47.052   7.111  0.00  0.00    -0.646 OA
ENDBRANCH 134 136
BRANCH 134 139
ATOM    139  CB  ASP d   1      50.563  44.103   8.486  0.00  0.00     0.044 C 
ATOM    140 0H11 ASP d   1      50.837  44.483   9.481  0.00  0.00     0.053 H 
ATOM    141 1H11 ASP d   1      51.336  43.404   8.135  0.00  0.00     0.053 H 
BRANCH 139 142
ATOM    142  CG  ASP d   1      49.242  43.354   8.596  0.00  0.00     0.175 C 
ATOM    143  OD1 ASP d   1      48.644  43.055   7.538  0.00  0.00    -0.648 OA
ATOM    144  OD2 ASP d   1      48.804  43.060   9.731  0.00  0.00    -0.648 OA
ENDBRANCH 139 142
ENDBRANCH 134 139
ENDBRANCH 132 134
ENDBRANCH 128 130
BRANCH 128 145
ATOM    145  CB  GLN d   1      54.306  46.526   5.537  0.00  0.00    -0.030 C 
ATOM    146 2H10 GLN d   1      54.629  45.653   6.123  0.00  0.00     0.037 H 
ATOM    147 3H10 GLN d   1      55.188  47.101   5.220  0.00  0.00     0.037 H 
BRANCH 145 148
ATOM    148  CG  GLN d   1      53.607  46.008   4.274  0.00  0.00     0.011 C 
ATOM    149 4H10 GLN d   1      54.372  45.805   3.510  0.00  0.00     0.047 H 
ATOM    150 5H10 GLN d   1      52.923  46.788   3.909  0.00  0.00     0.047 H 
BRANCH 148 151
ATOM    151  CD  GLN d   1      52.803  44.728   4.506  0.00  0.00     0.215 C 
ATOM    152  OE1 GLN d   1      53.147  43.904   5.363  0.00  0.00    -0.274 OA
ATOM    153  NE2 GLN d   1      51.738  44.547   3.722  0.00  0.00    -0.370 N 
ATOM    154 6H10 GLN d   1      51.173  43.728   3.827  0.00  0.00     0.159 HD
ATOM    155 7H10 GLN d   1      51.505  45.230   3.030  0.00  0.00     0.159 HD
ENDBRANCH 148 151
ENDBRANCH 145 148
ENDBRANCH 128 145
ENDBRANCH 126 128
ENDBRANCH 122 124
BRANCH 122 156
ATOM    156  CB  LEU d   1      55.819  49.345   9.805  0.00  0.00    -0.035 C 
ATOM    157  H91 LEU d   1      55.509  50.251   9.263  0.00  0.00     0.037 H 
ATOM    158  H92 LEU d   1      56.569  48.801   9.212  0.00  0.00     0.037 H 
BRANCH 156 159
ATOM    159  CG  LEU d   1      56.479  49.781  11.114  0.00  0.00    -0.059 C 
ATOM    160  H93 LEU d   1      56.635  48.895  11.748  0.00  0.00     0.038 H 
BRANCH 159 161
ATOM    161  CD1 LEU d   1      57.833  50.424  10.837  0.00  0.00    -0.073 C 
ATOM    162  H94 LEU d   1      58.294  50.732  11.787  0.00  0.00     0.028 H 
ATOM    163  H95 LEU d   1      57.696  51.306  10.194  0.00  0.00     0.028 H 
ATOM    164  H96 LEU d   1      58.487  49.699  10.330  0.00  0.00     0.028 H 
ENDBRANCH 159 161
BRANCH 159 165
ATOM    165  CD2 LEU d   1      55.553  50.745  11.839  0.00  0.00    -0.073 C 
ATOM    166  H97 LEU d   1      54.586  50.255  12.025  0.00  0.00     0.028 H 
ATOM    167  H98 LEU d   1      55.397  51.640  11.219  0.00  0.00     0.028 H 
ATOM    168  H99 LEU d   1      56.006  51.038  12.798  0.00  0.00     0.028 H 
ENDBRANCH 159 165
ENDBRANCH 156 159
ENDBRANCH 122 156
ENDBRANCH 120 122
ENDBRANCH 116 118
BRANCH 116 169
ATOM    169  CB  LEU d   1      55.186  44.937  12.739  0.00  0.00    -0.035 C 
ATOM    170  H80 LEU d   1      54.396  45.370  13.370  0.00  0.00     0.037 H 
ATOM    171  H81 LEU d   1      56.072  45.588  12.764  0.00  0.00     0.037 H 
BRANCH 169 172
ATOM    172  CG  LEU d   1      55.574  43.564  13.317  0.00  0.00    -0.059 C 
ATOM    173  H82 LEU d   1      56.379  43.135  12.702  0.00  0.00     0.038 H 
BRANCH 172 174
ATOM    174  CD1 LEU d   1      56.077  43.729  14.733  0.00  0.00    -0.073 C 
ATOM    175  H83 LEU d   1      56.353  42.745  15.141  0.00  0.00     0.028 H 
ATOM    176  H84 LEU d   1      55.286  44.175  15.354  0.00  0.00     0.028 H 
ATOM    177  H85 LEU d   1      56.959  44.387  14.735  0.00  0.00     0.028 H 
ENDBRANCH 172 174
BRANCH 172 178
ATOM    178  CD2 LEU d   1      54.369  42.610  13.287  0.00  0.00    -0.073 C 
ATOM    179  H86 LEU d   1      54.014  42.500  12.252  0.00  0.00     0.028 H 
ATOM    180  H87 LEU d   1      53.561  43.021  13.910  0.00  0.00     0.028 H 
ATOM    181  H88 LEU d   1      54.670  41.627  13.678  0.00  0.00     0.028 H 
ENDBRANCH 172 178
ENDBRANCH 169 172
ENDBRANCH 116 169
ENDBRANCH 114 116
ENDBRANCH 110 112
BRANCH 110 182
ATOM    182  CB  ARG d   1      56.866  42.006   8.729  0.00  0.00    -0.036 C 
ATOM    183  H67 ARG d   1      55.906  41.469   8.734  0.00  0.00     0.036 H 
ATOM    184  H68 ARG d   1      57.310  41.973   9.735  0.00  0.00     0.036 H 
BRANCH 182 185
ATOM    185  CG  ARG d   1      57.795  41.314   7.775  0.00  0.00    -0.048 C 
ATOM    186  H69 ARG d   1      58.681  41.947   7.619  0.00  0.00     0.035 H 
ATOM    187  H70 ARG d   1      57.276  41.167   6.816  0.00  0.00     0.035 H 
BRANCH 185 188
ATOM    188  CD  ARG d   1      58.239  39.975   8.298  0.00  0.00     0.009 C 
ATOM    189  H71 ARG d   1      57.356  39.380   8.573  0.00  0.00     0.064 H 
ATOM    190  H72 ARG d   1      58.873  40.122   9.185  0.00  0.00     0.064 H 
BRANCH 188 191
ATOM    191  NE  ARG d   1      58.996  39.270   7.276  0.00  0.00    -0.227 N 
ATOM    192  CZ  ARG d   1      59.712  38.176   7.496  0.00  0.00     0.665 C 
ATOM    193  NH1 ARG d   1      59.777  37.658   8.716  0.00  0.00    -0.235 N 
ATOM    194  NH2 ARG d   1      60.358  37.599   6.490  0.00  0.00    -0.235 N 
ATOM    195  H74 ARG d   1      60.334  36.808   8.886  0.00  0.00     0.174 HD
ATOM    196  H75 ARG d   1      59.271  38.106   9.493  0.00  0.00     0.174 HD
ATOM    197  H76 ARG d   1      60.305  38.004   5.544  0.00  0.00     0.174 HD
ATOM    198  H77 ARG d   1      60.912  36.746   6.655  0.00  0.00     0.174 HD
ATOM    199  H73 ARG d   1      58.974  39.646   6.317  0.00  0.00     0.177 HD
ENDBRANCH 188 191
ENDBRANCH 185 188
ENDBRANCH 182 185
ENDBRANCH 110 182
ENDBRANCH 108 110
ENDBRANCH   1 106
BRANCH   1 200
ATOM    200  CB  HIS d   1      60.138  45.908   7.486  0.00  0.00     0.004 C 
ATOM    201  H60 HIS d   1      59.552  45.743   6.570  0.00  0.00     0.046 H 
ATOM    202  H61 HIS d   1      60.657  44.978   7.762  0.00  0.00     0.046 H 
BRANCH 200 203
ATOM    203  CG  HIS d   1      61.172  46.955   7.199  0.00  0.00     0.053 A 
ATOM    204  ND1 HIS d   1      62.369  47.031   7.880  0.00  0.00    -0.247 NA
ATOM    205  CE1 HIS d   1      63.084  48.036   7.404  0.00  0.00     0.064 A 
ATOM    206  NE2 HIS d   1      62.393  48.616   6.439  0.00  0.00    -0.359 N 
ATOM    207  H63 HIS d   1      64.073  48.334   7.748  0.00  0.00     0.143 H 
ATOM    208  CD2 HIS d   1      61.194  47.961   6.292  0.00  0.00     0.002 A 
ATOM    209  H64 HIS d   1      62.703  49.428   5.886  0.00  0.00     0.166 HD
ATOM    210  H62 HIS d   1      60.408  48.205   5.579  0.00  0.00     0.114 H 
ENDBRANCH 200 203
ENDBRANCH   1 200
TORSDOF 61
