REMARK  8 active torsions:
REMARK  status: ('A' for Active; 'I' for Inactive)
REMARK    1  A    between atoms: C2_2  and  C1_1 
REMARK    2  A    between atoms: C1_1  and  S1_30 
REMARK    3  A    between atoms: C3_3  and  C2_2 
REMARK    4  A    between atoms: C5_5  and  C4_4 
REMARK    5  A    between atoms: C7_7  and  C8_8 
REMARK    6  A    between atoms: C8_8  and  C9_9 
REMARK    7  A    between atoms: C8_8  and  C10_10 
REMARK    8  A    between atoms: C12_12  and  C13_13 
ROOT
ATOM      1  C5  L6G d   1      -1.605   6.012 -19.179  0.00  0.00     0.036 C 
ATOM      2  C6  L6G d   1      -0.590   5.022 -21.157  0.00  0.00     0.241 C 
ATOM      3  C7  L6G d   1       0.547   4.256 -21.783  0.00  0.00     0.092 C 
ATOM      4  C11 L6G d   1       2.725   3.582 -20.895  0.00  0.00     0.249 C 
ATOM      5  C12 L6G d   1       3.502   2.869 -19.811  0.00  0.00     0.140 C 
ATOM      6  C14 L6G d   1       3.975   1.545 -20.432  0.00  0.00     0.016 C 
ATOM      7  C15 L6G d   1       2.189   1.354 -18.680  0.00  0.00     0.118 C 
ATOM      8  C16 L6G d   1       1.100   0.996 -17.762  0.00  0.00     0.099 A 
ATOM      9  C17 L6G d   1       0.847  -0.278 -17.253  0.00  0.00    -0.013 A 
ATOM     10  C18 L6G d   1      -0.712   1.572 -16.515  0.00  0.00     0.093 A 
ATOM     11  C19 L6G d   1      -1.791   2.386 -15.865  0.00  0.00     0.041 C 
ATOM     12  C20 L6G d   1      -1.963   4.281 -17.370  0.00  0.00     0.220 C 
ATOM     13  C21 L6G d   1      -1.562   5.710 -17.694  0.00  0.00     0.031 C 
ATOM     14  N1  L6G d   1      -0.515   5.268 -19.852  0.00  0.00    -0.351 N 
ATOM     15  N2  L6G d   1       1.404   3.647 -20.771  0.00  0.00    -0.345 N 
ATOM     16  N3  L6G d   1       2.636   2.541 -18.677  0.00  0.00    -0.259 NA
ATOM     17  N4  L6G d   1       0.250   1.973 -17.343  0.00  0.00    -0.241 NA
ATOM     18  N5  L6G d   1      -1.453   3.755 -16.275  0.00  0.00    -0.355 N 
ATOM     19  O1  L6G d   1      -1.523   5.358 -21.867  0.00  0.00    -0.271 OA
ATOM     20  O2  L6G d   1       3.306   4.055 -21.871  0.00  0.00    -0.271 OA
ATOM     21  O3  L6G d   1      -2.733   3.645 -18.077  0.00  0.00    -0.274 OA
ATOM     22  S2  L6G d   1       2.908   0.297 -19.768  0.00  0.00    -0.105 SA
ATOM     23  S3  L6G d   1      -0.534  -0.133 -16.232  0.00  0.00    -0.083 SA
ATOM     24  H7  L6G d   1      -2.573   5.687 -19.589  0.00  0.00     0.079 H 
ATOM     25  H8  L6G d   1       1.142   4.935 -22.411  0.00  0.00     0.088 H 
ATOM     26  H19 L6G d   1       5.020   1.343 -20.155  0.00  0.00     0.054 H 
ATOM     27  H20 L6G d   1       3.887   1.582 -21.528  0.00  0.00     0.054 H 
ATOM     28  H21 L6G d   1       1.411  -1.186 -17.460  0.00  0.00     0.098 H 
ATOM     29  H22 L6G d   1      -1.762   2.281 -14.770  0.00  0.00     0.074 H 
ATOM     30  H23 L6G d   1      -2.785   2.095 -16.235  0.00  0.00     0.074 H 
ATOM     31  H24 L6G d   1      -2.251   6.394 -17.177  0.00  0.00     0.050 H 
ATOM     32  H25 L6G d   1      -0.537   5.878 -17.331  0.00  0.00     0.050 H 
ATOM     33  H26 L6G d   1       0.275   4.952 -19.327  0.00  0.00     0.163 HD
ATOM     34  H27 L6G d   1       0.980   3.263 -19.951  0.00  0.00     0.163 HD
ATOM     35  H28 L6G d   1      -0.826   4.296 -15.714  0.00  0.00     0.162 HD
ENDROOT
BRANCH   1  36
ATOM     36  C4  L6G d   1      -1.446   7.501 -19.406  0.00  0.00    -0.085 C 
ATOM     37  C3  L6G d   1      -2.486   8.349 -19.346  0.00  0.00    -0.104 C 
ATOM     38  H5  L6G d   1      -3.488   7.982 -19.129  0.00  0.00     0.076 H 
ATOM     39  H6  L6G d   1      -0.456   7.897 -19.625  0.00  0.00     0.079 H 
BRANCH  37  40
ATOM     40  C2  L6G d   1      -2.241   9.828 -19.586  0.00  0.00    -0.042 C 
ATOM     41  H3  L6G d   1      -1.161  10.006 -19.694  0.00  0.00     0.040 H 
ATOM     42  H4  L6G d   1      -2.757  10.138 -20.506  0.00  0.00     0.040 H 
BRANCH  40  43
ATOM     43  C1  L6G d   1      -2.781  10.654 -18.390  0.00  0.00    -0.023 C 
ATOM     44  H1  L6G d   1      -2.131  10.499 -17.516  0.00  0.00     0.049 H 
ATOM     45  H2  L6G d   1      -3.803  10.325 -18.150  0.00  0.00     0.049 H 
BRANCH  43  46
ATOM     46  S1  L6G d   1      -2.801  12.440 -18.828  0.00  0.00    -0.182 SA
ATOM     47  H29 L6G d   1      -1.864  12.742 -19.047  0.00  0.00     0.101 HD
ENDBRANCH  43  46
ENDBRANCH  40  43
ENDBRANCH  37  40
ENDBRANCH   1  36
BRANCH   3  48
ATOM     48  C8  L6G d   1      -0.037   3.113 -22.639  0.00  0.00    -0.033 C 
ATOM     49  H9  L6G d   1      -0.640   3.587 -23.427  0.00  0.00     0.042 H 
BRANCH  48  50
ATOM     50  C9  L6G d   1      -0.952   2.175 -21.849  0.00  0.00    -0.071 C 
ATOM     51  H10 L6G d   1      -1.333   1.387 -22.515  0.00  0.00     0.028 H 
ATOM     52  H11 L6G d   1      -1.797   2.747 -21.438  0.00  0.00     0.028 H 
ATOM     53  H12 L6G d   1      -0.385   1.717 -21.026  0.00  0.00     0.028 H 
ENDBRANCH  48  50
BRANCH  48  54
ATOM     54  C10 L6G d   1       1.033   2.247 -23.325  0.00  0.00    -0.071 C 
ATOM     55  H13 L6G d   1       1.711   2.892 -23.904  0.00  0.00     0.028 H 
ATOM     56  H14 L6G d   1       0.545   1.528 -24.000  0.00  0.00     0.028 H 
ATOM     57  H15 L6G d   1       1.608   1.702 -22.562  0.00  0.00     0.028 H 
ENDBRANCH  48  54
ENDBRANCH   3  48
BRANCH   5  58
ATOM     58  C13 L6G d   1       4.653   3.785 -19.393  0.00  0.00    -0.042 C 
ATOM     59  H16 L6G d   1       5.242   3.296 -18.603  0.00  0.00     0.031 H 
ATOM     60  H17 L6G d   1       4.247   4.734 -19.014  0.00  0.00     0.031 H 
ATOM     61  H18 L6G d   1       5.298   3.983 -20.262  0.00  0.00     0.031 H 
ENDBRANCH   5  58
TORSDOF 8
