REMARK  8 active torsions:
REMARK  status: ('A' for Active; 'I' for Inactive)
REMARK    1  A    between atoms: C2_2  and  C1_1 
REMARK    2  A    between atoms: C1_1  and  S1_32 
REMARK    3  A    between atoms: C3_3  and  C2_2 
REMARK    4  A    between atoms: C5_5  and  C4_4 
REMARK    5  A    between atoms: C7_7  and  C8_8 
REMARK    6  A    between atoms: C8_8  and  C9_9 
REMARK    7  A    between atoms: C8_8  and  C10_10 
REMARK    8  A    between atoms: C12_12  and  C13_13 
ROOT
ATOM      1  C5  L8G d   1      -1.476   6.252 -19.331  0.00  0.00     0.036 C 
ATOM      2  C6  L8G d   1      -0.560   5.112 -21.252  0.00  0.00     0.241 C 
ATOM      3  C7  L8G d   1       0.570   4.347 -21.886  0.00  0.00     0.092 C 
ATOM      4  C11 L8G d   1       2.714   3.844 -20.873  0.00  0.00     0.249 C 
ATOM      5  C12 L8G d   1       3.492   3.067 -19.843  0.00  0.00     0.140 C 
ATOM      6  C14 L8G d   1       3.961   1.762 -20.491  0.00  0.00     0.016 C 
ATOM      7  C15 L8G d   1       2.171   1.563 -18.687  0.00  0.00     0.117 C 
ATOM      8  C16 L8G d   1       1.103   1.127 -17.730  0.00  0.00     0.092 A 
ATOM      9  C17 L8G d   1       0.978  -0.212 -17.373  0.00  0.00    -0.052 A 
ATOM     10  C18 L8G d   1      -0.023  -0.594 -16.486  0.00  0.00    -0.079 A 
ATOM     11  C19 L8G d   1      -0.880   0.374 -15.979  0.00  0.00    -0.057 A 
ATOM     12  C20 L8G d   1      -0.724   1.702 -16.366  0.00  0.00     0.053 A 
ATOM     13  C21 L8G d   1      -1.651   2.761 -15.816  0.00  0.00     0.035 C 
ATOM     14  C22 L8G d   1      -1.813   4.615 -17.477  0.00  0.00     0.220 C 
ATOM     15  C23 L8G d   1      -1.321   5.999 -17.833  0.00  0.00     0.031 C 
ATOM     16  N1  L8G d   1      -0.411   5.504 -19.988  0.00  0.00    -0.351 N 
ATOM     17  N2  L8G d   1       1.398   3.644 -20.915  0.00  0.00    -0.345 N 
ATOM     18  N3  L8G d   1       2.634   2.735 -18.705  0.00  0.00    -0.259 NA
ATOM     19  N4  L8G d   1       0.255   2.049 -17.228  0.00  0.00    -0.249 NA
ATOM     20  N5  L8G d   1      -1.324   4.069 -16.366  0.00  0.00    -0.355 N 
ATOM     21  O1  L8G d   1      -1.563   5.368 -21.899  0.00  0.00    -0.271 OA
ATOM     22  O2  L8G d   1       3.290   4.602 -21.635  0.00  0.00    -0.271 OA
ATOM     23  O3  L8G d   1      -2.634   4.051 -18.179  0.00  0.00    -0.274 OA
ATOM     24  S2  L8G d   1       2.861   0.567 -19.818  0.00  0.00    -0.105 SA
ATOM     25  H7  L8G d   1      -2.457   5.897 -19.679  0.00  0.00     0.079 H 
ATOM     26  H8  L8G d   1       1.190   5.042 -22.471  0.00  0.00     0.088 H 
ATOM     27  H19 L8G d   1       5.003   1.538 -20.219  0.00  0.00     0.054 H 
ATOM     28  H20 L8G d   1       3.870   1.810 -21.586  0.00  0.00     0.054 H 
ATOM     29  H21 L8G d   1       1.656  -0.952 -17.783  0.00  0.00     0.087 H 
ATOM     30  H22 L8G d   1      -0.133  -1.632 -16.195  0.00  0.00     0.083 H 
ATOM     31  H23 L8G d   1      -1.666   0.097 -15.286  0.00  0.00     0.086 H 
ATOM     32  H24 L8G d   1      -1.551   2.795 -14.721  0.00  0.00     0.073 H 
ATOM     33  H25 L8G d   1      -2.688   2.507 -16.082  0.00  0.00     0.073 H 
ATOM     34  H26 L8G d   1      -1.907   6.746 -17.277  0.00  0.00     0.050 H 
ATOM     35  H27 L8G d   1      -0.260   6.088 -17.559  0.00  0.00     0.050 H 
ATOM     36  H28 L8G d   1       0.429   5.286 -19.491  0.00  0.00     0.163 HD
ATOM     37  H29 L8G d   1       0.974   3.005 -20.273  0.00  0.00     0.163 HD
ATOM     38  H30 L8G d   1      -0.661   4.615 -15.854  0.00  0.00     0.162 HD
ENDROOT
BRANCH   1  39
ATOM     39  C4  L8G d   1      -1.349   7.731 -19.610  0.00  0.00    -0.085 C 
ATOM     40  C3  L8G d   1      -2.206   8.599 -19.078  0.00  0.00    -0.104 C 
ATOM     41  H5  L8G d   1      -3.011   8.255 -18.431  0.00  0.00     0.076 H 
ATOM     42  H6  L8G d   1      -0.547   8.091 -20.253  0.00  0.00     0.079 H 
BRANCH  40  43
ATOM     43  C2  L8G d   1      -2.044  10.068 -19.386  0.00  0.00    -0.042 C 
ATOM     44  H3  L8G d   1      -1.001  10.363 -19.198  0.00  0.00     0.040 H 
ATOM     45  H4  L8G d   1      -2.290  10.244 -20.444  0.00  0.00     0.040 H 
BRANCH  43  46
ATOM     46  C1  L8G d   1      -2.967  10.908 -18.512  0.00  0.00    -0.023 C 
ATOM     47  H1  L8G d   1      -2.706  10.757 -17.454  0.00  0.00     0.049 H 
ATOM     48  H2  L8G d   1      -4.010  10.601 -18.680  0.00  0.00     0.049 H 
BRANCH  46  49
ATOM     49  S1  L8G d   1      -2.780  12.660 -18.934  0.00  0.00    -0.182 SA
ATOM     50  H31 L8G d   1      -3.392  13.211 -18.354  0.00  0.00     0.101 HD
ENDBRANCH  46  49
ENDBRANCH  43  46
ENDBRANCH  40  43
ENDBRANCH   1  39
BRANCH   3  51
ATOM     51  C8  L8G d   1      -0.008   3.255 -22.783  0.00  0.00    -0.033 C 
ATOM     52  H9  L8G d   1      -0.636   3.746 -23.541  0.00  0.00     0.042 H 
BRANCH  51  53
ATOM     53  C9  L8G d   1      -0.892   2.302 -21.990  0.00  0.00    -0.071 C 
ATOM     54  H10 L8G d   1      -1.292   1.529 -22.662  0.00  0.00     0.028 H 
ATOM     55  H11 L8G d   1      -1.724   2.863 -21.539  0.00  0.00     0.028 H 
ATOM     56  H12 L8G d   1      -0.298   1.826 -21.196  0.00  0.00     0.028 H 
ENDBRANCH  51  53
BRANCH  51  57
ATOM     57  C10 L8G d   1       1.086   2.484 -23.516  0.00  0.00    -0.071 C 
ATOM     58  H13 L8G d   1       1.714   3.188 -24.082  0.00  0.00     0.028 H 
ATOM     59  H14 L8G d   1       0.626   1.764 -24.209  0.00  0.00     0.028 H 
ATOM     60  H15 L8G d   1       1.707   1.945 -22.785  0.00  0.00     0.028 H 
ENDBRANCH  51  57
ENDBRANCH   3  51
BRANCH   5  61
ATOM     61  C13 L8G d   1       4.682   3.901 -19.388  0.00  0.00    -0.042 C 
ATOM     62  H16 L8G d   1       5.256   3.341 -18.635  0.00  0.00     0.031 H 
ATOM     63  H17 L8G d   1       4.323   4.843 -18.948  0.00  0.00     0.031 H 
ATOM     64  H18 L8G d   1       5.327   4.121 -20.251  0.00  0.00     0.031 H 
ENDBRANCH   5  61
TORSDOF 8
