REMARK  8 active torsions:
REMARK  status: ('A' for Active; 'I' for Inactive)
REMARK    1  A    between atoms: C2_2  and  C1_1 
REMARK    2  A    between atoms: C1_1  and  S1_32 
REMARK    3  A    between atoms: C3_3  and  C2_2 
REMARK    4  A    between atoms: C5_5  and  C4_4 
REMARK    5  A    between atoms: C7_7  and  C8_8 
REMARK    6  A    between atoms: C8_8  and  C9_9 
REMARK    7  A    between atoms: C8_8  and  C10_10 
REMARK    8  A    between atoms: C12_12  and  C13_13 
ROOT
ATOM      1  C5  L7G d   1      19.133  33.554  17.592  0.00  0.00     0.036 C 
ATOM      2  C6  L7G d   1      19.150  34.979  19.527  0.00  0.00     0.241 C 
ATOM      3  C7  L7G d   1      19.839  35.986  20.409  0.00  0.00     0.092 C 
ATOM      4  C11 L7G d   1      22.072  36.938  20.228  0.00  0.00     0.249 C 
ATOM      5  C12 L7G d   1      23.036  37.801  19.455  0.00  0.00     0.140 C 
ATOM      6  C14 L7G d   1      23.030  39.199  20.081  0.00  0.00     0.016 C 
ATOM      7  C15 L7G d   1      21.906  38.949  17.809  0.00  0.00     0.099 C 
ATOM      8  C16 L7G d   1      21.054  39.067  16.583  0.00  0.00     0.002 A 
ATOM      9  C17 L7G d   1      20.550  40.295  16.179  0.00  0.00    -0.053 A 
ATOM     10  C18 L7G d   1      19.756  40.361  15.039  0.00  0.00     0.003 A 
ATOM     11  C19 L7G d   1      19.953  38.045  14.716  0.00  0.00     0.052 A 
ATOM     12  C20 L7G d   1      20.749  37.930  15.848  0.00  0.00    -0.045 A 
ATOM     13  C21 L7G d   1      19.617  36.817  13.902  0.00  0.00     0.035 C 
ATOM     14  C22 L7G d   1      19.139  35.007  15.559  0.00  0.00     0.220 C 
ATOM     15  C23 L7G d   1      19.692  33.750  16.186  0.00  0.00     0.031 C 
ATOM     16  N1  L7G d   1      19.788  34.535  18.447  0.00  0.00    -0.351 N 
ATOM     17  N2  L7G d   1      20.842  36.796  19.726  0.00  0.00    -0.345 N 
ATOM     18  N3  L7G d   1      22.592  37.924  18.067  0.00  0.00    -0.261 NA
ATOM     19  N4  L7G d   1      19.476  39.253  14.339  0.00  0.00    -0.264 NA
ATOM     20  N5  L7G d   1      19.911  35.604  14.654  0.00  0.00    -0.355 N 
ATOM     21  O1  L7G d   1      18.035  34.581  19.820  0.00  0.00    -0.271 OA
ATOM     22  O2  L7G d   1      22.427  36.414  21.272  0.00  0.00    -0.271 OA
ATOM     23  O3  L7G d   1      18.035  35.424  15.868  0.00  0.00    -0.274 OA
ATOM     24  S2  L7G d   1      22.029  40.124  18.970  0.00  0.00    -0.107 SA
ATOM     25  H7  L7G d   1      18.045  33.715  17.598  0.00  0.00     0.079 H 
ATOM     26  H8  L7G d   1      20.307  35.458  21.253  0.00  0.00     0.088 H 
ATOM     27  H19 L7G d   1      24.048  39.613  20.134  0.00  0.00     0.054 H 
ATOM     28  H20 L7G d   1      22.589  39.179  21.088  0.00  0.00     0.054 H 
ATOM     29  H21 L7G d   1      20.772  41.192  16.745  0.00  0.00     0.087 H 
ATOM     30  H22 L7G d   1      19.360  41.316  14.714  0.00  0.00     0.114 H 
ATOM     31  H23 L7G d   1      21.128  36.962  16.154  0.00  0.00     0.088 H 
ATOM     32  H24 L7G d   1      20.213  36.822  12.978  0.00  0.00     0.073 H 
ATOM     33  H25 L7G d   1      18.547  36.834  13.648  0.00  0.00     0.073 H 
ATOM     34  H26 L7G d   1      19.416  32.886  15.564  0.00  0.00     0.050 H 
ATOM     35  H27 L7G d   1      20.788  33.827  16.241  0.00  0.00     0.050 H 
ATOM     36  H28 L7G d   1      20.704  34.870  18.225  0.00  0.00     0.163 HD
ATOM     37  H29 L7G d   1      20.605  37.252  18.868  0.00  0.00     0.163 HD
ATOM     38  H30 L7G d   1      20.793  35.171  14.469  0.00  0.00     0.162 HD
ENDROOT
BRANCH   1  39
ATOM     39  C4  L7G d   1      19.439  32.150  18.056  0.00  0.00    -0.085 C 
ATOM     40  C3  L7G d   1      19.071  31.097  17.334  0.00  0.00    -0.104 C 
ATOM     41  H5  L7G d   1      18.541  31.233  16.393  0.00  0.00     0.076 H 
ATOM     42  H6  L7G d   1      19.969  31.998  18.995  0.00  0.00     0.079 H 
BRANCH  40  43
ATOM     43  C2  L7G d   1      19.397  29.709  17.834  0.00  0.00    -0.042 C 
ATOM     44  H3  L7G d   1      20.470  29.652  18.071  0.00  0.00     0.040 H 
ATOM     45  H4  L7G d   1      18.810  29.503  18.741  0.00  0.00     0.040 H 
BRANCH  43  46
ATOM     46  C1  L7G d   1      19.061  28.669  16.771  0.00  0.00    -0.023 C 
ATOM     47  H1  L7G d   1      19.634  28.881  15.857  0.00  0.00     0.049 H 
ATOM     48  H2  L7G d   1      17.985  28.708  16.546  0.00  0.00     0.049 H 
BRANCH  46  49
ATOM     49  S1  L7G d   1      19.490  27.019  17.385  0.00  0.00    -0.182 SA
ATOM     50  H31 L7G d   1      20.476  26.984  17.590  0.00  0.00     0.101 HD
ENDBRANCH  46  49
ENDBRANCH  43  46
ENDBRANCH  40  43
ENDBRANCH   1  39
BRANCH   3  51
ATOM     51  C8  L7G d   1      18.795  36.982  20.907  0.00  0.00    -0.033 C 
ATOM     52  H9  L7G d   1      17.971  36.404  21.350  0.00  0.00     0.042 H 
BRANCH  51  53
ATOM     53  C9  L7G d   1      18.220  37.801  19.756  0.00  0.00    -0.071 C 
ATOM     54  H10 L7G d   1      17.473  38.508  20.146  0.00  0.00     0.028 H 
ATOM     55  H11 L7G d   1      17.743  37.127  19.029  0.00  0.00     0.028 H 
ATOM     56  H12 L7G d   1      19.029  38.359  19.263  0.00  0.00     0.028 H 
ENDBRANCH  51  53
BRANCH  51  57
ATOM     57  C10 L7G d   1      19.357  37.890  21.996  0.00  0.00    -0.071 C 
ATOM     58  H13 L7G d   1      19.764  37.275  22.812  0.00  0.00     0.028 H 
ATOM     59  H14 L7G d   1      18.555  38.533  22.387  0.00  0.00     0.028 H 
ATOM     60  H15 L7G d   1      20.157  38.516  21.575  0.00  0.00     0.028 H 
ENDBRANCH  51  57
ENDBRANCH   3  51
BRANCH   5  61
ATOM     61  C13 L7G d   1      24.425  37.181  19.524  0.00  0.00    -0.042 C 
ATOM     62  H16 L7G d   1      25.134  37.806  18.962  0.00  0.00     0.031 H 
ATOM     63  H17 L7G d   1      24.398  36.172  19.086  0.00  0.00     0.031 H 
ATOM     64  H18 L7G d   1      24.746  37.117  20.574  0.00  0.00     0.031 H 
ENDBRANCH   5  61
TORSDOF 8
