REMARK  11 active torsions:
REMARK  status: ('A' for Active; 'I' for Inactive)
REMARK    1  A    between atoms: C8_11  and  S_1 
REMARK    2  A    between atoms: S_1  and  N1_15 
REMARK    3  A    between atoms: C2_5  and  C10_13 
REMARK    4  A    between atoms: N1_15  and  CA_16 
REMARK    5  A    between atoms: CA_16  and  C_17 
REMARK    6  A    between atoms: CA_16  and  CB_19 
REMARK       I    between atoms: C_17  and  N2_26 
REMARK    7  A    between atoms: CB_19  and  CG_20 
REMARK    8  A    between atoms: CG_20  and  CD_21 
REMARK    9  A    between atoms: CD_21  and  NE_22 
REMARK       I    between atoms: NE_22  and  CZ_23 
REMARK       I    between atoms: CZ_23  and  NH1_24 
REMARK   10  A    between atoms: C11_27  and  C61_32 
REMARK   11  A    between atoms: C31_29  and  C71_35 
ROOT
ATOM      1  CA  15U d   1      -1.009   2.992   5.019  0.00  0.00     0.097 C 
ATOM      2  H   15U d   1      -1.132   1.965   5.393  0.00  0.00     0.088 H 
ENDROOT
BRANCH   1   3
ATOM      3  N1  15U d   1      -2.308   3.646   5.064  0.00  0.00    -0.301 N 
ATOM      4  H   15U d   1      -2.539   4.282   4.328  0.00  0.00     0.173 HD
BRANCH   3   5
ATOM      5  S   15U d   1      -3.394   3.408   6.225  0.00  0.00     0.261 S 
ATOM      6  O1  15U d   1      -4.015   4.684   6.463  0.00  0.00    -0.200 OA
ATOM      7  O2  15U d   1      -4.404   2.489   5.766  0.00  0.00    -0.200 OA
BRANCH   5   8
ATOM      8  C8  15U d   1      -2.736   2.861   7.584  0.00  0.00     0.106 A 
ATOM      9  C7  15U d   1      -2.500   1.498   7.769  0.00  0.00    -0.058 A 
ATOM     10  C6  15U d   1      -1.922   1.010   8.942  0.00  0.00    -0.081 A 
ATOM     11  H   15U d   1      -2.772   0.802   6.984  0.00  0.00     0.086 H 
ATOM     12  C5  15U d   1      -1.550   1.847   9.995  0.00  0.00    -0.075 A 
ATOM     13  H   15U d   1      -1.756  -0.057   9.039  0.00  0.00     0.083 H 
ATOM     14  C4  15U d   1      -1.743   3.224   9.911  0.00  0.00    -0.030 A 
ATOM     15  H   15U d   1      -1.106   1.421  10.888  0.00  0.00     0.084 H 
ATOM     16  C3  15U d   1      -1.341   4.135  11.056  0.00  0.00    -0.034 C 
ATOM     17  C9  15U d   1      -2.356   3.796   8.680  0.00  0.00     0.058 A 
ATOM     18  C2  15U d   1      -1.182   5.574  10.555  0.00  0.00    -0.038 C 
ATOM     19  H   15U d   1      -2.118   4.105  11.834  0.00  0.00     0.040 H 
ATOM     20  H   15U d   1      -0.386   3.789  11.477  0.00  0.00     0.040 H 
ATOM     21  C1  15U d   1      -2.403   5.991   9.733  0.00  0.00    -0.004 C 
ATOM     22  H   15U d   1      -0.302   5.607   9.896  0.00  0.00     0.042 H 
ATOM     23  N   15U d   1      -2.552   5.131   8.571  0.00  0.00    -0.388 N 
ATOM     24  H   15U d   1      -2.277   7.032   9.399  0.00  0.00     0.064 H 
ATOM     25  H   15U d   1      -3.304   5.913  10.359  0.00  0.00     0.064 H 
ATOM     26  H   15U d   1      -2.808   5.539   7.660  0.00  0.00     0.159 HD
BRANCH  18  27
ATOM     27  C10 15U d   1      -0.937   6.544  11.705  0.00  0.00    -0.071 C 
ATOM     28  H   15U d   1      -0.828   7.564  11.307  0.00  0.00     0.028 H 
ATOM     29  H   15U d   1      -0.018   6.258  12.237  0.00  0.00     0.028 H 
ATOM     30  H   15U d   1      -1.788   6.511  12.401  0.00  0.00     0.028 H 
ENDBRANCH  18  27
ENDBRANCH   5   8
ENDBRANCH   3   5
ENDBRANCH   1   3
BRANCH   1  31
ATOM     31  C   15U d   1       0.020   3.674   5.892  0.00  0.00     0.244 C 
ATOM     32  O   15U d   1      -0.080   4.878   6.064  0.00  0.00    -0.271 OA
ATOM     33  N2  15U d   1       1.020   2.966   6.456  0.00  0.00    -0.336 N 
ATOM     34  C11 15U d   1       1.260   1.552   6.104  0.00  0.00     0.099 C 
ATOM     35  C51 15U d   1       1.990   3.528   7.414  0.00  0.00    -0.001 C 
ATOM     36  C21 15U d   1       1.413   0.696   7.374  0.00  0.00    -0.033 C 
ATOM     37  H   15U d   1       0.369   1.192   5.568  0.00  0.00     0.089 H 
ATOM     38  C31 15U d   1       2.439   1.254   8.357  0.00  0.00    -0.054 C 
ATOM     39  H   15U d   1       1.727  -0.316   7.078  0.00  0.00     0.037 H 
ATOM     40  H   15U d   1       0.438   0.643   7.880  0.00  0.00     0.037 H 
ATOM     41  C41 15U d   1       2.033   2.684   8.688  0.00  0.00    -0.047 C 
ATOM     42  H   15U d   1       3.424   1.270   7.867  0.00  0.00     0.039 H 
ATOM     43  H   15U d   1       2.764   3.117   9.386  0.00  0.00     0.035 H 
ATOM     44  H   15U d   1       1.037   2.680   9.155  0.00  0.00     0.035 H 
ATOM     45  H   15U d   1       1.692   4.556   7.670  0.00  0.00     0.064 H 
ATOM     46  H   15U d   1       2.989   3.540   6.953  0.00  0.00     0.064 H 
BRANCH  34  47
ATOM     47  C61 15U d   1       2.441   1.379   5.174  0.00  0.00     0.197 C 
ATOM     48  O11 15U d   1       3.059   2.400   4.776  0.00  0.00    -0.646 OA
ATOM     49  O21 15U d   1       2.762   0.215   4.822  0.00  0.00    -0.646 OA
ENDBRANCH  34  47
BRANCH  38  50
ATOM     50  C71 15U d   1       2.554   0.399   9.614  0.00  0.00    -0.073 C 
ATOM     51  H   15U d   1       2.848  -0.624   9.336  0.00  0.00     0.028 H 
ATOM     52  H   15U d   1       1.583   0.374  10.130  0.00  0.00     0.028 H 
ATOM     53  H   15U d   1       3.314   0.830  10.282  0.00  0.00     0.028 H 
ENDBRANCH  38  50
ENDBRANCH   1  31
BRANCH   1  54
ATOM     54  CB  15U d   1      -0.545   2.920   3.565  0.00  0.00    -0.036 C 
ATOM     55  H   15U d   1      -1.138   2.153   3.046  0.00  0.00     0.036 H 
ATOM     56  H   15U d   1       0.517   2.635   3.550  0.00  0.00     0.036 H 
BRANCH  54  57
ATOM     57  CG  15U d   1      -0.702   4.238   2.821  0.00  0.00    -0.048 C 
ATOM     58  H   15U d   1      -1.170   4.974   3.491  0.00  0.00     0.035 H 
ATOM     59  H   15U d   1      -1.345   4.080   1.943  0.00  0.00     0.035 H 
BRANCH  57  60
ATOM     60  CD  15U d   1       0.646   4.775   2.358  0.00  0.00     0.009 C 
ATOM     61  H   15U d   1       0.927   4.287   1.413  0.00  0.00     0.064 H 
ATOM     62  H   15U d   1       1.407   4.559   3.123  0.00  0.00     0.064 H 
BRANCH  60  63
ATOM     63  NE  15U d   1       0.564   6.209   2.153  0.00  0.00    -0.227 N 
ATOM     64  CZ  15U d   1       1.587   6.957   1.749  0.00  0.00     0.665 C 
ATOM     65  NH1 15U d   1       1.380   7.855   0.788  0.00  0.00    -0.235 N 
ATOM     66  NH2 15U d   1       2.732   6.837   2.266  0.00  0.00    -0.235 N 
ATOM     67  H   15U d   1       2.157   8.445   0.459  0.00  0.00     0.174 HD
ATOM     68  H   15U d   1       0.443   7.959   0.374  0.00  0.00     0.174 HD
ATOM     69  H   15U d   1       2.891   6.142   3.009  0.00  0.00     0.174 HD
ATOM     70  H   15U d   1       3.507   7.434   1.945  0.00  0.00     0.174 HD
ATOM     71  H   15U d   1      -0.338   6.674   2.330  0.00  0.00     0.177 HD
ENDBRANCH  60  63
ENDBRANCH  57  60
ENDBRANCH  54  57
ENDBRANCH   1  54
TORSDOF 11
