REMARK  3 active torsions:
REMARK  status: ('A' for Active; 'I' for Inactive)
REMARK    1  A    between atoms: C1_21  and  C11_5 
REMARK    2  A    between atoms: C7_27  and  C17_12 
REMARK    3  A    between atoms: C19_17  and  N6_30 
ROOT
ATOM      1  C15 3UR d   1     -15.567 -34.788  -1.561  0.00  0.00     0.046 A 
ATOM      2  C16 3UR d   1     -16.382 -35.539  -0.612  0.00  0.00     0.144 A 
ATOM      3  N2  3UR d   1     -17.320 -36.420  -1.129  0.00  0.00    -0.226 NA
ATOM      4  C17 3UR d   1     -17.600 -36.729  -2.484  0.00  0.00     0.105 A 
ATOM      5  C13 3UR d   1     -16.770 -35.992  -3.383  0.00  0.00     0.032 A 
ATOM      6  N3  3UR d   1     -15.830 -35.085  -2.883  0.00  0.00    -0.267 NA
ATOM      7  N4  3UR d   1     -16.174 -35.548   0.731  0.00  0.00    -0.363 N 
ATOM      8  C18 3UR d   1     -14.965 -34.895   1.244  0.00  0.00     0.023 C 
ATOM      9  C19 3UR d   1     -14.028 -35.920   1.864  0.00  0.00     0.115 C 
ATOM     10  C20 3UR d   1     -14.891 -36.878   2.699  0.00  0.00    -0.036 C 
ATOM     11  C21 3UR d   1     -16.253 -37.384   2.211  0.00  0.00    -0.048 C 
ATOM     12  C22 3UR d   1     -17.049 -36.221   1.687  0.00  0.00    -0.003 C 
ATOM     13  H4  3UR d   1     -14.822 -34.062  -1.255  0.00  0.00     0.120 H 
ATOM     14  H5  3UR d   1     -16.869 -36.136  -4.453  0.00  0.00     0.118 H 
ATOM     15  H6  3UR d   1     -15.249 -34.156   2.007  0.00  0.00     0.067 H 
ATOM     16  H7  3UR d   1     -14.449 -34.387   0.416  0.00  0.00     0.067 H 
ATOM     17  H8  3UR d   1     -13.470 -36.498   1.113  0.00  0.00     0.086 H 
ATOM     18  H9  3UR d   1     -15.078 -36.369   3.656  0.00  0.00     0.036 H 
ATOM     19  H10 3UR d   1     -14.275 -37.773   2.874  0.00  0.00     0.036 H 
ATOM     20  H11 3UR d   1     -16.793 -37.854   3.046  0.00  0.00     0.035 H 
ATOM     21  H12 3UR d   1     -16.106 -38.122   1.408  0.00  0.00     0.035 H 
ATOM     22  H13 3UR d   1     -17.963 -36.575   1.188  0.00  0.00     0.064 H 
ATOM     23  H14 3UR d   1     -17.319 -35.539   2.507  0.00  0.00     0.064 H 
ENDROOT
BRANCH   4  24
ATOM     24  C7  3UR d   1     -18.656 -37.724  -2.852  0.00  0.00     0.093 A 
ATOM     25  C3  3UR d   1     -19.553 -38.506  -2.063  0.00  0.00     0.026 A 
ATOM     26  C2  3UR d   1     -19.677 -38.588  -0.615  0.00  0.00    -0.058 A 
ATOM     27  C4  3UR d   1     -20.404 -39.319  -2.882  0.00  0.00     0.089 A 
ATOM     28  C1  3UR d   1     -20.624 -39.463   0.071  0.00  0.00    -0.019 A 
ATOM     29  H15 3UR d   1     -19.029 -37.964  -0.011  0.00  0.00     0.086 H 
ATOM     30  C6  3UR d   1     -21.506 -40.293  -0.850  0.00  0.00    -0.070 A 
ATOM     31  C5  3UR d   1     -21.396 -40.222  -2.338  0.00  0.00    -0.052 A 
ATOM     32  H17 3UR d   1     -22.240 -40.959  -0.411  0.00  0.00     0.084 H 
ATOM     33  H16 3UR d   1     -22.031 -40.820  -2.982  0.00  0.00     0.087 H 
ATOM     34  N5  3UR d   1     -20.023 -39.031  -4.112  0.00  0.00    -0.174 NA
ATOM     35  N1  3UR d   1     -18.979 -38.080  -4.147  0.00  0.00    -0.275 N 
ATOM     36  H18 3UR d   1     -18.532 -37.712  -4.999  0.00  0.00     0.189 HD
BRANCH  28  37
ATOM     37  C11 3UR d   1     -20.541 -39.507   1.637  0.00  0.00     0.051 A 
ATOM     38  C10 3UR d   1     -20.239 -38.376   2.477  0.00  0.00     0.130 A 
ATOM     39  C9  3UR d   1     -20.178 -38.488   3.939  0.00  0.00    -0.045 A 
ATOM     40  F1  3UR d   1     -19.935 -37.160   2.030  0.00  0.00    -0.205 F 
ATOM     41  C8  3UR d   1     -20.409 -39.729   4.649  0.00  0.00    -0.077 A 
ATOM     42  H3  3UR d   1     -19.949 -37.599   4.515  0.00  0.00     0.088 H 
ATOM     43  C14 3UR d   1     -20.694 -40.839   3.835  0.00  0.00    -0.045 A 
ATOM     44  H2  3UR d   1     -20.365 -39.797   5.730  0.00  0.00     0.083 H 
ATOM     45  C12 3UR d   1     -20.753 -40.740   2.403  0.00  0.00     0.130 A 
ATOM     46  H1  3UR d   1     -20.875 -41.800   4.303  0.00  0.00     0.088 H 
ATOM     47  F2  3UR d   1     -20.965 -41.970   1.919  0.00  0.00    -0.205 F 
ENDBRANCH  28  37
ENDBRANCH   4  24
BRANCH   9  48
ATOM     48  N6  3UR d   1     -13.136 -35.021   2.589  0.00  0.00    -0.073 N 
ATOM     49  H19 3UR d   1     -12.629 -34.449   1.932  0.00  0.00     0.274 HD
ATOM     50  H20 3UR d   1     -12.485 -35.562   3.135  0.00  0.00     0.274 HD
ATOM     51  H21 3UR d   1     -13.678 -34.431   3.200  0.00  0.00     0.274 HD
ENDBRANCH   9  48
TORSDOF 3
