REMARK WARNING: 32 MAX_TORS EXCEEDED!!!
REMARK  65 active torsions:
REMARK  status: ('A' for Active; 'I' for Inactive)
REMARK    1  A    between atoms: N_1  and  CA_2 
REMARK    2  A    between atoms: CA_2  and  C_3 
REMARK    3  A    between atoms: CA_2  and  CB_5 
REMARK       I    between atoms: C_3  and  N_9 
REMARK    4  A    between atoms: CB_5  and  CG_6 
REMARK       I    between atoms: CG_6  and  ND2_8 
REMARK    5  A    between atoms: N_9  and  CA_10 
REMARK    6  A    between atoms: CA_10  and  C_11 
REMARK    7  A    between atoms: CA_10  and  CB_13 
REMARK       I    between atoms: C_11  and  N_20 
REMARK    8  A    between atoms: CB_13  and  CG_14 
REMARK    9  A    between atoms: CG_14  and  CD_15 
REMARK   10  A    between atoms: CD_15  and  NE_16 
REMARK       I    between atoms: NE_16  and  CZ_17 
REMARK       I    between atoms: CZ_17  and  NH1_18 
REMARK       I    between atoms: CZ_17  and  NH2_19 
REMARK   11  A    between atoms: N_20  and  CA_21 
REMARK   12  A    between atoms: CA_21  and  C_22 
REMARK   13  A    between atoms: CA_21  and  CB_24 
REMARK       I    between atoms: C_22  and  N_25 
REMARK   14  A    between atoms: N_25  and  CA_26 
REMARK   15  A    between atoms: CA_26  and  C_27 
REMARK   16  A    between atoms: CA_26  and  CB_29 
REMARK       I    between atoms: C_27  and  N_33 
REMARK   17  A    between atoms: CB_29  and  CG_30 
REMARK   18  A    between atoms: CG_30  and  CD1_31 
REMARK   19  A    between atoms: CG_30  and  CD2_32 
REMARK   20  A    between atoms: N_33  and  CA_34 
REMARK   21  A    between atoms: CA_34  and  C_35 
REMARK   22  A    between atoms: CA_34  and  CB_37 
REMARK       I    between atoms: C_35  and  N_42 
REMARK   23  A    between atoms: CB_37  and  CG_38 
REMARK   24  A    between atoms: CG_38  and  CD_39 
REMARK   25  A    between atoms: N_42  and  CA_43 
REMARK   26  A    between atoms: CA_43  and  C_44 
REMARK   27  A    between atoms: CA_43  and  CB_46 
REMARK       I    between atoms: C_44  and  N_50 
REMARK   28  A    between atoms: CB_46  and  CG_47 
REMARK   29  A    between atoms: CG_47  and  CD1_48 
REMARK   30  A    between atoms: CG_47  and  CD2_49 
REMARK   31  A    between atoms: N_50  and  CA_51 
REMARK   32  A    between atoms: CA_51  and  C_52 
REMARK   33  A    between atoms: CA_51  and  CB_54 
REMARK       I    between atoms: C_52  and  N_59 
REMARK   34  A    between atoms: CB_54  and  CG_55 
REMARK   35  A    between atoms: CG_55  and  CD_56 
REMARK   36  A    between atoms: N_59  and  CA_60 
REMARK   37  A    between atoms: CA_60  and  C_61 
REMARK   38  A    between atoms: CA_60  and  CB_63 
REMARK       I    between atoms: C_61  and  N_64 
REMARK   39  A    between atoms: N_64  and  CA_65 
REMARK   40  A    between atoms: CA_65  and  C_66 
REMARK   41  A    between atoms: CA_65  and  CB_68 
REMARK       I    between atoms: C_66  and  N_76 
REMARK   42  A    between atoms: CB_68  and  CG_69 
REMARK   43  A    between atoms: CZ_74  and  OH_75 
REMARK   44  A    between atoms: N_76  and  CA_77 
REMARK   45  A    between atoms: CA_77  and  C_78 
REMARK   46  A    between atoms: CA_77  and  CB_80 
REMARK       I    between atoms: C_78  and  N_87 
REMARK   47  A    between atoms: CB_80  and  CG_81 
REMARK   48  A    between atoms: CG_81  and  CD_82 
REMARK   49  A    between atoms: CD_82  and  NE_83 
REMARK       I    between atoms: NE_83  and  CZ_84 
REMARK       I    between atoms: CZ_84  and  NH1_85 
REMARK   50  A    between atoms: N_87  and  CA_88 
REMARK   51  A    between atoms: CA_88  and  C_89 
REMARK   52  A    between atoms: CA_88  and  CB_91 
REMARK       I    between atoms: C_89  and  N_95 
REMARK   53  A    between atoms: CB_91  and  CG_92 
REMARK   54  A    between atoms: CG_92  and  CD1_93 
REMARK   55  A    between atoms: CG_92  and  CD2_94 
REMARK   56  A    between atoms: N_95  and  CA_96 
REMARK   57  A    between atoms: CA_96  and  C_97 
REMARK       I    between atoms: C_97  and  N_99 
REMARK   58  A    between atoms: CA_100  and  C_101 
REMARK       I    between atoms: C_101  and  N_106 
REMARK   59  A    between atoms: N_106  and  CA_107 
REMARK   60  A    between atoms: CA_107  and  C_108 
REMARK   61  A    between atoms: CA_107  and  CB_110 
REMARK       I    between atoms: C_108  and  N_111 
REMARK   62  A    between atoms: N_111  and  CA_112 
REMARK   63  A    between atoms: CA_112  and  C_113 
REMARK   64  A    between atoms: CA_112  and  CB_115 
REMARK   65  A    between atoms: CB_115  and  OG_116 
ROOT
ATOM      1  C   GLU d   1       1.211  18.722  45.993  0.00  0.00     0.241 C 
ATOM      2  O   GLU d   1       1.110  17.672  46.622  0.00  0.00    -0.271 OA
ATOM      3  N   ALA d   1       0.168  19.463  45.633  0.00  0.00    -0.346 N 
ATOM      4  H61 ALA d   1       0.333  20.310  45.128  0.00  0.00     0.163 HD
ENDROOT
BRANCH   1   5
ATOM      5  CA  GLU d   1       2.570  19.263  45.575  0.00  0.00     0.090 C 
ATOM      6  H56 GLU d   1       3.263  18.419  45.441  0.00  0.00     0.087 H 
BRANCH   5   7
ATOM      7  N   GLU d   1       2.436  19.968  44.308  0.00  0.00    -0.346 N 
ATOM      8  C   LEU d   1       1.989  19.383  43.199  0.00  0.00     0.241 C 
ATOM      9  O   LEU d   1       1.654  18.199  43.141  0.00  0.00    -0.271 OA
ATOM     10  H55 GLU d   1       2.691  20.934  44.269  0.00  0.00     0.163 HD
BRANCH   8  11
ATOM     11  CA  LEU d   1       1.920  20.277  41.967  0.00  0.00     0.089 C 
ATOM     12  H45 LEU d   1       1.349  19.749  41.190  0.00  0.00     0.087 H 
BRANCH  11  13
ATOM     13  N   LEU d   1       1.225  21.514  42.289  0.00  0.00    -0.346 N 
ATOM     14  C   GLU d   1      -0.075  21.539  42.557  0.00  0.00     0.241 C 
ATOM     15  O   GLU d   1      -0.796  20.540  42.487  0.00  0.00    -0.271 OA
ATOM     16  H44 LEU d   1       1.742  22.370  42.309  0.00  0.00     0.163 HD
BRANCH  14  17
ATOM     17  CA  GLU d   1      -0.652  22.905  42.923  0.00  0.00     0.090 C 
ATOM     18  H39 GLU d   1      -1.404  22.750  43.711  0.00  0.00     0.087 H 
BRANCH  17  19
ATOM     19  N   GLU d   1       0.408  23.749  43.470  0.00  0.00    -0.346 N 
ATOM     20  C   LEU d   1       0.762  23.624  44.744  0.00  0.00     0.241 C 
ATOM     21  O   LEU d   1       0.135  22.906  45.522  0.00  0.00    -0.271 OA
ATOM     22  H38 GLU d   1       0.866  24.419  42.886  0.00  0.00     0.163 HD
BRANCH  20  23
ATOM     23  CA  LEU d   1       1.977  24.423  45.246  0.00  0.00     0.089 C 
ATOM     24  H28 LEU d   1       2.481  23.793  45.993  0.00  0.00     0.087 H 
BRANCH  23  25
ATOM     25  N   LEU d   1       2.982  24.754  44.231  0.00  0.00    -0.346 N 
ATOM     26  C   ARG d   1       3.907  23.877  43.843  0.00  0.00     0.240 C 
ATOM     27  O   ARG d   1       3.864  22.690  44.147  0.00  0.00    -0.271 OA
ATOM     28  H27 LEU d   1       2.973  25.665  43.818  0.00  0.00     0.163 HD
BRANCH  26  29
ATOM     29  CA  ARG d   1       5.035  24.404  42.946  0.00  0.00     0.086 C 
ATOM     30  H23 ARG d   1       5.599  23.525  42.601  0.00  0.00     0.086 H 
BRANCH  29  31
ATOM     31  N   ARG d   1       4.635  25.145  41.742  0.00  0.00    -0.346 N 
ATOM     32  C   ARG d   1       3.382  25.336  41.331  0.00  0.00     0.241 C 
ATOM     33  O   ARG d   1       2.391  24.960  41.951  0.00  0.00    -0.271 OA
ATOM     34  H22 ARG d   1       5.365  25.539  41.184  0.00  0.00     0.163 HD
BRANCH  32  35
ATOM     35  CA  ARG d   1       3.219  26.077  40.008  0.00  0.00     0.089 C 
ATOM     36  H10 ARG d   1       2.183  26.443  39.954  0.00  0.00     0.087 H 
BRANCH  35  37
ATOM     37  N   ARG d   1       4.104  27.247  39.887  0.00  0.00    -0.346 N 
ATOM     38  C   ASN d   1       5.436  27.175  39.813  0.00  0.00     0.249 C 
ATOM     39  O   ASN d   1       6.060  26.113  39.771  0.00  0.00    -0.271 OA
ATOM     40  H9  ARG d   1       3.682  28.153  39.858  0.00  0.00     0.163 HD
BRANCH  38  41
ATOM     41  CA  ASN d   1       6.184  28.507  39.796  0.00  0.00     0.183 C 
ATOM     42  H4  ASN d   1       7.146  28.351  39.285  0.00  0.00     0.099 H 
BRANCH  41  43
ATOM     43  N   ASN d   1       5.460  29.548  39.077  0.00  0.00    -0.066 N 
ATOM     44  H1  ASN d   1       5.994  30.403  39.095  0.00  0.00     0.275 HD
ATOM     45  H2  ASN d   1       4.566  29.701  39.517  0.00  0.00     0.275 HD
ATOM     46  H3  ASN d   1       5.319  29.260  38.121  0.00  0.00     0.275 HD
ENDBRANCH  41  43
BRANCH  41  47
ATOM     47  CB  ASN d   1       6.465  28.948  41.235  0.00  0.00     0.044 C 
ATOM     48  H5  ASN d   1       6.993  29.913  41.212  0.00  0.00     0.051 H 
ATOM     49  H6  ASN d   1       7.102  28.193  41.718  0.00  0.00     0.051 H 
BRANCH  47  50
ATOM     50  CG  ASN d   1       5.196  29.107  42.050  0.00  0.00     0.217 C 
ATOM     51  OD1 ASN d   1       4.218  29.694  41.585  0.00  0.00    -0.274 OA
ATOM     52  ND2 ASN d   1       5.199  28.570  43.264  0.00  0.00    -0.370 N 
ATOM     53  H7  ASN d   1       4.389  28.644  43.846  0.00  0.00     0.159 HD
ATOM     54  H8  ASN d   1       6.011  28.091  43.597  0.00  0.00     0.159 HD
ENDBRANCH  47  50
ENDBRANCH  41  47
ENDBRANCH  38  41
ENDBRANCH  35  37
BRANCH  35  55
ATOM     55  CB  ARG d   1       3.439  25.093  38.853  0.00  0.00    -0.036 C 
ATOM     56  H11 ARG d   1       3.030  24.116  39.150  0.00  0.00     0.036 H 
ATOM     57  H12 ARG d   1       4.521  25.000  38.681  0.00  0.00     0.036 H 
BRANCH  55  58
ATOM     58  CG  ARG d   1       2.790  25.502  37.559  0.00  0.00    -0.048 C 
ATOM     59  H13 ARG d   1       3.058  26.546  37.338  0.00  0.00     0.035 H 
ATOM     60  H14 ARG d   1       1.698  25.417  37.663  0.00  0.00     0.035 H 
BRANCH  58  61
ATOM     61  CD  ARG d   1       3.251  24.614  36.404  0.00  0.00     0.009 C 
ATOM     62  H15 ARG d   1       4.351  24.582  36.407  0.00  0.00     0.064 H 
ATOM     63  H16 ARG d   1       2.900  25.059  35.461  0.00  0.00     0.064 H 
BRANCH  61  64
ATOM     64  NE  ARG d   1       2.748  23.243  36.483  0.00  0.00    -0.227 N 
ATOM     65  CZ  ARG d   1       1.468  22.920  36.640  0.00  0.00     0.665 C 
ATOM     66  NH1 ARG d   1       0.543  23.868  36.750  0.00  0.00    -0.235 N 
ATOM     67  NH2 ARG d   1       1.114  21.641  36.687  0.00  0.00    -0.235 N 
ATOM     68  H18 ARG d   1      -0.447  23.610  36.871  0.00  0.00     0.174 HD
ATOM     69  H19 ARG d   1       0.816  24.860  36.714  0.00  0.00     0.174 HD
ATOM     70  H20 ARG d   1       1.830  20.905  36.602  0.00  0.00     0.174 HD
ATOM     71  H21 ARG d   1       0.124  21.385  36.809  0.00  0.00     0.174 HD
ATOM     72  H17 ARG d   1       3.432  22.476  36.412  0.00  0.00     0.177 HD
ENDBRANCH  61  64
ENDBRANCH  58  61
ENDBRANCH  55  58
ENDBRANCH  35  55
ENDBRANCH  32  35
ENDBRANCH  29  31
BRANCH  29  73
ATOM     73  CB  ARG d   1       5.972  25.272  43.777  0.00  0.00    -0.049 C 
ATOM     74  H24 ARG d   1       6.276  24.723  44.681  0.00  0.00     0.030 H 
ATOM     75  H25 ARG d   1       5.453  26.198  44.067  0.00  0.00     0.030 H 
ATOM     76  H26 ARG d   1       6.864  25.522  43.183  0.00  0.00     0.030 H 
ENDBRANCH  29  73
ENDBRANCH  26  29
ENDBRANCH  23  25
BRANCH  23  77
ATOM     77  CB  LEU d   1       1.502  25.705  45.957  0.00  0.00    -0.035 C 
ATOM     78  H29 LEU d   1       2.333  25.987  46.620  0.00  0.00     0.037 H 
ATOM     79  H30 LEU d   1       0.639  25.391  46.563  0.00  0.00     0.037 H 
BRANCH  77  80
ATOM     80  CG  LEU d   1       1.063  27.018  45.290  0.00  0.00    -0.059 C 
ATOM     81  H31 LEU d   1       0.260  26.784  44.575  0.00  0.00     0.038 H 
BRANCH  80  82
ATOM     82  CD1 LEU d   1       0.516  27.961  46.355  0.00  0.00    -0.073 C 
ATOM     83  H32 LEU d   1       0.200  28.903  45.883  0.00  0.00     0.028 H 
ATOM     84  H33 LEU d   1       1.300  28.168  47.099  0.00  0.00     0.028 H 
ATOM     85  H34 LEU d   1      -0.346  27.492  46.852  0.00  0.00     0.028 H 
ENDBRANCH  80  82
BRANCH  80  86
ATOM     86  CD2 LEU d   1       2.181  27.719  44.528  0.00  0.00    -0.073 C 
ATOM     87  H35 LEU d   1       2.580  27.043  43.758  0.00  0.00     0.028 H 
ATOM     88  H36 LEU d   1       2.985  27.993  45.227  0.00  0.00     0.028 H 
ATOM     89  H37 LEU d   1       1.785  28.627  44.050  0.00  0.00     0.028 H 
ENDBRANCH  80  86
ENDBRANCH  77  80
ENDBRANCH  23  77
ENDBRANCH  20  23
ENDBRANCH  17  19
BRANCH  17  90
ATOM     90  CB  GLU d   1      -1.358  23.591  41.745  0.00  0.00    -0.029 C 
ATOM     91  H40 GLU d   1      -2.127  24.261  42.157  0.00  0.00     0.037 H 
ATOM     92  H41 GLU d   1      -1.839  22.809  41.139  0.00  0.00     0.037 H 
BRANCH  90  93
ATOM     93  CG  GLU d   1      -0.470  24.412  40.825  0.00  0.00     0.018 C 
ATOM     94  H42 GLU d   1      -0.733  24.191  39.780  0.00  0.00     0.049 H 
ATOM     95  H43 GLU d   1       0.581  24.141  41.004  0.00  0.00     0.049 H 
BRANCH  93  96
ATOM     96  CD  GLU d   1      -0.651  25.911  41.080  0.00  0.00     0.172 C 
ATOM     97  OE1 GLU d   1       0.329  26.587  41.453  0.00  0.00    -0.648 OA
ATOM     98  OE2 GLU d   1      -1.782  26.417  40.915  0.00  0.00    -0.648 OA
ENDBRANCH  93  96
ENDBRANCH  90  93
ENDBRANCH  17  90
ENDBRANCH  14  17
ENDBRANCH  11  13
BRANCH  11  99
ATOM     99  CB  LEU d   1       3.310  20.576  41.414  0.00  0.00    -0.035 C 
ATOM    100  H46 LEU d   1       3.921  19.662  41.437  0.00  0.00     0.037 H 
ATOM    101  H47 LEU d   1       3.791  21.354  42.025  0.00  0.00     0.037 H 
BRANCH  99 102
ATOM    102  CG  LEU d   1       3.174  21.067  39.972  0.00  0.00    -0.059 C 
ATOM    103  H48 LEU d   1       2.570  21.986  39.982  0.00  0.00     0.038 H 
BRANCH 102 104
ATOM    104  CD1 LEU d   1       4.512  21.399  39.357  0.00  0.00    -0.073 C 
ATOM    105  H49 LEU d   1       4.364  21.746  38.324  0.00  0.00     0.028 H 
ATOM    106  H50 LEU d   1       5.147  20.501  39.355  0.00  0.00     0.028 H 
ATOM    107  H51 LEU d   1       4.999  22.191  39.944  0.00  0.00     0.028 H 
ENDBRANCH 102 104
BRANCH 102 108
ATOM    108  CD2 LEU d   1       2.443  20.023  39.134  0.00  0.00    -0.073 C 
ATOM    109  H52 LEU d   1       1.472  19.795  39.598  0.00  0.00     0.028 H 
ATOM    110  H53 LEU d   1       3.048  19.106  39.081  0.00  0.00     0.028 H 
ATOM    111  H54 LEU d   1       2.281  20.415  38.119  0.00  0.00     0.028 H 
ENDBRANCH 102 108
ENDBRANCH  99 102
ENDBRANCH  11  99
ENDBRANCH   8  11
ENDBRANCH   5   7
BRANCH   5 112
ATOM    112  CB  GLU d   1       3.134  20.191  46.651  0.00  0.00    -0.029 C 
ATOM    113  H57 GLU d   1       3.173  19.634  47.599  0.00  0.00     0.037 H 
ATOM    114  H58 GLU d   1       2.453  21.049  46.757  0.00  0.00     0.037 H 
BRANCH 112 115
ATOM    115  CG  GLU d   1       4.527  20.724  46.356  0.00  0.00     0.018 C 
ATOM    116  H59 GLU d   1       4.828  21.391  47.177  0.00  0.00     0.049 H 
ATOM    117  H60 GLU d   1       4.493  21.293  45.415  0.00  0.00     0.049 H 
BRANCH 115 118
ATOM    118  CD  GLU d   1       5.564  19.627  46.220  0.00  0.00     0.172 C 
ATOM    119  OE1 GLU d   1       5.477  18.630  46.966  0.00  0.00    -0.648 OA
ATOM    120  OE2 GLU d   1       6.481  19.771  45.383  0.00  0.00    -0.648 OA
ENDBRANCH 115 118
ENDBRANCH 112 115
ENDBRANCH   5 112
ENDBRANCH   1   5
BRANCH   3 121
ATOM    121  CA  ALA d   1      -1.205  19.091  45.945  0.00  0.00     0.086 C 
ATOM    122  H62 ALA d   1      -1.262  18.837  47.014  0.00  0.00     0.086 H 
BRANCH 121 123
ATOM    123  C   ALA d   1      -1.628  17.868  45.136  0.00  0.00     0.240 C 
ATOM    124  O   ALA d   1      -2.679  17.277  45.399  0.00  0.00    -0.271 OA
ATOM    125  N   TYR d   1      -0.812  17.522  44.139  0.00  0.00    -0.346 N 
ATOM    126  H66 TYR d   1       0.035  18.041  44.022  0.00  0.00     0.163 HD
BRANCH 125 127
ATOM    127  CA  TYR d   1      -1.084  16.428  43.207  0.00  0.00     0.093 C 
ATOM    128  H67 TYR d   1      -0.247  16.376  42.495  0.00  0.00     0.088 H 
BRANCH 127 129
ATOM    129  C   TYR d   1      -2.354  16.686  42.420  0.00  0.00     0.241 C 
ATOM    130  O   TYR d   1      -3.175  15.789  42.227  0.00  0.00    -0.271 OA
ATOM    131  N   ARG d   1      -2.500  17.921  41.954  0.00  0.00    -0.346 N 
ATOM    132  H75 ARG d   1      -1.791  18.602  42.138  0.00  0.00     0.163 HD
BRANCH 131 133
ATOM    133  CA  ARG d   1      -3.669  18.302  41.182  0.00  0.00     0.089 C 
ATOM    134  H76 ARG d   1      -4.573  17.923  41.680  0.00  0.00     0.087 H 
BRANCH 133 135
ATOM    135  C   ARG d   1      -3.560  17.662  39.800  0.00  0.00     0.241 C 
ATOM    136  O   ARG d   1      -2.591  17.889  39.075  0.00  0.00    -0.271 OA
ATOM    137  N   LEU d   1      -4.562  16.864  39.443  0.00  0.00    -0.346 N 
ATOM    138  H88 LEU d   1      -5.332  16.744  40.069  0.00  0.00     0.163 HD
BRANCH 137 139
ATOM    139  CA  LEU d   1      -4.572  16.159  38.167  0.00  0.00     0.089 C 
ATOM    140  H89 LEU d   1      -3.533  16.034  37.829  0.00  0.00     0.087 H 
BRANCH 139 141
ATOM    141  C   LEU d   1      -5.324  16.975  37.135  0.00  0.00     0.240 C 
ATOM    142  O   LEU d   1      -4.799  17.278  36.064  0.00  0.00    -0.271 OA
ATOM    143  N   GLY d   1      -6.555  17.340  37.473  0.00  0.00    -0.351 N 
ATOM    144  H99 GLY d   1      -6.924  17.050  38.356  0.00  0.00     0.163 HD
BRANCH 143 145
ATOM    145  CA  GLY d   1      -7.377  18.147  36.596  0.00  0.00     0.069 C 
ATOM    146 0H10 GLY d   1      -8.426  18.079  36.919  0.00  0.00     0.078 H 
ATOM    147 1H10 GLY d   1      -7.285  17.772  35.566  0.00  0.00     0.078 H 
BRANCH 145 148
ATOM    148  C   GLY d   1      -6.932  19.597  36.642  0.00  0.00     0.238 C 
ATOM    149  O   GLY d   1      -6.222  19.997  37.560  0.00  0.00    -0.272 OA
ATOM    150  N   PRO d   1      -7.346  20.391  35.642  0.00  0.00    -0.337 N 
ATOM    151  CA  PRO d   1      -6.963  21.791  35.414  0.00  0.00     0.091 C 
ATOM    152  CD  PRO d   1      -8.244  19.897  34.583  0.00  0.00    -0.001 C 
ATOM    153  CB  PRO d   1      -7.432  22.045  33.979  0.00  0.00    -0.036 C 
ATOM    154 2H10 PRO d   1      -5.871  21.898  35.491  0.00  0.00     0.087 H 
ATOM    155  CG  PRO d   1      -8.578  21.137  33.804  0.00  0.00    -0.048 C 
ATOM    156 3H10 PRO d   1      -6.634  21.808  33.261  0.00  0.00     0.036 H 
ATOM    157 4H10 PRO d   1      -7.742  23.093  33.850  0.00  0.00     0.036 H 
ATOM    158 5H10 PRO d   1      -8.715  20.895  32.740  0.00  0.00     0.035 H 
ATOM    159 6H10 PRO d   1      -9.496  21.599  34.196  0.00  0.00     0.035 H 
ATOM    160 7H10 PRO d   1      -9.150  19.447  35.014  0.00  0.00     0.064 H 
ATOM    161 8H10 PRO d   1      -7.734  19.158  33.947  0.00  0.00     0.064 H 
BRANCH 151 162
ATOM    162  C   PRO d   1      -7.616  22.785  36.373  0.00  0.00     0.241 C 
ATOM    163  O   PRO d   1      -8.731  22.566  36.851  0.00  0.00    -0.271 OA
ATOM    164  N   ALA d   1      -6.888  23.854  36.678  0.00  0.00    -0.346 N 
ATOM    165 9H10 ALA d   1      -5.935  23.896  36.379  0.00  0.00     0.163 HD
BRANCH 164 166
ATOM    166  CA  ALA d   1      -7.443  24.966  37.437  0.00  0.00     0.086 C 
ATOM    167 0H11 ALA d   1      -7.694  24.600  38.443  0.00  0.00     0.086 H 
BRANCH 166 168
ATOM    168  C   ALA d   1      -8.720  25.509  36.800  0.00  0.00     0.240 C 
ATOM    169  O   ALA d   1      -9.785  25.486  37.418  0.00  0.00    -0.271 OA
ATOM    170  N   SER d   1      -8.617  25.984  35.562  0.00  0.00    -0.343 N 
ATOM    171 4H11 SER d   1      -7.719  26.023  35.124  0.00  0.00     0.163 HD
BRANCH 170 172
ATOM    172  CA  SER d   1      -9.791  26.450  34.830  0.00  0.00     0.116 C 
ATOM    173 5H11 SER d   1     -10.685  26.151  35.396  0.00  0.00     0.093 H 
BRANCH 172 174
ATOM    174  C   SER d   1      -9.877  25.815  33.441  0.00  0.00     0.198 C 
ATOM    175  O   SER d   1      -8.893  25.752  32.699  0.00  0.00    -0.646 OA
ATOM    176  OXT SER d   1     -10.933  25.343  33.012  0.00  0.00    -0.646 OA
ENDBRANCH 172 174
BRANCH 172 177
ATOM    177  CB  SER d   1      -9.782  27.977  34.722  0.00  0.00     0.045 C 
ATOM    178 6H11 SER d   1      -9.797  28.408  35.734  0.00  0.00     0.077 H 
ATOM    179 7H11 SER d   1     -10.677  28.302  34.172  0.00  0.00     0.077 H 
BRANCH 177 180
ATOM    180  OG  SER d   1      -8.629  28.439  34.041  0.00  0.00    -0.398 OA
ATOM    181 8H11 SER d   1      -8.613  28.074  33.164  0.00  0.00     0.209 HD
ENDBRANCH 177 180
ENDBRANCH 172 177
ENDBRANCH 170 172
ENDBRANCH 166 168
BRANCH 166 182
ATOM    182  CB  ALA d   1      -6.412  26.073  37.574  0.00  0.00    -0.049 C 
ATOM    183 1H11 ALA d   1      -6.843  26.906  38.149  0.00  0.00     0.030 H 
ATOM    184 2H11 ALA d   1      -6.121  26.429  36.575  0.00  0.00     0.030 H 
ATOM    185 3H11 ALA d   1      -5.526  25.686  38.098  0.00  0.00     0.030 H 
ENDBRANCH 166 182
ENDBRANCH 164 166
ENDBRANCH 151 162
ENDBRANCH 145 148
ENDBRANCH 143 145
ENDBRANCH 139 141
BRANCH 139 186
ATOM    186  CB  LEU d   1      -5.207  14.770  38.304  0.00  0.00    -0.035 C 
ATOM    187  H90 LEU d   1      -5.035  14.248  37.351  0.00  0.00     0.037 H 
ATOM    188  H91 LEU d   1      -6.286  14.928  38.446  0.00  0.00     0.037 H 
BRANCH 186 189
ATOM    189  CG  LEU d   1      -4.752  13.818  39.416  0.00  0.00    -0.059 C 
ATOM    190  H92 LEU d   1      -4.876  14.328  40.383  0.00  0.00     0.038 H 
BRANCH 189 191
ATOM    191  CD1 LEU d   1      -5.608  12.563  39.416  0.00  0.00    -0.073 C 
ATOM    192  H93 LEU d   1      -5.271  11.889  40.218  0.00  0.00     0.028 H 
ATOM    193  H94 LEU d   1      -5.513  12.054  38.446  0.00  0.00     0.028 H 
ATOM    194  H95 LEU d   1      -6.660  12.837  39.585  0.00  0.00     0.028 H 
ENDBRANCH 189 191
BRANCH 189 195
ATOM    195  CD2 LEU d   1      -3.289  13.450  39.251  0.00  0.00    -0.073 C 
ATOM    196  H96 LEU d   1      -2.678  14.365  39.252  0.00  0.00     0.028 H 
ATOM    197  H97 LEU d   1      -3.150  12.918  38.298  0.00  0.00     0.028 H 
ATOM    198  H98 LEU d   1      -2.978  12.801  40.083  0.00  0.00     0.028 H 
ENDBRANCH 189 195
ENDBRANCH 186 189
ENDBRANCH 139 186
ENDBRANCH 137 139
ENDBRANCH 133 135
BRANCH 133 199
ATOM    199  CB  ARG d   1      -3.762  19.830  41.096  0.00  0.00    -0.036 C 
ATOM    200  H77 ARG d   1      -2.919  20.186  40.486  0.00  0.00     0.036 H 
ATOM    201  H78 ARG d   1      -3.673  20.232  42.116  0.00  0.00     0.036 H 
BRANCH 199 202
ATOM    202  CG  ARG d   1      -5.038  20.376  40.490  0.00  0.00    -0.048 C 
ATOM    203  H79 ARG d   1      -5.904  19.932  41.003  0.00  0.00     0.035 H 
ATOM    204  H80 ARG d   1      -5.073  20.117  39.421  0.00  0.00     0.035 H 
BRANCH 202 205
ATOM    205  CD  ARG d   1      -5.085  21.890  40.643  0.00  0.00     0.009 C 
ATOM    206  H81 ARG d   1      -4.205  22.324  40.146  0.00  0.00     0.064 H 
ATOM    207  H82 ARG d   1      -5.061  22.139  41.714  0.00  0.00     0.064 H 
BRANCH 205 208
ATOM    208  NE  ARG d   1      -6.289  22.466  40.054  0.00  0.00    -0.227 N 
ATOM    209  CZ  ARG d   1      -7.361  22.829  40.750  0.00  0.00     0.665 C 
ATOM    210  NH1 ARG d   1      -7.383  22.684  42.068  0.00  0.00    -0.235 N 
ATOM    211  NH2 ARG d   1      -8.413  23.342  40.129  0.00  0.00    -0.235 N 
ATOM    212  H84 ARG d   1      -8.216  22.967  42.603  0.00  0.00     0.174 HD
ATOM    213  H85 ARG d   1      -6.567  22.289  42.556  0.00  0.00     0.174 HD
ATOM    214  H86 ARG d   1      -8.401  23.457  39.105  0.00  0.00     0.174 HD
ATOM    215  H87 ARG d   1      -9.242  23.626  40.670  0.00  0.00     0.174 HD
ATOM    216  H83 ARG d   1      -6.309  22.600  39.033  0.00  0.00     0.177 HD
ENDBRANCH 205 208
ENDBRANCH 202 205
ENDBRANCH 199 202
ENDBRANCH 133 199
ENDBRANCH 131 133
ENDBRANCH 127 129
BRANCH 127 217
ATOM    217  CB  TYR d   1      -1.172  15.082  43.930  0.00  0.00    -0.014 C 
ATOM    218  H68 TYR d   1      -1.703  14.372  43.279  0.00  0.00     0.043 H 
ATOM    219  H69 TYR d   1      -1.741  15.224  44.861  0.00  0.00     0.043 H 
BRANCH 217 220
ATOM    220  CG  TYR d   1       0.175  14.494  44.279  0.00  0.00    -0.056 A 
ATOM    221  CD1 TYR d   1       0.916  13.808  43.328  0.00  0.00    -0.074 A 
ATOM    222  CE1 TYR d   1       2.144  13.262  43.637  0.00  0.00    -0.051 A 
ATOM    223  H70 TYR d   1       0.523  13.699  42.324  0.00  0.00     0.084 H 
ATOM    224  CZ  TYR d   1       2.646  13.399  44.910  0.00  0.00     0.065 A 
ATOM    225  H72 TYR d   1       2.710  12.729  42.882  0.00  0.00     0.087 H 
ATOM    226  CE2 TYR d   1       1.929  14.072  45.873  0.00  0.00    -0.051 A 
ATOM    227  CD2 TYR d   1       0.700  14.614  45.555  0.00  0.00    -0.074 A 
ATOM    228  H73 TYR d   1       2.327  14.176  46.876  0.00  0.00     0.087 H 
ATOM    229  H71 TYR d   1       0.137  15.142  46.316  0.00  0.00     0.084 H 
BRANCH 224 230
ATOM    230  OH  TYR d   1       3.871  12.857  45.222  0.00  0.00    -0.361 OA
ATOM    231  H74 TYR d   1       4.232  12.430  44.454  0.00  0.00     0.217 HD
ENDBRANCH 224 230
ENDBRANCH 217 220
ENDBRANCH 127 217
ENDBRANCH 125 127
ENDBRANCH 121 123
BRANCH 121 232
ATOM    232  CB  ALA d   1      -2.143  20.253  45.678  0.00  0.00    -0.049 C 
ATOM    233  H63 ALA d   1      -3.174  19.955  45.919  0.00  0.00     0.030 H 
ATOM    234  H64 ALA d   1      -2.082  20.537  44.617  0.00  0.00     0.030 H 
ATOM    235  H65 ALA d   1      -1.853  21.110  46.304  0.00  0.00     0.030 H 
ENDBRANCH 121 232
ENDBRANCH   3 121
TORSDOF 65
