REMARK  14 active torsions:
REMARK  status: ('A' for Active; 'I' for Inactive)
REMARK    1  A    between atoms: N_1  and  CA_2 
REMARK    2  A    between atoms: CA_2  and  C_3 
REMARK    3  A    between atoms: CA_2  and  CB_5 
REMARK       I    between atoms: C_3  and  N_13 
REMARK    4  A    between atoms: CB_5  and  CG_6 
REMARK    5  A    between atoms: CZ_11  and  OH_12 
REMARK    6  A    between atoms: N_13  and  CA_14 
REMARK    7  A    between atoms: CA_14  and  C_15 
REMARK    8  A    between atoms: CA_14  and  CB_17 
REMARK       I    between atoms: C_15  and  N_22 
REMARK    9  A    between atoms: CB_17  and  CG_18 
REMARK   10  A    between atoms: CG_18  and  CD_19 
REMARK       I    between atoms: CD_19  and  NE2_21 
REMARK   11  A    between atoms: N_22  and  CA_23 
REMARK   12  A    between atoms: CA_23  and  C_24 
REMARK   13  A    between atoms: CA_23  and  CB_26 
REMARK   14  A    between atoms: CB_26  and  CG_27 
ROOT
ATOM      1  CA  GLN d   1      16.750 -10.877  13.999  0.00  0.00     0.090 C 
ATOM      2  H13 GLN d   1      16.579 -11.962  13.946  0.00  0.00     0.087 H 
ENDROOT
BRANCH   1   3
ATOM      3  N   GLN d   1      17.995 -10.594  13.274  0.00  0.00    -0.346 N 
ATOM      4  C   TYR d   1      19.077 -11.361  13.425  0.00  0.00     0.249 C 
ATOM      5  O   TYR d   1      19.147 -12.251  14.276  0.00  0.00    -0.271 OA
ATOM      6  H12 GLN d   1      18.033  -9.810  12.654  0.00  0.00     0.163 HD
BRANCH   4   7
ATOM      7  CA  TYR d   1      20.253 -11.105  12.474  0.00  0.00     0.179 C 
ATOM      8  H4  TYR d   1      20.881 -12.008  12.447  0.00  0.00     0.099 H 
BRANCH   7   9
ATOM      9  N   TYR d   1      19.751 -10.850  11.131  0.00  0.00    -0.066 N 
ATOM     10  H1  TYR d   1      20.526 -10.682  10.509  0.00  0.00     0.275 HD
ATOM     11  H2  TYR d   1      19.150 -10.041  11.145  0.00  0.00     0.275 HD
ATOM     12  H3  TYR d   1      19.229 -11.650  10.810  0.00  0.00     0.275 HD
ENDBRANCH   7   9
BRANCH   7  13
ATOM     13  CB  TYR d   1      21.116  -9.935  12.957  0.00  0.00    -0.006 C 
ATOM     14  H5  TYR d   1      20.450  -9.147  13.337  0.00  0.00     0.043 H 
ATOM     15  H6  TYR d   1      21.688  -9.550  12.100  0.00  0.00     0.043 H 
BRANCH  13  16
ATOM     16  CG  TYR d   1      22.090 -10.304  14.053  0.00  0.00    -0.056 A 
ATOM     17  CD1 TYR d   1      23.216 -11.079  13.780  0.00  0.00    -0.074 A 
ATOM     18  CE1 TYR d   1      24.110 -11.417  14.784  0.00  0.00    -0.051 A 
ATOM     19  H7  TYR d   1      23.395 -11.422  12.768  0.00  0.00     0.084 H 
ATOM     20  CZ  TYR d   1      23.880 -10.978  16.076  0.00  0.00     0.065 A 
ATOM     21  H9  TYR d   1      24.982 -12.020  14.559  0.00  0.00     0.087 H 
ATOM     22  CE2 TYR d   1      22.773 -10.208  16.366  0.00  0.00    -0.051 A 
ATOM     23  CD2 TYR d   1      21.888  -9.876  15.359  0.00  0.00    -0.074 A 
ATOM     24  H10 TYR d   1      22.598  -9.865  17.379  0.00  0.00     0.087 H 
ATOM     25  H8  TYR d   1      21.020  -9.270  15.592  0.00  0.00     0.084 H 
BRANCH  20  26
ATOM     26  OH  TYR d   1      24.751 -11.299  17.090  0.00  0.00    -0.361 OA
ATOM     27  H11 TYR d   1      25.459 -11.829  16.742  0.00  0.00     0.217 HD
ENDBRANCH  20  26
ENDBRANCH  13  16
ENDBRANCH   7  13
ENDBRANCH   4   7
ENDBRANCH   1   3
BRANCH   1  28
ATOM     28  C   GLN d   1      15.519 -10.189  13.379  0.00  0.00     0.241 C 
ATOM     29  O   GLN d   1      15.150  -9.073  13.751  0.00  0.00    -0.271 OA
ATOM     30  N   PHE d   1      14.889 -10.882  12.431  0.00  0.00    -0.344 N 
ATOM     31  H20 PHE d   1      15.272 -11.761  12.147  0.00  0.00     0.163 HD
BRANCH  30  32
ATOM     32  CA  PHE d   1      13.661 -10.412  11.788  0.00  0.00     0.100 C 
ATOM     33  H21 PHE d   1      13.372  -9.464  12.266  0.00  0.00     0.090 H 
BRANCH  32  34
ATOM     34  C   PHE d   1      12.492 -11.393  11.938  0.00  0.00     0.197 C 
ATOM     35  O   PHE d   1      11.326 -11.059  11.708  0.00  0.00    -0.646 OA
ATOM     36  OXT PHE d   1      12.677 -12.551  12.297  0.00  0.00    -0.646 OA
ENDBRANCH  32  34
BRANCH  32  37
ATOM     37  CB  PHE d   1      13.914 -10.152  10.304  0.00  0.00    -0.013 C 
ATOM     38  H22 PHE d   1      14.658  -9.346  10.216  0.00  0.00     0.043 H 
ATOM     39  H23 PHE d   1      12.968  -9.830   9.843  0.00  0.00     0.043 H 
BRANCH  37  40
ATOM     40  CG  PHE d   1      14.424 -11.350   9.549  0.00  0.00    -0.056 A 
ATOM     41  CD1 PHE d   1      15.743 -11.763   9.657  0.00  0.00    -0.077 A 
ATOM     42  CE1 PHE d   1      16.195 -12.860   8.948  0.00  0.00    -0.082 A 
ATOM     43  H24 PHE d   1      16.425 -11.221  10.302  0.00  0.00     0.084 H 
ATOM     44  CZ  PHE d   1      15.333 -13.544   8.122  0.00  0.00    -0.083 A 
ATOM     45  H26 PHE d   1      17.226 -13.181   9.043  0.00  0.00     0.083 H 
ATOM     46  CE2 PHE d   1      14.027 -13.135   8.003  0.00  0.00    -0.082 A 
ATOM     47  H28 PHE d   1      15.684 -14.405   7.565  0.00  0.00     0.083 H 
ATOM     48  CD2 PHE d   1      13.581 -12.046   8.709  0.00  0.00    -0.077 A 
ATOM     49  H27 PHE d   1      13.348 -13.673   7.351  0.00  0.00     0.083 H 
ATOM     50  H25 PHE d   1      12.550 -11.728   8.605  0.00  0.00     0.084 H 
ENDBRANCH  37  40
ENDBRANCH  32  37
ENDBRANCH  30  32
ENDBRANCH   1  28
BRANCH   1  51
ATOM     51  CB  GLN d   1      16.894 -10.495  15.482  0.00  0.00    -0.030 C 
ATOM     52  H14 GLN d   1      17.685 -11.129  15.909  0.00  0.00     0.037 H 
ATOM     53  H15 GLN d   1      15.937 -10.722  15.974  0.00  0.00     0.037 H 
BRANCH  51  54
ATOM     54  CG  GLN d   1      17.243  -9.048  15.812  0.00  0.00     0.011 C 
ATOM     55  H16 GLN d   1      16.552  -8.380  15.276  0.00  0.00     0.047 H 
ATOM     56  H17 GLN d   1      18.275  -8.844  15.489  0.00  0.00     0.047 H 
BRANCH  54  57
ATOM     57  CD  GLN d   1      17.129  -8.786  17.302  0.00  0.00     0.215 C 
ATOM     58  OE1 GLN d   1      16.913  -9.710  18.086  0.00  0.00    -0.274 OA
ATOM     59  NE2 GLN d   1      17.265  -7.528  17.701  0.00  0.00    -0.370 N 
ATOM     60  H18 GLN d   1      17.198  -7.302  18.673  0.00  0.00     0.159 HD
ATOM     61  H19 GLN d   1      17.434  -6.806  17.030  0.00  0.00     0.159 HD
ENDBRANCH  54  57
ENDBRANCH  51  54
ENDBRANCH   1  51
TORSDOF 14
