REMARK  3 active torsions:
REMARK  status: ('A' for Active; 'I' for Inactive)
REMARK    1  A    between atoms: C5_5  and  C15_15 
REMARK    2  A    between atoms: C23_23  and  N28_28 
REMARK    3  A    between atoms: N24_24  and  C27_27 
ROOT
ATOM      1  C1  3UW d   1      25.258  14.313   8.990  0.00  0.00     0.017 A 
ATOM      2  C2  3UW d   1      26.101  13.220   8.655  0.00  0.00     0.078 A 
ATOM      3  C3  3UW d   1      27.505  13.348   8.796  0.00  0.00    -0.049 A 
ATOM      4  C4  3UW d   1      28.084  14.556   9.258  0.00  0.00    -0.069 A 
ATOM      5  C5  3UW d   1      27.243  15.653   9.597  0.00  0.00    -0.021 A 
ATOM      6  C6  3UW d   1      25.838  15.522   9.447  0.00  0.00    -0.060 A 
ATOM      7  C7  3UW d   1      23.737  14.212   8.822  0.00  0.00     0.187 A 
ATOM      8  C8  3UW d   1      23.291  12.761   8.621  0.00  0.00     0.101 C 
ATOM      9  C9  3UW d   1      24.248  11.993   7.688  0.00  0.00     0.073 C 
ATOM     10  O10 3UW d   1      25.575  12.023   8.206  0.00  0.00    -0.343 OA
ATOM     11  O11 3UW d   1      21.936  12.693   8.177  0.00  0.00    -0.380 OA
ATOM     12  C12 3UW d   1      21.406  11.369   8.039  0.00  0.00     0.020 C 
ATOM     13  C13 3UW d   1      22.284  10.503   7.111  0.00  0.00    -0.043 C 
ATOM     14  C14 3UW d   1      23.767  10.531   7.558  0.00  0.00    -0.036 C 
ATOM     15  N22 3UW d   1      22.958  14.753   9.930  0.00  0.00    -0.201 N 
ATOM     16  C23 3UW d   1      22.265  15.761   9.528  0.00  0.00     0.677 A 
ATOM     17  N24 3UW d   1      22.428  16.076   8.216  0.00  0.00    -0.153 N 
ATOM     18  C25 3UW d   1      23.312  15.180   7.695  0.00  0.00     0.274 A 
ATOM     19  O26 3UW d   1      23.724  15.131   6.529  0.00  0.00    -0.269 OA
ATOM     20  H   3UW d   1      28.145  12.510   8.547  0.00  0.00     0.087 H 
ATOM     21  H   3UW d   1      29.160  14.644   9.353  0.00  0.00     0.085 H 
ATOM     22  H   3UW d   1      25.197  16.363   9.687  0.00  0.00     0.086 H 
ATOM     23  H   3UW d   1      23.335  12.268   9.604  0.00  0.00     0.092 H 
ATOM     24  H   3UW d   1      24.241  12.466   6.695  0.00  0.00     0.088 H 
ATOM     25  H   3UW d   1      20.392  11.432   7.616  0.00  0.00     0.074 H 
ATOM     26  H   3UW d   1      21.361  10.897   9.031  0.00  0.00     0.074 H 
ATOM     27  H   3UW d   1      22.211  10.890   6.084  0.00  0.00     0.036 H 
ATOM     28  H   3UW d   1      21.920   9.465   7.138  0.00  0.00     0.036 H 
ATOM     29  H   3UW d   1      23.864  10.027   8.531  0.00  0.00     0.037 H 
ATOM     30  H   3UW d   1      24.383  10.009   6.811  0.00  0.00     0.037 H 
ATOM     31  H   3UW d   1      22.962  14.383  10.891  0.00  0.00     0.179 HD
ENDROOT
BRANCH  16  32
ATOM     32  N28 3UW d   1      21.398  16.491  10.308  0.00  0.00    -0.234 N 
ATOM     33  H   3UW d   1      21.274  16.252  11.302  0.00  0.00     0.174 HD
ATOM     34  H   3UW d   1      20.873  17.276   9.898  0.00  0.00     0.174 HD
ENDBRANCH  16  32
BRANCH  17  35
ATOM     35  C27 3UW d   1      21.782  17.165   7.475  0.00  0.00     0.005 C 
ATOM     36  H   3UW d   1      21.120  17.726   8.151  0.00  0.00     0.058 H 
ATOM     37  H   3UW d   1      21.191  16.745   6.647  0.00  0.00     0.058 H 
ATOM     38  H   3UW d   1      22.551  17.840   7.071  0.00  0.00     0.058 H 
ENDBRANCH  17  35
BRANCH   5  39
ATOM     39  C15 3UW d   1      27.781  16.896  10.026  0.00  0.00     0.032 A 
ATOM     40  C16 3UW d   1      27.334  17.599  11.178  0.00  0.00     0.220 A 
ATOM     41  N17 3UW d   1      27.828  18.799  11.559  0.00  0.00    -0.232 NA
ATOM     42  F21 3UW d   1      26.379  17.078  11.970  0.00  0.00    -0.183 F 
ATOM     43  C18 3UW d   1      28.795  19.372  10.810  0.00  0.00     0.005 A 
ATOM     44  C19 3UW d   1      29.307  18.759   9.636  0.00  0.00    -0.065 A 
ATOM     45  H   3UW d   1      29.194  20.333  11.116  0.00  0.00     0.114 H 
ATOM     46  C20 3UW d   1      28.784  17.505   9.223  0.00  0.00    -0.066 A 
ATOM     47  H   3UW d   1      30.088  19.243   9.061  0.00  0.00     0.085 H 
ATOM     48  H   3UW d   1      29.140  17.024   8.319  0.00  0.00     0.085 H 
ENDBRANCH   5  39
TORSDOF 3
