REMARK  4 active torsions:
REMARK  status: ('A' for Active; 'I' for Inactive)
REMARK    1  A    between atoms: C1_1  and  C7_7 
REMARK    2  A    between atoms: C9_9  and  C22_22 
REMARK    3  A    between atoms: C17_17  and  N21_21 
REMARK    4  A    between atoms: N18_18  and  C23_23 
ROOT
ATOM      1  C1  3UX d   1      26.966  15.491   9.634  0.00  0.00    -0.021 A 
ATOM      2  C2  3UX d   1      27.689  14.281   9.455  0.00  0.00    -0.069 A 
ATOM      3  C3  3UX d   1      27.029  13.114   8.988  0.00  0.00    -0.049 A 
ATOM      4  C4  3UX d   1      25.641  13.124   8.695  0.00  0.00     0.079 A 
ATOM      5  C5  3UX d   1      24.920  14.337   8.869  0.00  0.00     0.017 A 
ATOM      6  C6  3UX d   1      25.581  15.508   9.322  0.00  0.00    -0.060 A 
ATOM      7  O8  3UX d   1      25.018  11.960   8.250  0.00  0.00    -0.337 OA
ATOM      8  C9  3UX d   1      23.598  11.829   8.333  0.00  0.00     0.093 C 
ATOM      9  C10 3UX d   1      23.012  13.142   7.757  0.00  0.00     0.106 C 
ATOM     10  C11 3UX d   1      23.433  14.401   8.524  0.00  0.00     0.187 A 
ATOM     11  C12 3UX d   1      23.155  10.632   7.449  0.00  0.00    -0.032 C 
ATOM     12  C13 3UX d   1      21.643  10.694   7.101  0.00  0.00    -0.042 C 
ATOM     13  C14 3UX d   1      21.169  12.100   6.639  0.00  0.00     0.020 C 
ATOM     14  O15 3UX d   1      21.602  13.106   7.575  0.00  0.00    -0.379 OA
ATOM     15  N16 3UX d   1      22.582  14.705   9.674  0.00  0.00    -0.201 N 
ATOM     16  C17 3UX d   1      21.989  15.836   9.476  0.00  0.00     0.677 A 
ATOM     17  N18 3UX d   1      22.275  16.426   8.287  0.00  0.00    -0.153 N 
ATOM     18  C19 3UX d   1      23.155  15.622   7.646  0.00  0.00     0.274 A 
ATOM     19  O20 3UX d   1      23.670  15.787   6.538  0.00  0.00    -0.269 OA
ATOM     20  H   3UX d   1      28.750  14.249   9.676  0.00  0.00     0.085 H 
ATOM     21  H   3UX d   1      27.595  12.200   8.853  0.00  0.00     0.087 H 
ATOM     22  H   3UX d   1      25.020  16.429   9.431  0.00  0.00     0.086 H 
ATOM     23  H   3UX d   1      23.446  13.241   6.751  0.00  0.00     0.093 H 
ATOM     24  H   3UX d   1      23.357   9.696   7.991  0.00  0.00     0.037 H 
ATOM     25  H   3UX d   1      23.735  10.647   6.515  0.00  0.00     0.037 H 
ATOM     26  H   3UX d   1      21.068  10.409   7.995  0.00  0.00     0.036 H 
ATOM     27  H   3UX d   1      21.442   9.976   6.292  0.00  0.00     0.036 H 
ATOM     28  H   3UX d   1      20.071  12.111   6.577  0.00  0.00     0.074 H 
ATOM     29  H   3UX d   1      21.594  12.319   5.648  0.00  0.00     0.074 H 
ATOM     30  H   3UX d   1      22.473  14.112  10.509  0.00  0.00     0.179 HD
ENDROOT
BRANCH   8  31
ATOM     31  C22 3UX d   1      23.175  11.571   9.807  0.00  0.00    -0.045 C 
ATOM     32  H   3UX d   1      22.081  11.471   9.862  0.00  0.00     0.031 H 
ATOM     33  H   3UX d   1      23.498  12.415  10.434  0.00  0.00     0.031 H 
ATOM     34  H   3UX d   1      23.646  10.645  10.167  0.00  0.00     0.031 H 
ENDBRANCH   8  31
BRANCH  16  35
ATOM     35  N21 3UX d   1      21.114  16.468  10.336  0.00  0.00    -0.234 N 
ATOM     36  H   3UX d   1      20.883  16.038  11.243  0.00  0.00     0.174 HD
ATOM     37  H   3UX d   1      20.692  17.369  10.071  0.00  0.00     0.174 HD
ENDBRANCH  16  35
BRANCH  17  38
ATOM     38  C23 3UX d   1      21.776  17.697   7.762  0.00  0.00     0.005 C 
ATOM     39  H   3UX d   1      21.076  18.142   8.484  0.00  0.00     0.058 H 
ATOM     40  H   3UX d   1      21.257  17.521   6.808  0.00  0.00     0.058 H 
ATOM     41  H   3UX d   1      22.620  18.383   7.599  0.00  0.00     0.058 H 
ENDBRANCH  17  38
BRANCH   1  42
ATOM     42  C7  3UX d   1      27.593  16.695  10.052  0.00  0.00     0.032 A 
ATOM     43  C24 3UX d   1      28.708  17.182   9.314  0.00  0.00    -0.066 A 
ATOM     44  C25 3UX d   1      29.301  18.403   9.725  0.00  0.00    -0.065 A 
ATOM     45  H   3UX d   1      29.093  16.635   8.461  0.00  0.00     0.085 H 
ATOM     46  C26 3UX d   1      28.760  19.102  10.835  0.00  0.00     0.005 A 
ATOM     47  H   3UX d   1      30.160  18.799   9.196  0.00  0.00     0.085 H 
ATOM     48  N27 3UX d   1      27.690  18.644  11.521  0.00  0.00    -0.232 NA
ATOM     49  H   3UX d   1      29.220  20.034  11.143  0.00  0.00     0.114 H 
ATOM     50  C28 3UX d   1      27.121  17.478  11.139  0.00  0.00     0.220 A 
ATOM     51  F29 3UX d   1      26.061  17.063  11.864  0.00  0.00    -0.183 F 
ENDBRANCH   1  42
TORSDOF 4
