REMARK  10 active torsions:
REMARK  status: ('A' for Active; 'I' for Inactive)
REMARK    1  A    between atoms: C5'_2  and  O5'_1 
REMARK    2  A    between atoms: C4'_3  and  C5'_2 
REMARK    3  A    between atoms: C1'_5  and  N9_6 
REMARK    4  A    between atoms: C6_11  and  N6_12 
REMARK    5  A    between atoms: C2'_16  and  O2'_17 
REMARK    6  A    between atoms: N8_19  and  C3'_18 
REMARK    7  A    between atoms: CA_21  and  N_20 
REMARK    8  A    between atoms: CA_21  and  CB_22 
REMARK    9  A    between atoms: CA_21  and  C_24 
REMARK   10  A    between atoms: CB_22  and  OG_23 
ROOT
ATOM      1  C4' A3S d   1      24.252   7.517  -4.909  0.00  0.00     0.083 C 
ATOM      2  O4' A3S d   1      24.768   6.755  -6.015  0.00  0.00    -0.354 OA
ATOM      3  C1' A3S d   1      23.944   5.594  -6.219  0.00  0.00     0.139 C 
ATOM      4  C2' A3S d   1      22.654   5.845  -5.435  0.00  0.00     0.100 C 
ATOM      5  C3' A3S d   1      23.195   6.635  -4.246  0.00  0.00     0.067 C 
ATOM      6  H4  A3S d   1      23.809   8.461  -5.260  0.00  0.00     0.090 H 
ATOM      7  H5  A3S d   1      23.690   5.491  -7.284  0.00  0.00     0.122 H 
ATOM      8  H10 A3S d   1      22.154   4.914  -5.130  0.00  0.00     0.093 H 
ATOM      9  H12 A3S d   1      23.636   5.966  -3.493  0.00  0.00     0.080 H 
ENDROOT
BRANCH   5  10
ATOM     10  N8  A3S d   1      22.169   7.480  -3.616  0.00  0.00    -0.360 N 
ATOM     11  C   A3S d   1      21.454   7.107  -2.559  0.00  0.00     0.184 C 
ATOM     12  O   A3S d   1      21.573   5.898  -1.949  0.00  0.00    -0.175 OA
ATOM     13  H13 A3S d   1      22.000   8.386  -4.005  0.00  0.00     0.162 HD
BRANCH  11  14
ATOM     14  CA  A3S d   1      20.426   8.099  -2.009  0.00  0.00     0.183 C 
ATOM     15  H17 A3S d   1      19.920   8.599  -2.848  0.00  0.00     0.100 H 
BRANCH  14  16
ATOM     16  N   A3S d   1      19.428   7.389  -1.196  0.00  0.00    -0.066 N 
ATOM     17  H14 A3S d   1      18.755   8.049  -0.838  0.00  0.00     0.275 HD
ATOM     18  H15 A3S d   1      19.888   6.927  -0.427  0.00  0.00     0.275 HD
ATOM     19  H16 A3S d   1      18.956   6.704  -1.766  0.00  0.00     0.275 HD
ENDBRANCH  14  16
BRANCH  14  20
ATOM     20  CB  A3S d   1      21.134   9.148  -1.148  0.00  0.00     0.050 C 
ATOM     21  H18 A3S d   1      21.903   9.656  -1.748  0.00  0.00     0.077 H 
ATOM     22  H19 A3S d   1      21.608   8.655  -0.286  0.00  0.00     0.077 H 
BRANCH  20  23
ATOM     23  OG  A3S d   1      20.181  10.108  -0.683  0.00  0.00    -0.398 OA
ATOM     24  H20 A3S d   1      20.623  10.758  -0.149  0.00  0.00     0.209 HD
ENDBRANCH  20  23
ENDBRANCH  14  20
ENDBRANCH  11  14
ENDBRANCH   5  10
BRANCH   1  25
ATOM     25  C5' A3S d   1      25.373   7.804  -3.906  0.00  0.00     0.043 C 
ATOM     26  H2  A3S d   1      26.143   8.425  -4.387  0.00  0.00     0.078 H 
ATOM     27  H3  A3S d   1      24.959   8.340  -3.039  0.00  0.00     0.078 H 
BRANCH  25  28
ATOM     28  O5' A3S d   1      25.960   6.575  -3.468  0.00  0.00    -0.398 OA
ATOM     29  H1  A3S d   1      26.654   6.761  -2.846  0.00  0.00     0.209 HD
ENDBRANCH  25  28
ENDBRANCH   1  25
BRANCH   4  30
ATOM     30  O2' A3S d   1      21.775   6.662  -6.213  0.00  0.00    -0.389 OA
ATOM     31  H11 A3S d   1      20.974   6.817  -5.726  0.00  0.00     0.210 HD
ENDBRANCH   4  30
BRANCH   3  32
ATOM     32  N9  A3S d   1      24.730   4.405  -5.814  0.00  0.00    -0.294 N 
ATOM     33  C4  A3S d   1      24.276   3.242  -5.352  0.00  0.00     0.167 A 
ATOM     34  N3  A3S d   1      23.057   2.790  -5.019  0.00  0.00    -0.222 NA
ATOM     35  C5  A3S d   1      25.372   2.400  -5.228  0.00  0.00     0.149 A 
ATOM     36  C2  A3S d   1      22.888   1.555  -4.576  0.00  0.00     0.091 A 
ATOM     37  N1  A3S d   1      23.912   0.726  -4.451  0.00  0.00    -0.222 NA
ATOM     38  H6  A3S d   1      21.893   1.216  -4.311  0.00  0.00     0.146 H 
ATOM     39  C6  A3S d   1      25.159   1.107  -4.764  0.00  0.00     0.155 A 
ATOM     40  N7  A3S d   1      26.449   3.079  -5.609  0.00  0.00    -0.236 NA
ATOM     41  C8  A3S d   1      26.050   4.298  -5.960  0.00  0.00     0.071 A 
ATOM     42  H9  A3S d   1      26.706   5.092  -6.315  0.00  0.00     0.144 H 
BRANCH  39  43
ATOM     43  N6  A3S d   1      26.177   0.256  -4.657  0.00  0.00    -0.382 N 
ATOM     44  H7  A3S d   1      27.130   0.560  -4.900  0.00  0.00     0.157 HD
ATOM     45  H8  A3S d   1      26.011  -0.707  -4.331  0.00  0.00     0.157 HD
ENDBRANCH  39  43
ENDBRANCH   3  32
TORSDOF 10
