REMARK  11 active torsions:
REMARK  status: ('A' for Active; 'I' for Inactive)
REMARK    1  A    between atoms: C_1  and  CA_15 
REMARK    2  A    between atoms: CA_15  and  N_2 
REMARK    3  A    between atoms: C6_9  and  N6_10 
REMARK    4  A    between atoms: C3'_21  and  N8_13 
REMARK    5  A    between atoms: C1'_18  and  N9_14 
REMARK    6  A    between atoms: CA_15  and  CB_16 
REMARK    7  A    between atoms: CB_16  and  OG_17 
REMARK    8  A    between atoms: CB_16  and  CG2_26 
REMARK    9  A    between atoms: C2'_19  and  O2'_20 
REMARK   10  A    between atoms: C4'_22  and  C5'_24 
REMARK   11  A    between atoms: C5'_24  and  O5'_25 
ROOT
ATOM      1  C1' A3T d   1      -9.151   6.377  18.107  0.00  0.00     0.139 C 
ATOM      2  C2' A3T d   1      -9.064   5.180  17.158  0.00  0.00     0.100 C 
ATOM      3  C3' A3T d   1      -8.233   5.785  16.029  0.00  0.00     0.067 C 
ATOM      4  C4' A3T d   1      -7.229   6.645  16.797  0.00  0.00     0.083 C 
ATOM      5  O4' A3T d   1      -7.881   7.045  18.015  0.00  0.00    -0.354 OA
ATOM      6  H12 A3T d   1      -9.325   6.013  19.131  0.00  0.00     0.122 H 
ATOM      7  H13 A3T d   1     -10.049   4.825  16.821  0.00  0.00     0.093 H 
ATOM      8  H15 A3T d   1      -8.860   6.388  15.356  0.00  0.00     0.080 H 
ATOM      9  H16 A3T d   1      -6.319   6.069  17.024  0.00  0.00     0.090 H 
ENDROOT
BRANCH   3  10
ATOM     10  N8  A3T d   1      -7.502   4.772  15.253  0.00  0.00    -0.360 N 
ATOM     11  C   A3T d   1      -7.985   4.197  14.155  0.00  0.00     0.185 C 
ATOM     12  O   A3T d   1      -9.210   4.469  13.632  0.00  0.00    -0.175 OA
ATOM     13  H8  A3T d   1      -6.593   4.501  15.568  0.00  0.00     0.162 HD
BRANCH  11  14
ATOM     14  CA  A3T d   1      -7.100   3.168  13.447  0.00  0.00     0.187 C 
ATOM     15  H9  A3T d   1      -6.347   2.788  14.153  0.00  0.00     0.101 H 
BRANCH  14  16
ATOM     16  N   A3T d   1      -7.931   2.052  12.971  0.00  0.00    -0.065 N 
ATOM     17  H1  A3T d   1      -8.396   1.621  13.755  0.00  0.00     0.275 HD
ATOM     18  H2  A3T d   1      -7.348   1.371  12.511  0.00  0.00     0.275 HD
ATOM     19  H3  A3T d   1      -8.619   2.399  12.321  0.00  0.00     0.275 HD
ENDBRANCH  14  16
BRANCH  14  20
ATOM     20  CB  A3T d   1      -6.395   3.821  12.256  0.00  0.00     0.067 C 
ATOM     21  H10 A3T d   1      -7.144   4.014  11.473  0.00  0.00     0.086 H 
BRANCH  20  22
ATOM     22  OG  A3T d   1      -5.417   2.918  11.733  0.00  0.00    -0.393 OA
ATOM     23  H11 A3T d   1      -4.978   3.322  10.993  0.00  0.00     0.210 HD
ENDBRANCH  20  22
BRANCH  20  24
ATOM     24  CG2 A3T d   1      -5.762   5.159  12.644  0.00  0.00    -0.050 C 
ATOM     25  H20 A3T d   1      -5.266   5.598  11.766  0.00  0.00     0.031 H 
ATOM     26  H21 A3T d   1      -5.021   4.997  13.441  0.00  0.00     0.031 H 
ATOM     27  H22 A3T d   1      -6.544   5.844  13.004  0.00  0.00     0.031 H 
ENDBRANCH  20  24
ENDBRANCH  14  20
ENDBRANCH  11  14
ENDBRANCH   3  10
BRANCH   2  28
ATOM     28  O2' A3T d   1      -8.328   4.132  17.795  0.00  0.00    -0.389 OA
ATOM     29  H14 A3T d   1      -8.271   3.386  17.210  0.00  0.00     0.210 HD
ENDBRANCH   2  28
BRANCH   4  30
ATOM     30  C5' A3T d   1      -6.870   7.867  15.947  0.00  0.00     0.043 C 
ATOM     31  H17 A3T d   1      -6.327   7.539  15.048  0.00  0.00     0.078 H 
ATOM     32  H18 A3T d   1      -6.233   8.545  16.534  0.00  0.00     0.078 H 
BRANCH  30  33
ATOM     33  O5' A3T d   1      -8.061   8.556  15.556  0.00  0.00    -0.398 OA
ATOM     34  H19 A3T d   1      -7.830   9.312  15.030  0.00  0.00     0.209 HD
ENDBRANCH  30  33
ENDBRANCH   4  30
BRANCH   1  35
ATOM     35  N9  A3T d   1     -10.199   7.367  17.768  0.00  0.00    -0.294 N 
ATOM     36  C4  A3T d   1     -11.446   7.121  17.376  0.00  0.00     0.167 A 
ATOM     37  N3  A3T d   1     -12.120   6.004  17.071  0.00  0.00    -0.222 NA
ATOM     38  C5  A3T d   1     -12.091   8.347  17.297  0.00  0.00     0.149 A 
ATOM     39  C2  A3T d   1     -13.387   6.064  16.698  0.00  0.00     0.091 A 
ATOM     40  N1  A3T d   1     -14.035   7.212  16.614  0.00  0.00    -0.222 NA
ATOM     41  H4  A3T d   1     -13.909   5.146  16.454  0.00  0.00     0.146 H 
ATOM     42  C6  A3T d   1     -13.425   8.370  16.907  0.00  0.00     0.155 A 
ATOM     43  N7  A3T d   1     -11.216   9.288  17.632  0.00  0.00    -0.236 NA
ATOM     44  C8  A3T d   1     -10.064   8.684  17.914  0.00  0.00     0.071 A 
ATOM     45  H7  A3T d   1      -9.149   9.190  18.218  0.00  0.00     0.144 H 
BRANCH  42  46
ATOM     46  N6  A3T d   1     -14.087   9.521  16.846  0.00  0.00    -0.382 N 
ATOM     47  H5  A3T d   1     -13.607  10.404  17.073  0.00  0.00     0.157 HD
ATOM     48  H6  A3T d   1     -15.080   9.530  16.571  0.00  0.00     0.157 HD
ENDBRANCH  42  46
ENDBRANCH   1  35
TORSDOF 11
