REMARK  2 active torsions:
REMARK  status: ('A' for Active; 'I' for Inactive)
REMARK    1  A    between atoms: C2_2  and  C7_7 
REMARK    2  A    between atoms: C9_9  and  C21_21 
ROOT
ATOM      1  C1  3UY d   1      27.537  14.594   9.139  0.00  0.00    -0.069 A 
ATOM      2  C2  3UY d   1      26.804  15.790   9.367  0.00  0.00    -0.021 A 
ATOM      3  C3  3UY d   1      25.418  15.821   9.076  0.00  0.00    -0.061 A 
ATOM      4  C4  3UY d   1      24.774  14.659   8.584  0.00  0.00     0.009 A 
ATOM      5  C5  3UY d   1      25.505  13.455   8.361  0.00  0.00     0.079 A 
ATOM      6  C6  3UY d   1      26.894  13.433   8.643  0.00  0.00    -0.049 A 
ATOM      7  O8  3UY d   1      24.897  12.304   7.894  0.00  0.00    -0.337 OA
ATOM      8  C9  3UY d   1      23.479  12.147   8.045  0.00  0.00     0.093 C 
ATOM      9  C10 3UY d   1      22.860  13.474   7.526  0.00  0.00     0.099 C 
ATOM     10  C11 3UY d   1      23.289  14.753   8.262  0.00  0.00     0.114 A 
ATOM     11  C12 3UY d   1      23.002  16.027   7.434  0.00  0.00     0.059 A 
ATOM     12  O13 3UY d   1      22.063  16.794   8.206  0.00  0.00    -0.320 OA
ATOM     13  C14 3UY d   1      21.864  16.154   9.391  0.00  0.00     0.213 A 
ATOM     14  N15 3UY d   1      22.467  14.968   9.434  0.00  0.00    -0.338 N 
ATOM     15  N16 3UY d   1      21.079  16.767  10.298  0.00  0.00    -0.365 N 
ATOM     16  O17 3UY d   1      21.448  13.416   7.295  0.00  0.00    -0.380 OA
ATOM     17  C18 3UY d   1      21.072  12.396   6.364  0.00  0.00     0.020 C 
ATOM     18  C19 3UY d   1      21.509  11.007   6.894  0.00  0.00    -0.042 C 
ATOM     19  C20 3UY d   1      23.033  10.957   7.165  0.00  0.00    -0.032 C 
ATOM     20  H   3UY d   1      28.601  14.570   9.347  0.00  0.00     0.085 H 
ATOM     21  H   3UY d   1      24.851  16.732   9.229  0.00  0.00     0.086 H 
ATOM     22  H   3UY d   1      27.465  12.526   8.479  0.00  0.00     0.087 H 
ATOM     23  H   3UY d   1      23.295  13.588   6.522  0.00  0.00     0.092 H 
ATOM     24  H   3UY d   1      22.568  15.760   6.459  0.00  0.00     0.079 H 
ATOM     25  H   3UY d   1      23.928  16.600   7.279  0.00  0.00     0.079 H 
ATOM     26  H   3UY d   1      22.362  14.290  10.203  0.00  0.00     0.164 HD
ATOM     27  H   3UY d   1      20.900  16.321  11.209  0.00  0.00     0.159 HD
ATOM     28  H   3UY d   1      20.658  17.682  10.081  0.00  0.00     0.159 HD
ATOM     29  H   3UY d   1      21.561  12.587   5.397  0.00  0.00     0.074 H 
ATOM     30  H   3UY d   1      19.980  12.408   6.232  0.00  0.00     0.074 H 
ATOM     31  H   3UY d   1      21.254  10.242   6.146  0.00  0.00     0.036 H 
ATOM     32  H   3UY d   1      20.972  10.797   7.831  0.00  0.00     0.036 H 
ATOM     33  H   3UY d   1      23.276  10.017   7.682  0.00  0.00     0.037 H 
ATOM     34  H   3UY d   1      23.570  10.998   6.206  0.00  0.00     0.037 H 
ENDROOT
BRANCH   2  35
ATOM     35  C7  3UY d   1      27.419  16.977   9.834  0.00  0.00     0.032 A 
ATOM     36  C22 3UY d   1      27.007  17.642  11.017  0.00  0.00     0.220 A 
ATOM     37  N23 3UY d   1      27.554  18.801  11.449  0.00  0.00    -0.232 NA
ATOM     38  F27 3UY d   1      26.012  17.139  11.767  0.00  0.00    -0.183 F 
ATOM     39  C24 3UY d   1      28.557  19.357  10.744  0.00  0.00     0.005 A 
ATOM     40  C25 3UY d   1      29.037  18.772   9.547  0.00  0.00    -0.065 A 
ATOM     41  H   3UY d   1      29.009  20.275  11.101  0.00  0.00     0.114 H 
ATOM     42  C26 3UY d   1      28.460  17.569   9.071  0.00  0.00    -0.066 A 
ATOM     43  H   3UY d   1      29.843  19.243   8.997  0.00  0.00     0.085 H 
ATOM     44  H   3UY d   1      28.804  17.113   8.150  0.00  0.00     0.085 H 
ENDBRANCH   2  35
BRANCH   8  45
ATOM     45  C21 3UY d   1      23.114  11.851   9.528  0.00  0.00    -0.045 C 
ATOM     46  H   3UY d   1      22.024  11.734   9.621  0.00  0.00     0.031 H 
ATOM     47  H   3UY d   1      23.449  12.685  10.162  0.00  0.00     0.031 H 
ATOM     48  H   3UY d   1      23.611  10.924   9.850  0.00  0.00     0.031 H 
ENDBRANCH   8  45
TORSDOF 2
