REMARK WARNING: 32 MAX_TORS EXCEEDED!!!
REMARK  38 active torsions:
REMARK  status: ('A' for Active; 'I' for Inactive)
REMARK    1  A    between atoms: N_1  and  CA_2 
REMARK    2  A    between atoms: CA_2  and  C_3 
REMARK    3  A    between atoms: CA_2  and  CB_5 
REMARK       I    between atoms: C_3  and  N_9 
REMARK    4  A    between atoms: CB_5  and  CG_6 
REMARK    5  A    between atoms: CG_6  and  SD_7 
REMARK    6  A    between atoms: SD_7  and  CE_8 
REMARK    7  A    between atoms: N_9  and  CA_10 
REMARK    8  A    between atoms: CA_10  and  C_11 
REMARK    9  A    between atoms: CA_10  and  CB_13 
REMARK       I    between atoms: C_11  and  N_20 
REMARK   10  A    between atoms: CB_13  and  CG_14 
REMARK   11  A    between atoms: N_20  and  CA_21 
REMARK   12  A    between atoms: CA_21  and  C_22 
REMARK   13  A    between atoms: CA_21  and  CB_24 
REMARK       I    between atoms: C_22  and  N_25 
REMARK   14  A    between atoms: N_25  and  CA_26 
REMARK   15  A    between atoms: CA_26  and  C_27 
REMARK   16  A    between atoms: CA_26  and  CB_29 
REMARK       I    between atoms: C_27  and  N_30 
REMARK   17  A    between atoms: N_30  and  CA_31 
REMARK   18  A    between atoms: CA_31  and  C_32 
REMARK   19  A    between atoms: CA_31  and  CB_34 
REMARK       I    between atoms: C_32  and  N_41 
REMARK   20  A    between atoms: CB_34  and  CG_35 
REMARK   21  A    between atoms: N_41  and  CA_42 
REMARK   22  A    between atoms: CA_42  and  C_43 
REMARK   23  A    between atoms: CA_42  and  CB_45 
REMARK       I    between atoms: C_43  and  N_49 
REMARK   24  A    between atoms: CB_45  and  CG_46 
REMARK   25  A    between atoms: N_49  and  CA_50 
REMARK   26  A    between atoms: CA_50  and  C_51 
REMARK   27  A    between atoms: CA_50  and  CB_53 
REMARK       I    between atoms: C_51  and  N_61 
REMARK   28  A    between atoms: CB_53  and  CG_54 
REMARK   29  A    between atoms: CZ_59  and  OH_60 
REMARK   30  A    between atoms: N_61  and  CA_62 
REMARK   31  A    between atoms: CA_62  and  C_63 
REMARK   32  A    between atoms: CA_62  and  CB_65 
REMARK       I    between atoms: C_63  and  N_69 
REMARK   33  A    between atoms: CB_65  and  CG1_66 
REMARK   34  A    between atoms: CB_65  and  CG2_67 
REMARK   35  A    between atoms: CG1_66  and  CD1_68 
REMARK   36  A    between atoms: N_69  and  CA_70 
REMARK   37  A    between atoms: CA_70  and  C_71 
REMARK   38  A    between atoms: CA_70  and  CB_73 
ROOT
ATOM      1  CA  PHE d   1      -9.168  16.543  -7.837  0.00  0.00     0.093 C 
ATOM      2  H   PHE d   1      -9.862  16.282  -7.024  0.00  0.00     0.088 H 
ENDROOT
BRANCH   1   3
ATOM      3  N   PHE d   1      -8.822  17.948  -7.676  0.00  0.00    -0.346 N 
ATOM      4  C   ASP d   1      -8.818  18.505  -6.470  0.00  0.00     0.240 C 
ATOM      5  O   ASP d   1      -8.981  17.855  -5.436  0.00  0.00    -0.271 OA
ATOM      6  H   PHE d   1      -8.586  18.497  -8.478  0.00  0.00     0.163 HD
BRANCH   4   7
ATOM      7  CA  ASP d   1      -8.593  20.007  -6.415  0.00  0.00     0.086 C 
ATOM      8  H   ASP d   1      -7.521  20.202  -6.265  0.00  0.00     0.086 H 
BRANCH   7   9
ATOM      9  N   ASP d   1      -9.012  20.629  -7.665  0.00  0.00    -0.346 N 
ATOM     10  C   ARG d   1      -8.136  21.089  -8.552  0.00  0.00     0.240 C 
ATOM     11  O   ARG d   1      -6.921  20.969  -8.417  0.00  0.00    -0.271 OA
ATOM     12  H   ASP d   1      -9.989  20.712  -7.861  0.00  0.00     0.163 HD
BRANCH  10  13
ATOM     13  CA  ARG d   1      -8.719  21.783  -9.778  0.00  0.00     0.086 C 
ATOM     14  H   ARG d   1      -8.053  21.595 -10.633  0.00  0.00     0.086 H 
BRANCH  13  15
ATOM     15  N   ARG d   1     -10.039  21.264 -10.103  0.00  0.00    -0.346 N 
ATOM     16  C   PHE d   1     -10.216  20.025 -10.550  0.00  0.00     0.241 C 
ATOM     17  O   PHE d   1      -9.299  19.211 -10.640  0.00  0.00    -0.271 OA
ATOM     18  H   ARG d   1     -10.836  21.857  -9.987  0.00  0.00     0.163 HD
BRANCH  16  19
ATOM     19  CA  PHE d   1     -11.651  19.645 -10.929  0.00  0.00     0.093 C 
ATOM     20  H   PHE d   1     -12.119  19.174 -10.052  0.00  0.00     0.088 H 
BRANCH  19  21
ATOM     21  N   PHE d   1     -12.439  20.832 -11.275  0.00  0.00    -0.346 N 
ATOM     22  C   MET d   1     -12.134  21.618 -12.309  0.00  0.00     0.249 C 
ATOM     23  O   MET d   1     -11.209  21.376 -13.087  0.00  0.00    -0.271 OA
ATOM     24  H   PHE d   1     -13.235  21.061 -10.715  0.00  0.00     0.163 HD
BRANCH  22  25
ATOM     25  CA  MET d   1     -12.993  22.871 -12.501  0.00  0.00     0.176 C 
ATOM     26  H   MET d   1     -12.508  23.712 -11.984  0.00  0.00     0.099 H 
BRANCH  25  27
ATOM     27  N   MET d   1     -13.096  23.186 -13.917  0.00  0.00    -0.066 N 
ATOM     28  H   MET d   1     -13.662  24.011 -14.037  0.00  0.00     0.275 HD
ATOM     29  H   MET d   1     -13.522  22.413 -14.403  0.00  0.00     0.275 HD
ATOM     30  H   MET d   1     -12.175  23.353 -14.292  0.00  0.00     0.275 HD
ENDBRANCH  25  27
BRANCH  25  31
ATOM     31  CB  MET d   1     -14.388  22.672 -11.907  0.00  0.00    -0.022 C 
ATOM     32  H   MET d   1     -14.978  23.579 -12.104  0.00  0.00     0.037 H 
ATOM     33  H   MET d   1     -14.283  22.532 -10.821  0.00  0.00     0.037 H 
BRANCH  31  34
ATOM     34  CG  MET d   1     -15.148  21.478 -12.470  0.00  0.00    -0.021 C 
ATOM     35  H   MET d   1     -15.182  20.689 -11.704  0.00  0.00     0.049 H 
ATOM     36  H   MET d   1     -14.613  21.106 -13.356  0.00  0.00     0.049 H 
BRANCH  34  37
ATOM     37  SD  MET d   1     -16.838  21.895 -12.947  0.00  0.00    -0.173 SA
BRANCH  37  38
ATOM     38  CE  MET d   1     -16.526  23.010 -14.317  0.00  0.00    -0.035 C 
ATOM     39  H   MET d   1     -17.483  23.362 -14.729  0.00  0.00     0.041 H 
ATOM     40  H   MET d   1     -15.963  22.481 -15.100  0.00  0.00     0.041 H 
ATOM     41  H   MET d   1     -15.941  23.871 -13.963  0.00  0.00     0.041 H 
ENDBRANCH  37  38
ENDBRANCH  34  37
ENDBRANCH  31  34
ENDBRANCH  25  31
ENDBRANCH  22  25
ENDBRANCH  19  21
BRANCH  19  42
ATOM     42  CB  PHE d   1     -11.658  18.622 -12.073  0.00  0.00    -0.014 C 
ATOM     43  H   PHE d   1     -11.165  17.704 -11.720  0.00  0.00     0.043 H 
ATOM     44  H   PHE d   1     -11.091  19.042 -12.917  0.00  0.00     0.043 H 
BRANCH  42  45
ATOM     45  CG  PHE d   1     -13.031  18.265 -12.557  0.00  0.00    -0.056 A 
ATOM     46  CD1 PHE d   1     -13.903  17.580 -11.736  0.00  0.00    -0.077 A 
ATOM     47  CE1 PHE d   1     -15.163  17.247 -12.166  0.00  0.00    -0.082 A 
ATOM     48  H   PHE d   1     -13.588  17.301 -10.737  0.00  0.00     0.084 H 
ATOM     49  CZ  PHE d   1     -15.569  17.591 -13.436  0.00  0.00    -0.083 A 
ATOM     50  H   PHE d   1     -15.838  16.714 -11.507  0.00  0.00     0.083 H 
ATOM     51  CE2 PHE d   1     -14.710  18.274 -14.272  0.00  0.00    -0.082 A 
ATOM     52  H   PHE d   1     -16.563  17.325 -13.779  0.00  0.00     0.083 H 
ATOM     53  CD2 PHE d   1     -13.445  18.605 -13.831  0.00  0.00    -0.077 A 
ATOM     54  H   PHE d   1     -15.027  18.549 -15.271  0.00  0.00     0.083 H 
ATOM     55  H   PHE d   1     -12.769  19.137 -14.491  0.00  0.00     0.084 H 
ENDBRANCH  42  45
ENDBRANCH  19  42
ENDBRANCH  16  19
ENDBRANCH  13  15
BRANCH  13  56
ATOM     56  CB  ARG d   1      -8.793  23.294  -9.537  0.00  0.00    -0.049 C 
ATOM     57  H   ARG d   1      -7.791  23.676  -9.292  0.00  0.00     0.030 H 
ATOM     58  H   ARG d   1      -9.478  23.499  -8.701  0.00  0.00     0.030 H 
ATOM     59  H   ARG d   1      -9.164  23.792 -10.445  0.00  0.00     0.030 H 
ENDBRANCH  13  56
ENDBRANCH  10  13
ENDBRANCH   7   9
BRANCH   7  60
ATOM     60  CB  ASP d   1      -9.374  20.599  -5.241  0.00  0.00    -0.049 C 
ATOM     61  H   ASP d   1      -9.048  20.121  -4.306  0.00  0.00     0.030 H 
ATOM     62  H   ASP d   1     -10.449  20.420  -5.389  0.00  0.00     0.030 H 
ATOM     63  H   ASP d   1      -9.187  21.681  -5.184  0.00  0.00     0.030 H 
ENDBRANCH   7  60
ENDBRANCH   4   7
ENDBRANCH   1   3
BRANCH   1  64
ATOM     64  C   PHE d   1      -7.958  15.618  -7.728  0.00  0.00     0.241 C 
ATOM     65  O   PHE d   1      -8.032  14.559  -7.101  0.00  0.00    -0.271 OA
ATOM     66  N   ASP d   1      -6.845  16.019  -8.331  0.00  0.00    -0.345 N 
ATOM     67  H   ASP d   1      -6.815  16.922  -8.759  0.00  0.00     0.163 HD
BRANCH  66  68
ATOM     68  CA  ASP d   1      -5.664  15.161  -8.378  0.00  0.00     0.098 C 
ATOM     69  H   ASP d   1      -5.961  14.207  -8.839  0.00  0.00     0.088 H 
BRANCH  68  70
ATOM     70  C   ASP d   1      -5.132  14.850  -6.979  0.00  0.00     0.241 C 
ATOM     71  O   ASP d   1      -5.135  15.704  -6.089  0.00  0.00    -0.271 OA
ATOM     72  N   TYR d   1      -4.676  13.614  -6.804  0.00  0.00    -0.346 N 
ATOM     73  H   TYR d   1      -4.518  13.042  -7.609  0.00  0.00     0.163 HD
BRANCH  72  74
ATOM     74  CA  TYR d   1      -4.398  13.060  -5.489  0.00  0.00     0.093 C 
ATOM     75  H   TYR d   1      -4.021  13.855  -4.829  0.00  0.00     0.088 H 
BRANCH  74  76
ATOM     76  C   TYR d   1      -3.357  11.960  -5.607  0.00  0.00     0.241 C 
ATOM     77  O   TYR d   1      -3.372  11.181  -6.550  0.00  0.00    -0.271 OA
ATOM     78  N   ILE d   1      -2.441  11.915  -4.650  0.00  0.00    -0.346 N 
ATOM     79  H   ILE d   1      -2.369  12.675  -4.004  0.00  0.00     0.163 HD
BRANCH  78  80
ATOM     80  CA  ILE d   1      -1.541  10.785  -4.522  0.00  0.00     0.092 C 
ATOM     81  H   ILE d   1      -1.907   9.943  -5.128  0.00  0.00     0.088 H 
BRANCH  80  82
ATOM     82  C   ILE d   1      -1.534  10.428  -3.054  0.00  0.00     0.241 C 
ATOM     83  O   ILE d   1      -1.246  11.279  -2.203  0.00  0.00    -0.271 OA
ATOM     84  N   ALA d   1      -1.898   9.189  -2.754  0.00  0.00    -0.345 N 
ATOM     85  H   ALA d   1      -2.392   8.640  -3.429  0.00  0.00     0.163 HD
BRANCH  84  86
ATOM     86  CA  ALA d   1      -1.588   8.625  -1.462  0.00  0.00     0.093 C 
ATOM     87  H   ALA d   1      -2.087   9.191  -0.662  0.00  0.00     0.089 H 
BRANCH  86  88
ATOM     88  C   ALA d   1      -0.073   8.768  -1.356  0.00  0.00     0.196 C 
ATOM     89  O   ALA d   1       0.666   7.794  -1.387  0.00  0.00    -0.646 OA
ATOM     90  O1  ALA d   1       0.429   9.917  -1.234  0.00  0.00    -0.646 OA
ENDBRANCH  86  88
BRANCH  86  91
ATOM     91  CB  ALA d   1      -2.020   7.159  -1.383  0.00  0.00    -0.048 C 
ATOM     92  H   ALA d   1      -1.772   6.757  -0.390  0.00  0.00     0.030 H 
ATOM     93  H   ALA d   1      -1.493   6.579  -2.155  0.00  0.00     0.030 H 
ATOM     94  H   ALA d   1      -3.105   7.087  -1.547  0.00  0.00     0.030 H 
ENDBRANCH  86  91
ENDBRANCH  84  86
ENDBRANCH  80  82
BRANCH  80  95
ATOM     95  CB  ILE d   1      -0.092  11.134  -4.944  0.00  0.00    -0.030 C 
ATOM     96  H   ILE d   1       0.266  11.940  -4.287  0.00  0.00     0.043 H 
BRANCH  95  97
ATOM     97  CG1 ILE d   1      -0.043  11.656  -6.391  0.00  0.00    -0.063 C 
ATOM     98  H   ILE d   1       0.860  12.275  -6.498  0.00  0.00     0.033 H 
ATOM     99  H   ILE d   1      -0.936  12.276  -6.559  0.00  0.00     0.033 H 
BRANCH  97 100
ATOM    100  CD1 ILE d   1      -0.007  10.575  -7.476  0.00  0.00    -0.076 C 
ATOM    101  H   ILE d   1       0.027  11.051  -8.467  0.00  0.00     0.027 H 
ATOM    102  H   ILE d   1      -0.908   9.949  -7.400  0.00  0.00     0.027 H 
ATOM    103  H   ILE d   1       0.887   9.948  -7.340  0.00  0.00     0.027 H 
ENDBRANCH  97 100
ENDBRANCH  95  97
BRANCH  95 104
ATOM    104  CG2 ILE d   1       0.827   9.926  -4.745  0.00  0.00    -0.071 C 
ATOM    105  H   ILE d   1       0.763   9.585  -3.701  0.00  0.00     0.028 H 
ATOM    106  H   ILE d   1       1.864  10.213  -4.974  0.00  0.00     0.028 H 
ATOM    107  H   ILE d   1       0.514   9.113  -5.417  0.00  0.00     0.028 H 
ENDBRANCH  95 104
ENDBRANCH  80  95
ENDBRANCH  78  80
ENDBRANCH  74  76
BRANCH  74 108
ATOM    108  CB  TYR d   1      -5.692  12.466  -4.897  0.00  0.00    -0.014 C 
ATOM    109  H   TYR d   1      -6.122  11.775  -5.637  0.00  0.00     0.043 H 
ATOM    110  H   TYR d   1      -6.396  13.291  -4.713  0.00  0.00     0.043 H 
BRANCH 108 111
ATOM    111  CG  TYR d   1      -5.503  11.714  -3.606  0.00  0.00    -0.056 A 
ATOM    112  CD1 TYR d   1      -5.159  12.379  -2.439  0.00  0.00    -0.074 A 
ATOM    113  CE1 TYR d   1      -4.990  11.691  -1.253  0.00  0.00    -0.051 A 
ATOM    114  H   TYR d   1      -5.021  13.454  -2.458  0.00  0.00     0.084 H 
ATOM    115  CZ  TYR d   1      -5.158  10.324  -1.229  0.00  0.00     0.065 A 
ATOM    116  H   TYR d   1      -4.727  12.224  -0.346  0.00  0.00     0.087 H 
ATOM    117  CE2 TYR d   1      -5.505   9.638  -2.376  0.00  0.00    -0.051 A 
ATOM    118  CD2 TYR d   1      -5.678  10.332  -3.552  0.00  0.00    -0.074 A 
ATOM    119  H   TYR d   1      -5.640   8.563  -2.350  0.00  0.00     0.087 H 
ATOM    120  H   TYR d   1      -5.955   9.795  -4.452  0.00  0.00     0.084 H 
BRANCH 115 121
ATOM    121  OH  TYR d   1      -4.994   9.641  -0.048  0.00  0.00    -0.361 OA
ATOM    122  H   TYR d   1      -5.807   9.205   0.180  0.00  0.00     0.217 HD
ENDBRANCH 115 121
ENDBRANCH 108 111
ENDBRANCH  74 108
ENDBRANCH  72  74
ENDBRANCH  68  70
BRANCH  68 123
ATOM    123  CB  ASP d   1      -4.585  15.787  -9.257  0.00  0.00     0.043 C 
ATOM    124  H   ASP d   1      -3.708  15.123  -9.268  0.00  0.00     0.052 H 
ATOM    125  H   ASP d   1      -4.302  16.761  -8.831  0.00  0.00     0.052 H 
BRANCH 123 126
ATOM    126  CG  ASP d   1      -5.057  15.996 -10.682  0.00  0.00     0.175 C 
ATOM    127  OD1 ASP d   1      -6.190  15.572 -11.002  0.00  0.00    -0.648 OA
ATOM    128  OD2 ASP d   1      -4.302  16.580 -11.480  0.00  0.00    -0.648 OA
ENDBRANCH 123 126
ENDBRANCH  68 123
ENDBRANCH  66  68
ENDBRANCH   1  64
BRANCH   1 129
ATOM    129  CB  PHE d   1      -9.882  16.291  -9.163  0.00  0.00    -0.014 C 
ATOM    130  H   PHE d   1      -9.219  16.601  -9.984  0.00  0.00     0.043 H 
ATOM    131  H   PHE d   1     -10.802  16.894  -9.187  0.00  0.00     0.043 H 
BRANCH 129 132
ATOM    132  CG  PHE d   1     -10.245  14.861  -9.358  0.00  0.00    -0.056 A 
ATOM    133  CD1 PHE d   1     -11.304  14.300  -8.656  0.00  0.00    -0.077 A 
ATOM    134  CE1 PHE d   1     -11.621  12.972  -8.806  0.00  0.00    -0.082 A 
ATOM    135  H   PHE d   1     -11.887  14.917  -7.982  0.00  0.00     0.084 H 
ATOM    136  CZ  PHE d   1     -10.879  12.183  -9.651  0.00  0.00    -0.083 A 
ATOM    137  H   PHE d   1     -12.455  12.547  -8.259  0.00  0.00     0.083 H 
ATOM    138  CE2 PHE d   1      -9.827  12.725 -10.355  0.00  0.00    -0.082 A 
ATOM    139  H   PHE d   1     -11.122  11.133  -9.764  0.00  0.00     0.083 H 
ATOM    140  CD2 PHE d   1      -9.504  14.057 -10.198  0.00  0.00    -0.077 A 
ATOM    141  H   PHE d   1      -9.252  12.105 -11.033  0.00  0.00     0.083 H 
ATOM    142  H   PHE d   1      -8.662  14.474 -10.739  0.00  0.00     0.084 H 
ENDBRANCH 129 132
ENDBRANCH   1 129
TORSDOF 38
