REMARK  7 active torsions:
REMARK  status: ('A' for Active; 'I' for Inactive)
REMARK    1  A    between atoms: C6_6  and  C1_1 
REMARK    2  A    between atoms: C2_2  and  C3_3 
REMARK    3  A    between atoms: C11_11  and  C2_2 
REMARK    4  A    between atoms: C3_3  and  C4_4 
REMARK    5  A    between atoms: C3_3  and  C5_5 
REMARK    6  A    between atoms: C6_6  and  C7_7 
REMARK    7  A    between atoms: C8_8  and  C6_6 
ROOT
ATOM      1  C8  IBP d   1       7.130 -21.284 -73.334  0.00  0.00    -0.044 A 
ATOM      2  C9  IBP d   1       6.713 -20.075 -72.804  0.00  0.00    -0.075 A 
ATOM      3  C10 IBP d   1       5.365 -19.831 -72.599  0.00  0.00    -0.076 A 
ATOM      4  C11 IBP d   1       4.421 -20.794 -72.924  0.00  0.00    -0.058 A 
ATOM      5  C12 IBP d   1       4.833 -22.005 -73.465  0.00  0.00    -0.076 A 
ATOM      6  C13 IBP d   1       6.187 -22.248 -73.668  0.00  0.00    -0.075 A 
ATOM      7  H14 IBP d   1       7.444 -19.317 -72.549  0.00  0.00     0.084 H 
ATOM      8  H15 IBP d   1       5.046 -18.882 -72.182  0.00  0.00     0.084 H 
ATOM      9  H16 IBP d   1       4.100 -22.759 -73.728  0.00  0.00     0.084 H 
ATOM     10  H17 IBP d   1       6.508 -23.194 -74.089  0.00  0.00     0.084 H 
ENDROOT
BRANCH   4  11
ATOM     11  C2  IBP d   1       2.973 -20.499 -72.699  0.00  0.00    -0.038 C 
ATOM     12  H1  IBP d   1       2.848 -19.416 -72.555  0.00  0.00     0.040 H 
ATOM     13  H2  IBP d   1       2.403 -20.820 -73.583  0.00  0.00     0.040 H 
BRANCH  11  14
ATOM     14  C3  IBP d   1       2.444 -21.209 -71.500  0.00  0.00    -0.057 C 
ATOM     15  H3  IBP d   1       2.927 -22.193 -71.405  0.00  0.00     0.039 H 
BRANCH  14  16
ATOM     16  C4  IBP d   1       2.715 -20.396 -70.282  0.00  0.00    -0.073 C 
ATOM     17  H4  IBP d   1       2.325 -20.920 -69.397  0.00  0.00     0.028 H 
ATOM     18  H5  IBP d   1       2.221 -19.418 -70.377  0.00  0.00     0.028 H 
ATOM     19  H6  IBP d   1       3.800 -20.250 -70.173  0.00  0.00     0.028 H 
ENDBRANCH  14  16
BRANCH  14  20
ATOM     20  C5  IBP d   1       0.970 -21.379 -71.658  0.00  0.00    -0.073 C 
ATOM     21  H7  IBP d   1       0.764 -21.979 -72.557  0.00  0.00     0.028 H 
ATOM     22  H8  IBP d   1       0.496 -20.392 -71.760  0.00  0.00     0.028 H 
ATOM     23  H9  IBP d   1       0.563 -21.892 -70.774  0.00  0.00     0.028 H 
ENDBRANCH  14  20
ENDBRANCH  11  14
ENDBRANCH   4  11
BRANCH   1  24
ATOM     24  C6  IBP d   1       8.590 -21.520 -73.561  0.00  0.00     0.052 C 
ATOM     25  H10 IBP d   1       9.109 -20.551 -73.518  0.00  0.00     0.063 H 
BRANCH  24  26
ATOM     26  C1  IBP d   1       9.183 -22.418 -72.525  0.00  0.00     0.181 C 
ATOM     27  O1  IBP d   1       9.992 -21.949 -71.679  0.00  0.00    -0.647 OA
ATOM     28  O2  IBP d   1       8.890 -23.644 -72.501  0.00  0.00    -0.647 OA
ENDBRANCH  24  26
BRANCH  24  29
ATOM     29  C7  IBP d   1       8.793 -22.119 -74.914  0.00  0.00    -0.060 C 
ATOM     30  H11 IBP d   1       9.866 -22.293 -75.081  0.00  0.00     0.029 H 
ATOM     31  H12 IBP d   1       8.409 -21.430 -75.681  0.00  0.00     0.029 H 
ATOM     32  H13 IBP d   1       8.253 -23.075 -74.976  0.00  0.00     0.029 H 
ENDBRANCH  24  29
ENDBRANCH   1  24
TORSDOF 7
