REMARK  8 active torsions:
REMARK  status: ('A' for Active; 'I' for Inactive)
REMARK    1  A    between atoms: O_1  and  C2_2 
REMARK    2  A    between atoms: C2_2  and  C1_3 
REMARK    3  A    between atoms: C2_2  and  C3_6 
REMARK    4  A    between atoms: C1_3  and  C_4 
REMARK    5  A    between atoms: C_4  and  N_5 
REMARK    6  A    between atoms: C7_8  and  O1_12 
REMARK    7  A    between atoms: O1_12  and  C8_13 
REMARK    8  A    between atoms: C8_13  and  C9_14 
ROOT
ATOM      1  C3  A3V d   1     -37.679 134.130  10.122  0.00  0.00    -0.027 A 
ATOM      2  C15 A3V d   1     -38.468 135.014   9.387  0.00  0.00    -0.042 A 
ATOM      3  C7  A3V d   1     -39.333 135.896  10.050  0.00  0.00     0.069 A 
ATOM      4  C6  A3V d   1     -39.429 135.872  11.419  0.00  0.00    -0.051 A 
ATOM      5  C5  A3V d   1     -38.672 134.973  12.131  0.00  0.00    -0.080 A 
ATOM      6  C4  A3V d   1     -37.799 134.122  11.494  0.00  0.00    -0.074 A 
ATOM      7  H10 A3V d   1     -38.413 135.019   8.304  0.00  0.00     0.088 H 
ATOM      8  H11 A3V d   1     -40.095 136.555  11.933  0.00  0.00     0.087 H 
ATOM      9  H12 A3V d   1     -38.764 134.934  13.210  0.00  0.00     0.083 H 
ATOM     10  H13 A3V d   1     -37.198 133.436  12.079  0.00  0.00     0.084 H 
ENDROOT
BRANCH   3  11
ATOM     11  O1  A3V d   1     -40.110 136.797   9.380  0.00  0.00    -0.351 OA
BRANCH  11  12
ATOM     12  C8  A3V d   1     -40.102 136.859   7.957  0.00  0.00     0.029 C 
ATOM     13  H14 A3V d   1     -40.545 135.950   7.523  0.00  0.00     0.075 H 
ATOM     14  H15 A3V d   1     -39.078 136.985   7.577  0.00  0.00     0.075 H 
BRANCH  12  15
ATOM     15  C9  A3V d   1     -40.947 138.073   7.640  0.00  0.00    -0.033 C 
ATOM     16  C14 A3V d   1     -40.271 139.351   8.148  0.00  0.00    -0.060 C 
ATOM     17  C13 A3V d   1     -41.048 140.630   7.831  0.00  0.00    -0.065 C 
ATOM     18  H17 A3V d   1     -39.277 139.425   7.683  0.00  0.00     0.033 H 
ATOM     19  H18 A3V d   1     -40.161 139.274   9.240  0.00  0.00     0.033 H 
ATOM     20  C12 A3V d   1     -41.406 140.727   6.363  0.00  0.00    -0.065 C 
ATOM     21  H19 A3V d   1     -40.430 141.498   8.104  0.00  0.00     0.033 H 
ATOM     22  H20 A3V d   1     -41.974 140.639   8.424  0.00  0.00     0.033 H 
ATOM     23  C11 A3V d   1     -42.080 139.452   5.882  0.00  0.00    -0.065 C 
ATOM     24  H21 A3V d   1     -40.489 140.891   5.779  0.00  0.00     0.033 H 
ATOM     25  H22 A3V d   1     -42.092 141.574   6.215  0.00  0.00     0.033 H 
ATOM     26  C10 A3V d   1     -41.217 138.222   6.159  0.00  0.00    -0.060 C 
ATOM     27  H23 A3V d   1     -42.256 139.528   4.799  0.00  0.00     0.033 H 
ATOM     28  H24 A3V d   1     -43.042 139.338   6.403  0.00  0.00     0.033 H 
ATOM     29  H25 A3V d   1     -41.741 137.326   5.797  0.00  0.00     0.033 H 
ATOM     30  H26 A3V d   1     -40.260 138.327   5.627  0.00  0.00     0.033 H 
ATOM     31  H16 A3V d   1     -41.911 137.957   8.156  0.00  0.00     0.043 H 
ENDBRANCH  12  15
ENDBRANCH  11  12
ENDBRANCH   3  11
BRANCH   1  32
ATOM     32  C2  A3V d   1     -36.637 133.227   9.484  0.00  0.00     0.062 C 
ATOM     33  H2  A3V d   1     -36.315 132.519  10.262  0.00  0.00     0.090 H 
BRANCH  32  34
ATOM     34  O   A3V d   1     -35.484 133.956   9.063  0.00  0.00    -0.391 OA
ATOM     35  H1  A3V d   1     -35.154 134.471   9.790  0.00  0.00     0.210 HD
ENDBRANCH  32  34
BRANCH  32  36
ATOM     36  C1  A3V d   1     -37.162 132.407   8.325  0.00  0.00    -0.015 C 
ATOM     37  H3  A3V d   1     -37.416 133.096   7.506  0.00  0.00     0.039 H 
ATOM     38  H4  A3V d   1     -38.070 131.884   8.659  0.00  0.00     0.039 H 
BRANCH  36  39
ATOM     39  C   A3V d   1     -36.194 131.373   7.788  0.00  0.00     0.082 C 
ATOM     40  H5  A3V d   1     -36.597 131.019   6.827  0.00  0.00     0.075 H 
ATOM     41  H6  A3V d   1     -36.176 130.541   8.507  0.00  0.00     0.075 H 
BRANCH  39  42
ATOM     42  N   A3V d   1     -34.829 131.764   7.558  0.00  0.00    -0.079 N 
ATOM     43  H7  A3V d   1     -34.309 130.976   7.203  0.00  0.00     0.274 HD
ATOM     44  H8  A3V d   1     -34.418 132.075   8.424  0.00  0.00     0.274 HD
ATOM     45  H9  A3V d   1     -34.803 132.514   6.885  0.00  0.00     0.274 HD
ENDBRANCH  39  42
ENDBRANCH  36  39
ENDBRANCH  32  36
ENDBRANCH   1  32
TORSDOF 8
