REMARK  11 active torsions:
REMARK  status: ('A' for Active; 'I' for Inactive)
REMARK    1  A    between atoms: O1_1  and  C9_2 
REMARK    2  A    between atoms: C9_2  and  C10_3 
REMARK    3  A    between atoms: C9_2  and  C8_6 
REMARK    4  A    between atoms: C10_3  and  C11_4 
REMARK    5  A    between atoms: C11_4  and  N_5 
REMARK    6  A    between atoms: C4_11  and  O_12 
REMARK    7  A    between atoms: O_12  and  C3_13 
REMARK    8  A    between atoms: C3_13  and  C2_14 
REMARK    9  A    between atoms: C13_15  and  C14_16 
REMARK   10  A    between atoms: C13_15  and  C15_17 
REMARK   11  A    between atoms: C1_21  and  C_22 
ROOT
ATOM      1  C3  A6V d   1     -40.686 137.679   9.540  0.00  0.00     0.047 C 
ATOM      2  H14 A6V d   1     -40.255 138.249  10.377  0.00  0.00     0.082 H 
ATOM      3  H15 A6V d   1     -41.614 137.189   9.870  0.00  0.00     0.082 H 
ENDROOT
BRANCH   1   4
ATOM      4  O   A6V d   1     -39.757 136.687   9.125  0.00  0.00    -0.347 OA
BRANCH   4   5
ATOM      5  C4  A6V d   1     -39.250 135.796  10.034  0.00  0.00     0.069 A 
ATOM      6  C5  A6V d   1     -39.506 135.766  11.398  0.00  0.00    -0.051 A 
ATOM      7  C6  A6V d   1     -38.828 134.849  12.184  0.00  0.00    -0.080 A 
ATOM      8  H12 A6V d   1     -40.224 136.448  11.840  0.00  0.00     0.087 H 
ATOM      9  C7  A6V d   1     -37.930 133.963  11.615  0.00  0.00    -0.074 A 
ATOM     10  H11 A6V d   1     -39.002 134.825  13.254  0.00  0.00     0.083 H 
ATOM     11  C8  A6V d   1     -37.696 133.969  10.250  0.00  0.00    -0.027 A 
ATOM     12  H10 A6V d   1     -37.403 133.256  12.245  0.00  0.00     0.084 H 
ATOM     13  C12 A6V d   1     -38.361 134.900   9.460  0.00  0.00    -0.042 A 
ATOM     14  H13 A6V d   1     -38.184 134.925   8.391  0.00  0.00     0.088 H 
BRANCH  11  15
ATOM     15  C9  A6V d   1     -36.710 132.997   9.635  0.00  0.00     0.062 C 
ATOM     16  H2  A6V d   1     -36.419 132.271  10.409  0.00  0.00     0.090 H 
BRANCH  15  17
ATOM     17  O1  A6V d   1     -35.560 133.696   9.173  0.00  0.00    -0.391 OA
ATOM     18  H1  A6V d   1     -35.181 134.190   9.891  0.00  0.00     0.210 HD
ENDBRANCH  15  17
BRANCH  15  19
ATOM     19  C10 A6V d   1     -37.245 132.240   8.423  0.00  0.00    -0.015 C 
ATOM     20  H3  A6V d   1     -37.383 132.947   7.592  0.00  0.00     0.039 H 
ATOM     21  H4  A6V d   1     -38.213 131.786   8.683  0.00  0.00     0.039 H 
BRANCH  19  22
ATOM     22  C11 A6V d   1     -36.285 131.142   7.985  0.00  0.00     0.082 C 
ATOM     23  H5  A6V d   1     -36.847 130.436   7.356  0.00  0.00     0.075 H 
ATOM     24  H6  A6V d   1     -35.931 130.626   8.889  0.00  0.00     0.075 H 
BRANCH  22  25
ATOM     25  N   A6V d   1     -35.108 131.575   7.228  0.00  0.00    -0.079 N 
ATOM     26  H7  A6V d   1     -34.546 130.772   6.992  0.00  0.00     0.274 HD
ATOM     27  H8  A6V d   1     -34.564 132.212   7.788  0.00  0.00     0.274 HD
ATOM     28  H9  A6V d   1     -35.404 132.039   6.383  0.00  0.00     0.274 HD
ENDBRANCH  22  25
ENDBRANCH  19  22
ENDBRANCH  15  19
ENDBRANCH  11  15
ENDBRANCH   4   5
ENDBRANCH   1   4
BRANCH   1  29
ATOM     29  C2  A6V d   1     -41.001 138.624   8.408  0.00  0.00    -0.046 C 
ATOM     30  C13 A6V d   1     -41.310 137.993   7.034  0.00  0.00    -0.022 C 
ATOM     31  C16 A6V d   1     -42.065 138.994   6.147  0.00  0.00    -0.055 C 
ATOM     32  C17 A6V d   1     -41.409 140.360   6.133  0.00  0.00    -0.061 C 
ATOM     33  H22 A6V d   1     -43.092 139.099   6.527  0.00  0.00     0.034 H 
ATOM     34  H23 A6V d   1     -42.093 138.605   5.119  0.00  0.00     0.034 H 
ATOM     35  C18 A6V d   1     -41.372 140.942   7.527  0.00  0.00    -0.044 C 
ATOM     36  H24 A6V d   1     -41.982 141.030   5.476  0.00  0.00     0.033 H 
ATOM     37  H25 A6V d   1     -40.381 140.264   5.753  0.00  0.00     0.033 H 
ATOM     38  C1  A6V d   1     -41.048 139.947   8.611  0.00  0.00    -0.079 C 
ATOM     39  H26 A6V d   1     -42.359 141.377   7.744  0.00  0.00     0.039 H 
ATOM     40  H27 A6V d   1     -40.609 141.734   7.548  0.00  0.00     0.039 H 
BRANCH  30  41
ATOM     41  C14 A6V d   1     -40.009 137.571   6.329  0.00  0.00    -0.066 C 
ATOM     42  H16 A6V d   1     -40.249 137.124   5.353  0.00  0.00     0.028 H 
ATOM     43  H17 A6V d   1     -39.478 136.834   6.949  0.00  0.00     0.028 H 
ATOM     44  H18 A6V d   1     -39.369 138.453   6.181  0.00  0.00     0.028 H 
ENDBRANCH  30  41
BRANCH  30  45
ATOM     45  C15 A6V d   1     -42.222 136.769   7.196  0.00  0.00    -0.066 C 
ATOM     46  H19 A6V d   1     -43.153 137.069   7.700  0.00  0.00     0.028 H 
ATOM     47  H20 A6V d   1     -41.708 136.006   7.799  0.00  0.00     0.028 H 
ATOM     48  H21 A6V d   1     -42.459 136.355   6.205  0.00  0.00     0.028 H 
ENDBRANCH  30  45
BRANCH  38  49
ATOM     49  C   A6V d   1     -40.806 140.615   9.939  0.00  0.00    -0.054 C 
ATOM     50  H28 A6V d   1     -40.574 139.852  10.696  0.00  0.00     0.033 H 
ATOM     51  H29 A6V d   1     -41.707 141.169  10.241  0.00  0.00     0.033 H 
ATOM     52  H30 A6V d   1     -39.960 141.312   9.850  0.00  0.00     0.033 H 
ENDBRANCH  38  49
ENDBRANCH   1  29
TORSDOF 11
