REMARK  6 active torsions:
REMARK  status: ('A' for Active; 'I' for Inactive)
REMARK    1  A    between atoms: C2'_10  and  O2'_11 
REMARK    2  A    between atoms: C1'_12  and  N9_13 
REMARK    3  A    between atoms: C2_20  and  N2_21 
REMARK    4  A    between atoms: C2A_33  and  O2A_34 
REMARK    5  A    between atoms: C1A_35  and  N91_36 
REMARK    6  A    between atoms: C21_43  and  N21_44 
ROOT
ATOM      1  P1  C2E d   1      61.928  13.463  81.405  0.00  0.00     0.408 P 
ATOM      2  O2P C2E d   1      62.637  12.665  80.367  0.00  0.00    -0.624 OA
ATOM      3  O1P C2E d   1      61.021  14.373  80.591  0.00  0.00    -0.624 OA
ATOM      4  O5' C2E d   1      61.001  12.613  82.355  0.00  0.00    -0.287 OA
ATOM      5  C5' C2E d   1      60.171  13.212  83.257  0.00  0.00     0.058 C 
ATOM      6  C4' C2E d   1      59.593  12.393  84.289  0.00  0.00     0.090 C 
ATOM      7  O4' C2E d   1      59.203  11.191  83.732  0.00  0.00    -0.353 OA
ATOM      8  C3' C2E d   1      60.630  11.975  85.307  0.00  0.00     0.106 C 
ATOM      9  O3' C2E d   1      60.714  12.839  86.407  0.00  0.00    -0.279 OA
ATOM     10  C2' C2E d   1      60.198  10.774  85.776  0.00  0.00     0.106 C 
ATOM     11  C1' C2E d   1      59.591  10.175  84.619  0.00  0.00     0.140 C 
ATOM     12  P11 C2E d   1      62.121  12.831  87.133  0.00  0.00     0.408 P 
ATOM     13  O21 C2E d   1      62.551  11.467  87.625  0.00  0.00    -0.624 OA
ATOM     14  O11 C2E d   1      61.908  13.646  88.361  0.00  0.00    -0.624 OA
ATOM     15  O5A C2E d   1      63.222  13.600  86.320  0.00  0.00    -0.287 OA
ATOM     16  C5A C2E d   1      62.885  14.571  85.331  0.00  0.00     0.058 C 
ATOM     17  C4A C2E d   1      63.803  14.877  84.278  0.00  0.00     0.090 C 
ATOM     18  O4A C2E d   1      65.218  14.785  84.740  0.00  0.00    -0.353 OA
ATOM     19  C3A C2E d   1      63.686  13.916  83.152  0.00  0.00     0.106 C 
ATOM     20  O3A C2E d   1      62.893  14.414  82.142  0.00  0.00    -0.279 OA
ATOM     21  C2A C2E d   1      65.067  13.716  82.661  0.00  0.00     0.106 C 
ATOM     22  C1A C2E d   1      65.947  14.012  83.826  0.00  0.00     0.140 C 
ATOM     23  H1  C2E d   1      59.341  13.660  82.691  0.00  0.00     0.079 H 
ATOM     24  H2  C2E d   1      60.747  14.007  83.754  0.00  0.00     0.079 H 
ATOM     25  H3  C2E d   1      58.752  12.918  84.766  0.00  0.00     0.090 H 
ATOM     26  H4  C2E d   1      61.616  11.888  84.828  0.00  0.00     0.092 H 
ATOM     27  H5  C2E d   1      61.035  10.169  86.156  0.00  0.00     0.093 H 
ATOM     28  H7  C2E d   1      58.707   9.605  84.941  0.00  0.00     0.122 H 
ATOM     29  H12 C2E d   1      62.692  15.513  85.865  0.00  0.00     0.079 H 
ATOM     30  H13 C2E d   1      61.958  14.225  84.851  0.00  0.00     0.079 H 
ATOM     31  H14 C2E d   1      63.596  15.896  83.919  0.00  0.00     0.090 H 
ATOM     32  H15 C2E d   1      63.264  12.965  83.508  0.00  0.00     0.092 H 
ATOM     33  H16 C2E d   1      65.202  12.673  82.338  0.00  0.00     0.093 H 
ATOM     34  H18 C2E d   1      66.834  14.557  83.470  0.00  0.00     0.122 H 
ENDROOT
BRANCH  11  35
ATOM     35  N9  C2E d   1      60.487   9.287  83.906  0.00  0.00    -0.293 N 
ATOM     36  C8  C2E d   1      61.017   9.452  82.683  0.00  0.00     0.071 A 
ATOM     37  N7  C2E d   1      61.773   8.374  82.411  0.00  0.00    -0.235 NA
ATOM     38  H8  C2E d   1      60.862  10.308  82.028  0.00  0.00     0.144 H 
ATOM     39  C5  C2E d   1      61.715   7.516  83.452  0.00  0.00     0.159 A 
ATOM     40  C6  C2E d   1      62.263   6.267  83.761  0.00  0.00     0.226 A 
ATOM     41  C4  C2E d   1      60.890   8.119  84.407  0.00  0.00     0.185 A 
ATOM     42  O6  C2E d   1      63.068   5.605  82.911  0.00  0.00    -0.169 OA
ATOM     43  N1  C2E d   1      61.976   5.711  84.940  0.00  0.00    -0.164 N 
ATOM     44  C2  C2E d   1      61.175   6.333  85.813  0.00  0.00     0.702 A 
ATOM     45  H9  C2E d   1      62.364   4.819  85.174  0.00  0.00     0.186 HD
ATOM     46  N3  C2E d   1      60.625   7.524  85.579  0.00  0.00    -0.044 NA
BRANCH  44  47
ATOM     47  N2  C2E d   1      60.910   5.667  87.062  0.00  0.00    -0.233 N 
ATOM     48  H10 C2E d   1      60.299   6.110  87.763  0.00  0.00     0.174 HD
ATOM     49  H11 C2E d   1      61.332   4.747  87.255  0.00  0.00     0.174 HD
ENDBRANCH  44  47
ENDBRANCH  11  35
BRANCH  10  50
ATOM     50  O2' C2E d   1      59.203  10.940  86.803  0.00  0.00    -0.388 OA
ATOM     51  H6  C2E d   1      59.575  11.431  87.526  0.00  0.00     0.210 HD
ENDBRANCH  10  50
BRANCH  21  52
ATOM     52  O2A C2E d   1      65.367  14.547  81.612  0.00  0.00    -0.388 OA
ATOM     53  H17 C2E d   1      64.769  14.377  80.894  0.00  0.00     0.210 HD
ENDBRANCH  21  52
BRANCH  22  54
ATOM     54  N91 C2E d   1      66.379  12.817  84.616  0.00  0.00    -0.293 N 
ATOM     55  C81 C2E d   1      66.083  12.645  85.893  0.00  0.00     0.071 A 
ATOM     56  N71 C2E d   1      66.593  11.480  86.323  0.00  0.00    -0.235 NA
ATOM     57  H19 C2E d   1      65.512  13.343  86.504  0.00  0.00     0.144 H 
ATOM     58  C51 C2E d   1      67.231  10.915  85.300  0.00  0.00     0.159 A 
ATOM     59  C61 C2E d   1      67.937   9.735  85.139  0.00  0.00     0.226 A 
ATOM     60  C41 C2E d   1      67.093  11.754  84.204  0.00  0.00     0.185 A 
ATOM     61  O61 C2E d   1      68.088   8.853  86.237  0.00  0.00    -0.169 OA
ATOM     62  N11 C2E d   1      68.462   9.431  83.950  0.00  0.00    -0.164 N 
ATOM     63  C21 C2E d   1      68.330  10.258  82.917  0.00  0.00     0.702 A 
ATOM     64  H20 C2E d   1      68.960   8.572  83.835  0.00  0.00     0.186 HD
ATOM     65  N31 C2E d   1      67.645  11.407  83.036  0.00  0.00    -0.044 NA
BRANCH  63  66
ATOM     66  N21 C2E d   1      68.890   9.912  81.699  0.00  0.00    -0.233 N 
ATOM     67  H21 C2E d   1      68.795  10.543  80.891  0.00  0.00     0.174 HD
ATOM     68  H22 C2E d   1      69.401   9.023  81.601  0.00  0.00     0.174 HD
ENDBRANCH  63  66
ENDBRANCH  22  54
TORSDOF 6
