REMARK  6 active torsions:
REMARK  status: ('A' for Active; 'I' for Inactive)
REMARK    1  A    between atoms: C2'_10  and  O2'_11 
REMARK    2  A    between atoms: C1'_12  and  N9_13 
REMARK    3  A    between atoms: C2_20  and  N2_21 
REMARK    4  A    between atoms: C2A_33  and  O2A_34 
REMARK    5  A    between atoms: C1A_35  and  N91_36 
REMARK    6  A    between atoms: C21_43  and  N21_44 
ROOT
ATOM      1  P1  C2E d   1      25.911 -38.818 147.343  0.00  0.00     0.408 P 
ATOM      2  O2P C2E d   1      26.999 -37.834 147.512  0.00  0.00    -0.624 OA
ATOM      3  O1P C2E d   1      24.789 -38.619 148.337  0.00  0.00    -0.624 OA
ATOM      4  O5' C2E d   1      25.379 -38.717 145.852  0.00  0.00    -0.287 OA
ATOM      5  C5' C2E d   1      24.315 -39.453 145.380  0.00  0.00     0.058 C 
ATOM      6  C4' C2E d   1      24.115 -39.344 143.938  0.00  0.00     0.090 C 
ATOM      7  O4' C2E d   1      23.858 -38.011 143.589  0.00  0.00    -0.353 OA
ATOM      8  C3' C2E d   1      25.374 -39.680 143.166  0.00  0.00     0.106 C 
ATOM      9  O3' C2E d   1      25.448 -41.094 142.942  0.00  0.00    -0.279 OA
ATOM     10  C2' C2E d   1      25.223 -38.944 141.980  0.00  0.00     0.106 C 
ATOM     11  C1' C2E d   1      24.604 -37.695 142.426  0.00  0.00     0.140 C 
ATOM     12  P11 C2E d   1      26.904 -41.754 142.763  0.00  0.00     0.408 P 
ATOM     13  O21 C2E d   1      27.752 -40.886 141.901  0.00  0.00    -0.624 OA
ATOM     14  O11 C2E d   1      26.626 -43.111 142.261  0.00  0.00    -0.624 OA
ATOM     15  O5A C2E d   1      27.526 -41.807 144.184  0.00  0.00    -0.287 OA
ATOM     16  C5A C2E d   1      26.931 -42.455 145.317  0.00  0.00     0.058 C 
ATOM     17  C4A C2E d   1      27.511 -42.162 146.598  0.00  0.00     0.090 C 
ATOM     18  O4A C2E d   1      28.925 -42.657 146.626  0.00  0.00    -0.353 OA
ATOM     19  C3A C2E d   1      27.598 -40.707 146.946  0.00  0.00     0.106 C 
ATOM     20  O3A C2E d   1      26.402 -40.263 147.555  0.00  0.00    -0.279 OA
ATOM     21  C2A C2E d   1      28.753 -40.689 147.874  0.00  0.00     0.106 C 
ATOM     22  C1A C2E d   1      29.672 -41.743 147.355  0.00  0.00     0.140 C 
ATOM     23  H1  C2E d   1      23.402 -39.104 145.884  0.00  0.00     0.079 H 
ATOM     24  H2  C2E d   1      24.489 -40.511 145.627  0.00  0.00     0.079 H 
ATOM     25  H3  C2E d   1      23.286 -39.999 143.633  0.00  0.00     0.090 H 
ATOM     26  H4  C2E d   1      26.272 -39.353 143.710  0.00  0.00     0.092 H 
ATOM     27  H5  C2E d   1      26.210 -38.759 141.531  0.00  0.00     0.093 H 
ATOM     28  H7  C2E d   1      23.962 -37.293 141.628  0.00  0.00     0.122 H 
ATOM     29  H12 C2E d   1      27.003 -43.541 145.157  0.00  0.00     0.079 H 
ATOM     30  H13 C2E d   1      25.872 -42.159 145.354  0.00  0.00     0.079 H 
ATOM     31  H14 C2E d   1      26.916 -42.676 147.367  0.00  0.00     0.090 H 
ATOM     32  H15 C2E d   1      27.799 -40.093 146.055  0.00  0.00     0.092 H 
ATOM     33  H16 C2E d   1      29.231 -39.698 147.880  0.00  0.00     0.093 H 
ATOM     34  H18 C2E d   1      30.145 -42.236 148.217  0.00  0.00     0.122 H 
ENDROOT
BRANCH  11  35
ATOM     35  N9  C2E d   1      25.561 -36.672 142.867  0.00  0.00    -0.293 N 
ATOM     36  C8  C2E d   1      25.787 -36.208 144.122  0.00  0.00     0.071 A 
ATOM     37  N7  C2E d   1      26.751 -35.271 144.079  0.00  0.00    -0.235 NA
ATOM     38  H8  C2E d   1      25.270 -36.541 145.021  0.00  0.00     0.144 H 
ATOM     39  C5  C2E d   1      27.149 -35.123 142.779  0.00  0.00     0.159 A 
ATOM     40  C6  C2E d   1      28.091 -34.331 142.094  0.00  0.00     0.226 A 
ATOM     41  C4  C2E d   1      26.371 -36.008 142.036  0.00  0.00     0.185 A 
ATOM     42  O6  C2E d   1      28.883 -33.440 142.710  0.00  0.00    -0.169 OA
ATOM     43  N1  C2E d   1      28.202 -34.449 140.769  0.00  0.00    -0.164 N 
ATOM     44  C2  C2E d   1      27.436 -35.349 140.119  0.00  0.00     0.702 A 
ATOM     45  H9  C2E d   1      28.847 -33.876 140.263  0.00  0.00     0.186 HD
ATOM     46  N3  C2E d   1      26.511 -36.130 140.698  0.00  0.00    -0.044 NA
BRANCH  44  47
ATOM     47  N2  C2E d   1      27.612 -35.457 138.710  0.00  0.00    -0.233 N 
ATOM     48  H10 C2E d   1      27.049 -36.130 138.171  0.00  0.00     0.174 HD
ATOM     49  H11 C2E d   1      28.302 -34.862 138.230  0.00  0.00     0.174 HD
ENDBRANCH  44  47
ENDBRANCH  11  35
BRANCH  10  50
ATOM     50  O2' C2E d   1      24.359 -39.550 140.978  0.00  0.00    -0.388 OA
ATOM     51  H6  C2E d   1      23.488 -39.662 141.339  0.00  0.00     0.210 HD
ENDBRANCH  10  50
BRANCH  21  52
ATOM     52  O2A C2E d   1      28.393 -41.060 149.173  0.00  0.00    -0.388 OA
ATOM     53  H17 C2E d   1      27.739 -40.456 149.504  0.00  0.00     0.210 HD
ENDBRANCH  21  52
BRANCH  22  54
ATOM     54  N91 C2E d   1      30.749 -41.287 146.408  0.00  0.00    -0.293 N 
ATOM     55  C81 C2E d   1      30.625 -41.074 145.095  0.00  0.00     0.071 A 
ATOM     56  N71 C2E d   1      31.806 -40.660 144.611  0.00  0.00    -0.235 NA
ATOM     57  H19 C2E d   1      29.715 -41.213 144.513  0.00  0.00     0.144 H 
ATOM     58  C51 C2E d   1      32.690 -40.672 145.629  0.00  0.00     0.159 A 
ATOM     59  C61 C2E d   1      34.034 -40.373 145.791  0.00  0.00     0.226 A 
ATOM     60  C41 C2E d   1      32.017 -41.055 146.767  0.00  0.00     0.185 A 
ATOM     61  O61 C2E d   1      34.812 -39.969 144.696  0.00  0.00    -0.169 OA
ATOM     62  N11 C2E d   1      34.617 -40.476 146.990  0.00  0.00    -0.164 N 
ATOM     63  C21 C2E d   1      33.914 -40.840 148.055  0.00  0.00     0.702 A 
ATOM     64  H20 C2E d   1      35.592 -40.277 147.085  0.00  0.00     0.186 HD
ATOM     65  N31 C2E d   1      32.618 -41.125 147.969  0.00  0.00    -0.044 NA
BRANCH  63  66
ATOM     66  N21 C2E d   1      34.540 -40.919 149.275  0.00  0.00    -0.233 N 
ATOM     67  H21 C2E d   1      34.007 -41.200 150.110  0.00  0.00     0.174 HD
ATOM     68  H22 C2E d   1      35.543 -40.697 149.355  0.00  0.00     0.174 HD
ENDBRANCH  63  66
ENDBRANCH  22  54
TORSDOF 6
