REMARK  10 active torsions:
REMARK  status: ('A' for Active; 'I' for Inactive)
REMARK    1  A    between atoms: C1_1  and  C16_16 
REMARK    2  A    between atoms: C1_1  and  C17_17 
REMARK    3  A    between atoms: C5_5  and  C18_18 
REMARK    4  A    between atoms: C6_6  and  C7_7 
REMARK    5  A    between atoms: C8_8  and  C9_9 
REMARK    6  A    between atoms: C9_9  and  C19_19 
REMARK    7  A    between atoms: C10_10  and  C11_11 
REMARK    8  A    between atoms: C12_12  and  C13_13 
REMARK    9  A    between atoms: C13_13  and  C20_20 
REMARK   10  A    between atoms: C14_14  and  C15_15 
ROOT
ATOM      1  C7  RET d   1       5.707  -1.497   3.567  0.00  0.00    -0.075 C 
ATOM      2  C8  RET d   1       4.422  -1.332   3.270  0.00  0.00    -0.077 C 
ATOM      3  H7  RET d   1       6.424  -0.886   3.021  0.00  0.00     0.084 H 
ATOM      4  H8  RET d   1       3.648  -1.922   3.759  0.00  0.00     0.084 H 
ENDROOT
BRANCH   1   5
ATOM      5  C6  RET d   1       6.252  -2.437   4.574  0.00  0.00    -0.048 C 
ATOM      6  C1  RET d   1       6.963  -1.777   5.742  0.00  0.00    -0.020 C 
ATOM      7  C2  RET d   1       7.249  -2.783   6.840  0.00  0.00    -0.054 C 
ATOM      8  C3  RET d   1       7.829  -4.050   6.249  0.00  0.00    -0.061 C 
ATOM      9  H1  RET d   1       6.313  -3.023   7.366  0.00  0.00     0.034 H 
ATOM     10  H2  RET d   1       7.969  -2.351   7.551  0.00  0.00     0.034 H 
ATOM     11  C4  RET d   1       6.720  -4.730   5.466  0.00  0.00    -0.044 C 
ATOM     12  H3  RET d   1       8.184  -4.712   7.052  0.00  0.00     0.033 H 
ATOM     13  H4  RET d   1       8.667  -3.804   5.580  0.00  0.00     0.033 H 
ATOM     14  C5  RET d   1       6.147  -3.776   4.443  0.00  0.00    -0.077 C 
ATOM     15  H5  RET d   1       5.924  -5.042   6.158  0.00  0.00     0.039 H 
ATOM     16  H6  RET d   1       7.126  -5.614   4.952  0.00  0.00     0.039 H 
BRANCH   6  17
ATOM     17  C16 RET d   1       8.255  -1.162   5.215  0.00  0.00    -0.065 C 
ATOM     18  H16 RET d   1       8.019  -0.438   4.421  0.00  0.00     0.028 H 
ATOM     19  H17 RET d   1       8.899  -1.955   4.808  0.00  0.00     0.028 H 
ATOM     20  H18 RET d   1       8.778  -0.649   6.035  0.00  0.00     0.028 H 
ENDBRANCH   6  17
BRANCH   6  21
ATOM     21  C17 RET d   1       6.098  -0.671   6.340  0.00  0.00    -0.065 C 
ATOM     22  H19 RET d   1       5.162  -1.104   6.724  0.00  0.00     0.028 H 
ATOM     23  H20 RET d   1       5.866   0.073   5.564  0.00  0.00     0.028 H 
ATOM     24  H21 RET d   1       6.642  -0.185   7.163  0.00  0.00     0.028 H 
ENDBRANCH   6  21
BRANCH  14  25
ATOM     25  C18 RET d   1       5.445  -4.401   3.267  0.00  0.00    -0.054 C 
ATOM     26  H22 RET d   1       5.075  -3.610   2.598  0.00  0.00     0.033 H 
ATOM     27  H23 RET d   1       4.598  -5.005   3.624  0.00  0.00     0.033 H 
ATOM     28  H24 RET d   1       6.149  -5.044   2.719  0.00  0.00     0.033 H 
ENDBRANCH  14  25
ENDBRANCH   1   5
BRANCH   2  29
ATOM     29  C9  RET d   1       4.086  -0.323   2.256  0.00  0.00    -0.062 C 
ATOM     30  C10 RET d   1       2.873  -0.258   1.705  0.00  0.00    -0.077 C 
ATOM     31  H9  RET d   1       2.092  -0.963   1.986  0.00  0.00     0.084 H 
BRANCH  30  32
ATOM     32  C11 RET d   1       2.621   0.785   0.715  0.00  0.00    -0.082 C 
ATOM     33  C12 RET d   1       1.420   0.903   0.163  0.00  0.00    -0.077 C 
ATOM     34  H11 RET d   1       0.622   0.217   0.444  0.00  0.00     0.084 H 
ATOM     35  H10 RET d   1       3.420   1.467   0.429  0.00  0.00     0.083 H 
BRANCH  33  36
ATOM     36  C13 RET d   1       1.165   1.961  -0.829  0.00  0.00    -0.066 C 
ATOM     37  C14 RET d   1      -0.084   2.414  -0.980  0.00  0.00    -0.101 C 
ATOM     38  H12 RET d   1      -0.889   2.000  -0.375  0.00  0.00     0.077 H 
BRANCH  37  39
ATOM     39  C15 RET d   1      -0.371   3.463  -1.954  0.00  0.00    -0.059 C 
ATOM     40  H13 RET d   1      -1.445   3.700  -1.932  0.00  0.00     0.032 H 
ATOM     41  H14 RET d   1      -0.093   3.115  -2.960  0.00  0.00     0.032 H 
ATOM     42  H15 RET d   1       0.208   4.364  -1.704  0.00  0.00     0.032 H 
ENDBRANCH  37  39
BRANCH  36  43
ATOM     43  C20 RET d   1       2.283   2.513  -1.666  0.00  0.00    -0.051 C 
ATOM     44  H28 RET d   1       3.225   2.015  -1.394  0.00  0.00     0.033 H 
ATOM     45  H29 RET d   1       2.375   3.595  -1.488  0.00  0.00     0.033 H 
ATOM     46  H30 RET d   1       2.068   2.334  -2.730  0.00  0.00     0.033 H 
ENDBRANCH  36  43
ENDBRANCH  33  36
ENDBRANCH  30  32
BRANCH  29  47
ATOM     47  C19 RET d   1       5.127   0.672   1.858  0.00  0.00    -0.051 C 
ATOM     48  H25 RET d   1       6.058   0.469   2.408  0.00  0.00     0.033 H 
ATOM     49  H26 RET d   1       4.775   1.687   2.096  0.00  0.00     0.033 H 
ATOM     50  H27 RET d   1       5.315   0.593   0.777  0.00  0.00     0.033 H 
ENDBRANCH  29  47
ENDBRANCH   2  29
TORSDOF 10
