REMARK  3 active torsions:
REMARK  status: ('A' for Active; 'I' for Inactive)
REMARK    1  A    between atoms: C1_15  and  C11_16 
REMARK    2  A    between atoms: C15_18  and  N4_19 
REMARK       I    between atoms: N4_19  and  C17_20 
REMARK    3  A    between atoms: C17_20  and  C18_22 
ROOT
ATOM      1  C7  3XK d   1       6.179   8.466  18.043  0.00  0.00     0.009 A 
ATOM      2  C9  3XK d   1       8.077   7.593  16.823  0.00  0.00     0.137 A 
ATOM      3  N1  3XK d   1       3.953  10.323  20.022  0.00  0.00    -0.242 NA
ATOM      4  C2  3XK d   1       2.773   9.678  19.959  0.00  0.00     0.015 A 
ATOM      5  N2  3XK d   1       6.249  10.310  19.299  0.00  0.00    -0.338 N 
ATOM      6  C10 3XK d   1       6.712   7.503  17.175  0.00  0.00    -0.032 A 
ATOM      7  C4  3XK d   1       4.919   8.654  18.601  0.00  0.00     0.023 A 
ATOM      8  N3  3XK d   1       8.803   8.634  17.268  0.00  0.00    -0.248 NA
ATOM      9  N5  3XK d   1       9.168   6.131  15.147  0.00  0.00    -0.190 NA
ATOM     10  C6  3XK d   1       6.994   9.502  18.502  0.00  0.00     0.062 A 
ATOM     11  C19 3XK d   1       8.662   6.775  15.994  0.00  0.00     0.119 C 
ATOM     12  C8  3XK d   1       8.299   9.568  18.076  0.00  0.00     0.030 A 
ATOM     13  C3  3XK d   1       4.989   9.805  19.352  0.00  0.00     0.139 A 
ATOM     14  C5  3XK d   1       3.702   7.972  18.508  0.00  0.00    -0.056 A 
ATOM     15  C1  3XK d   1       2.607   8.505  19.221  0.00  0.00    -0.007 A 
ATOM     16  H1  3XK d   1       1.925  10.083  20.499  0.00  0.00     0.116 H 
ATOM     17  H2  3XK d   1       6.581  11.158  19.780  0.00  0.00     0.167 HD
ATOM     18  H3  3XK d   1       6.090   6.707  16.782  0.00  0.00     0.089 H 
ATOM     19  H4  3XK d   1       8.927  10.390  18.401  0.00  0.00     0.118 H 
ATOM     20  H5  3XK d   1       3.604   7.071  17.913  0.00  0.00     0.086 H 
ENDROOT
BRANCH  15  21
ATOM     21  C11 3XK d   1       1.236   7.904  19.180  0.00  0.00    -0.022 A 
ATOM     22  C16 3XK d   1       0.313   8.209  20.196  0.00  0.00    -0.046 A 
ATOM     23  C15 3XK d   1      -0.982   7.692  20.208  0.00  0.00     0.035 A 
ATOM     24  H6  3XK d   1       0.619   8.870  20.999  0.00  0.00     0.088 H 
ATOM     25  C14 3XK d   1      -1.396   6.894  19.142  0.00  0.00    -0.057 A 
ATOM     26  C13 3XK d   1      -0.501   6.610  18.096  0.00  0.00    -0.080 A 
ATOM     27  H11 3XK d   1      -2.404   6.495  19.120  0.00  0.00     0.086 H 
ATOM     28  C12 3XK d   1       0.806   7.128  18.096  0.00  0.00    -0.072 A 
ATOM     29  H12 3XK d   1      -0.824   5.981  17.275  0.00  0.00     0.083 H 
ATOM     30  H13 3XK d   1       1.474   6.929  17.266  0.00  0.00     0.084 H 
BRANCH  23  31
ATOM     31  N4  3XK d   1      -1.891   7.977  21.249  0.00  0.00    -0.327 N 
ATOM     32  C17 3XK d   1      -1.712   8.695  22.376  0.00  0.00     0.218 C 
ATOM     33  O1  3XK d   1      -0.676   9.224  22.746  0.00  0.00    -0.274 OA
ATOM     34  H7  3XK d   1      -2.805   7.588  21.134  0.00  0.00     0.169 HD
BRANCH  32  35
ATOM     35  C18 3XK d   1      -2.933   8.809  23.235  0.00  0.00    -0.003 C 
ATOM     36  H8  3XK d   1      -2.699   9.407  24.128  0.00  0.00     0.040 H 
ATOM     37  H9  3XK d   1      -3.260   7.805  23.542  0.00  0.00     0.040 H 
ATOM     38  H10 3XK d   1      -3.737   9.299  22.666  0.00  0.00     0.040 H 
ENDBRANCH  32  35
ENDBRANCH  23  31
ENDBRANCH  15  21
TORSDOF 3
