REMARK  2 active torsions:
REMARK  status: ('A' for Active; 'I' for Inactive)
REMARK    1  A    between atoms: C1_15  and  C11_16 
REMARK    2  A    between atoms: C12_21  and  O1_22 
ROOT
ATOM      1  N4  3XL d   1       9.250   5.960  15.167  0.00  0.00    -0.190 NA
ATOM      2  C17 3XL d   1       8.628   6.634  15.891  0.00  0.00     0.119 C 
ATOM      3  C9  3XL d   1       8.048   7.468  16.695  0.00  0.00     0.137 A 
ATOM      4  N3  3XL d   1       8.792   8.507  17.136  0.00  0.00    -0.248 NA
ATOM      5  C8  3XL d   1       8.300   9.433  17.970  0.00  0.00     0.030 A 
ATOM      6  C6  3XL d   1       6.981   9.362  18.388  0.00  0.00     0.062 A 
ATOM      7  N2  3XL d   1       6.219  10.152  19.192  0.00  0.00    -0.338 N 
ATOM      8  C3  3XL d   1       4.963   9.628  19.250  0.00  0.00     0.139 A 
ATOM      9  N1  3XL d   1       3.908  10.103  19.931  0.00  0.00    -0.242 NA
ATOM     10  C2  3XL d   1       2.744   9.442  19.865  0.00  0.00     0.015 A 
ATOM     11  C10 3XL d   1       6.695   7.351  17.075  0.00  0.00    -0.032 A 
ATOM     12  C7  3XL d   1       6.171   8.324  17.936  0.00  0.00     0.009 A 
ATOM     13  C4  3XL d   1       4.906   8.487  18.484  0.00  0.00     0.023 A 
ATOM     14  C5  3XL d   1       3.703   7.769  18.395  0.00  0.00    -0.056 A 
ATOM     15  C1  3XL d   1       2.590   8.264  19.125  0.00  0.00    -0.005 A 
ATOM     16  H1  3XL d   1       8.935  10.239  18.318  0.00  0.00     0.118 H 
ATOM     17  H2  3XL d   1       6.538  11.004  19.676  0.00  0.00     0.167 HD
ATOM     18  H3  3XL d   1       1.890   9.834  20.405  0.00  0.00     0.116 H 
ATOM     19  H4  3XL d   1       6.080   6.535  16.713  0.00  0.00     0.089 H 
ATOM     20  H5  3XL d   1       3.627   6.871  17.792  0.00  0.00     0.086 H 
ENDROOT
BRANCH  15  21
ATOM     21  C11 3XL d   1       1.217   7.662  19.112  0.00  0.00     0.009 A 
ATOM     22  C16 3XL d   1       0.325   7.869  20.182  0.00  0.00    -0.070 A 
ATOM     23  C15 3XL d   1      -0.963   7.340  20.151  0.00  0.00    -0.082 A 
ATOM     24  H6  3XL d   1       0.645   8.448  21.041  0.00  0.00     0.085 H 
ATOM     25  C14 3XL d   1      -1.395   6.613  19.048  0.00  0.00    -0.080 A 
ATOM     26  H7  3XL d   1      -1.631   7.496  20.990  0.00  0.00     0.083 H 
ATOM     27  C13 3XL d   1      -0.533   6.417  17.970  0.00  0.00    -0.050 A 
ATOM     28  H8  3XL d   1      -2.397   6.200  19.026  0.00  0.00     0.083 H 
ATOM     29  C12 3XL d   1       0.757   6.953  17.996  0.00  0.00     0.076 A 
ATOM     30  H9  3XL d   1      -0.865   5.847  17.109  0.00  0.00     0.087 H 
BRANCH  29  31
ATOM     31  O1  3XL d   1       1.560   6.721  16.919  0.00  0.00    -0.360 OA
ATOM     32  H10 3XL d   1       2.403   7.135  17.059  0.00  0.00     0.217 HD
ENDBRANCH  29  31
ENDBRANCH  15  21
TORSDOF 2
