REMARK  3 active torsions:
REMARK  status: ('A' for Active; 'I' for Inactive)
REMARK    1  A    between atoms: C9_11  and  C14_16 
REMARK    2  A    between atoms: C11_21  and  C17_22 
REMARK    3  A    between atoms: C17_22  and  N4_23 
ROOT
ATOM      1  N5  3X7 d   1       9.057   6.023  15.190  0.00  0.00    -0.190 NA
ATOM      2  C18 3X7 d   1       8.581   6.750  15.992  0.00  0.00     0.119 C 
ATOM      3  C6  3X7 d   1       7.984   7.554  16.825  0.00  0.00     0.137 A 
ATOM      4  N2  3X7 d   1       8.699   8.607  17.294  0.00  0.00    -0.248 NA
ATOM      5  C7  3X7 d   1       8.198   9.494  18.127  0.00  0.00     0.030 A 
ATOM      6  C3  3X7 d   1       6.879   9.392  18.536  0.00  0.00     0.062 A 
ATOM      7  C5  3X7 d   1       6.637   7.405  17.204  0.00  0.00    -0.032 A 
ATOM      8  C2  3X7 d   1       6.091   8.355  18.078  0.00  0.00     0.009 A 
ATOM      9  C1  3X7 d   1       4.827   8.493  18.639  0.00  0.00     0.023 A 
ATOM     10  C10 3X7 d   1       3.629   7.784  18.543  0.00  0.00    -0.056 A 
ATOM     11  C9  3X7 d   1       2.528   8.302  19.300  0.00  0.00    -0.007 A 
ATOM     12  C8  3X7 d   1       2.675   9.464  20.055  0.00  0.00     0.015 A 
ATOM     13  N3  3X7 d   1       3.828  10.117  20.111  0.00  0.00    -0.242 NA
ATOM     14  C4  3X7 d   1       4.871   9.624  19.434  0.00  0.00     0.139 A 
ATOM     15  N1  3X7 d   1       6.113  10.158  19.360  0.00  0.00    -0.338 N 
ATOM     16  H1  3X7 d   1       8.818  10.305  18.493  0.00  0.00     0.118 H 
ATOM     17  H2  3X7 d   1       6.040   6.581  16.831  0.00  0.00     0.089 H 
ATOM     18  H3  3X7 d   1       3.537   6.894  17.932  0.00  0.00     0.086 H 
ATOM     19  H4  3X7 d   1       1.825   9.844  20.611  0.00  0.00     0.116 H 
ATOM     20  H5  3X7 d   1       6.428  11.008  19.849  0.00  0.00     0.167 HD
ENDROOT
BRANCH  11  21
ATOM     21  C14 3X7 d   1       1.176   7.676  19.285  0.00  0.00    -0.025 A 
ATOM     22  C13 3X7 d   1       0.770   6.936  18.157  0.00  0.00    -0.072 A 
ATOM     23  C12 3X7 d   1      -0.505   6.362  18.118  0.00  0.00    -0.074 A 
ATOM     24  H6  3X7 d   1       1.446   6.811  17.319  0.00  0.00     0.084 H 
ATOM     25  C11 3X7 d   1      -1.384   6.533  19.203  0.00  0.00    -0.033 A 
ATOM     26  H7  3X7 d   1      -0.815   5.787  17.253  0.00  0.00     0.084 H 
ATOM     27  C16 3X7 d   1      -0.996   7.291  20.307  0.00  0.00    -0.074 A 
ATOM     28  C15 3X7 d   1       0.272   7.864  20.349  0.00  0.00    -0.072 A 
ATOM     29  H9  3X7 d   1      -1.683   7.434  21.134  0.00  0.00     0.084 H 
ATOM     30  H8  3X7 d   1       0.566   8.459  21.206  0.00  0.00     0.084 H 
BRANCH  25  31
ATOM     31  C17 3X7 d   1      -2.760   5.909  19.194  0.00  0.00     0.107 C 
ATOM     32  H10 3X7 d   1      -3.148   5.919  18.165  0.00  0.00     0.083 H 
ATOM     33  H11 3X7 d   1      -3.423   6.501  19.842  0.00  0.00     0.083 H 
BRANCH  31  34
ATOM     34  N4  3X7 d   1      -2.735   4.508  19.684  0.00  0.00    -0.067 N 
ATOM     35  C23 3X7 d   1      -1.997   3.624  18.762  0.00  0.00     0.084 C 
ATOM     36  C22 3X7 d   1      -2.198   2.182  19.196  0.00  0.00    -0.042 C 
ATOM     37  H13 3X7 d   1      -0.926   3.872  18.791  0.00  0.00     0.076 H 
ATOM     38  H14 3X7 d   1      -2.377   3.758  17.738  0.00  0.00     0.076 H 
ATOM     39  C21 3X7 d   1      -1.703   1.987  20.628  0.00  0.00    -0.062 C 
ATOM     40  H15 3X7 d   1      -1.635   1.518  18.523  0.00  0.00     0.035 H 
ATOM     41  H16 3X7 d   1      -3.268   1.933  19.145  0.00  0.00     0.035 H 
ATOM     42  C20 3X7 d   1      -2.346   2.991  21.585  0.00  0.00    -0.042 C 
ATOM     43  H17 3X7 d   1      -0.611   2.121  20.650  0.00  0.00     0.033 H 
ATOM     44  H18 3X7 d   1      -1.954   0.968  20.957  0.00  0.00     0.033 H 
ATOM     45  C19 3X7 d   1      -2.193   4.415  21.065  0.00  0.00     0.084 C 
ATOM     46  H19 3X7 d   1      -1.860   2.913  22.569  0.00  0.00     0.035 H 
ATOM     47  H20 3X7 d   1      -3.416   2.758  21.686  0.00  0.00     0.035 H 
ATOM     48  H21 3X7 d   1      -2.745   5.104  21.721  0.00  0.00     0.076 H 
ATOM     49  H22 3X7 d   1      -1.128   4.689  21.058  0.00  0.00     0.076 H 
ATOM     50  H12 3X7 d   1      -3.689   4.184  19.713  0.00  0.00     0.280 HD
ENDBRANCH  31  34
ENDBRANCH  25  31
ENDBRANCH  11  21
TORSDOF 3
