REMARK  9 active torsions:
REMARK  status: ('A' for Active; 'I' for Inactive)
REMARK    1  A    between atoms: CAA_1  and  OAN_14 
REMARK    2  A    between atoms: CAD_4  and  CAG_7 
REMARK    3  A    between atoms: CAK_11  and  CAP_16 
REMARK    4  A    between atoms: CAL_12  and  OAM_13 
REMARK    5  A    between atoms: CAP_16  and  CAQ_17 
REMARK    6  A    between atoms: CAQ_17  and  CAS_19 
REMARK    7  A    between atoms: CAS_19  and  CAT_20 
REMARK    8  A    between atoms: CAT_20  and  CAU_21 
REMARK    9  A    between atoms: CAU_21  and  CAV_22 
ROOT
ATOM      1  CAG 3XM d   1     -16.271   6.620 -29.870  0.00  0.00     0.024 A 
ATOM      2  CAH 3XM d   1     -15.599   6.968 -31.042  0.00  0.00    -0.006 A 
ATOM      3  NAI 3XM d   1     -14.613   6.224 -31.498  0.00  0.00    -0.332 N 
ATOM      4  CAJ 3XM d   1     -14.194   5.064 -30.827  0.00  0.00     0.262 A 
ATOM      5  CAK 3XM d   1     -14.818   4.649 -29.635  0.00  0.00     0.112 A 
ATOM      6  CAL 3XM d   1     -15.864   5.461 -29.182  0.00  0.00     0.097 A 
ATOM      7  OAO 3XM d   1     -13.270   4.444 -31.338  0.00  0.00    -0.267 OA
ATOM      8  H5  3XM d   1     -15.893   7.865 -31.586  0.00  0.00     0.112 H 
ATOM      9  H6  3XM d   1     -14.151   6.492 -32.343  0.00  0.00     0.168 HD
ENDROOT
BRANCH   5  10
ATOM     10  CAP 3XM d   1     -14.462   3.501 -28.889  0.00  0.00     0.167 C 
ATOM     11  OAR 3XM d   1     -14.930   3.306 -27.775  0.00  0.00    -0.292 OA
BRANCH  10  12
ATOM     12  CAQ 3XM d   1     -13.475   2.473 -29.478  0.00  0.00    -0.005 C 
ATOM     13  H9  3XM d   1     -12.486   2.942 -29.590  0.00  0.00     0.044 H 
ATOM     14  H10 3XM d   1     -13.838   2.145 -30.463  0.00  0.00     0.044 H 
BRANCH  12  15
ATOM     15  CAS 3XM d   1     -13.354   1.252 -28.550  0.00  0.00    -0.059 C 
ATOM     16  H11 3XM d   1     -14.149   0.530 -28.788  0.00  0.00     0.033 H 
ATOM     17  H12 3XM d   1     -13.454   1.576 -27.503  0.00  0.00     0.033 H 
BRANCH  15  18
ATOM     18  CAT 3XM d   1     -11.987   0.590 -28.752  0.00  0.00    -0.065 C 
ATOM     19  H13 3XM d   1     -11.234   1.117 -28.148  0.00  0.00     0.033 H 
ATOM     20  H14 3XM d   1     -11.709   0.645 -29.815  0.00  0.00     0.033 H 
BRANCH  18  21
ATOM     21  CAU 3XM d   1     -12.046  -0.876 -28.320  0.00  0.00    -0.069 C 
ATOM     22  H15 3XM d   1     -13.046  -1.103 -27.922  0.00  0.00     0.032 H 
ATOM     23  H16 3XM d   1     -11.291  -1.061 -27.542  0.00  0.00     0.032 H 
BRANCH  21  24
ATOM     24  CAV 3XM d   1     -11.762  -1.769 -29.533  0.00  0.00    -0.077 C 
ATOM     25  H17 3XM d   1     -11.803  -2.825 -29.228  0.00  0.00     0.027 H 
ATOM     26  H18 3XM d   1     -10.762  -1.541 -29.930  0.00  0.00     0.027 H 
ATOM     27  H19 3XM d   1     -12.517  -1.582 -30.311  0.00  0.00     0.027 H 
ENDBRANCH  21  24
ENDBRANCH  18  21
ENDBRANCH  15  18
ENDBRANCH  12  15
ENDBRANCH  10  12
ENDBRANCH   5  10
BRANCH   6  28
ATOM     28  OAM 3XM d   1     -16.494   5.101 -28.029  0.00  0.00    -0.359 OA
ATOM     29  H7  3XM d   1     -15.865   5.085 -27.317  0.00  0.00     0.217 HD
ENDBRANCH   6  28
BRANCH   1  30
ATOM     30  CAD 3XM d   1     -17.307   7.474 -29.470  0.00  0.00    -0.022 A 
ATOM     31  CAC 3XM d   1     -18.025   8.135 -30.472  0.00  0.00    -0.070 A 
ATOM     32  CAB 3XM d   1     -19.062   9.004 -30.151  0.00  0.00    -0.050 A 
ATOM     33  H2  3XM d   1     -17.770   7.968 -31.512  0.00  0.00     0.085 H 
ATOM     34  CAA 3XM d   1     -19.381   9.222 -28.816  0.00  0.00     0.065 A 
ATOM     35  H1  3XM d   1     -19.617   9.507 -30.935  0.00  0.00     0.087 H 
ATOM     36  CAF 3XM d   1     -18.671   8.573 -27.798  0.00  0.00    -0.050 A 
ATOM     37  CAE 3XM d   1     -17.628   7.700 -28.130  0.00  0.00    -0.070 A 
ATOM     38  H4  3XM d   1     -18.927   8.746 -26.759  0.00  0.00     0.087 H 
ATOM     39  H3  3XM d   1     -17.070   7.200 -27.347  0.00  0.00     0.085 H 
BRANCH  34  40
ATOM     40  OAN 3XM d   1     -20.393  10.070 -28.518  0.00  0.00    -0.361 OA
ATOM     41  H8  3XM d   1     -20.760  10.418 -29.322  0.00  0.00     0.217 HD
ENDBRANCH  34  40
ENDBRANCH   1  30
TORSDOF 9
