REMARK  12 active torsions:
REMARK  status: ('A' for Active; 'I' for Inactive)
REMARK    1  A    between atoms: C1_4  and  C_1 
REMARK    2  A    between atoms: C6_15  and  N_2 
REMARK    3  A    between atoms: C22_31  and  O1_6 
REMARK    4  A    between atoms: O1_6  and  C24_33 
REMARK       I    between atoms: N2_8  and  C12_21 
REMARK    5  A    between atoms: C13_22  and  N2_8 
REMARK    6  A    between atoms: C20_29  and  O2_9 
REMARK    7  A    between atoms: O2_9  and  C25_34 
REMARK    8  A    between atoms: C4_12  and  C5_14 
REMARK    9  A    between atoms: C12_21  and  C9_18 
REMARK   10  A    between atoms: C16_25  and  C15_24 
REMARK   11  A    between atoms: C17_26  and  C16_25 
REMARK   12  A    between atoms: C18_27  and  C17_26 
ROOT
ATOM      1  O   66T d   1     -19.283  -7.833  13.772  0.00  0.00    -0.267 OA
ATOM      2  N2  66T d   1     -18.962  -5.634  14.232  0.00  0.00    -0.306 N 
ATOM      3  C12 66T d   1     -19.712  -6.768  14.167  0.00  0.00     0.257 C 
ATOM      4  H9  66T d   1     -19.417  -4.812  14.575  0.00  0.00     0.170 HD
ENDROOT
BRANCH   2   5
ATOM      5  C13 66T d   1     -17.652  -5.509  13.876  0.00  0.00     0.152 A 
ATOM      6  N4  66T d   1     -16.993  -4.380  14.121  0.00  0.00    -0.156 NA
ATOM      7  N3  66T d   1     -15.773  -4.468  13.703  0.00  0.00    -0.280 N 
ATOM      8  C15 66T d   1     -15.658  -5.711  13.162  0.00  0.00     0.032 A 
ATOM      9  H12 66T d   1     -15.040  -3.747  13.766  0.00  0.00     0.189 HD
ATOM     10  C14 66T d   1     -16.828  -6.355  13.274  0.00  0.00    -0.014 A 
ATOM     11  H21 66T d   1     -17.055  -7.366  12.939  0.00  0.00     0.092 H 
BRANCH   8  12
ATOM     12  C16 66T d   1     -14.348  -6.154  12.578  0.00  0.00    -0.021 C 
ATOM     13  H22 66T d   1     -14.205  -7.217  12.823  0.00  0.00     0.042 H 
ATOM     14  H23 66T d   1     -13.547  -5.560  13.043  0.00  0.00     0.042 H 
BRANCH  12  15
ATOM     15  C17 66T d   1     -14.240  -5.998  11.076  0.00  0.00    -0.036 C 
ATOM     16  H24 66T d   1     -13.180  -5.937  10.789  0.00  0.00     0.040 H 
ATOM     17  H25 66T d   1     -14.757  -5.079  10.765  0.00  0.00     0.040 H 
BRANCH  15  18
ATOM     18  C18 66T d   1     -14.879  -7.191  10.397  0.00  0.00    -0.052 A 
ATOM     19  C19 66T d   1     -14.361  -8.471  10.571  0.00  0.00    -0.045 A 
ATOM     20  C20 66T d   1     -14.950  -9.564   9.943  0.00  0.00     0.071 A 
ATOM     21  H26 66T d   1     -13.491  -8.618  11.201  0.00  0.00     0.088 H 
ATOM     22  C21 66T d   1     -16.067  -9.385   9.124  0.00  0.00    -0.019 A 
ATOM     23  C22 66T d   1     -16.574  -8.114   8.952  0.00  0.00     0.071 A 
ATOM     24  H27 66T d   1     -16.529 -10.233   8.631  0.00  0.00     0.092 H 
ATOM     25  C23 66T d   1     -15.987  -7.024   9.581  0.00  0.00    -0.045 A 
ATOM     26  H28 66T d   1     -16.399  -6.033   9.432  0.00  0.00     0.088 H 
BRANCH  20  27
ATOM     27  O2  66T d   1     -14.400 -10.773  10.154  0.00  0.00    -0.356 OA
BRANCH  27  28
ATOM     28  C25 66T d   1     -15.183 -11.947   9.880  0.00  0.00     0.010 C 
ATOM     29  H32 66T d   1     -14.588 -12.845  10.104  0.00  0.00     0.066 H 
ATOM     30  H33 66T d   1     -15.473 -11.955   8.819  0.00  0.00     0.066 H 
ATOM     31  H34 66T d   1     -16.087 -11.940  10.507  0.00  0.00     0.066 H 
ENDBRANCH  27  28
ENDBRANCH  20  27
BRANCH  23  32
ATOM     32  O1  66T d   1     -17.653  -7.875   8.172  0.00  0.00    -0.356 OA
BRANCH  32  33
ATOM     33  C24 66T d   1     -17.619  -8.416   6.844  0.00  0.00     0.010 C 
ATOM     34  H29 66T d   1     -18.548  -8.153   6.317  0.00  0.00     0.066 H 
ATOM     35  H30 66T d   1     -17.524  -9.511   6.896  0.00  0.00     0.066 H 
ATOM     36  H31 66T d   1     -16.759  -7.999   6.300  0.00  0.00     0.066 H 
ENDBRANCH  32  33
ENDBRANCH  23  32
ENDBRANCH  15  18
ENDBRANCH  12  15
ENDBRANCH   8  12
ENDBRANCH   2   5
BRANCH   3  37
ATOM     37  C9  66T d   1     -21.132  -6.646  14.608  0.00  0.00     0.032 A 
ATOM     38  C8  66T d   1     -21.582  -5.721  15.544  0.00  0.00    -0.066 A 
ATOM     39  C7  66T d   1     -22.929  -5.671  15.901  0.00  0.00    -0.056 A 
ATOM     40  H18 66T d   1     -20.879  -5.033  16.000  0.00  0.00     0.085 H 
ATOM     41  C6  66T d   1     -23.843  -6.563  15.310  0.00  0.00     0.030 A 
ATOM     42  H17 66T d   1     -23.271  -4.947  16.632  0.00  0.00     0.086 H 
ATOM     43  C11 66T d   1     -23.393  -7.478  14.383  0.00  0.00    -0.056 A 
ATOM     44  C10 66T d   1     -22.054  -7.512  14.043  0.00  0.00    -0.066 A 
ATOM     45  H20 66T d   1     -24.088  -8.170  13.921  0.00  0.00     0.086 H 
ATOM     46  H19 66T d   1     -21.715  -8.238  13.313  0.00  0.00     0.085 H 
BRANCH  41  47
ATOM     47  N   66T d   1     -25.162  -6.548  15.627  0.00  0.00    -0.377 N 
ATOM     48  C2  66T d   1     -25.970  -7.724  15.945  0.00  0.00     0.021 C 
ATOM     49  C1  66T d   1     -27.367  -7.396  15.384  0.00  0.00     0.114 C 
ATOM     50  H7  66T d   1     -26.015  -7.882  17.033  0.00  0.00     0.067 H 
ATOM     51  H8  66T d   1     -25.558  -8.621  15.461  0.00  0.00     0.067 H 
ATOM     52  N1  66T d   1     -27.943  -6.282  16.155  0.00  0.00    -0.064 N 
ATOM     53  H4  66T d   1     -27.252  -7.073  14.339  0.00  0.00     0.086 H 
ATOM     54  C4  66T d   1     -27.196  -5.032  15.965  0.00  0.00     0.114 C 
ATOM     55  H5  66T d   1     -27.929  -6.523  17.134  0.00  0.00     0.278 HD
ATOM     56  H6  66T d   1     -28.895  -6.139  15.857  0.00  0.00     0.278 HD
ATOM     57  C3  66T d   1     -25.688  -5.248  16.213  0.00  0.00     0.021 C 
ATOM     58  H13 66T d   1     -27.326  -4.721  14.918  0.00  0.00     0.086 H 
ATOM     59  H10 66T d   1     -25.136  -4.412  15.759  0.00  0.00     0.067 H 
ATOM     60  H11 66T d   1     -25.511  -5.258  17.299  0.00  0.00     0.067 H 
BRANCH  49  61
ATOM     61  C   66T d   1     -28.293  -8.619  15.399  0.00  0.00    -0.048 C 
ATOM     62  H1  66T d   1     -27.836  -9.432  14.816  0.00  0.00     0.030 H 
ATOM     63  H2  66T d   1     -29.263  -8.350  14.955  0.00  0.00     0.030 H 
ATOM     64  H3  66T d   1     -28.444  -8.952  16.436  0.00  0.00     0.030 H 
ENDBRANCH  49  61
BRANCH  54  65
ATOM     65  C5  66T d   1     -27.734  -3.899  16.863  0.00  0.00    -0.048 C 
ATOM     66  H14 66T d   1     -27.148  -2.984  16.689  0.00  0.00     0.030 H 
ATOM     67  H15 66T d   1     -27.647  -4.195  17.919  0.00  0.00     0.030 H 
ATOM     68  H16 66T d   1     -28.790  -3.709  16.621  0.00  0.00     0.030 H 
ENDBRANCH  54  65
ENDBRANCH  41  47
ENDBRANCH   3  37
TORSDOF 12
