REMARK  10 active torsions:
REMARK  status: ('A' for Active; 'I' for Inactive)
REMARK    1  A    between atoms: O15_21  and  C13_2 
REMARK    2  A    between atoms: O26_27  and  C20_4 
REMARK    3  A    between atoms: C27_28  and  C28_8 
REMARK    4  A    between atoms: C28_8  and  N31_31 
REMARK    5  A    between atoms: N02_10  and  C01_9 
REMARK       I    between atoms: C03_11  and  N02_10 
REMARK    6  A    between atoms: C05_13  and  C03_11 
REMARK    7  A    between atoms: C16_22  and  O15_21 
REMARK    8  A    between atoms: C19_24  and  O32_32 
REMARK    9  A    between atoms: O26_27  and  C27_28 
REMARK   10  A    between atoms: O32_32  and  C33_33 
ROOT
ATOM      1  C17 3ZC d   1      28.496   0.661  23.114  0.00  0.00     0.029 A 
ATOM      2  C20 3ZC d   1      29.848  -0.569  25.231  0.00  0.00     0.104 A 
ATOM      3  C21 3ZC d   1      29.035  -1.338  24.370  0.00  0.00    -0.019 A 
ATOM      4  C22 3ZC d   1      28.337  -0.689  23.282  0.00  0.00     0.072 A 
ATOM      5  C24 3ZC d   1      26.894  -0.808  21.388  0.00  0.00     0.005 A 
ATOM      6  C16 3ZC d   1      27.818   1.329  22.025  0.00  0.00     0.090 A 
ATOM      7  C18 3ZC d   1      29.332   1.441  23.985  0.00  0.00    -0.033 A 
ATOM      8  C19 3ZC d   1      29.996   0.811  25.049  0.00  0.00     0.102 A 
ATOM      9  N23 3ZC d   1      27.543  -1.403  22.415  0.00  0.00    -0.260 NA
ATOM     10  C25 3ZC d   1      26.981   0.580  21.130  0.00  0.00    -0.032 A 
ATOM     11  H1  3ZC d   1      28.935  -2.406  24.523  0.00  0.00     0.091 H 
ATOM     12  H2  3ZC d   1      26.282  -1.420  20.736  0.00  0.00     0.114 H 
ATOM     13  H13 3ZC d   1      29.449   2.506  23.822  0.00  0.00     0.089 H 
ATOM     14  H14 3ZC d   1      26.450   1.048  20.309  0.00  0.00     0.090 H 
ENDROOT
BRANCH   6  15
ATOM     15  O15 3ZC d   1      28.064   2.727  21.984  0.00  0.00    -0.310 OA
BRANCH  15  16
ATOM     16  C13 3ZC d   1      27.516   3.329  20.842  0.00  0.00     0.076 A 
ATOM     17  C12 3ZC d   1      28.278   3.306  19.675  0.00  0.00    -0.049 A 
ATOM     18  C11 3ZC d   1      27.740   3.910  18.551  0.00  0.00    -0.069 A 
ATOM     19  H11 3ZC d   1      29.253   2.834  19.648  0.00  0.00     0.087 H 
ATOM     20  C10 3ZC d   1      26.449   4.536  18.574  0.00  0.00    -0.010 A 
ATOM     21  H10 3ZC d   1      28.310   3.910  17.629  0.00  0.00     0.085 H 
ATOM     22  C05 3ZC d   1      25.924   5.144  17.386  0.00  0.00     0.043 A 
ATOM     23  C09 3ZC d   1      25.714   4.554  19.726  0.00  0.00    -0.022 A 
ATOM     24  C06 3ZC d   1      24.661   5.759  17.410  0.00  0.00    -0.067 A 
ATOM     25  C07 3ZC d   1      23.896   5.793  18.601  0.00  0.00    -0.081 A 
ATOM     26  H7  3ZC d   1      24.268   6.212  16.507  0.00  0.00     0.085 H 
ATOM     27  C08 3ZC d   1      24.420   5.183  19.753  0.00  0.00    -0.072 A 
ATOM     28  H8  3ZC d   1      22.927   6.279  18.623  0.00  0.00     0.083 H 
ATOM     29  H9  3ZC d   1      23.844   5.186  20.671  0.00  0.00     0.084 H 
ATOM     30  C14 3ZC d   1      26.259   3.944  20.902  0.00  0.00    -0.040 A 
ATOM     31  H12 3ZC d   1      25.702   3.958  21.832  0.00  0.00     0.089 H 
BRANCH  22  32
ATOM     32  C03 3ZC d   1      26.727   5.110  16.084  0.00  0.00     0.252 C 
ATOM     33  N02 3ZC d   1      26.561   6.178  15.149  0.00  0.00    -0.361 N 
ATOM     34  H6  3ZC d   1      25.944   6.938  15.351  0.00  0.00     0.162 HD
ATOM     35  O04 3ZC d   1      27.482   4.181  15.830  0.00  0.00    -0.268 OA
BRANCH  33  36
ATOM     36  C01 3ZC d   1      27.287   6.143  13.926  0.00  0.00    -0.018 C 
ATOM     37  H3  3ZC d   1      27.043   7.034  13.329  0.00  0.00     0.056 H 
ATOM     38  H4  3ZC d   1      27.013   5.239  13.363  0.00  0.00     0.056 H 
ATOM     39  H5  3ZC d   1      28.366   6.129  14.140  0.00  0.00     0.056 H 
ENDBRANCH  33  36
ENDBRANCH  22  32
ENDBRANCH  15  16
ENDBRANCH   6  15
BRANCH   8  40
ATOM     40  O32 3ZC d   1      30.823   1.549  25.946  0.00  0.00    -0.353 OA
BRANCH  40  41
ATOM     41  C33 3ZC d   1      31.089   2.884  25.516  0.00  0.00     0.010 C 
ATOM     42  H24 3ZC d   1      31.729   3.387  26.256  0.00  0.00     0.066 H 
ATOM     43  H25 3ZC d   1      30.141   3.433  25.418  0.00  0.00     0.066 H 
ATOM     44  H26 3ZC d   1      31.602   2.861  24.543  0.00  0.00     0.066 H 
ENDBRANCH  40  41
ENDBRANCH   8  40
BRANCH   2  45
ATOM     45  O26 3ZC d   1      30.566  -1.120  26.330  0.00  0.00    -0.346 OA
BRANCH  45  46
ATOM     46  C27 3ZC d   1      30.521  -2.534  26.509  0.00  0.00     0.057 C 
ATOM     47  H15 3ZC d   1      29.488  -2.864  26.690  0.00  0.00     0.079 H 
ATOM     48  H16 3ZC d   1      30.919  -3.045  25.620  0.00  0.00     0.079 H 
BRANCH  46  49
ATOM     49  C28 3ZC d   1      31.405  -2.832  27.742  0.00  0.00     0.145 A 
ATOM     50  C29 3ZC d   1      31.317  -4.231  28.341  0.00  0.00    -0.030 A 
ATOM     51  C30 3ZC d   1      30.639  -3.055  29.037  0.00  0.00    -0.030 A 
ATOM     52  H17 3ZC d   1      32.208  -4.696  28.788  0.00  0.00     0.036 H 
ATOM     53  H18 3ZC d   1      30.709  -5.004  27.848  0.00  0.00     0.036 H 
ATOM     54  H19 3ZC d   1      29.542  -2.980  29.047  0.00  0.00     0.036 H 
ATOM     55  H20 3ZC d   1      31.041  -2.672  29.987  0.00  0.00     0.036 H 
BRANCH  49  56
ATOM     56  N31 3ZC d   1      32.662  -2.142  27.900  0.00  0.00    -0.068 N 
ATOM     57  H21 3ZC d   1      33.102  -2.036  27.000  0.00  0.00     0.275 HD
ATOM     58  H22 3ZC d   1      33.264  -2.675  28.508  0.00  0.00     0.275 HD
ATOM     59  H23 3ZC d   1      32.498  -1.233  28.303  0.00  0.00     0.275 HD
ENDBRANCH  49  56
ENDBRANCH  46  49
ENDBRANCH  45  46
ENDBRANCH   2  45
TORSDOF 10
