REMARK  7 active torsions:
REMARK  status: ('A' for Active; 'I' for Inactive)
REMARK    1  A    between atoms: C1_1  and  C2_2 
REMARK    2  A    between atoms: C3_3  and  C21_21 
REMARK    3  A    between atoms: C7_7  and  N8_8 
REMARK       I    between atoms: N8_8  and  C9_9 
REMARK    4  A    between atoms: C9_9  and  C11_11 
REMARK    5  A    between atoms: C23_23  and  N29_28 
REMARK    6  A    between atoms: N29_28  and  C30_29 
REMARK    7  A    between atoms: N37_36  and  C39_38 
ROOT
ATOM      1  C21 3YO d   1     -36.931  28.249  -9.751  0.00  0.00     0.057 A 
ATOM      2  C22 3YO d   1     -36.448  27.666 -10.945  0.00  0.00    -0.045 A 
ATOM      3  C23 3YO d   1     -35.144  27.873 -11.313  0.00  0.00     0.108 A 
ATOM      4  C24 3YO d   1     -34.315  28.661 -10.483  0.00  0.00     0.262 A 
ATOM      5  O25 3YO d   1     -33.134  28.851 -10.764  0.00  0.00    -0.269 OA
ATOM      6  N26 3YO d   1     -34.814  29.197  -9.373  0.00  0.00    -0.268 N 
ATOM      7  N28 3YO d   1     -36.147  28.999  -9.018  0.00  0.00    -0.298 N 
ATOM      8  H12 3YO d   1     -37.105  27.059 -11.566  0.00  0.00     0.084 H 
ATOM      9  H13 3YO d   1     -35.462  28.757 -11.885  0.00  0.00     0.094 H 
ATOM     10  H14 3YO d   1     -34.224  29.750  -8.785  0.00  0.00     0.190 HD
ATOM     11  H15 3YO d   1     -36.520  29.448  -8.169  0.00  0.00     0.187 HD
ENDROOT
BRANCH   1  12
ATOM     12  C3  3YO d   1     -38.336  28.038  -9.319  0.00  0.00     0.000 A 
ATOM     13  C2  3YO d   1     -38.655  27.691  -7.999  0.00  0.00    -0.020 A 
ATOM     14  C7  3YO d   1     -39.981  27.475  -7.650  0.00  0.00     0.081 A 
ATOM     15  C6  3YO d   1     -40.968  27.619  -8.606  0.00  0.00     0.143 A 
ATOM     16  C5  3YO d   1     -40.663  27.963  -9.900  0.00  0.00    -0.043 A 
ATOM     17  F20 3YO d   1     -42.263  27.420  -8.261  0.00  0.00    -0.204 F 
ATOM     18  C4  3YO d   1     -39.343  28.166 -10.264  0.00  0.00    -0.067 A 
ATOM     19  H5  3YO d   1     -41.453  28.075 -10.634  0.00  0.00     0.088 H 
ATOM     20  H4  3YO d   1     -39.096  28.425 -11.287  0.00  0.00     0.085 H 
BRANCH  13  21
ATOM     21  C1  3YO d   1     -37.601  27.511  -6.945  0.00  0.00    -0.048 C 
ATOM     22  H1  3YO d   1     -36.611  27.718  -7.378  0.00  0.00     0.033 H 
ATOM     23  H2  3YO d   1     -37.629  26.477  -6.571  0.00  0.00     0.033 H 
ATOM     24  H3  3YO d   1     -37.791  28.207  -6.114  0.00  0.00     0.033 H 
ENDBRANCH  13  21
BRANCH  14  25
ATOM     25  N8  3YO d   1     -40.291  27.125  -6.322  0.00  0.00    -0.319 N 
ATOM     26  C9  3YO d   1     -40.868  28.010  -5.501  0.00  0.00     0.263 C 
ATOM     27  O10 3YO d   1     -41.091  29.144  -5.880  0.00  0.00    -0.267 OA
ATOM     28  H6  3YO d   1     -40.078  26.206  -5.989  0.00  0.00     0.169 HD
BRANCH  26  29
ATOM     29  C11 3YO d   1     -41.154  27.672  -4.102  0.00  0.00     0.074 A 
ATOM     30  C12 3YO d   1     -40.779  26.584  -3.411  0.00  0.00    -0.050 A 
ATOM     31  C13 3YO d   1     -41.179  26.577  -2.057  0.00  0.00    -0.018 A 
ATOM     32  H7  3YO d   1     -40.211  25.770  -3.860  0.00  0.00     0.087 H 
ATOM     33  C14 3YO d   1     -40.971  25.597  -1.053  0.00  0.00    -0.072 A 
ATOM     34  C18 3YO d   1     -41.876  27.734  -1.694  0.00  0.00     0.016 A 
ATOM     35  C15 3YO d   1     -41.448  25.781   0.211  0.00  0.00    -0.082 A 
ATOM     36  H8  3YO d   1     -40.426  24.691  -1.293  0.00  0.00     0.084 H 
ATOM     37  C16 3YO d   1     -42.134  26.944   0.551  0.00  0.00    -0.082 A 
ATOM     38  H9  3YO d   1     -41.291  25.013   0.960  0.00  0.00     0.083 H 
ATOM     39  C17 3YO d   1     -42.353  27.908  -0.394  0.00  0.00    -0.066 A 
ATOM     40  H10 3YO d   1     -42.494  27.085   1.564  0.00  0.00     0.083 H 
ATOM     41  H11 3YO d   1     -42.898  28.808  -0.133  0.00  0.00     0.085 H 
ATOM     42  S19 3YO d   1     -42.005  28.805  -3.076  0.00  0.00    -0.084 SA
ENDBRANCH  26  29
ENDBRANCH  14  25
ENDBRANCH   1  12
BRANCH   3  43
ATOM     43  N29 3YO d   1     -34.516  27.362 -12.451  0.00  0.00    -0.357 N 
ATOM     44  H16 3YO d   1     -33.486  27.379 -12.461  0.00  0.00     0.162 HD
BRANCH  43  45
ATOM     45  C30 3YO d   1     -35.145  26.834 -13.569  0.00  0.00     0.146 A 
ATOM     46  C31 3YO d   1     -34.538  26.618 -14.824  0.00  0.00    -0.012 A 
ATOM     47  C32 3YO d   1     -35.482  26.092 -15.625  0.00  0.00     0.060 A 
ATOM     48  H17 3YO d   1     -33.505  26.835 -15.092  0.00  0.00     0.092 H 
ATOM     49  N33 3YO d   1     -36.624  25.981 -14.908  0.00  0.00    -0.269 N 
ATOM     50  C38 3YO d   1     -35.363  25.683 -17.073  0.00  0.00     0.122 C 
ATOM     51  N34 3YO d   1     -36.391  26.441 -13.628  0.00  0.00    -0.154 NA
ATOM     52  C35 3YO d   1     -37.884  25.456 -15.425  0.00  0.00     0.040 C 
ATOM     53  C36 3YO d   1     -37.834  25.623 -16.948  0.00  0.00     0.100 C 
ATOM     54  H18 3YO d   1     -38.731  26.021 -15.008  0.00  0.00     0.070 H 
ATOM     55  H19 3YO d   1     -37.989  24.393 -15.163  0.00  0.00     0.070 H 
ATOM     56  N37 3YO d   1     -36.612  25.003 -17.482  0.00  0.00    -0.068 N 
ATOM     57  H20 3YO d   1     -37.838  26.694 -17.197  0.00  0.00     0.078 H 
ATOM     58  H21 3YO d   1     -38.714  25.139 -17.397  0.00  0.00     0.078 H 
ATOM     59  H22 3YO d   1     -36.572  24.065 -17.116  0.00  0.00     0.279 HD
ATOM     60  H23 3YO d   1     -34.512  24.997 -17.194  0.00  0.00     0.085 H 
ATOM     61  H24 3YO d   1     -35.207  26.575 -17.697  0.00  0.00     0.085 H 
BRANCH  56  62
ATOM     62  C39 3YO d   1     -36.684  24.912 -18.948  0.00  0.00     0.067 C 
ATOM     63  H25 3YO d   1     -37.616  24.405 -19.238  0.00  0.00     0.068 H 
ATOM     64  H26 3YO d   1     -35.823  24.339 -19.323  0.00  0.00     0.068 H 
ATOM     65  H27 3YO d   1     -36.667  25.924 -19.380  0.00  0.00     0.068 H 
ENDBRANCH  56  62
ENDBRANCH  43  45
ENDBRANCH   3  43
TORSDOF 7
