REMARK  7 active torsions:
REMARK  status: ('A' for Active; 'I' for Inactive)
REMARK    1  A    between atoms: N1_4  and  C5_2 
REMARK    2  A    between atoms: C6_3  and  N1_4 
REMARK    3  A    between atoms: C7_5  and  C8_6 
REMARK       I    between atoms: C8_6  and  N4_16 
REMARK    4  A    between atoms: N5_24  and  C9_8 
REMARK    5  A    between atoms: C10_9  and  N5_24 
REMARK    6  A    between atoms: C14_14  and  N6_25 
REMARK    7  A    between atoms: C_22  and  N_23 
ROOT
ATOM      1  C6  3YV d   1       3.407   2.704  13.373  0.00  0.00     0.743 A 
ATOM      2  C7  3YV d   1       4.452   0.763  14.846  0.00  0.00     0.193 A 
ATOM      3  N2  3YV d   1       4.676   2.846  13.792  0.00  0.00     0.044 NA
ATOM      4  C9  3YV d   1       3.117   0.648  14.354  0.00  0.00     0.183 A 
ATOM      5  N3  3YV d   1       5.190   1.860  14.551  0.00  0.00    -0.124 NA
ATOM      6  N9  3YV d   1       2.599   1.651  13.622  0.00  0.00    -0.041 NA
ENDROOT
BRANCH   1   7
ATOM      7  N1  3YV d   1       2.878   3.726  12.672  0.00  0.00    -0.214 N 
ATOM      8  H4  3YV d   1       3.490   4.522  12.443  0.00  0.00     0.178 HD
BRANCH   7   9
ATOM      9  C5  3YV d   1       1.502   3.775  12.220  0.00  0.00     0.053 C 
ATOM     10  C4  3YV d   1       1.357   4.450  10.853  0.00  0.00    -0.044 C 
ATOM     11  C3  3YV d   1      -0.107   4.595  10.441  0.00  0.00    -0.063 C 
ATOM     12  H1  3YV d   1       1.880   3.843  10.099  0.00  0.00     0.036 H 
ATOM     13  H2  3YV d   1       1.814   5.450  10.900  0.00  0.00     0.036 H 
ATOM     14  C2  3YV d   1      -0.939   5.271  11.532  0.00  0.00    -0.063 C 
ATOM     15  H11 3YV d   1      -0.522   3.596  10.244  0.00  0.00     0.033 H 
ATOM     16  H12 3YV d   1      -0.161   5.201   9.525  0.00  0.00     0.033 H 
ATOM     17  C1  3YV d   1      -0.824   4.540  12.871  0.00  0.00    -0.037 C 
ATOM     18  H13 3YV d   1      -1.994   5.280  11.221  0.00  0.00     0.033 H 
ATOM     19  H14 3YV d   1      -0.586   6.305  11.660  0.00  0.00     0.033 H 
ATOM     20  C   3YV d   1       0.616   4.454  13.358  0.00  0.00     0.120 C 
ATOM     21  H15 3YV d   1      -1.219   3.520  12.753  0.00  0.00     0.036 H 
ATOM     22  H16 3YV d   1      -1.420   5.080  13.622  0.00  0.00     0.036 H 
ATOM     23  H17 3YV d   1       0.653   3.826  14.261  0.00  0.00     0.087 H 
ATOM     24  H3  3YV d   1       1.152   2.739  12.101  0.00  0.00     0.076 H 
BRANCH  20  25
ATOM     25  N   3YV d   1       1.125   5.799  13.698  0.00  0.00    -0.073 N 
ATOM     26  H18 3YV d   1       2.078   5.726  14.018  0.00  0.00     0.274 HD
ATOM     27  H19 3YV d   1       0.555   6.200  14.427  0.00  0.00     0.274 HD
ATOM     28  H20 3YV d   1       1.089   6.388  12.881  0.00  0.00     0.274 HD
ENDBRANCH  20  25
ENDBRANCH   7   9
ENDBRANCH   1   7
BRANCH   4  29
ATOM     29  N5  3YV d   1       2.353  -0.453  14.652  0.00  0.00    -0.338 N 
ATOM     30  H21 3YV d   1       2.870  -1.194  15.146  0.00  0.00     0.167 HD
BRANCH  29  31
ATOM     31  C10 3YV d   1       1.005  -0.767  14.415  0.00  0.00     0.035 A 
ATOM     32  C11 3YV d   1       0.523  -1.887  15.087  0.00  0.00    -0.057 A 
ATOM     33  C12 3YV d   1      -0.809  -2.246  14.965  0.00  0.00    -0.079 A 
ATOM     34  H5  3YV d   1       1.190  -2.478  15.705  0.00  0.00     0.086 H 
ATOM     35  C13 3YV d   1      -1.676  -1.488  14.197  0.00  0.00    -0.053 A 
ATOM     36  H6  3YV d   1      -1.176  -3.129  15.476  0.00  0.00     0.083 H 
ATOM     37  C14 3YV d   1      -1.203  -0.364  13.511  0.00  0.00     0.081 A 
ATOM     38  H7  3YV d   1      -2.722  -1.765  14.127  0.00  0.00     0.087 H 
ATOM     39  C15 3YV d   1       0.145  -0.008  13.626  0.00  0.00    -0.028 A 
ATOM     40  H8  3YV d   1       0.521   0.862  13.099  0.00  0.00     0.090 H 
BRANCH  37  41
ATOM     41  N6  3YV d   1      -2.127   0.460  12.801  0.00  0.00    -0.152 N 
ATOM     42  N8  3YV d   1      -1.786   1.382  11.901  0.00  0.00    -0.161 NA
ATOM     43  C17 3YV d   1      -2.922   1.902  11.455  0.00  0.00     0.042 A 
ATOM     44  C16 3YV d   1      -4.004   1.213  12.137  0.00  0.00     0.042 A 
ATOM     45  H22 3YV d   1      -3.024   2.696  10.717  0.00  0.00     0.119 H 
ATOM     46  N7  3YV d   1      -3.450   0.323  12.950  0.00  0.00    -0.161 NA
ATOM     47  H23 3YV d   1      -5.070   1.393  12.005  0.00  0.00     0.119 H 
ENDBRANCH  37  41
ENDBRANCH  29  31
ENDBRANCH   4  29
BRANCH   2  48
ATOM     48  C8  3YV d   1       5.100  -0.287  15.722  0.00  0.00     0.273 C 
ATOM     49  N4  3YV d   1       6.382  -0.109  15.993  0.00  0.00    -0.365 N 
ATOM     50  H9  3YV d   1       6.868  -0.768  16.567  0.00  0.00     0.159 HD
ATOM     51  H10 3YV d   1       6.865   0.685  15.624  0.00  0.00     0.159 HD
ATOM     52  O   3YV d   1       4.453  -1.253  16.138  0.00  0.00    -0.266 OA
ENDBRANCH   2  48
TORSDOF 7
