REMARK  6 active torsions:
REMARK  status: ('A' for Active; 'I' for Inactive)
REMARK    1  A    between atoms: C14_6  and  C20_9 
REMARK    2  A    between atoms: C17_7  and  N7_17 
REMARK    3  A    between atoms: N13_21  and  C19_8 
REMARK       I    between atoms: C20_9  and  N27_27 
REMARK    4  A    between atoms: C4_14  and  N8_18 
REMARK    5  A    between atoms: N7_17  and  C5_15 
REMARK    6  A    between atoms: C9_19  and  N13_21 
ROOT
ATOM      1  C14 3YX d   1       4.270   0.571  14.943  0.00  0.00     0.193 A 
ATOM      2  C17 3YX d   1       3.490   2.672  13.459  0.00  0.00     0.743 A 
ATOM      3  C19 3YX d   1       3.061   0.546  14.294  0.00  0.00     0.183 A 
ATOM      4  N15 3YX d   1       5.055   1.661  14.830  0.00  0.00    -0.124 NA
ATOM      5  N16 3YX d   1       4.651   2.678  14.091  0.00  0.00     0.044 NA
ATOM      6  N18 3YX d   1       2.702   1.604  13.583  0.00  0.00    -0.041 NA
ENDROOT
BRANCH   2   7
ATOM      7  N7  3YX d   1       3.075   3.696  12.739  0.00  0.00    -0.214 N 
ATOM      8  H15 3YX d   1       3.730   4.471  12.561  0.00  0.00     0.178 HD
BRANCH   7   9
ATOM      9  C5  3YX d   1       1.767   3.777  12.200  0.00  0.00     0.053 C 
ATOM     10  C4  3YX d   1       0.806   4.447  13.210  0.00  0.00     0.120 C 
ATOM     11  C3  3YX d   1      -0.578   4.463  12.586  0.00  0.00    -0.037 C 
ATOM     12  H11 3YX d   1       0.789   3.855  14.137  0.00  0.00     0.087 H 
ATOM     13  C2  3YX d   1      -0.606   5.166  11.246  0.00  0.00    -0.063 C 
ATOM     14  H5  3YX d   1      -0.913   3.425  12.446  0.00  0.00     0.036 H 
ATOM     15  H6  3YX d   1      -1.266   4.981  13.270  0.00  0.00     0.036 H 
ATOM     16  C1  3YX d   1       0.404   4.576  10.266  0.00  0.00    -0.063 C 
ATOM     17  H3  3YX d   1      -1.614   5.070  10.817  0.00  0.00     0.033 H 
ATOM     18  H4  3YX d   1      -0.372   6.230  11.399  0.00  0.00     0.033 H 
ATOM     19  C6  3YX d   1       1.778   4.575  10.896  0.00  0.00    -0.044 C 
ATOM     20  H1  3YX d   1       0.422   5.183   9.349  0.00  0.00     0.033 H 
ATOM     21  H2  3YX d   1       0.114   3.544  10.018  0.00  0.00     0.033 H 
ATOM     22  H13 3YX d   1       2.080   5.611  11.108  0.00  0.00     0.036 H 
ATOM     23  H14 3YX d   1       2.496   4.119  10.198  0.00  0.00     0.036 H 
ATOM     24  H12 3YX d   1       1.408   2.758  11.991  0.00  0.00     0.076 H 
BRANCH  10  25
ATOM     25  N8  3YX d   1       1.205   5.829  13.536  0.00  0.00    -0.073 N 
ATOM     26  H16 3YX d   1       0.551   6.221  14.195  0.00  0.00     0.274 HD
ATOM     27  H17 3YX d   1       1.209   6.385  12.695  0.00  0.00     0.274 HD
ATOM     28  H18 3YX d   1       2.128   5.826  13.941  0.00  0.00     0.274 HD
ENDBRANCH  10  25
ENDBRANCH   7   9
ENDBRANCH   2   7
BRANCH   3  29
ATOM     29  N13 3YX d   1       2.217  -0.493  14.430  0.00  0.00    -0.336 N 
ATOM     30  H20 3YX d   1       2.610  -1.343  14.859  0.00  0.00     0.167 HD
BRANCH  29  31
ATOM     31  C9  3YX d   1       0.917  -0.556  14.072  0.00  0.00     0.061 A 
ATOM     32  C22 3YX d   1       0.118  -1.567  14.671  0.00  0.00     0.069 A 
ATOM     33  C23 3YX d   1      -1.209  -1.765  14.379  0.00  0.00    -0.006 A 
ATOM     34  N26 3YX d   1       0.496  -2.430  15.586  0.00  0.00    -0.363 N 
ATOM     35  C12 3YX d   1      -1.866  -0.965  13.460  0.00  0.00    -0.071 A 
ATOM     36  C24 3YX d   1      -1.573  -2.937  15.271  0.00  0.00    -0.056 A 
ATOM     37  C11 3YX d   1      -1.094   0.041  12.848  0.00  0.00    -0.080 A 
ATOM     38  H8  3YX d   1      -2.915  -1.105  13.225  0.00  0.00     0.084 H 
ATOM     39  C10 3YX d   1       0.271   0.217  13.125  0.00  0.00    -0.055 A 
ATOM     40  H7  3YX d   1      -1.572   0.705  12.136  0.00  0.00     0.083 H 
ATOM     41  H19 3YX d   1       0.829   0.974  12.586  0.00  0.00     0.087 H 
ATOM     42  C25 3YX d   1      -0.473  -3.220  15.946  0.00  0.00    -0.022 A 
ATOM     43  H9  3YX d   1      -2.537  -3.439  15.340  0.00  0.00     0.086 H 
ATOM     44  H10 3YX d   1      -0.389  -4.004  16.698  0.00  0.00     0.111 H 
ATOM     45  H21 3YX d   1       1.449  -2.476  15.974  0.00  0.00     0.165 HD
ENDBRANCH  29  31
ENDBRANCH   3  29
BRANCH   1  46
ATOM     46  C20 3YX d   1       4.763  -0.562  15.787  0.00  0.00     0.273 C 
ATOM     47  O21 3YX d   1       4.055  -1.447  16.068  0.00  0.00    -0.266 OA
ATOM     48  N27 3YX d   1       6.002  -0.485  16.174  0.00  0.00    -0.365 N 
ATOM     49  H22 3YX d   1       6.395  -1.209  16.741  0.00  0.00     0.159 HD
ATOM     50  H23 3YX d   1       6.562   0.298  15.905  0.00  0.00     0.159 HD
ENDBRANCH   1  46
TORSDOF 6
