REMARK  7 active torsions:
REMARK  status: ('A' for Active; 'I' for Inactive)
REMARK    1  A    between atoms: C2_1  and  N1_15 
REMARK    2  A    between atoms: C12_4  and  C13_5 
REMARK       I    between atoms: C13_5  and  N14_23 
REMARK    3  A    between atoms: N17_25  and  C16_6 
REMARK    4  A    between atoms: C18_7  and  N17_25 
REMARK    5  A    between atoms: N24_26  and  C22_11 
REMARK    6  A    between atoms: N8_20  and  C7_19 
REMARK    7  A    between atoms: C9_21  and  N8_20 
ROOT
ATOM      1  C11 3YT d   1       5.217   1.822  14.526  0.00  0.00     0.040 A 
ATOM      2  C12 3YT d   1       4.430   0.685  14.733  0.00  0.00     0.096 A 
ATOM      3  C16 3YT d   1       3.150   0.610  14.218  0.00  0.00     0.164 A 
ATOM      4  C9  3YT d   1       3.468   2.732  13.313  0.00  0.00     0.724 A 
ATOM      5  N10 3YT d   1       4.698   2.807  13.817  0.00  0.00    -0.074 NA
ATOM      6  N29 3YT d   1       2.695   1.652  13.501  0.00  0.00    -0.044 NA
ATOM      7  H4  3YT d   1       6.219   1.892  14.934  0.00  0.00     0.117 H 
ENDROOT
BRANCH   4   8
ATOM      8  N8  3YT d   1       3.003   3.785  12.630  0.00  0.00    -0.216 N 
ATOM      9  H21 3YT d   1       3.650   4.556  12.410  0.00  0.00     0.178 HD
BRANCH   8  10
ATOM     10  C7  3YT d   1       1.634   3.885  12.190  0.00  0.00     0.053 C 
ATOM     11  C2  3YT d   1       0.718   4.489  13.290  0.00  0.00     0.120 C 
ATOM     12  C3  3YT d   1      -0.713   4.644  12.747  0.00  0.00    -0.037 C 
ATOM     13  H1  3YT d   1       0.716   3.831  14.172  0.00  0.00     0.087 H 
ATOM     14  C4  3YT d   1      -0.752   5.388  11.393  0.00  0.00    -0.063 C 
ATOM     15  H2  3YT d   1      -1.309   5.210  13.478  0.00  0.00     0.036 H 
ATOM     16  H3  3YT d   1      -1.150   3.644  12.613  0.00  0.00     0.036 H 
ATOM     17  C5  3YT d   1       0.128   4.687  10.337  0.00  0.00    -0.063 C 
ATOM     18  H14 3YT d   1      -0.386   6.415  11.539  0.00  0.00     0.033 H 
ATOM     19  H15 3YT d   1      -1.790   5.417  11.031  0.00  0.00     0.033 H 
ATOM     20  C6  3YT d   1       1.564   4.704  10.886  0.00  0.00    -0.044 C 
ATOM     21  H16 3YT d   1       0.080   5.229   9.381  0.00  0.00     0.033 H 
ATOM     22  H17 3YT d   1      -0.210   3.651  10.188  0.00  0.00     0.033 H 
ATOM     23  H18 3YT d   1       1.865   5.742  11.090  0.00  0.00     0.036 H 
ATOM     24  H19 3YT d   1       2.245   4.265  10.142  0.00  0.00     0.036 H 
ATOM     25  H20 3YT d   1       1.271   2.869  11.974  0.00  0.00     0.076 H 
BRANCH  11  26
ATOM     26  N1  3YT d   1       1.207   5.825  13.660  0.00  0.00    -0.073 N 
ATOM     27  H11 3YT d   1       2.146   5.751  14.020  0.00  0.00     0.274 HD
ATOM     28  H12 3YT d   1       0.606   6.219  14.367  0.00  0.00     0.274 HD
ATOM     29  H13 3YT d   1       1.205   6.421  12.847  0.00  0.00     0.274 HD
ENDBRANCH  11  26
ENDBRANCH   8  10
ENDBRANCH   4   8
BRANCH   3  30
ATOM     30  N17 3YT d   1       2.419  -0.484  14.489  0.00  0.00    -0.340 N 
ATOM     31  H24 3YT d   1       2.937  -1.284  14.879  0.00  0.00     0.167 HD
BRANCH  30  32
ATOM     32  C18 3YT d   1       1.124  -0.666  14.321  0.00  0.00     0.035 A 
ATOM     33  C19 3YT d   1       0.563  -1.705  15.013  0.00  0.00    -0.057 A 
ATOM     34  C20 3YT d   1      -0.759  -2.019  14.863  0.00  0.00    -0.079 A 
ATOM     35  H5  3YT d   1       1.176  -2.288  15.691  0.00  0.00     0.086 H 
ATOM     36  C21 3YT d   1      -1.555  -1.247  14.042  0.00  0.00    -0.053 A 
ATOM     37  H6  3YT d   1      -1.180  -2.870  15.386  0.00  0.00     0.083 H 
ATOM     38  C22 3YT d   1      -1.032  -0.189  13.320  0.00  0.00     0.081 A 
ATOM     39  H7  3YT d   1      -2.612  -1.474  13.961  0.00  0.00     0.087 H 
ATOM     40  C23 3YT d   1       0.336   0.091  13.462  0.00  0.00    -0.028 A 
ATOM     41  H8  3YT d   1       0.781   0.903  12.898  0.00  0.00     0.090 H 
BRANCH  38  42
ATOM     42  N24 3YT d   1      -1.907   0.517  12.583  0.00  0.00    -0.152 N 
ATOM     43  N25 3YT d   1      -3.243   0.446  12.736  0.00  0.00    -0.161 NA
ATOM     44  C26 3YT d   1      -3.808   1.228  11.957  0.00  0.00     0.042 A 
ATOM     45  C27 3YT d   1      -2.733   1.918  11.245  0.00  0.00     0.042 A 
ATOM     46  H9  3YT d   1      -4.880   1.371  11.830  0.00  0.00     0.119 H 
ATOM     47  N28 3YT d   1      -1.657   1.447  11.678  0.00  0.00    -0.161 NA
ATOM     48  H10 3YT d   1      -2.846   2.691  10.486  0.00  0.00     0.119 H 
ENDBRANCH  38  42
ENDBRANCH  30  32
ENDBRANCH   3  30
BRANCH   2  49
ATOM     49  C13 3YT d   1       4.971  -0.429  15.551  0.00  0.00     0.254 C 
ATOM     50  N14 3YT d   1       6.203  -0.331  15.886  0.00  0.00    -0.366 N 
ATOM     51  H22 3YT d   1       6.630  -1.048  16.437  0.00  0.00     0.159 HD
ATOM     52  H23 3YT d   1       6.738   0.462  15.596  0.00  0.00     0.159 HD
ATOM     53  O15 3YT d   1       4.225  -1.282  15.902  0.00  0.00    -0.268 OA
ENDBRANCH   2  49
TORSDOF 7
