REMARK  7 active torsions:
REMARK  status: ('A' for Active; 'I' for Inactive)
REMARK    1  A    between atoms: CBE_5  and  CBK_6 
REMARK    2  A    between atoms: CBG_11  and  NBA_12 
REMARK       I    between atoms: NBA_12  and  CBC_13 
REMARK    3  A    between atoms: CBC_13  and  CBI_15 
REMARK    4  A    between atoms: CBM_20  and  CBN_21 
REMARK    5  A    between atoms: CBJ_26  and  CBD_27 
REMARK       I    between atoms: CBD_27  and  NBB_29 
REMARK    6  A    between atoms: NBB_29  and  CBH_30 
REMARK    7  A    between atoms: CBL_35  and  CBF_36 
ROOT
ATOM      1  CBI 3F2 d   1      -3.448  41.436 -10.463  0.00  0.00     0.032 C 
ATOM      2  CAJ 3F2 d   1      -2.248  41.519  -9.778  0.00  0.00    -0.067 C 
ATOM      3  CAN 3F2 d   1      -1.081  41.127 -10.426  0.00  0.00    -0.071 C 
ATOM      4  CAI 3F2 d   1      -3.501  40.809 -11.684  0.00  0.00    -0.067 C 
ATOM      5  CAM 3F2 d   1      -2.362  40.425 -12.319  0.00  0.00    -0.071 C 
ATOM      6  CBM 3F2 d   1      -1.141  40.704 -11.755  0.00  0.00    -0.026 C 
ATOM      7  H11 3F2 d   1      -2.218  41.882  -8.757  0.00  0.00     0.085 H 
ATOM      8  H12 3F2 d   1      -0.132  41.150  -9.903  0.00  0.00     0.084 H 
ATOM      9  H13 3F2 d   1      -4.463  40.618 -12.147  0.00  0.00     0.085 H 
ATOM     10  H14 3F2 d   1      -2.417  39.901 -13.266  0.00  0.00     0.084 H 
ENDROOT
BRANCH   6  11
ATOM     11  CBN 3F2 d   1      -0.133  40.047 -12.256  0.00  0.00    -0.026 A 
ATOM     12  CAP 3F2 d   1      -0.110  38.808 -11.724  0.00  0.00    -0.071 A 
ATOM     13  CAL 3F2 d   1       0.743  37.895 -12.134  0.00  0.00    -0.067 A 
ATOM     14  H15 3F2 d   1      -0.813  38.558 -10.938  0.00  0.00     0.084 H 
ATOM     15  CBJ 3F2 d   1       1.634  38.155 -13.113  0.00  0.00     0.032 A 
ATOM     16  H16 3F2 d   1       0.730  36.913 -11.676  0.00  0.00     0.085 H 
ATOM     17  CAK 3F2 d   1       1.623  39.397 -13.793  0.00  0.00    -0.067 A 
ATOM     18  CAO 3F2 d   1       0.678  40.374 -13.361  0.00  0.00    -0.071 A 
ATOM     19  H18 3F2 d   1       2.306  39.597 -14.610  0.00  0.00     0.085 H 
ATOM     20  H17 3F2 d   1       0.587  41.331 -13.863  0.00  0.00     0.084 H 
BRANCH  15  21
ATOM     21  CBD 3F2 d   1       2.370  37.073 -13.402  0.00  0.00     0.256 C 
ATOM     22  OAB 3F2 d   1       2.689  36.798 -14.546  0.00  0.00    -0.267 OA
ATOM     23  NBB 3F2 d   1       2.242  36.167 -12.387  0.00  0.00    -0.323 N 
ATOM     24  H19 3F2 d   1       1.965  36.477 -11.477  0.00  0.00     0.169 HD
BRANCH  23  25
ATOM     25  CBH 3F2 d   1       2.480  34.891 -12.597  0.00  0.00     0.035 C 
ATOM     26  CAR 3F2 d   1       3.227  34.125 -11.662  0.00  0.00    -0.044 C 
ATOM     27  CBL 3F2 d   1       3.367  32.734 -11.860  0.00  0.00     0.011 C 
ATOM     28  H20 3F2 d   1       3.685  34.604 -10.804  0.00  0.00     0.088 H 
ATOM     29  CAH 3F2 d   1       2.709  32.141 -12.928  0.00  0.00    -0.069 C 
ATOM     30  CAD 3F2 d   1       1.925  32.894 -13.794  0.00  0.00    -0.080 C 
ATOM     31  H23 3F2 d   1       2.808  31.074 -13.089  0.00  0.00     0.085 H 
ATOM     32  CAF 3F2 d   1       1.773  34.252 -13.606  0.00  0.00    -0.057 C 
ATOM     33  H22 3F2 d   1       1.428  32.409 -14.626  0.00  0.00     0.083 H 
ATOM     34  H21 3F2 d   1       1.104  34.818 -14.244  0.00  0.00     0.086 H 
BRANCH  27  35
ATOM     35  CBF 3F2 d   1       4.125  31.943 -11.031  0.00  0.00     0.128 C 
ATOM     36  NAX 3F2 d   1       3.947  30.589 -11.002  0.00  0.00    -0.271 NA
ATOM     37  CAT 3F2 d   1       4.892  29.999 -10.099  0.00  0.00     0.032 C 
ATOM     38  CAV 3F2 d   1       5.924  31.033 -10.047  0.00  0.00     0.011 C 
ATOM     39  H24 3F2 d   1       5.290  29.053 -10.494  0.00  0.00     0.069 H 
ATOM     40  H25 3F2 d   1       4.447  29.824  -9.108  0.00  0.00     0.069 H 
ATOM     41  NAZ 3F2 d   1       5.130  32.284 -10.194  0.00  0.00    -0.373 N 
ATOM     42  H26 3F2 d   1       6.644  30.919 -10.871  0.00  0.00     0.066 H 
ATOM     43  H27 3F2 d   1       6.460  31.012  -9.087  0.00  0.00     0.066 H 
ATOM     44  H28 3F2 d   1       5.306  33.200  -9.758  0.00  0.00     0.161 HD
ENDBRANCH  27  35
ENDBRANCH  23  25
ENDBRANCH  15  21
ENDBRANCH   6  11
BRANCH   1  45
ATOM     45  CBC 3F2 d   1      -4.612  41.622  -9.855  0.00  0.00     0.256 C 
ATOM     46  NBA 3F2 d   1      -4.729  40.804  -8.822  0.00  0.00    -0.323 N 
ATOM     47  H10 3F2 d   1      -3.951  40.558  -8.244  0.00  0.00     0.169 HD
ATOM     48  OAA 3F2 d   1      -5.591  42.045 -10.480  0.00  0.00    -0.267 OA
BRANCH  46  49
ATOM     49  CBG 3F2 d   1      -5.893  40.354  -8.615  0.00  0.00     0.035 A 
ATOM     50  CAQ 3F2 d   1      -6.355  39.457  -9.565  0.00  0.00    -0.044 A 
ATOM     51  CBK 3F2 d   1      -7.596  38.894  -9.461  0.00  0.00     0.011 A 
ATOM     52  H6  3F2 d   1      -5.721  39.197 -10.405  0.00  0.00     0.088 H 
ATOM     53  CAG 3F2 d   1      -8.369  39.173  -8.336  0.00  0.00    -0.069 A 
ATOM     54  CAC 3F2 d   1      -7.891  40.057  -7.346  0.00  0.00    -0.080 A 
ATOM     55  H7  3F2 d   1      -9.342  38.709  -8.221  0.00  0.00     0.085 H 
ATOM     56  CAE 3F2 d   1      -6.639  40.645  -7.488  0.00  0.00    -0.057 A 
ATOM     57  H8  3F2 d   1      -8.499  40.278  -6.476  0.00  0.00     0.083 H 
ATOM     58  H9  3F2 d   1      -6.255  41.318  -6.730  0.00  0.00     0.086 H 
BRANCH  51  59
ATOM     59  CBE 3F2 d   1      -8.002  38.007 -10.405  0.00  0.00     0.128 C 
ATOM     60  NAY 3F2 d   1      -7.193  37.368 -11.322  0.00  0.00    -0.373 N 
ATOM     61  CAU 3F2 d   1      -7.983  36.279 -11.905  0.00  0.00     0.011 C 
ATOM     62  H1  3F2 d   1      -6.219  37.610 -11.553  0.00  0.00     0.161 HD
ATOM     63  CAS 3F2 d   1      -9.387  36.504 -11.448  0.00  0.00     0.032 C 
ATOM     64  H2  3F2 d   1      -7.615  35.306 -11.548  0.00  0.00     0.066 H 
ATOM     65  H3  3F2 d   1      -7.928  36.311 -13.003  0.00  0.00     0.066 H 
ATOM     66  NAW 3F2 d   1      -9.264  37.516 -10.411  0.00  0.00    -0.271 NA
ATOM     67  H4  3F2 d   1      -9.818  35.578 -11.041  0.00  0.00     0.069 H 
ATOM     68  H5  3F2 d   1     -10.014  36.867 -12.276  0.00  0.00     0.069 H 
ENDBRANCH  51  59
ENDBRANCH  46  49
ENDBRANCH   1  45
TORSDOF 7
