REMARK  6 active torsions:
REMARK  status: ('A' for Active; 'I' for Inactive)
REMARK    1  A    between atoms: P14_2  and  C8_5 
REMARK    2  A    between atoms: C8_5  and  P9_6 
REMARK    3  A    between atoms: C8_5  and  O13_10 
REMARK    4  A    between atoms: C8_5  and  C7_11 
REMARK    5  A    between atoms: C7_11  and  C9_12 
REMARK    6  A    between atoms: C9_12  and  C6_13 
ROOT
ATOM      1  C7  HRX d   1      32.313   1.067  11.468  0.00  0.00    -0.007 C 
ATOM      2  H2  HRX d   1      31.923   1.058  10.440  0.00  0.00     0.040 H 
ATOM      3  H3  HRX d   1      32.878   1.996  11.638  0.00  0.00     0.040 H 
ENDROOT
BRANCH   1   4
ATOM      4  C8  HRX d   1      33.209  -0.133  11.693  0.00  0.00     0.285 C 
BRANCH   4   5
ATOM      5  P14 HRX d   1      33.636  -0.383  13.518  0.00  0.00     0.310 P 
ATOM      6  O17 HRX d   1      32.386  -1.057  13.902  0.00  0.00    -0.637 OA
ATOM      7  O16 HRX d   1      34.841  -1.197  13.326  0.00  0.00    -0.637 OA
ATOM      8  O15 HRX d   1      33.813   1.035  13.873  0.00  0.00    -0.637 OA
ENDBRANCH   4   5
BRANCH   4   9
ATOM      9  P9  HRX d   1      34.751   0.177  10.756  0.00  0.00     0.310 P 
ATOM     10  O11 HRX d   1      35.416   1.135  11.668  0.00  0.00    -0.637 OA
ATOM     11  O12 HRX d   1      34.282   0.768   9.496  0.00  0.00    -0.637 OA
ATOM     12  O10 HRX d   1      35.403  -1.141  10.663  0.00  0.00    -0.637 OA
ENDBRANCH   4   9
BRANCH   4  13
ATOM     13  O13 HRX d   1      32.571  -1.308  11.188  0.00  0.00    -0.365 OA
ATOM     14  H1  HRX d   1      31.775  -1.472  11.681  0.00  0.00     0.212 HD
ENDBRANCH   4  13
ENDBRANCH   1   4
BRANCH   1  15
ATOM     15  C9  HRX d   1      31.171   0.968  12.456  0.00  0.00    -0.036 C 
ATOM     16  H4  HRX d   1      31.349   1.612  13.330  0.00  0.00     0.040 H 
ATOM     17  H5  HRX d   1      31.027  -0.070  12.789  0.00  0.00     0.040 H 
BRANCH  15  18
ATOM     18  C6  HRX d   1      30.068   1.415  11.721  0.00  0.00    -0.041 A 
ATOM     19  C5  HRX d   1      29.231   2.382  12.274  0.00  0.00    -0.074 A 
ATOM     20  C2  HRX d   1      28.127   2.850  11.570  0.00  0.00    -0.066 A 
ATOM     21  H6  HRX d   1      29.442   2.773  13.263  0.00  0.00     0.084 H 
ATOM     22  C3  HRX d   1      27.853   2.357  10.300  0.00  0.00     0.002 A 
ATOM     23  H7  HRX d   1      27.480   3.599  12.012  0.00  0.00     0.085 H 
ATOM     24  N4  HRX d   1      28.690   1.388   9.734  0.00  0.00    -0.273 NA
ATOM     25  H8  HRX d   1      26.994   2.722   9.749  0.00  0.00     0.114 H 
ATOM     26  C1  HRX d   1      29.800   0.918  10.449  0.00  0.00     0.008 A 
ATOM     27  H9  HRX d   1      30.449   0.168  10.012  0.00  0.00     0.115 H 
ENDBRANCH  15  18
ENDBRANCH   1  15
TORSDOF 6
