REMARK  5 active torsions:
REMARK  status: ('A' for Active; 'I' for Inactive)
REMARK    1  A    between atoms: P9_2  and  C8_5 
REMARK    2  A    between atoms: C8_5  and  O13_6 
REMARK    3  A    between atoms: C8_5  and  P14_7 
REMARK    4  A    between atoms: C8_5  and  C7_11 
REMARK    5  A    between atoms: C7_11  and  C2_12 
ROOT
ATOM      1  C7  RIS d   1      34.631   3.983  15.035  0.00  0.00     0.015 C 
ATOM      2  H2  RIS d   1      34.575   2.909  14.802  0.00  0.00     0.046 H 
ATOM      3  H3  RIS d   1      33.980   4.207  15.893  0.00  0.00     0.046 H 
ENDROOT
BRANCH   1   4
ATOM      4  C8  RIS d   1      34.048   4.727  13.833  0.00  0.00     0.289 C 
BRANCH   4   5
ATOM      5  P9  RIS d   1      32.321   4.154  13.671  0.00  0.00     0.310 P 
ATOM      6  O12 RIS d   1      31.642   4.643  14.916  0.00  0.00    -0.637 OA
ATOM      7  O11 RIS d   1      31.746   4.773  12.417  0.00  0.00    -0.637 OA
ATOM      8  O10 RIS d   1      32.394   2.639  13.585  0.00  0.00    -0.637 OA
ENDBRANCH   4   5
BRANCH   4   9
ATOM      9  O13 RIS d   1      34.757   4.298  12.673  0.00  0.00    -0.365 OA
ATOM     10  H1  RIS d   1      34.354   4.675  11.900  0.00  0.00     0.212 HD
ENDBRANCH   4   9
BRANCH   4  11
ATOM     11  P14 RIS d   1      34.119   6.552  13.997  0.00  0.00     0.310 P 
ATOM     12  O16 RIS d   1      33.381   7.087  12.793  0.00  0.00    -0.637 OA
ATOM     13  O15 RIS d   1      33.487   6.895  15.316  0.00  0.00    -0.637 OA
ATOM     14  O17 RIS d   1      35.590   6.924  14.003  0.00  0.00    -0.637 OA
ENDBRANCH   4  11
ENDBRANCH   1   4
BRANCH   1  15
ATOM     15  C2  RIS d   1      36.071   4.263  15.487  0.00  0.00    -0.036 A 
ATOM     16  C1  RIS d   1      36.332   4.255  16.848  0.00  0.00    -0.074 A 
ATOM     17  C6  RIS d   1      37.622   4.496  17.329  0.00  0.00    -0.066 A 
ATOM     18  H4  RIS d   1      35.527   4.060  17.547  0.00  0.00     0.084 H 
ATOM     19  C5  RIS d   1      38.634   4.728  16.411  0.00  0.00     0.002 A 
ATOM     20  H5  RIS d   1      37.826   4.501  18.394  0.00  0.00     0.085 H 
ATOM     21  N4  RIS d   1      38.363   4.728  15.098  0.00  0.00    -0.273 NA
ATOM     22  H6  RIS d   1      39.646   4.910  16.755  0.00  0.00     0.114 H 
ATOM     23  C3  RIS d   1      37.123   4.494  14.615  0.00  0.00     0.008 A 
ATOM     24  H7  RIS d   1      36.951   4.487  13.545  0.00  0.00     0.115 H 
ENDBRANCH   1  15
TORSDOF 5
