REMARK  5 active torsions:
REMARK  status: ('A' for Active; 'I' for Inactive)
REMARK    1  A    between atoms: P1_2  and  C6_5 
REMARK    2  A    between atoms: C6_5  and  P2_6 
REMARK    3  A    between atoms: C6_5  and  N1_10 
REMARK    4  A    between atoms: N1_10  and  C1_11 
REMARK    5  A    between atoms: C2_16  and  C7_17 
ROOT
ATOM      1  C1  3YQ d   1      28.071 -15.319  11.066  0.00  0.00     0.130 A 
ATOM      2  N2  3YQ d   1      28.228 -14.370  12.014  0.00  0.00    -0.243 NA
ATOM      3  C5  3YQ d   1      29.141 -14.505  13.051  0.00  0.00     0.004 A 
ATOM      4  C4  3YQ d   1      29.905 -15.642  13.095  0.00  0.00    -0.065 A 
ATOM      5  C3  3YQ d   1      29.763 -16.609  12.127  0.00  0.00    -0.072 A 
ATOM      6  C2  3YQ d   1      28.844 -16.487  11.099  0.00  0.00    -0.016 A 
ATOM      7  H3  3YQ d   1      29.247 -13.733  13.805  0.00  0.00     0.114 H 
ATOM      8  H4  3YQ d   1      30.623 -15.780  13.895  0.00  0.00     0.085 H 
ATOM      9  H5  3YQ d   1      30.389 -17.493  12.171  0.00  0.00     0.084 H 
ENDROOT
BRANCH   1  10
ATOM     10  N1  3YQ d   1      27.152 -15.205  10.089  0.00  0.00    -0.347 N 
ATOM     11  H2  3YQ d   1      26.890 -16.046   9.555  0.00  0.00     0.162 HD
BRANCH  10  12
ATOM     12  C6  3YQ d   1      26.537 -13.985   9.770  0.00  0.00     0.228 C 
ATOM     13  H1  3YQ d   1      27.253 -13.154   9.856  0.00  0.00     0.117 H 
BRANCH  12  14
ATOM     14  P1  3YQ d   1      25.968 -14.138   7.994  0.00  0.00     0.297 P 
ATOM     15  O5  3YQ d   1      24.950 -15.242   8.107  0.00  0.00    -0.638 OA
ATOM     16  O6  3YQ d   1      25.483 -12.710   7.932  0.00  0.00    -0.638 OA
ATOM     17  O2  3YQ d   1      27.295 -14.428   7.466  0.00  0.00    -0.638 OA
ENDBRANCH  12  14
BRANCH  12  18
ATOM     18  P2  3YQ d   1      25.150 -13.722  10.970  0.00  0.00     0.297 P 
ATOM     19  O3  3YQ d   1      24.543 -12.507  10.451  0.00  0.00    -0.638 OA
ATOM     20  O1  3YQ d   1      25.805 -13.495  12.256  0.00  0.00    -0.638 OA
ATOM     21  O4  3YQ d   1      24.273 -14.979  10.738  0.00  0.00    -0.638 OA
ENDBRANCH  12  18
ENDBRANCH  10  12
ENDBRANCH   1  10
BRANCH   6  22
ATOM     22  C7  3YQ d   1      28.756 -17.555  10.133  0.00  0.00    -0.048 C 
ATOM     23  H6  3YQ d   1      27.986 -17.311   9.386  0.00  0.00     0.033 H 
ATOM     24  H7  3YQ d   1      28.487 -18.491  10.645  0.00  0.00     0.033 H 
ATOM     25  H8  3YQ d   1      29.728 -17.677   9.632  0.00  0.00     0.033 H 
ENDBRANCH   6  22
TORSDOF 5
