REMARK  32 active torsions:
REMARK  status: ('A' for Active; 'I' for Inactive)
REMARK    1  A    between atoms: N_1  and  CA_2 
REMARK    2  A    between atoms: CA_2  and  C_3 
REMARK    3  A    between atoms: CA_2  and  CB_5 
REMARK       I    between atoms: C_3  and  N_10 
REMARK    4  A    between atoms: CB_5  and  CG_6 
REMARK    5  A    between atoms: CG_6  and  CD_7 
REMARK    6  A    between atoms: CD_7  and  CE_8 
REMARK    7  A    between atoms: CE_8  and  NZ_9 
REMARK    8  A    between atoms: N_10  and  CA_11 
REMARK    9  A    between atoms: CA_11  and  C_12 
REMARK   10  A    between atoms: CA_11  and  CB_14 
REMARK       I    between atoms: C_12  and  N_19 
REMARK   11  A    between atoms: CB_14  and  CG_15 
REMARK   12  A    between atoms: CG_15  and  CD_16 
REMARK   13  A    between atoms: CD_16  and  CE_17 
REMARK   14  A    between atoms: CE_17  and  NZ_18 
REMARK   15  A    between atoms: N_19  and  CA_20 
REMARK   16  A    between atoms: CA_20  and  C_21 
REMARK   17  A    between atoms: CA_20  and  CB_23 
REMARK       I    between atoms: C_21  and  N_30 
REMARK   18  A    between atoms: CB_23  and  CG_24 
REMARK   19  A    between atoms: CG_24  and  CD_25 
REMARK   20  A    between atoms: CD_25  and  NE_26 
REMARK       I    between atoms: NE_26  and  CZ_27 
REMARK       I    between atoms: CZ_27  and  NH1_28 
REMARK   21  A    between atoms: N_30  and  CA_31 
REMARK   22  A    between atoms: CA_31  and  C_32 
REMARK   23  A    between atoms: CA_31  and  CB_34 
REMARK       I    between atoms: C_32  and  N_39 
REMARK   24  A    between atoms: CB_34  and  CG_35 
REMARK   25  A    between atoms: CG_35  and  CD_36 
REMARK   26  A    between atoms: CD_36  and  CE_37 
REMARK   27  A    between atoms: CE_37  and  NZ_38 
REMARK   28  A    between atoms: N_39  and  CA_40 
REMARK   29  A    between atoms: CA_40  and  C_41 
REMARK   30  A    between atoms: CA_40  and  CB_43 
REMARK   31  A    between atoms: CB_43  and  CG1_44 
REMARK   32  A    between atoms: CB_43  and  CG2_45 
ROOT
ATOM      1  CA  ARG d   1     -31.974  86.343 200.704  0.00  0.00     0.089 C 
ATOM      2  H30 ARG d   1     -32.775  86.623 200.004  0.00  0.00     0.087 H 
ENDROOT
BRANCH   1   3
ATOM      3  N   ARG d   1     -31.414  87.571 201.271  0.00  0.00    -0.346 N 
ATOM      4  C   LYS d   1     -32.042  88.741 201.181  0.00  0.00     0.241 C 
ATOM      5  O   LYS d   1     -33.109  88.879 200.592  0.00  0.00    -0.271 OA
ATOM      6  H29 ARG d   1     -30.532  87.529 201.741  0.00  0.00     0.163 HD
BRANCH   4   7
ATOM      7  CA  LYS d   1     -31.375  89.931 201.866  0.00  0.00     0.089 C 
ATOM      8  H17 LYS d   1     -30.299  89.719 201.949  0.00  0.00     0.087 H 
BRANCH   7   9
ATOM      9  N   LYS d   1     -31.533  91.170 201.104  0.00  0.00    -0.346 N 
ATOM     10  C   LYS d   1     -30.649  91.544 200.179  0.00  0.00     0.248 C 
ATOM     11  O   LYS d   1     -29.683  90.855 199.858  0.00  0.00    -0.271 OA
ATOM     12  H16 LYS d   1     -32.326  91.752 201.282  0.00  0.00     0.163 HD
BRANCH  10  13
ATOM     13  CA  LYS d   1     -30.901  92.893 199.504  0.00  0.00     0.176 C 
ATOM     14  H4  LYS d   1     -31.051  92.720 198.428  0.00  0.00     0.099 H 
BRANCH  13  15
ATOM     15  N   LYS d   1     -32.100  93.523 200.038  0.00  0.00    -0.067 N 
ATOM     16  H1  LYS d   1     -32.246  94.409 199.580  0.00  0.00     0.275 HD
ATOM     17  H2  LYS d   1     -31.989  93.671 201.029  0.00  0.00     0.275 HD
ATOM     18  H3  LYS d   1     -32.895  92.925 199.875  0.00  0.00     0.275 HD
ENDBRANCH  13  15
BRANCH  13  19
ATOM     19  CB  LYS d   1     -29.686  93.812 199.684  0.00  0.00    -0.030 C 
ATOM     20  H5  LYS d   1     -29.325  93.707 200.718  0.00  0.00     0.036 H 
ATOM     21  H6  LYS d   1     -30.010  94.849 199.513  0.00  0.00     0.036 H 
BRANCH  19  22
ATOM     22  CG  LYS d   1     -28.528  93.513 198.742  0.00  0.00    -0.061 C 
ATOM     23  H7  LYS d   1     -28.820  93.786 197.717  0.00  0.00     0.033 H 
ATOM     24  H8  LYS d   1     -28.300  92.438 198.784  0.00  0.00     0.033 H 
BRANCH  22  25
ATOM     25  CD  LYS d   1     -27.286  94.297 199.128  0.00  0.00    -0.043 C 
ATOM     26  H9  LYS d   1     -27.044  94.095 200.182  0.00  0.00     0.035 H 
ATOM     27  H10 LYS d   1     -27.482  95.371 198.996  0.00  0.00     0.035 H 
BRANCH  25  28
ATOM     28  CE  LYS d   1     -26.105  93.895 198.259  0.00  0.00     0.080 C 
ATOM     29  H11 LYS d   1     -26.196  94.405 197.288  0.00  0.00     0.075 H 
ATOM     30  H12 LYS d   1     -26.138  92.806 198.106  0.00  0.00     0.075 H 
BRANCH  28  31
ATOM     31  NZ  LYS d   1     -24.783  94.250 198.860  0.00  0.00    -0.079 N 
ATOM     32  H13 LYS d   1     -24.043  93.960 198.240  0.00  0.00     0.274 HD
ATOM     33  H14 LYS d   1     -24.681  93.783 199.747  0.00  0.00     0.274 HD
ATOM     34  H15 LYS d   1     -24.733  95.247 198.998  0.00  0.00     0.274 HD
ENDBRANCH  28  31
ENDBRANCH  25  28
ENDBRANCH  22  25
ENDBRANCH  19  22
ENDBRANCH  13  19
ENDBRANCH  10  13
ENDBRANCH   7   9
BRANCH   7  35
ATOM     35  CB  LYS d   1     -31.947  90.095 203.272  0.00  0.00    -0.038 C 
ATOM     36  H18 LYS d   1     -31.708  89.188 203.847  0.00  0.00     0.036 H 
ATOM     37  H19 LYS d   1     -33.039  90.198 203.188  0.00  0.00     0.036 H 
BRANCH  35  38
ATOM     38  CG  LYS d   1     -31.416  91.296 204.040  0.00  0.00    -0.061 C 
ATOM     39  H20 LYS d   1     -31.874  91.308 205.040  0.00  0.00     0.033 H 
ATOM     40  H21 LYS d   1     -31.692  92.213 203.499  0.00  0.00     0.033 H 
BRANCH  38  41
ATOM     41  CD  LYS d   1     -29.897  91.254 204.194  0.00  0.00    -0.043 C 
ATOM     42  H22 LYS d   1     -29.427  91.424 203.214  0.00  0.00     0.035 H 
ATOM     43  H23 LYS d   1     -29.597  90.268 204.579  0.00  0.00     0.035 H 
BRANCH  41  44
ATOM     44  CE  LYS d   1     -29.441  92.335 205.166  0.00  0.00     0.080 C 
ATOM     45  H24 LYS d   1     -30.146  93.177 205.108  0.00  0.00     0.075 H 
ATOM     46  H25 LYS d   1     -28.439  92.675 204.866  0.00  0.00     0.075 H 
BRANCH  44  47
ATOM     47  NZ  LYS d   1     -29.378  91.864 206.586  0.00  0.00    -0.079 N 
ATOM     48  H26 LYS d   1     -29.072  92.620 207.178  0.00  0.00     0.274 HD
ATOM     49  H27 LYS d   1     -28.728  91.097 206.657  0.00  0.00     0.274 HD
ATOM     50  H28 LYS d   1     -30.292  91.558 206.879  0.00  0.00     0.274 HD
ENDBRANCH  44  47
ENDBRANCH  41  44
ENDBRANCH  38  41
ENDBRANCH  35  38
ENDBRANCH   7  35
ENDBRANCH   4   7
ENDBRANCH   1   3
BRANCH   1  51
ATOM     51  C   ARG d   1     -32.564  85.464 201.791  0.00  0.00     0.241 C 
ATOM     52  O   ARG d   1     -31.831  84.836 202.550  0.00  0.00    -0.271 OA
ATOM     53  N   LYS d   1     -33.890  85.398 201.858  0.00  0.00    -0.346 N 
ATOM     54  H42 LYS d   1     -34.446  85.940 201.228  0.00  0.00     0.163 HD
BRANCH  53  55
ATOM     55  CA  LYS d   1     -34.539  84.544 202.841  0.00  0.00     0.089 C 
ATOM     56  H43 LYS d   1     -33.958  84.583 203.774  0.00  0.00     0.087 H 
BRANCH  55  57
ATOM     57  C   LYS d   1     -34.556  83.100 202.350  0.00  0.00     0.241 C 
ATOM     58  O   LYS d   1     -34.285  82.834 201.178  0.00  0.00    -0.271 OA
ATOM     59  N   VAL d   1     -34.836  82.166 203.254  0.00  0.00    -0.344 N 
ATOM     60  H55 VAL d   1     -34.995  82.436 204.204  0.00  0.00     0.163 HD
BRANCH  59  61
ATOM     61  CA  VAL d   1     -34.917  80.754 202.889  0.00  0.00     0.099 C 
ATOM     62  H56 VAL d   1     -33.915  80.431 202.570  0.00  0.00     0.090 H 
BRANCH  61  63
ATOM     63  C   VAL d   1     -35.890  80.520 201.731  0.00  0.00     0.197 C 
ATOM     64  O   VAL d   1     -35.512  79.933 200.711  0.00  0.00    -0.646 OA
ATOM     65  OXT VAL d   1     -37.058  80.917 201.811  0.00  0.00    -0.646 OA
ENDBRANCH  61  63
BRANCH  61  66
ATOM     66  CB  VAL d   1     -35.351  79.882 204.090  0.00  0.00    -0.032 C 
ATOM     67  H57 VAL d   1     -36.281  80.297 204.505  0.00  0.00     0.042 H 
BRANCH  66  68
ATOM     68  CG1 VAL d   1     -35.618  78.450 203.638  0.00  0.00    -0.071 C 
ATOM     69  H58 VAL d   1     -35.925  77.844 204.503  0.00  0.00     0.028 H 
ATOM     70  H59 VAL d   1     -34.702  78.027 203.201  0.00  0.00     0.028 H 
ATOM     71  H60 VAL d   1     -36.419  78.447 202.885  0.00  0.00     0.028 H 
ENDBRANCH  66  68
BRANCH  66  72
ATOM     72  CG2 VAL d   1     -34.295  79.902 205.168  0.00  0.00    -0.071 C 
ATOM     73  H61 VAL d   1     -34.113  80.940 205.484  0.00  0.00     0.028 H 
ATOM     74  H62 VAL d   1     -33.363  79.469 204.776  0.00  0.00     0.028 H 
ATOM     75  H63 VAL d   1     -34.639  79.312 206.030  0.00  0.00     0.028 H 
ENDBRANCH  66  72
ENDBRANCH  61  66
ENDBRANCH  59  61
ENDBRANCH  55  57
BRANCH  55  76
ATOM     76  CB  LYS d   1     -35.958  85.057 203.137  0.00  0.00    -0.038 C 
ATOM     77  H44 LYS d   1     -36.515  84.276 203.676  0.00  0.00     0.036 H 
ATOM     78  H45 LYS d   1     -36.464  85.278 202.186  0.00  0.00     0.036 H 
BRANCH  76  79
ATOM     79  CG  LYS d   1     -35.929  86.320 203.987  0.00  0.00    -0.061 C 
ATOM     80  H46 LYS d   1     -35.319  87.073 203.467  0.00  0.00     0.033 H 
ATOM     81  H47 LYS d   1     -35.464  86.076 204.954  0.00  0.00     0.033 H 
BRANCH  79  82
ATOM     82  CD  LYS d   1     -37.279  86.909 204.250  0.00  0.00    -0.043 C 
ATOM     83  H48 LYS d   1     -37.877  86.197 204.837  0.00  0.00     0.035 H 
ATOM     84  H49 LYS d   1     -37.781  87.107 203.292  0.00  0.00     0.035 H 
BRANCH  82  85
ATOM     85  CE  LYS d   1     -37.147  88.213 205.026  0.00  0.00     0.080 C 
ATOM     86  H50 LYS d   1     -38.092  88.772 204.951  0.00  0.00     0.075 H 
ATOM     87  H51 LYS d   1     -36.332  88.809 204.589  0.00  0.00     0.075 H 
BRANCH  85  88
ATOM     88  NZ  LYS d   1     -36.846  87.961 206.464  0.00  0.00    -0.079 N 
ATOM     89  H52 LYS d   1     -36.765  88.841 206.949  0.00  0.00     0.274 HD
ATOM     90  H53 LYS d   1     -35.979  87.453 206.542  0.00  0.00     0.274 HD
ATOM     91  H54 LYS d   1     -37.591  87.419 206.873  0.00  0.00     0.274 HD
ENDBRANCH  85  88
ENDBRANCH  82  85
ENDBRANCH  79  82
ENDBRANCH  76  79
ENDBRANCH  55  76
ENDBRANCH  53  55
ENDBRANCH   1  51
BRANCH   1  92
ATOM     92  CB  ARG d   1     -30.916  85.545 199.940  0.00  0.00    -0.036 C 
ATOM     93  H31 ARG d   1     -31.308  84.530 199.779  0.00  0.00     0.036 H 
ATOM     94  H32 ARG d   1     -30.013  85.494 200.566  0.00  0.00     0.036 H 
BRANCH  92  95
ATOM     95  CG  ARG d   1     -30.518  86.111 198.592  0.00  0.00    -0.048 C 
ATOM     96  H33 ARG d   1     -30.120  87.128 198.728  0.00  0.00     0.035 H 
ATOM     97  H34 ARG d   1     -31.402  86.147 197.938  0.00  0.00     0.035 H 
BRANCH  95  98
ATOM     98  CD  ARG d   1     -29.448  85.233 197.946  0.00  0.00     0.009 C 
ATOM     99  H35 ARG d   1     -29.099  85.719 197.023  0.00  0.00     0.064 H 
ATOM    100  H36 ARG d   1     -29.890  84.255 197.702  0.00  0.00     0.064 H 
BRANCH  98 101
ATOM    101  NE  ARG d   1     -28.303  85.027 198.834  0.00  0.00    -0.227 N 
ATOM    102  CZ  ARG d   1     -27.719  83.852 199.049  0.00  0.00     0.665 C 
ATOM    103  NH1 ARG d   1     -28.156  82.762 198.431  0.00  0.00    -0.235 N 
ATOM    104  NH2 ARG d   1     -26.688  83.766 199.877  0.00  0.00    -0.235 N 
ATOM    105  H38 ARG d   1     -27.699  81.855 198.602  0.00  0.00     0.174 HD
ATOM    106  H39 ARG d   1     -28.952  82.823 197.780  0.00  0.00     0.174 HD
ATOM    107  H40 ARG d   1     -26.344  84.608 200.360  0.00  0.00     0.174 HD
ATOM    108  H41 ARG d   1     -26.231  82.857 200.038  0.00  0.00     0.174 HD
ATOM    109  H37 ARG d   1     -27.924  85.849 199.326  0.00  0.00     0.177 HD
ENDBRANCH  98 101
ENDBRANCH  95  98
ENDBRANCH  92  95
ENDBRANCH   1  92
TORSDOF 32
