REMARK WARNING: 32 MAX_TORS EXCEEDED!!!
REMARK  50 active torsions:
REMARK  status: ('A' for Active; 'I' for Inactive)
REMARK    1  A    between atoms: N_1  and  CA_2 
REMARK    2  A    between atoms: CA_2  and  C_3 
REMARK    3  A    between atoms: CA_2  and  CB_5 
REMARK       I    between atoms: C_3  and  N_8 
REMARK    4  A    between atoms: CB_5  and  OG1_6 
REMARK    5  A    between atoms: CB_5  and  CG2_7 
REMARK    6  A    between atoms: N_8  and  CA_9 
REMARK    7  A    between atoms: CA_9  and  C_10 
REMARK    8  A    between atoms: CA_9  and  CB_12 
REMARK       I    between atoms: C_10  and  N_14 
REMARK    9  A    between atoms: CB_12  and  OG_13 
REMARK   10  A    between atoms: N_14  and  CA_15 
REMARK   11  A    between atoms: CA_15  and  C_16 
REMARK   12  A    between atoms: CA_15  and  CB_18 
REMARK       I    between atoms: C_16  and  N_25 
REMARK   13  A    between atoms: CB_18  and  CG_19 
REMARK   14  A    between atoms: N_25  and  CA_26 
REMARK   15  A    between atoms: CA_26  and  C_27 
REMARK   16  A    between atoms: CA_26  and  CB_29 
REMARK       I    between atoms: C_27  and  N_30 
REMARK   17  A    between atoms: N_30  and  CA_31 
REMARK   18  A    between atoms: CA_31  and  C_32 
REMARK   19  A    between atoms: CA_31  and  CB_34 
REMARK       I    between atoms: C_32  and  N_39 
REMARK   20  A    between atoms: CB_34  and  CG_35 
REMARK   21  A    between atoms: CG_35  and  CD_36 
REMARK   22  A    between atoms: N_39  and  CA_40 
REMARK   23  A    between atoms: CA_40  and  C_41 
REMARK   24  A    between atoms: CA_40  and  CB_43 
REMARK       I    between atoms: C_41  and  N_51 
REMARK   25  A    between atoms: CB_43  and  CG_44 
REMARK   26  A    between atoms: CZ_49  and  OH_50 
REMARK   27  A    between atoms: N_51  and  CA_52 
REMARK   28  A    between atoms: CA_52  and  C_53 
REMARK   29  A    between atoms: CA_52  and  CB_55 
REMARK       I    between atoms: C_53  and  N_65 
REMARK   30  A    between atoms: CB_55  and  CG_56 
REMARK   31  A    between atoms: N_65  and  CA_66 
REMARK   32  A    between atoms: CA_66  and  C_67 
REMARK   33  A    between atoms: CA_66  and  CB_69 
REMARK       I    between atoms: C_67  and  N_73 
REMARK   34  A    between atoms: CB_69  and  CG_70 
REMARK       I    between atoms: CG_70  and  ND2_72 
REMARK   35  A    between atoms: N_73  and  CA_74 
REMARK   36  A    between atoms: CA_74  and  C_75 
REMARK   37  A    between atoms: CA_74  and  CB_77 
REMARK       I    between atoms: C_75  and  N_81 
REMARK   38  A    between atoms: CB_77  and  CG_78 
REMARK   39  A    between atoms: CG_78  and  CD1_79 
REMARK   40  A    between atoms: CG_78  and  CD2_80 
REMARK   41  A    between atoms: N_81  and  CA_82 
REMARK   42  A    between atoms: CA_82  and  C_83 
REMARK   43  A    between atoms: CA_82  and  CB_85 
REMARK       I    between atoms: C_83  and  N_89 
REMARK   44  A    between atoms: CB_85  and  CG_86 
REMARK   45  A    between atoms: CG_86  and  CD1_87 
REMARK   46  A    between atoms: CG_86  and  CD2_88 
REMARK   47  A    between atoms: N_89  and  CA_90 
REMARK   48  A    between atoms: CA_90  and  C_91 
REMARK   49  A    between atoms: CA_90  and  CB_93 
REMARK   50  A    between atoms: CB_93  and  OG_94 
ROOT
ATOM      1  CA  TYR d   1      25.794  13.216   7.315  0.00  0.00     0.093 C 
ATOM      2  H36 TYR d   1      26.708  12.866   6.814  0.00  0.00     0.088 H 
ENDROOT
BRANCH   1   3
ATOM      3  N   TYR d   1      26.204  13.998   8.455  0.00  0.00    -0.346 N 
ATOM      4  C   GLU d   1      26.921  15.133   8.253  0.00  0.00     0.241 C 
ATOM      5  O   GLU d   1      27.212  15.502   7.089  0.00  0.00    -0.271 OA
ATOM      6  H35 TYR d   1      25.964  13.708   9.381  0.00  0.00     0.163 HD
BRANCH   4   7
ATOM      7  CA  GLU d   1      27.238  15.985   9.447  0.00  0.00     0.090 C 
ATOM      8  H30 GLU d   1      27.564  16.965   9.068  0.00  0.00     0.087 H 
BRANCH   7   9
ATOM      9  N   GLU d   1      26.095  16.210  10.322  0.00  0.00    -0.346 N 
ATOM     10  C   ALA d   1      25.058  16.901   9.897  0.00  0.00     0.240 C 
ATOM     11  O   ALA d   1      25.012  17.454   8.805  0.00  0.00    -0.271 OA
ATOM     12  H29 GLU d   1      26.098  15.838  11.250  0.00  0.00     0.163 HD
BRANCH  10  13
ATOM     13  CA  ALA d   1      23.876  16.957  10.858  0.00  0.00     0.086 C 
ATOM     14  H25 ALA d   1      22.976  17.186  10.268  0.00  0.00     0.086 H 
BRANCH  13  15
ATOM     15  N   ALA d   1      23.643  15.690  11.540  0.00  0.00    -0.346 N 
ATOM     16  C   PHE d   1      23.403  14.607  10.838  0.00  0.00     0.241 C 
ATOM     17  O   PHE d   1      23.337  14.610   9.628  0.00  0.00    -0.271 OA
ATOM     18  H24 ALA d   1      23.666  15.646  12.539  0.00  0.00     0.163 HD
BRANCH  16  19
ATOM     19  CA  PHE d   1      23.129  13.309  11.649  0.00  0.00     0.093 C 
ATOM     20  H16 PHE d   1      23.173  12.451  10.962  0.00  0.00     0.088 H 
BRANCH  19  21
ATOM     21  N   PHE d   1      24.103  13.117  12.658  0.00  0.00    -0.346 N 
ATOM     22  C   SER d   1      25.406  13.152  12.357  0.00  0.00     0.243 C 
ATOM     23  O   SER d   1      25.823  13.313  11.217  0.00  0.00    -0.271 OA
ATOM     24  H15 PHE d   1      23.815  12.954  13.602  0.00  0.00     0.163 HD
BRANCH  22  25
ATOM     25  CA  SER d   1      26.342  12.972  13.483  0.00  0.00     0.109 C 
ATOM     26  H11 SER d   1      25.965  12.166  14.129  0.00  0.00     0.090 H 
BRANCH  25  27
ATOM     27  N   SER d   1      27.718  12.584  12.960  0.00  0.00    -0.344 N 
ATOM     28  C   THR d   1      28.049  11.336  12.787  0.00  0.00     0.251 C 
ATOM     29  O   THR d   1      27.317  10.381  13.039  0.00  0.00    -0.271 OA
ATOM     30  H10 SER d   1      28.381  13.301  12.745  0.00  0.00     0.163 HD
BRANCH  28  31
ATOM     31  CA  THR d   1      29.484  11.103  12.350  0.00  0.00     0.199 C 
ATOM     32  H4  THR d   1      30.024  12.057  12.436  0.00  0.00     0.103 H 
BRANCH  31  33
ATOM     33  N   THR d   1      30.163  10.101  13.238  0.00  0.00    -0.064 N 
ATOM     34  H1  THR d   1      30.113  10.412  14.195  0.00  0.00     0.275 HD
ATOM     35  H2  THR d   1      31.129  10.009  12.964  0.00  0.00     0.275 HD
ATOM     36  H3  THR d   1      29.703   9.209  13.151  0.00  0.00     0.275 HD
ENDBRANCH  31  33
BRANCH  31  37
ATOM     37  CB  THR d   1      29.546  10.650  10.881  0.00  0.00     0.068 C 
ATOM     38  H5  THR d   1      28.883   9.783  10.748  0.00  0.00     0.086 H 
BRANCH  37  39
ATOM     39  OG1 THR d   1      30.913  10.268  10.551  0.00  0.00    -0.393 OA
ATOM     40  H6  THR d   1      31.186   9.555  11.116  0.00  0.00     0.210 HD
ENDBRANCH  37  39
BRANCH  37  41
ATOM     41  CG2 THR d   1      29.108  11.747   9.950  0.00  0.00    -0.050 C 
ATOM     42  H7  THR d   1      29.164  11.390   8.911  0.00  0.00     0.031 H 
ATOM     43  H8  THR d   1      29.767  12.619  10.075  0.00  0.00     0.031 H 
ATOM     44  H9  THR d   1      28.072  12.034  10.183  0.00  0.00     0.031 H 
ENDBRANCH  37  41
ENDBRANCH  31  37
ENDBRANCH  28  31
ENDBRANCH  25  27
BRANCH  25  45
ATOM     45  CB  SER d   1      26.452  14.252  14.308  0.00  0.00     0.044 C 
ATOM     46  H12 SER d   1      27.257  14.144  15.050  0.00  0.00     0.077 H 
ATOM     47  H13 SER d   1      25.500  14.439  14.825  0.00  0.00     0.077 H 
BRANCH  45  48
ATOM     48  OG  SER d   1      26.742  15.329  13.453  0.00  0.00    -0.398 OA
ATOM     49  H14 SER d   1      27.564  15.165  13.007  0.00  0.00     0.209 HD
ENDBRANCH  45  48
ENDBRANCH  25  45
ENDBRANCH  22  25
ENDBRANCH  19  21
BRANCH  19  50
ATOM     50  CB  PHE d   1      21.692  13.385  12.260  0.00  0.00    -0.014 C 
ATOM     51  H17 PHE d   1      21.692  14.094  13.101  0.00  0.00     0.043 H 
ATOM     52  H18 PHE d   1      21.397  12.389  12.621  0.00  0.00     0.043 H 
BRANCH  50  53
ATOM     53  CG  PHE d   1      20.704  13.850  11.213  0.00  0.00    -0.056 A 
ATOM     54  CD1 PHE d   1      20.299  13.012  10.208  0.00  0.00    -0.077 A 
ATOM     55  CE1 PHE d   1      19.453  13.446   9.181  0.00  0.00    -0.082 A 
ATOM     56  H19 PHE d   1      20.643  11.984  10.208  0.00  0.00     0.084 H 
ATOM     57  CZ  PHE d   1      19.112  14.766   9.078  0.00  0.00    -0.083 A 
ATOM     58  H21 PHE d   1      19.066  12.732   8.463  0.00  0.00     0.083 H 
ATOM     59  CE2 PHE d   1      19.506  15.628  10.040  0.00  0.00    -0.082 A 
ATOM     60  H23 PHE d   1      18.531  15.117   8.233  0.00  0.00     0.083 H 
ATOM     61  CD2 PHE d   1      20.362  15.204  11.094  0.00  0.00    -0.077 A 
ATOM     62  H22 PHE d   1      19.165  16.657  10.009  0.00  0.00     0.083 H 
ATOM     63  H20 PHE d   1      20.749  15.926  11.803  0.00  0.00     0.084 H 
ENDBRANCH  50  53
ENDBRANCH  19  50
ENDBRANCH  16  19
ENDBRANCH  13  15
BRANCH  13  64
ATOM     64  CB  ALA d   1      24.075  18.058  11.844  0.00  0.00    -0.049 C 
ATOM     65  H26 ALA d   1      24.249  19.003  11.308  0.00  0.00     0.030 H 
ATOM     66  H27 ALA d   1      24.945  17.830  12.477  0.00  0.00     0.030 H 
ATOM     67  H28 ALA d   1      23.178  18.153  12.473  0.00  0.00     0.030 H 
ENDBRANCH  13  64
ENDBRANCH  10  13
ENDBRANCH   7   9
BRANCH   7  68
ATOM     68  CB  GLU d   1      28.411  15.376  10.288  0.00  0.00    -0.029 C 
ATOM     69  H31 GLU d   1      29.232  15.105   9.608  0.00  0.00     0.037 H 
ATOM     70  H32 GLU d   1      28.048  14.474  10.802  0.00  0.00     0.037 H 
BRANCH  68  71
ATOM     71  CG  GLU d   1      28.938  16.355  11.328  0.00  0.00     0.018 C 
ATOM     72  H33 GLU d   1      28.077  16.828  11.822  0.00  0.00     0.049 H 
ATOM     73  H34 GLU d   1      29.529  17.123  10.808  0.00  0.00     0.049 H 
BRANCH  71  74
ATOM     74  CD  GLU d   1      29.807  15.731  12.391  0.00  0.00     0.172 C 
ATOM     75  OE1 GLU d   1      29.922  14.468  12.485  0.00  0.00    -0.648 OA
ATOM     76  OE2 GLU d   1      30.362  16.555  13.226  0.00  0.00    -0.648 OA
ENDBRANCH  71  74
ENDBRANCH  68  71
ENDBRANCH   7  68
ENDBRANCH   4   7
ENDBRANCH   1   3
BRANCH   1  77
ATOM     77  C   TYR d   1      24.958  14.011   6.298  0.00  0.00     0.241 C 
ATOM     78  O   TYR d   1      25.070  13.809   5.075  0.00  0.00    -0.271 OA
ATOM     79  N   TRP d   1      24.080  14.859   6.798  0.00  0.00    -0.346 N 
ATOM     80  H44 TRP d   1      24.056  15.013   7.786  0.00  0.00     0.163 HD
BRANCH  79  81
ATOM     81  CA  TRP d   1      23.147  15.574   5.946  0.00  0.00     0.093 C 
ATOM     82  H45 TRP d   1      22.593  14.849   5.332  0.00  0.00     0.088 H 
BRANCH  81  83
ATOM     83  C   TRP d   1      23.964  16.539   5.014  0.00  0.00     0.241 C 
ATOM     84  O   TRP d   1      23.532  16.799   3.889  0.00  0.00    -0.271 OA
ATOM     85  N   ASN d   1      25.146  16.977   5.489  0.00  0.00    -0.346 N 
ATOM     86  H54 ASN d   1      25.440  16.724   6.411  0.00  0.00     0.163 HD
BRANCH  85  87
ATOM     87  CA  ASN d   1      26.004  17.828   4.651  0.00  0.00     0.097 C 
ATOM     88  H55 ASN d   1      25.376  18.650   4.277  0.00  0.00     0.088 H 
BRANCH  87  89
ATOM     89  C   ASN d   1      26.528  17.077   3.403  0.00  0.00     0.241 C 
ATOM     90  O   ASN d   1      26.959  17.717   2.454  0.00  0.00    -0.271 OA
ATOM     91  N   LEU d   1      26.406  15.744   3.354  0.00  0.00    -0.346 N 
ATOM     92  H60 LEU d   1      26.052  15.246   4.145  0.00  0.00     0.163 HD
BRANCH  91  93
ATOM     93  CA  LEU d   1      26.793  15.010   2.135  0.00  0.00     0.089 C 
ATOM     94  H61 LEU d   1      27.783  15.373   1.823  0.00  0.00     0.087 H 
BRANCH  93  95
ATOM     95  C   LEU d   1      25.824  15.263   1.010  0.00  0.00     0.241 C 
ATOM     96  O   LEU d   1      26.181  15.064  -0.143  0.00  0.00    -0.271 OA
ATOM     97  N   LEU d   1      24.595  15.667   1.325  0.00  0.00    -0.346 N 
ATOM     98  H71 LEU d   1      24.387  15.903   2.274  0.00  0.00     0.163 HD
BRANCH  97  99
ATOM     99  CA  LEU d   1      23.542  15.774   0.316  0.00  0.00     0.089 C 
ATOM    100  H72 LEU d   1      23.655  14.952  -0.406  0.00  0.00     0.087 H 
BRANCH  99 101
ATOM    101  C   LEU d   1      23.721  17.123  -0.428  0.00  0.00     0.241 C 
ATOM    102  O   LEU d   1      23.688  18.202   0.176  0.00  0.00    -0.271 OA
ATOM    103  N   SER d   1      23.999  17.011  -1.722  0.00  0.00    -0.343 N 
ATOM    104  H82 SER d   1      24.072  16.092  -2.110  0.00  0.00     0.163 HD
BRANCH 103 105
ATOM    105  CA  SER d   1      24.206  18.161  -2.619  0.00  0.00     0.116 C 
ATOM    106  H83 SER d   1      23.596  19.004  -2.262  0.00  0.00     0.093 H 
BRANCH 105 107
ATOM    107  C   SER d   1      23.754  17.779  -4.032  0.00  0.00     0.198 C 
ATOM    108  O   SER d   1      23.637  16.591  -4.364  0.00  0.00    -0.646 OA
ATOM    109  OXT SER d   1      23.495  18.649  -4.875  0.00  0.00    -0.646 OA
ENDBRANCH 105 107
BRANCH 105 110
ATOM    110  CB  SER d   1      25.677  18.596  -2.639  0.00  0.00     0.045 C 
ATOM    111  H84 SER d   1      25.889  19.111  -3.588  0.00  0.00     0.077 H 
ATOM    112  H85 SER d   1      26.318  17.706  -2.554  0.00  0.00     0.077 H 
BRANCH 110 113
ATOM    113  OG  SER d   1      25.954  19.473  -1.563  0.00  0.00    -0.398 OA
ATOM    114  H86 SER d   1      25.775  19.031  -0.742  0.00  0.00     0.209 HD
ENDBRANCH 110 113
ENDBRANCH 105 110
ENDBRANCH 103 105
ENDBRANCH  99 101
BRANCH  99 115
ATOM    115  CB  LEU d   1      22.151  15.667   0.953  0.00  0.00    -0.035 C 
ATOM    116  H73 LEU d   1      21.393  15.923   0.199  0.00  0.00     0.037 H 
ATOM    117  H74 LEU d   1      22.088  16.376   1.792  0.00  0.00     0.037 H 
BRANCH 115 118
ATOM    118  CG  LEU d   1      21.875  14.259   1.473  0.00  0.00    -0.059 C 
ATOM    119  H75 LEU d   1      22.606  14.049   2.268  0.00  0.00     0.038 H 
BRANCH 118 120
ATOM    120  CD1 LEU d   1      20.488  14.112   2.076  0.00  0.00    -0.073 C 
ATOM    121  H76 LEU d   1      20.350  13.080   2.431  0.00  0.00     0.028 H 
ATOM    122  H77 LEU d   1      19.730  14.341   1.313  0.00  0.00     0.028 H 
ATOM    123  H78 LEU d   1      20.380  14.808   2.921  0.00  0.00     0.028 H 
ENDBRANCH 118 120
BRANCH 118 124
ATOM    124  CD2 LEU d   1      22.078  13.246   0.369  0.00  0.00    -0.073 C 
ATOM    125  H79 LEU d   1      23.085  13.365  -0.057  0.00  0.00     0.028 H 
ATOM    126  H80 LEU d   1      21.326  13.405  -0.418  0.00  0.00     0.028 H 
ATOM    127  H81 LEU d   1      21.971  12.231   0.779  0.00  0.00     0.028 H 
ENDBRANCH 118 124
ENDBRANCH 115 118
ENDBRANCH  99 115
ENDBRANCH  97  99
ENDBRANCH  93  95
BRANCH  93 128
ATOM    128  CB  LEU d   1      26.899  13.496   2.401  0.00  0.00    -0.035 C 
ATOM    129  H62 LEU d   1      27.115  13.003   1.442  0.00  0.00     0.037 H 
ATOM    130  H63 LEU d   1      25.924  13.154   2.777  0.00  0.00     0.037 H 
BRANCH 128 131
ATOM    131  CG  LEU d   1      27.960  13.053   3.398  0.00  0.00    -0.059 C 
ATOM    132  H64 LEU d   1      27.888  13.683   4.297  0.00  0.00     0.038 H 
BRANCH 131 133
ATOM    133  CD1 LEU d   1      27.689  11.615   3.814  0.00  0.00    -0.073 C 
ATOM    134  H65 LEU d   1      28.454  11.291   4.535  0.00  0.00     0.028 H 
ATOM    135  H66 LEU d   1      27.722  10.964   2.928  0.00  0.00     0.028 H 
ATOM    136  H67 LEU d   1      26.695  11.549   4.280  0.00  0.00     0.028 H 
ENDBRANCH 131 133
BRANCH 131 137
ATOM    137  CD2 LEU d   1      29.312  13.264   2.795  0.00  0.00    -0.073 C 
ATOM    138  H68 LEU d   1      29.430  14.323   2.522  0.00  0.00     0.028 H 
ATOM    139  H69 LEU d   1      29.413  12.640   1.895  0.00  0.00     0.028 H 
ATOM    140  H70 LEU d   1      30.087  12.984   3.524  0.00  0.00     0.028 H 
ENDBRANCH 131 137
ENDBRANCH 128 131
ENDBRANCH  93 128
ENDBRANCH  91  93
ENDBRANCH  87  89
BRANCH  87 141
ATOM    141  CB  ASN d   1      27.102  18.464   5.492  0.00  0.00     0.036 C 
ATOM    142  H56 ASN d   1      27.862  18.890   4.821  0.00  0.00     0.051 H 
ATOM    143  H57 ASN d   1      27.562  17.688   6.122  0.00  0.00     0.051 H 
BRANCH 141 144
ATOM    144  CG  ASN d   1      26.561  19.575   6.393  0.00  0.00     0.217 C 
ATOM    145  OD1 ASN d   1      25.582  20.244   6.058  0.00  0.00    -0.274 OA
ATOM    146  ND2 ASN d   1      27.158  19.743   7.528  0.00  0.00    -0.370 N 
ATOM    147  H58 ASN d   1      26.846  20.455   8.157  0.00  0.00     0.159 HD
ATOM    148  H59 ASN d   1      27.932  19.161   7.777  0.00  0.00     0.159 HD
ENDBRANCH 141 144
ENDBRANCH  87 141
ENDBRANCH  85  87
ENDBRANCH  81  83
BRANCH  81 149
ATOM    149  CB  TRP d   1      22.136  16.408   6.773  0.00  0.00    -0.012 C 
ATOM    150  H46 TRP d   1      22.664  17.266   7.214  0.00  0.00     0.044 H 
ATOM    151  H47 TRP d   1      21.730  15.775   7.576  0.00  0.00     0.044 H 
BRANCH 149 152
ATOM    152  CG  TRP d   1      20.977  16.929   5.928  0.00  0.00    -0.028 A 
ATOM    153  CD1 TRP d   1      20.781  18.167   5.425  0.00  0.00    -0.015 A 
ATOM    154  NE1 TRP d   1      19.630  18.200   4.686  0.00  0.00    -0.365 N 
ATOM    155  H48 TRP d   1      21.444  19.016   5.585  0.00  0.00     0.112 H 
ATOM    156  CE2 TRP d   1      19.057  16.962   4.679  0.00  0.00     0.042 A 
ATOM    157  H49 TRP d   1      19.254  19.032   4.208  0.00  0.00     0.165 HD
ATOM    158  CD2 TRP d   1      19.892  16.131   5.429  0.00  0.00    -0.002 A 
ATOM    159  CZ2 TRP d   1      17.908  16.512   4.092  0.00  0.00    -0.056 A 
ATOM    160  CE3 TRP d   1      19.529  14.820   5.614  0.00  0.00    -0.070 A 
ATOM    161  CZ3 TRP d   1      18.392  14.365   5.029  0.00  0.00    -0.082 A 
ATOM    162  H50 TRP d   1      20.140  14.159   6.218  0.00  0.00     0.084 H 
ATOM    163  CH2 TRP d   1      17.582  15.187   4.301  0.00  0.00    -0.081 A 
ATOM    164  H52 TRP d   1      18.120  13.322   5.143  0.00  0.00     0.083 H 
ATOM    165  H53 TRP d   1      16.665  14.792   3.879  0.00  0.00     0.083 H 
ATOM    166  H51 TRP d   1      17.283  17.163   3.492  0.00  0.00     0.086 H 
ENDBRANCH 149 152
ENDBRANCH  81 149
ENDBRANCH  79  81
ENDBRANCH   1  77
BRANCH   1 167
ATOM    167  CB  TYR d   1      24.956  11.993   7.715  0.00  0.00    -0.014 C 
ATOM    168  H37 TYR d   1      24.398  11.670   6.824  0.00  0.00     0.043 H 
ATOM    169  H38 TYR d   1      24.249  12.318   8.492  0.00  0.00     0.043 H 
BRANCH 167 170
ATOM    170  CG  TYR d   1      25.675  10.817   8.236  0.00  0.00    -0.056 A 
ATOM    171  CD1 TYR d   1      26.458  10.055   7.389  0.00  0.00    -0.074 A 
ATOM    172  CE1 TYR d   1      27.102   8.936   7.848  0.00  0.00    -0.051 A 
ATOM    173  H39 TYR d   1      26.564  10.346   6.350  0.00  0.00     0.084 H 
ATOM    174  CZ  TYR d   1      27.031   8.582   9.131  0.00  0.00     0.065 A 
ATOM    175  H41 TYR d   1      27.677   8.330   7.158  0.00  0.00     0.087 H 
ATOM    176  CE2 TYR d   1      26.229   9.299  10.041  0.00  0.00    -0.051 A 
ATOM    177  CD2 TYR d   1      25.566  10.430   9.576  0.00  0.00    -0.074 A 
ATOM    178  H42 TYR d   1      26.132   8.979  11.072  0.00  0.00     0.087 H 
ATOM    179  H40 TYR d   1      24.960  11.016  10.257  0.00  0.00     0.084 H 
BRANCH 174 180
ATOM    180  OH  TYR d   1      27.680   7.434   9.610  0.00  0.00    -0.361 OA
ATOM    181  H43 TYR d   1      27.033   6.812   9.921  0.00  0.00     0.217 HD
ENDBRANCH 174 180
ENDBRANCH 167 170
ENDBRANCH   1 167
TORSDOF 50
