REMARK  18 active torsions:
REMARK  status: ('A' for Active; 'I' for Inactive)
REMARK       I    between atoms: C2_1  and  N3_16 
REMARK    1  A    between atoms: C7_20  and  C2_1 
REMARK    2  A    between atoms: O24_28  and  C13_2 
REMARK    3  A    between atoms: C16_3  and  O28_29 
REMARK    4  A    between atoms: N3_16  and  C18_5 
REMARK    5  A    between atoms: C18_5  and  C33_33 
REMARK    6  A    between atoms: C18_5  and  C34_34 
REMARK    7  A    between atoms: C27_13  and  C35_35 
REMARK    8  A    between atoms: C31_31  and  C29_14 
REMARK    9  A    between atoms: C29_14  and  C32_32 
REMARK   10  A    between atoms: N4_17  and  S1_15 
REMARK   11  A    between atoms: S1_15  and  C9_22 
REMARK   12  A    between atoms: N3_16  and  C5_18 
REMARK   13  A    between atoms: C8_21  and  N4_17 
REMARK   14  A    between atoms: C5_18  and  C6_19 
REMARK   15  A    between atoms: O24_28  and  C31_31 
REMARK   16  A    between atoms: O28_29  and  C36_36 
REMARK   17  A    between atoms: C32_32  and  O30_30 
REMARK   18  A    between atoms: O30_30  and  C37_37 
ROOT
ATOM      1  C2  3ZK d   1      70.509   8.985  47.885  0.00  0.00     0.254 C 
ATOM      2  N3  3ZK d   1      69.151   8.889  47.721  0.00  0.00    -0.344 N 
ATOM      3  O15 3ZK d   1      71.280   8.073  47.611  0.00  0.00    -0.267 OA
ENDROOT
BRANCH   2   4
ATOM      4  C18 3ZK d   1      68.255   9.988  48.170  0.00  0.00     0.008 C 
ATOM      5  H2  3ZK d   1      68.951  10.824  48.336  0.00  0.00     0.071 H 
BRANCH   4   6
ATOM      6  C33 3ZK d   1      67.198  10.626  47.222  0.00  0.00    -0.057 C 
ATOM      7  H26 3ZK d   1      66.651  11.414  47.760  0.00  0.00     0.030 H 
ATOM      8  H27 3ZK d   1      66.491   9.852  46.888  0.00  0.00     0.030 H 
ATOM      9  H28 3ZK d   1      67.705  11.062  46.349  0.00  0.00     0.030 H 
ENDBRANCH   4   6
BRANCH   4  10
ATOM     10  C34 3ZK d   1      67.710   9.644  49.585  0.00  0.00    -0.057 C 
ATOM     11  H29 3ZK d   1      67.045  10.451  49.928  0.00  0.00     0.030 H 
ATOM     12  H30 3ZK d   1      68.551   9.539  50.286  0.00  0.00     0.030 H 
ATOM     13  H31 3ZK d   1      67.148   8.699  49.542  0.00  0.00     0.030 H 
ENDBRANCH   4  10
ENDBRANCH   2   4
BRANCH   2  14
ATOM     14  C5  3ZK d   1      68.564   7.589  47.294  0.00  0.00     0.005 C 
ATOM     15  H15 3ZK d   1      67.470   7.669  47.380  0.00  0.00     0.065 H 
ATOM     16  H16 3ZK d   1      68.930   6.812  47.981  0.00  0.00     0.065 H 
BRANCH  14  17
ATOM     17  C6  3ZK d   1      68.896   7.136  45.841  0.00  0.00     0.006 C 
ATOM     18  C22 3ZK d   1      68.285   7.986  44.712  0.00  0.00     0.088 C 
ATOM     19  N14 3ZK d   1      67.290   7.140  44.022  0.00  0.00    -0.073 N 
ATOM     20  H6  3ZK d   1      69.070   8.297  44.007  0.00  0.00     0.076 H 
ATOM     21  H7  3ZK d   1      67.796   8.877  45.133  0.00  0.00     0.076 H 
ATOM     22  C23 3ZK d   1      67.002   5.989  44.890  0.00  0.00     0.101 C 
ATOM     23  H20 3ZK d   1      67.662   6.821  43.141  0.00  0.00     0.277 HD
ATOM     24  H21 3ZK d   1      66.446   7.666  43.859  0.00  0.00     0.277 HD
ATOM     25  C8  3ZK d   1      68.385   5.714  45.503  0.00  0.00     0.049 C 
ATOM     26  H8  3ZK d   1      66.263   6.244  45.664  0.00  0.00     0.079 H 
ATOM     27  H9  3ZK d   1      66.642   5.128  44.309  0.00  0.00     0.079 H 
ATOM     28  H18 3ZK d   1      68.279   5.114  46.419  0.00  0.00     0.076 H 
ATOM     29  H17 3ZK d   1      69.992   7.159  45.747  0.00  0.00     0.048 H 
BRANCH  25  30
ATOM     30  N4  3ZK d   1      69.298   5.021  44.604  0.00  0.00    -0.308 N 
ATOM     31  H14 3ZK d   1      69.648   5.519  43.811  0.00  0.00     0.172 HD
BRANCH  30  32
ATOM     32  S1  3ZK d   1      69.781   3.482  44.818  0.00  0.00     0.259 S 
ATOM     33  O11 3ZK d   1      70.811   3.179  43.853  0.00  0.00    -0.201 OA
ATOM     34  O12 3ZK d   1      70.126   3.264  46.191  0.00  0.00    -0.201 OA
BRANCH  32  35
ATOM     35  C9  3ZK d   1      68.307   2.595  44.383  0.00  0.00     0.079 A 
ATOM     36  C20 3ZK d   1      67.662   2.862  43.171  0.00  0.00    -0.060 A 
ATOM     37  C25 3ZK d   1      66.515   2.124  42.815  0.00  0.00    -0.076 A 
ATOM     38  H4  3ZK d   1      68.042   3.632  42.509  0.00  0.00     0.085 H 
ATOM     39  C27 3ZK d   1      66.024   1.107  43.653  0.00  0.00    -0.062 A 
ATOM     40  H10 3ZK d   1      66.005   2.343  41.884  0.00  0.00     0.084 H 
ATOM     41  C26 3ZK d   1      66.690   0.834  44.855  0.00  0.00    -0.076 A 
ATOM     42  C21 3ZK d   1      67.830   1.572  45.220  0.00  0.00    -0.060 A 
ATOM     43  H11 3ZK d   1      66.324   0.049  45.507  0.00  0.00     0.084 H 
ATOM     44  H5  3ZK d   1      68.342   1.351  46.150  0.00  0.00     0.085 H 
BRANCH  39  45
ATOM     45  C35 3ZK d   1      64.772   0.308  43.264  0.00  0.00    -0.051 C 
ATOM     46  H32 3ZK d   1      64.395   0.666  42.294  0.00  0.00     0.033 H 
ATOM     47  H33 3ZK d   1      63.996   0.445  44.032  0.00  0.00     0.033 H 
ATOM     48  H34 3ZK d   1      65.027  -0.759  43.187  0.00  0.00     0.033 H 
ENDBRANCH  39  45
ENDBRANCH  32  35
ENDBRANCH  30  32
ENDBRANCH  25  30
ENDBRANCH  14  17
ENDBRANCH   2  14
BRANCH   1  49
ATOM     49  C7  3ZK d   1      71.275  10.226  48.294  0.00  0.00     0.035 A 
ATOM     50  C17 3ZK d   1      72.066  10.243  49.459  0.00  0.00    -0.065 A 
ATOM     51  C19 3ZK d   1      72.783  11.395  49.808  0.00  0.00    -0.047 A 
ATOM     52  H1  3ZK d   1      72.120   9.362  50.088  0.00  0.00     0.085 H 
ATOM     53  C16 3ZK d   1      72.777  12.518  48.942  0.00  0.00     0.101 A 
ATOM     54  H3  3ZK d   1      73.341  11.428  50.737  0.00  0.00     0.087 H 
ATOM     55  C13 3ZK d   1      72.004  12.486  47.753  0.00  0.00     0.102 A 
ATOM     56  C10 3ZK d   1      71.269  11.323  47.419  0.00  0.00    -0.033 A 
ATOM     57  H19 3ZK d   1      70.706  11.280  46.494  0.00  0.00     0.089 H 
BRANCH  53  58
ATOM     58  O28 3ZK d   1      73.552  13.673  49.190  0.00  0.00    -0.353 OA
BRANCH  58  59
ATOM     59  C36 3ZK d   1      74.291  13.850  50.414  0.00  0.00     0.010 C 
ATOM     60  H35 3ZK d   1      74.817  14.816  50.388  0.00  0.00     0.066 H 
ATOM     61  H36 3ZK d   1      75.023  13.036  50.521  0.00  0.00     0.066 H 
ATOM     62  H37 3ZK d   1      73.597  13.833  51.267  0.00  0.00     0.066 H 
ENDBRANCH  58  59
ENDBRANCH  53  58
BRANCH  55  63
ATOM     63  O24 3ZK d   1      72.072  13.640  46.948  0.00  0.00    -0.348 OA
BRANCH  63  64
ATOM     64  C31 3ZK d   1      71.409  13.818  45.683  0.00  0.00     0.028 C 
ATOM     65  H22 3ZK d   1      72.011  14.490  45.053  0.00  0.00     0.075 H 
ATOM     66  H23 3ZK d   1      71.311  12.841  45.188  0.00  0.00     0.075 H 
BRANCH  64  67
ATOM     67  C29 3ZK d   1      70.003  14.430  45.874  0.00  0.00    -0.025 C 
ATOM     68  H12 3ZK d   1      70.106  15.465  46.232  0.00  0.00     0.039 H 
ATOM     69  H13 3ZK d   1      69.450  13.838  46.618  0.00  0.00     0.039 H 
BRANCH  67  70
ATOM     70  C32 3ZK d   1      69.221  14.430  44.543  0.00  0.00     0.021 C 
ATOM     71  H24 3ZK d   1      68.168  14.683  44.736  0.00  0.00     0.074 H 
ATOM     72  H25 3ZK d   1      69.280  13.433  44.083  0.00  0.00     0.074 H 
BRANCH  70  73
ATOM     73  O30 3ZK d   1      69.792  15.401  43.656  0.00  0.00    -0.396 OA
BRANCH  73  74
ATOM     74  C37 3ZK d   1      69.958  14.908  42.318  0.00  0.00     0.004 C 
ATOM     75  H38 3ZK d   1      70.398  15.696  41.689  0.00  0.00     0.066 H 
ATOM     76  H39 3ZK d   1      68.979  14.618  41.910  0.00  0.00     0.066 H 
ATOM     77  H40 3ZK d   1      70.624  14.033  42.330  0.00  0.00     0.066 H 
ENDBRANCH  73  74
ENDBRANCH  70  73
ENDBRANCH  67  70
ENDBRANCH  64  67
ENDBRANCH  63  64
ENDBRANCH  55  63
ENDBRANCH   1  49
TORSDOF 18
