REMARK  18 active torsions:
REMARK  status: ('A' for Active; 'I' for Inactive)
REMARK       I    between atoms: C1_1  and  N2_19 
REMARK    1  A    between atoms: C6_22  and  C1_1 
REMARK    2  A    between atoms: N2_19  and  C3_2 
REMARK    3  A    between atoms: C3_2  and  C4_20 
REMARK    4  A    between atoms: C11_3  and  C20_10 
REMARK    5  A    between atoms: S35_35  and  C11_3 
REMARK    6  A    between atoms: C13_4  and  O21_29 
REMARK    7  A    between atoms: C15_6  and  C26_14 
REMARK    8  A    between atoms: C15_6  and  C27_15 
REMARK    9  A    between atoms: N2_19  and  C15_6 
REMARK   10  A    between atoms: C24_12  and  C22_11 
REMARK   11  A    between atoms: C22_11  and  C25_13 
REMARK   12  A    between atoms: O19_28  and  C24_12 
REMARK   13  A    between atoms: C25_13  and  O23_30 
REMARK   14  A    between atoms: O21_29  and  C30_18 
REMARK   15  A    between atoms: C7_23  and  N5_21 
REMARK   16  A    between atoms: N5_21  and  S35_35 
REMARK   17  A    between atoms: C9_25  and  O19_28 
REMARK   18  A    between atoms: O23_30  and  C31_31 
ROOT
ATOM      1  C1  3ZJ d   1      44.138 106.584  12.022  0.00  0.00     0.254 C 
ATOM      2  N2  3ZJ d   1      43.986 107.959  12.107  0.00  0.00    -0.344 N 
ATOM      3  O12 3ZJ d   1      43.327 105.831  11.495  0.00  0.00    -0.267 OA
ENDROOT
BRANCH   2   4
ATOM      4  C3  3ZJ d   1      42.752 108.633  11.650  0.00  0.00     0.005 C 
ATOM      5  H1  3ZJ d   1      42.916 109.716  11.751  0.00  0.00     0.065 H 
ATOM      6  H2  3ZJ d   1      41.941 108.320  12.324  0.00  0.00     0.065 H 
BRANCH   4   7
ATOM      7  C4  3ZJ d   1      42.269 108.375  10.201  0.00  0.00     0.006 C 
ATOM      8  C17 3ZJ d   1      43.125 108.926   9.047  0.00  0.00     0.088 C 
ATOM      9  N10 3ZJ d   1      42.249 109.808   8.256  0.00  0.00    -0.073 N 
ATOM     10  H8  3ZJ d   1      43.496 108.100   8.422  0.00  0.00     0.076 H 
ATOM     11  H9  3ZJ d   1      43.977 109.496   9.445  0.00  0.00     0.076 H 
ATOM     12  C18 3ZJ d   1      41.073 110.175   9.055  0.00  0.00     0.101 C 
ATOM     13  H33 3ZJ d   1      41.952 109.326   7.422  0.00  0.00     0.277 HD
ATOM     14  H34 3ZJ d   1      42.755 110.642   8.000  0.00  0.00     0.277 HD
ATOM     15  C7  3ZJ d   1      40.861 108.952   9.954  0.00  0.00     0.049 C 
ATOM     16  H10 3ZJ d   1      41.270 111.076   9.655  0.00  0.00     0.079 H 
ATOM     17  H11 3ZJ d   1      40.198 110.347   8.411  0.00  0.00     0.079 H 
ATOM     18  H31 3ZJ d   1      40.411 109.263  10.908  0.00  0.00     0.076 H 
ATOM     19  H29 3ZJ d   1      42.226 107.282  10.085  0.00  0.00     0.048 H 
BRANCH  15  20
ATOM     20  N5  3ZJ d   1      39.999 107.980   9.333  0.00  0.00    -0.312 N 
ATOM     21  H30 3ZJ d   1      40.135 107.742   8.371  0.00  0.00     0.172 HD
BRANCH  20  22
ATOM     22  S35 3ZJ d   1      38.806 107.264  10.176  0.00  0.00     0.231 S 
ATOM     23  O36 3ZJ d   1      39.353 106.000  10.655  0.00  0.00    -0.206 OA
ATOM     24  O37 3ZJ d   1      38.220 108.183  11.142  0.00  0.00    -0.206 OA
BRANCH  22  25
ATOM     25  C11 3ZJ d   1      37.687 106.964   8.787  0.00  0.00     0.070 C 
ATOM     26  H3  3ZJ d   1      38.261 106.594   7.925  0.00  0.00     0.066 H 
ATOM     27  H4  3ZJ d   1      36.935 106.215   9.075  0.00  0.00     0.066 H 
BRANCH  25  28
ATOM     28  C20 3ZJ d   1      36.988 108.276   8.414  0.00  0.00    -0.043 A 
ATOM     29  C28 3ZJ d   1      35.758 108.637   9.012  0.00  0.00    -0.076 A 
ATOM     30  C32 3ZJ d   1      35.100 109.824   8.645  0.00  0.00    -0.082 A 
ATOM     31  H24 3ZJ d   1      35.317 107.991   9.762  0.00  0.00     0.084 H 
ATOM     32  C34 3ZJ d   1      35.676 110.660   7.676  0.00  0.00    -0.083 A 
ATOM     33  H38 3ZJ d   1      34.156 110.091   9.106  0.00  0.00     0.083 H 
ATOM     34  C33 3ZJ d   1      36.922 110.321   7.104  0.00  0.00    -0.082 A 
ATOM     35  H40 3ZJ d   1      35.165 111.565   7.367  0.00  0.00     0.083 H 
ATOM     36  C29 3ZJ d   1      37.574 109.125   7.458  0.00  0.00    -0.076 A 
ATOM     37  H39 3ZJ d   1      37.381 110.989   6.385  0.00  0.00     0.083 H 
ATOM     38  H25 3ZJ d   1      38.519 108.861   6.998  0.00  0.00     0.084 H 
ENDBRANCH  25  28
ENDBRANCH  22  25
ENDBRANCH  20  22
ENDBRANCH  15  20
ENDBRANCH   4   7
ENDBRANCH   2   4
BRANCH   2  39
ATOM     39  C15 3ZJ d   1      45.018 108.749  12.806  0.00  0.00     0.008 C 
ATOM     40  H6  3ZJ d   1      45.813 108.019  13.018  0.00  0.00     0.071 H 
BRANCH  39  41
ATOM     41  C26 3ZJ d   1      45.732 109.818  11.928  0.00  0.00    -0.057 C 
ATOM     42  H18 3ZJ d   1      46.479 110.351  12.534  0.00  0.00     0.030 H 
ATOM     43  H19 3ZJ d   1      44.990 110.535  11.547  0.00  0.00     0.030 H 
ATOM     44  H20 3ZJ d   1      46.232 109.323  11.082  0.00  0.00     0.030 H 
ENDBRANCH  39  41
BRANCH  39  45
ATOM     45  C27 3ZJ d   1      44.566 109.225  14.212  0.00  0.00    -0.057 C 
ATOM     46  H21 3ZJ d   1      44.077 108.394  14.741  0.00  0.00     0.030 H 
ATOM     47  H22 3ZJ d   1      43.858 110.060  14.106  0.00  0.00     0.030 H 
ATOM     48  H23 3ZJ d   1      45.443 109.559  14.786  0.00  0.00     0.030 H 
ENDBRANCH  39  45
ENDBRANCH   2  39
BRANCH   1  49
ATOM     49  C6  3ZJ d   1      45.362 105.837  12.550  0.00  0.00     0.035 A 
ATOM     50  C14 3ZJ d   1      45.357 105.234  13.820  0.00  0.00    -0.065 A 
ATOM     51  C16 3ZJ d   1      46.504 104.575  14.310  0.00  0.00    -0.047 A 
ATOM     52  H5  3ZJ d   1      44.462 105.276  14.430  0.00  0.00     0.085 H 
ATOM     53  C13 3ZJ d   1      47.671 104.469  13.511  0.00  0.00     0.101 A 
ATOM     54  H7  3ZJ d   1      46.493 104.146  15.306  0.00  0.00     0.087 H 
ATOM     55  C9  3ZJ d   1      47.677 105.081  12.224  0.00  0.00     0.102 A 
ATOM     56  C8  3ZJ d   1      46.513 105.756  11.757  0.00  0.00    -0.033 A 
ATOM     57  H32 3ZJ d   1      46.518 106.213  10.774  0.00  0.00     0.089 H 
BRANCH  53  58
ATOM     58  O21 3ZJ d   1      48.842 103.803  13.965  0.00  0.00    -0.353 OA
BRANCH  58  59
ATOM     59  C30 3ZJ d   1      48.848 102.630  14.798  0.00  0.00     0.010 C 
ATOM     60  H26 3ZJ d   1      49.886 102.327  14.997  0.00  0.00     0.066 H 
ATOM     61  H27 3ZJ d   1      48.319 101.813  14.285  0.00  0.00     0.066 H 
ATOM     62  H28 3ZJ d   1      48.343 102.853  15.749  0.00  0.00     0.066 H 
ENDBRANCH  58  59
ENDBRANCH  53  58
BRANCH  55  63
ATOM     63  O19 3ZJ d   1      48.855 104.987  11.444  0.00  0.00    -0.348 OA
BRANCH  63  64
ATOM     64  C24 3ZJ d   1      49.017 105.620  10.154  0.00  0.00     0.028 C 
ATOM     65  H14 3ZJ d   1      49.726 105.028   9.557  0.00  0.00     0.075 H 
ATOM     66  H15 3ZJ d   1      48.041 105.644   9.647  0.00  0.00     0.075 H 
BRANCH  64  67
ATOM     67  C22 3ZJ d   1      49.551 107.065  10.269  0.00  0.00    -0.025 C 
ATOM     68  H12 3ZJ d   1      50.590 107.030  10.629  0.00  0.00     0.039 H 
ATOM     69  H13 3ZJ d   1      48.930 107.614  10.992  0.00  0.00     0.039 H 
BRANCH  67  70
ATOM     70  C25 3ZJ d   1      49.520 107.819   8.913  0.00  0.00     0.021 C 
ATOM     71  H16 3ZJ d   1      49.609 108.899   9.100  0.00  0.00     0.074 H 
ATOM     72  H17 3ZJ d   1      48.565 107.612   8.407  0.00  0.00     0.074 H 
BRANCH  70  73
ATOM     73  O23 3ZJ d   1      50.602 107.397   8.067  0.00  0.00    -0.396 OA
BRANCH  73  74
ATOM     74  C31 3ZJ d   1      50.140 106.914   6.787  0.00  0.00     0.004 C 
ATOM     75  H35 3ZJ d   1      51.003 106.604   6.179  0.00  0.00     0.066 H 
ATOM     76  H36 3ZJ d   1      49.594 107.716   6.268  0.00  0.00     0.066 H 
ATOM     77  H37 3ZJ d   1      49.471 106.054   6.939  0.00  0.00     0.066 H 
ENDBRANCH  73  74
ENDBRANCH  70  73
ENDBRANCH  67  70
ENDBRANCH  64  67
ENDBRANCH  63  64
ENDBRANCH  55  63
ENDBRANCH   1  49
TORSDOF 18
