REMARK  3 active torsions:
REMARK  status: ('A' for Active; 'I' for Inactive)
REMARK       I    between atoms: C2_17  and  N1_4 
REMARK    1  A    between atoms: N1_4  and  C3_22 
REMARK       I    between atoms: C_20  and  N3_12 
REMARK       I    between atoms: N_18  and  C2_17 
REMARK    2  A    between atoms: C1_19  and  N_18 
REMARK    3  A    between atoms: C1_19  and  C_20 
ROOT
ATOM      1  N1  3ZG d   1      -4.475   1.174 -11.302  0.00  0.00    -0.309 N 
ATOM      2  O1  3ZG d   1      -4.475   3.467 -11.364  0.00  0.00    -0.247 OA
ATOM      3  C2  3ZG d   1      -4.386   2.418 -10.740  0.00  0.00     0.321 C 
ATOM      4  N   3ZG d   1      -4.125   2.402  -9.433  0.00  0.00    -0.334 N 
ATOM      5  H3  3ZG d   1      -4.203   0.412 -10.714  0.00  0.00     0.170 HD
ATOM      6  H16 3ZG d   1      -4.273   1.564  -8.907  0.00  0.00     0.164 HD
ENDROOT
BRANCH   1   7
ATOM      7  C3  3ZG d   1      -4.903   0.821 -12.612  0.00  0.00     0.037 A 
ATOM      8  C4  3ZG d   1      -4.655  -0.492 -13.011  0.00  0.00    -0.056 A 
ATOM      9  C5  3ZG d   1      -4.995  -0.924 -14.260  0.00  0.00    -0.069 A 
ATOM     10  H1  3ZG d   1      -4.185  -1.180 -12.318  0.00  0.00     0.086 H 
ATOM     11  C6  3ZG d   1      -5.609  -0.048 -15.192  0.00  0.00    -0.008 A 
ATOM     12  H2  3ZG d   1      -4.793  -1.950 -14.544  0.00  0.00     0.085 H 
ATOM     13  C7  3ZG d   1      -6.033  -0.433 -16.492  0.00  0.00     0.013 A 
ATOM     14  C10 3ZG d   1      -5.845   1.288 -14.814  0.00  0.00    -0.021 A 
ATOM     15  N2  3ZG d   1      -6.628   0.382 -17.358  0.00  0.00    -0.272 NA
ATOM     16  H4  3ZG d   1      -5.860  -1.458 -16.798  0.00  0.00     0.116 H 
ATOM     17  C8  3ZG d   1      -6.810   1.660 -16.982  0.00  0.00     0.003 A 
ATOM     18  C9  3ZG d   1      -6.444   2.158 -15.765  0.00  0.00    -0.055 A 
ATOM     19  H5  3ZG d   1      -7.276   2.337 -17.689  0.00  0.00     0.114 H 
ATOM     20  H6  3ZG d   1      -6.608   3.203 -15.527  0.00  0.00     0.087 H 
ATOM     21  C11 3ZG d   1      -5.487   1.704 -13.507  0.00  0.00    -0.046 A 
ATOM     22  H7  3ZG d   1      -5.673   2.728 -13.203  0.00  0.00     0.088 H 
ENDBRANCH   1   7
BRANCH   4  23
ATOM     23  C1  3ZG d   1      -3.630   3.586  -8.771  0.00  0.00     0.070 C 
ATOM     24  H17 3ZG d   1      -3.109   4.227  -9.498  0.00  0.00     0.078 H 
ATOM     25  H18 3ZG d   1      -2.933   3.299  -7.969  0.00  0.00     0.078 H 
BRANCH  23  26
ATOM     26  C   3ZG d   1      -4.805   4.334  -8.182  0.00  0.00     0.237 C 
ATOM     27  N3  3ZG d   1      -4.559   5.537  -7.650  0.00  0.00    -0.351 N 
ATOM     28  C12 3ZG d   1      -3.303   6.269  -7.600  0.00  0.00    -0.002 C 
ATOM     29  C15 3ZG d   1      -5.646   6.314  -7.048  0.00  0.00    -0.002 C 
ATOM     30  C13 3ZG d   1      -3.732   7.632  -7.141  0.00  0.00    -0.049 C 
ATOM     31  H8  3ZG d   1      -2.831   6.315  -8.593  0.00  0.00     0.064 H 
ATOM     32  H9  3ZG d   1      -2.605   5.811  -6.883  0.00  0.00     0.064 H 
ATOM     33  C14 3ZG d   1      -4.915   7.401  -6.341  0.00  0.00    -0.049 C 
ATOM     34  H10 3ZG d   1      -3.967   8.274  -8.003  0.00  0.00     0.035 H 
ATOM     35  H11 3ZG d   1      -2.942   8.103  -6.537  0.00  0.00     0.035 H 
ATOM     36  H12 3ZG d   1      -5.531   8.311  -6.288  0.00  0.00     0.035 H 
ATOM     37  H13 3ZG d   1      -4.639   7.085  -5.324  0.00  0.00     0.035 H 
ATOM     38  H14 3ZG d   1      -6.228   5.703  -6.343  0.00  0.00     0.064 H 
ATOM     39  H15 3ZG d   1      -6.316   6.722  -7.819  0.00  0.00     0.064 H 
ATOM     40  O   3ZG d   1      -5.917   3.863  -8.197  0.00  0.00    -0.272 OA
ENDBRANCH  23  26
ENDBRANCH   4  23
TORSDOF 3
