REMARK  18 active torsions:
REMARK  status: ('A' for Active; 'I' for Inactive)
REMARK    1  A    between atoms: C3_2  and  C6_20 
REMARK    2  A    between atoms: C9_23  and  C11_3 
REMARK    3  A    between atoms: C12_4  and  C13_5 
REMARK       I    between atoms: N8_22  and  C12_4 
REMARK    4  A    between atoms: C15_7  and  O20_26 
REMARK    5  A    between atoms: C16_8  and  O22_27 
REMARK    6  A    between atoms: O20_26  and  C21_11 
REMARK    7  A    between atoms: C23_12  and  C24_13 
REMARK    8  A    between atoms: O22_27  and  C23_12 
REMARK    9  A    between atoms: C24_13  and  C25_14 
REMARK   10  A    between atoms: C25_14  and  O26_28 
REMARK   11  A    between atoms: O26_28  and  C27_15 
REMARK   12  A    between atoms: C28_16  and  O7_21 
REMARK       I    between atoms: N29_29  and  C28_16 
REMARK   13  A    between atoms: O7_21  and  C4_18 
REMARK   14  A    between atoms: C6_20  and  N8_22 
REMARK   15  A    between atoms: N8_22  and  C9_23 
REMARK   16  A    between atoms: C9_23  and  C10_24 
REMARK   17  A    between atoms: C31_31  and  N29_29 
REMARK   18  A    between atoms: C32_32  and  C31_31 
ROOT
ATOM      1  C12 3ZN d   1      44.100 106.262  12.353  0.00  0.00     0.254 C 
ATOM      2  N8  3ZN d   1      44.070 107.646  12.201  0.00  0.00    -0.344 N 
ATOM      3  O19 3ZN d   1      43.165 105.529  12.067  0.00  0.00    -0.267 OA
ENDROOT
BRANCH   2   4
ATOM      4  C6  3ZN d   1      42.799 108.304  11.809  0.00  0.00     0.006 C 
ATOM      5  H27 3ZN d   1      42.029 108.017  12.540  0.00  0.00     0.065 H 
ATOM      6  H28 3ZN d   1      42.954 109.392  11.847  0.00  0.00     0.065 H 
BRANCH   4   7
ATOM      7  C3  3ZN d   1      42.275 107.945  10.397  0.00  0.00     0.012 C 
ATOM      8  C2  3ZN d   1      42.940 108.554   9.146  0.00  0.00     0.089 C 
ATOM      9  N1  3ZN d   1      42.031 109.639   8.756  0.00  0.00    -0.072 N 
ATOM     10  H1  3ZN d   1      43.023 107.806   8.344  0.00  0.00     0.076 H 
ATOM     11  H2  3ZN d   1      43.939 108.948   9.386  0.00  0.00     0.076 H 
ATOM     12  C5  3ZN d   1      40.649 109.254   9.118  0.00  0.00     0.106 C 
ATOM     13  H22 3ZN d   1      42.091 109.791   7.761  0.00  0.00     0.277 HD
ATOM     14  H23 3ZN d   1      42.285 110.485   9.241  0.00  0.00     0.277 HD
ATOM     15  C4  3ZN d   1      40.761 108.210  10.252  0.00  0.00     0.079 C 
ATOM     16  H25 3ZN d   1      40.138 108.816   8.248  0.00  0.00     0.079 H 
ATOM     17  H26 3ZN d   1      40.089 110.134   9.467  0.00  0.00     0.079 H 
ATOM     18  H24 3ZN d   1      40.328 108.627  11.173  0.00  0.00     0.087 H 
ATOM     19  H3  3ZN d   1      42.426 106.859  10.314  0.00  0.00     0.049 H 
BRANCH  15  20
ATOM     20  O7  3ZN d   1      40.192 106.910  10.005  0.00  0.00    -0.296 OA
BRANCH  20  21
ATOM     21  C28 3ZN d   1      38.897 106.838   9.729  0.00  0.00     0.361 C 
ATOM     22  N29 3ZN d   1      38.678 106.631   8.409  0.00  0.00    -0.333 N 
ATOM     23  H33 3ZN d   1      39.452 106.545   7.781  0.00  0.00     0.165 HD
ATOM     24  O30 3ZN d   1      38.052 106.889  10.603  0.00  0.00    -0.238 OA
BRANCH  22  25
ATOM     25  C31 3ZN d   1      37.315 106.533   7.904  0.00  0.00     0.021 C 
ATOM     26  H34 3ZN d   1      36.708 105.959   8.620  0.00  0.00     0.071 H 
ATOM     27  H35 3ZN d   1      37.328 106.013   6.935  0.00  0.00     0.071 H 
BRANCH  25  28
ATOM     28  C32 3ZN d   1      36.688 107.928   7.718  0.00  0.00    -0.040 A 
ATOM     29  C33 3ZN d   1      35.347 108.172   8.096  0.00  0.00    -0.075 A 
ATOM     30  C36 3ZN d   1      34.747 109.432   7.895  0.00  0.00    -0.082 A 
ATOM     31  H36 3ZN d   1      34.769 107.375   8.549  0.00  0.00     0.084 H 
ATOM     32  C34 3ZN d   1      35.518 110.465   7.338  0.00  0.00    -0.083 A 
ATOM     33  H39 3ZN d   1      33.711 109.600   8.165  0.00  0.00     0.083 H 
ATOM     34  C35 3ZN d   1      36.873 110.244   6.985  0.00  0.00    -0.082 A 
ATOM     35  H37 3ZN d   1      35.073 111.440   7.176  0.00  0.00     0.083 H 
ATOM     36  C37 3ZN d   1      37.457 108.979   7.173  0.00  0.00    -0.075 A 
ATOM     37  H38 3ZN d   1      37.461 111.054   6.568  0.00  0.00     0.083 H 
ATOM     38  H40 3ZN d   1      38.493 108.811   6.901  0.00  0.00     0.084 H 
ENDBRANCH  25  28
ENDBRANCH  22  25
ENDBRANCH  20  21
ENDBRANCH  15  20
ENDBRANCH   4   7
ENDBRANCH   2   4
BRANCH   2  39
ATOM     39  C9  3ZN d   1      45.226 108.475  12.639  0.00  0.00     0.008 C 
ATOM     40  H29 3ZN d   1      46.096 107.802  12.663  0.00  0.00     0.071 H 
BRANCH  39  41
ATOM     41  C11 3ZN d   1      44.994 108.968  14.087  0.00  0.00    -0.057 C 
ATOM     42  H4  3ZN d   1      45.850 109.580  14.407  0.00  0.00     0.030 H 
ATOM     43  H5  3ZN d   1      44.891 108.102  14.757  0.00  0.00     0.030 H 
ATOM     44  H6  3ZN d   1      44.076 109.573  14.126  0.00  0.00     0.030 H 
ENDBRANCH  39  41
BRANCH  39  45
ATOM     45  C10 3ZN d   1      45.615 109.636  11.689  0.00  0.00    -0.057 C 
ATOM     46  H30 3ZN d   1      45.770 109.243  10.674  0.00  0.00     0.030 H 
ATOM     47  H31 3ZN d   1      46.543 110.106  12.046  0.00  0.00     0.030 H 
ATOM     48  H32 3ZN d   1      44.808 110.383  11.673  0.00  0.00     0.030 H 
ENDBRANCH  39  45
ENDBRANCH   2  39
BRANCH   1  49
ATOM     49  C13 3ZN d   1      45.325 105.456  12.749  0.00  0.00     0.035 A 
ATOM     50  C14 3ZN d   1      45.394 104.731  13.954  0.00  0.00    -0.065 A 
ATOM     51  C17 3ZN d   1      46.558 104.002  14.279  0.00  0.00    -0.047 A 
ATOM     52  H7  3ZN d   1      44.550 104.733  14.634  0.00  0.00     0.085 H 
ATOM     53  C15 3ZN d   1      47.667 103.983  13.389  0.00  0.00     0.101 A 
ATOM     54  H8  3ZN d   1      46.607 103.453  15.213  0.00  0.00     0.087 H 
ATOM     55  C16 3ZN d   1      47.587 104.686  12.168  0.00  0.00     0.102 A 
ATOM     56  C18 3ZN d   1      46.407 105.413  11.852  0.00  0.00    -0.033 A 
ATOM     57  H9  3ZN d   1      46.340 105.941  10.908  0.00  0.00     0.089 H 
BRANCH  53  58
ATOM     58  O20 3ZN d   1      48.863 103.269  13.624  0.00  0.00    -0.353 OA
BRANCH  58  59
ATOM     59  C21 3ZN d   1      49.027 102.370  14.741  0.00  0.00     0.010 C 
ATOM     60  H10 3ZN d   1      50.036 101.933  14.715  0.00  0.00     0.066 H 
ATOM     61  H11 3ZN d   1      48.278 101.567  14.678  0.00  0.00     0.066 H 
ATOM     62  H12 3ZN d   1      48.892 102.925  15.681  0.00  0.00     0.066 H 
ENDBRANCH  58  59
ENDBRANCH  53  58
BRANCH  55  63
ATOM     63  O22 3ZN d   1      48.711 104.615  11.327  0.00  0.00    -0.348 OA
BRANCH  63  64
ATOM     64  C23 3ZN d   1      48.854 105.362  10.097  0.00  0.00     0.028 C 
ATOM     65  H13 3ZN d   1      49.527 104.808   9.426  0.00  0.00     0.075 H 
ATOM     66  H14 3ZN d   1      47.864 105.458   9.627  0.00  0.00     0.075 H 
BRANCH  64  67
ATOM     67  C24 3ZN d   1      49.437 106.785  10.320  0.00  0.00    -0.025 C 
ATOM     68  H15 3ZN d   1      50.431 106.695  10.782  0.00  0.00     0.039 H 
ATOM     69  H16 3ZN d   1      48.769 107.343  10.993  0.00  0.00     0.039 H 
BRANCH  67  70
ATOM     70  C25 3ZN d   1      49.572 107.566   8.983  0.00  0.00     0.021 C 
ATOM     71  H17 3ZN d   1      49.974 108.568   9.192  0.00  0.00     0.074 H 
ATOM     72  H18 3ZN d   1      48.578 107.659   8.520  0.00  0.00     0.074 H 
BRANCH  70  73
ATOM     73  O26 3ZN d   1      50.459 106.884   8.063  0.00  0.00    -0.396 OA
BRANCH  73  74
ATOM     74  C27 3ZN d   1      49.926 106.732   6.739  0.00  0.00     0.004 C 
ATOM     75  H19 3ZN d   1      50.658 106.207   6.107  0.00  0.00     0.066 H 
ATOM     76  H20 3ZN d   1      49.717 107.724   6.312  0.00  0.00     0.066 H 
ATOM     77  H21 3ZN d   1      48.995 106.148   6.783  0.00  0.00     0.066 H 
ENDBRANCH  73  74
ENDBRANCH  70  73
ENDBRANCH  67  70
ENDBRANCH  64  67
ENDBRANCH  63  64
ENDBRANCH  55  63
ENDBRANCH   1  49
TORSDOF 18
