REMARK  5 active torsions:
REMARK  status: ('A' for Active; 'I' for Inactive)
REMARK    1  A    between atoms: P17_2  and  O16_5 
REMARK    2  A    between atoms: O16_5  and  P13_6 
REMARK    3  A    between atoms: P13_6  and  O29_9 
REMARK    4  A    between atoms: O29_9  and  C28_10 
REMARK    5  A    between atoms: C28_10  and  C27_11 
ROOT
ATOM      1  C27 0CG d   1      12.616  26.356 -15.934  0.00  0.00    -0.091 C 
ATOM      2  C30 0CG d   1      13.618  27.013 -16.378  0.00  0.00    -0.152 C 
ATOM      3  H3  0CG d   1      14.446  27.556 -16.745  0.00  0.00     0.166 H 
ENDROOT
BRANCH   1   4
ATOM      4  C28 0CG d   1      11.435  25.582 -15.411  0.00  0.00     0.085 C 
ATOM      5  H1  0CG d   1      10.558  26.234 -15.284  0.00  0.00     0.094 H 
ATOM      6  H2  0CG d   1      11.179  24.748 -16.081  0.00  0.00     0.094 H 
BRANCH   4   7
ATOM      7  O29 0CG d   1      11.890  25.123 -14.200  0.00  0.00    -0.278 OA
BRANCH   7   8
ATOM      8  P13 0CG d   1      11.023  23.960 -13.539  0.00  0.00     0.419 P 
ATOM      9  O14 0CG d   1       9.515  24.230 -13.449  0.00  0.00    -0.624 OA
ATOM     10  O15 0CG d   1      11.830  23.840 -12.219  0.00  0.00    -0.624 OA
BRANCH   8  11
ATOM     11  O16 0CG d   1      11.183  22.666 -14.440  0.00  0.00    -0.173 OA
BRANCH  11  12
ATOM     12  P17 0CG d   1      12.566  21.906 -14.949  0.00  0.00     0.431 P 
ATOM     13  O20 0CG d   1      12.019  20.762 -15.823  0.00  0.00    -0.616 OA
ATOM     14  O18 0CG d   1      13.351  21.421 -13.689  0.00  0.00    -0.616 OA
ATOM     15  O19 0CG d   1      13.352  22.950 -15.725  0.00  0.00    -0.616 OA
ENDBRANCH  11  12
ENDBRANCH   8  11
ENDBRANCH   7   8
ENDBRANCH   4   7
ENDBRANCH   1   4
TORSDOF 5
