REMARK  6 active torsions:
REMARK  status: ('A' for Active; 'I' for Inactive)
REMARK    1  A    between atoms: P_2  and  O1_5 
REMARK    2  A    between atoms: O1_5  and  P1_6 
REMARK    3  A    between atoms: P1_6  and  O2_9 
REMARK    4  A    between atoms: O2_9  and  C_10 
REMARK    5  A    between atoms: C_10  and  C1_11 
REMARK    6  A    between atoms: C1_11  and  C2_12 
ROOT
ATOM      1  C2  43W d   1     -12.884  26.329  16.765  0.00  0.00    -0.115 C 
ATOM      2  C3  43W d   1     -14.134  26.113  16.860  0.00  0.00    -0.154 C 
ATOM      3  H5  43W d   1     -15.172  25.934  16.939  0.00  0.00     0.166 H 
ENDROOT
BRANCH   1   4
ATOM      4  C1  43W d   1     -11.457  26.577  16.679  0.00  0.00     0.010 C 
ATOM      5  H3  43W d   1     -11.300  27.556  16.203  0.00  0.00     0.055 H 
ATOM      6  H4  43W d   1     -11.043  26.594  17.698  0.00  0.00     0.055 H 
BRANCH   4   7
ATOM      7  C   43W d   1     -10.722  25.532  15.880  0.00  0.00     0.041 C 
ATOM      8  H1  43W d   1      -9.703  25.873  15.647  0.00  0.00     0.076 H 
ATOM      9  H2  43W d   1     -10.673  24.585  16.438  0.00  0.00     0.076 H 
BRANCH   7  10
ATOM     10  O2  43W d   1     -11.475  25.366  14.687  0.00  0.00    -0.289 OA
BRANCH  10  11
ATOM     11  P1  43W d   1     -11.073  24.162  13.725  0.00  0.00     0.418 P 
ATOM     12  O4  43W d   1      -9.636  24.299  13.400  0.00  0.00    -0.624 OA
ATOM     13  O3  43W d   1     -12.015  24.159  12.459  0.00  0.00    -0.624 OA
BRANCH  11  14
ATOM     14  O1  43W d   1     -11.227  22.807  14.545  0.00  0.00    -0.173 OA
BRANCH  14  15
ATOM     15  P   43W d   1     -12.606  22.144  15.000  0.00  0.00     0.431 P 
ATOM     16  O6  43W d   1     -13.418  23.179  15.717  0.00  0.00    -0.616 OA
ATOM     17  O   43W d   1     -12.084  21.063  16.045  0.00  0.00    -0.616 OA
ATOM     18  O5  43W d   1     -13.360  21.478  13.769  0.00  0.00    -0.616 OA
ENDBRANCH  14  15
ENDBRANCH  11  14
ENDBRANCH  10  11
ENDBRANCH   7  10
ENDBRANCH   4   7
ENDBRANCH   1   4
TORSDOF 6
