REMARK  2 active torsions:
REMARK  status: ('A' for Active; 'I' for Inactive)
REMARK    1  A    between atoms: C5_5  and  C11_11 
REMARK    2  A    between atoms: C9_9  and  C14_14 
REMARK       I    between atoms: C11_11  and  N12_12 
ROOT
ATOM      1  C1  CNQ d   1      24.468  51.093  -0.317  0.00  0.00    -0.080 C 
ATOM      2  C2  CNQ d   1      25.658  50.643   0.297  0.00  0.00    -0.053 C 
ATOM      3  C3  CNQ d   1      25.942  49.223   0.327  0.00  0.00     0.086 A 
ATOM      4  C4  CNQ d   1      25.086  48.277  -0.350  0.00  0.00     0.102 A 
ATOM      5  C5  CNQ d   1      23.904  48.802  -1.040  0.00  0.00     0.062 C 
ATOM      6  C6  CNQ d   1      23.647  50.177  -1.087  0.00  0.00    -0.065 C 
ATOM      7  N7  CNQ d   1      27.055  48.761   1.029  0.00  0.00    -0.256 NA
ATOM      8  C8  CNQ d   1      27.265  47.448   1.090  0.00  0.00     0.031 A 
ATOM      9  C9  CNQ d   1      26.405  46.470   0.453  0.00  0.00     0.085 A 
ATOM     10  N10 CNQ d   1      25.348  46.882  -0.280  0.00  0.00    -0.243 NA
ATOM     11  H   CNQ d   1      24.166  52.129  -0.212  0.00  0.00     0.083 H 
ATOM     12  H   CNQ d   1      26.349  51.351   0.740  0.00  0.00     0.087 H 
ATOM     13  H   CNQ d   1      22.836  50.557  -1.698  0.00  0.00     0.085 H 
ATOM     14  H   CNQ d   1      28.125  47.091   1.645  0.00  0.00     0.118 H 
ENDROOT
BRANCH   9  15
ATOM     15  C14 CNQ d   1      26.654  45.016   0.632  0.00  0.00    -0.006 A 
ATOM     16  C15 CNQ d   1      26.235  44.093  -0.351  0.00  0.00    -0.069 A 
ATOM     17  C16 CNQ d   1      26.400  42.717  -0.180  0.00  0.00    -0.061 A 
ATOM     18  H   CNQ d   1      25.774  44.462  -1.260  0.00  0.00     0.085 H 
ATOM     19  C17 CNQ d   1      26.986  42.253   1.004  0.00  0.00     0.034 A 
ATOM     20  H   CNQ d   1      26.081  42.022  -0.948  0.00  0.00     0.086 H 
ATOM     21  C18 CNQ d   1      27.388  43.121   2.037  0.00  0.00    -0.061 A 
ATOM     22 CL24 CNQ d   1      27.188  40.556   1.188  0.00  0.00    -0.084 Cl
ATOM     23  C19 CNQ d   1      27.190  44.506   1.867  0.00  0.00    -0.069 A 
ATOM     24  H   CNQ d   1      27.840  42.733   2.943  0.00  0.00     0.086 H 
ATOM     25  H   CNQ d   1      27.442  45.190   2.669  0.00  0.00     0.085 H 
ENDBRANCH   9  15
BRANCH   5  26
ATOM     26  C11 CNQ d   1      22.973  47.875  -1.824  0.00  0.00     0.251 C 
ATOM     27  N12 CNQ d   1      23.092  46.531  -1.638  0.00  0.00    -0.366 N 
ATOM     28  H   CNQ d   1      22.496  45.902  -2.138  0.00  0.00     0.159 HD
ATOM     29  H   CNQ d   1      23.775  46.173  -1.002  0.00  0.00     0.159 HD
ATOM     30  O13 CNQ d   1      22.185  48.314  -2.633  0.00  0.00    -0.268 OA
ENDBRANCH   5  26
TORSDOF 2
