REMARK  5 active torsions:
REMARK  status: ('A' for Active; 'I' for Inactive)
REMARK    1  A    between atoms: CAA_1  and  N_2 
REMARK    2  A    between atoms: N_2  and  CAB_3 
REMARK    3  A    between atoms: N_2  and  CA_4 
REMARK    4  A    between atoms: CA_4  and  C_5 
REMARK       I    between atoms: C_5  and  NAM_7 
REMARK    5  A    between atoms: NAM_7  and  CAP_8 
ROOT
ATOM      1  CAP P34 d   1      26.199  44.766   0.467  0.00  0.00     0.035 A 
ATOM      2  CAK P34 d   1      26.021  46.107   0.487  0.00  0.00    -0.044 A 
ATOM      3  CAU P34 d   1      25.001  46.776  -0.234  0.00  0.00     0.004 A 
ATOM      4  CAT P34 d   1      24.842  48.210  -0.230  0.00  0.00    -0.008 A 
ATOM      5  CAI P34 d   1      25.679  49.120   0.522  0.00  0.00    -0.071 A 
ATOM      6  CAF P34 d   1      25.432  50.471   0.489  0.00  0.00    -0.082 A 
ATOM      7  CAE P34 d   1      24.216  50.997  -0.233  0.00  0.00    -0.082 A 
ATOM      8  CAH P34 d   1      23.425  50.138  -0.998  0.00  0.00    -0.067 A 
ATOM      9  CAS P34 d   1      23.716  48.794  -0.997  0.00  0.00     0.043 A 
ATOM     10  CAQ P34 d   1      22.777  47.918  -1.801  0.00  0.00     0.257 A 
ATOM     11  OAD P34 d   1      21.831  48.307  -2.526  0.00  0.00    -0.267 OA
ATOM     12  NAN P34 d   1      23.021  46.614  -1.795  0.00  0.00    -0.322 N 
ATOM     13  CAR P34 d   1      24.083  45.986  -1.004  0.00  0.00     0.046 A 
ATOM     14  CAJ P34 d   1      24.214  44.546  -1.043  0.00  0.00    -0.054 A 
ATOM     15  CAG P34 d   1      25.267  43.952  -0.327  0.00  0.00    -0.055 A 
ATOM     16  H   P34 d   1      26.697  46.703   1.089  0.00  0.00     0.088 H 
ATOM     17  H   P34 d   1      26.503  48.735   1.113  0.00  0.00     0.084 H 
ATOM     18  H   P34 d   1      26.110  51.159   0.981  0.00  0.00     0.083 H 
ATOM     19  H   P34 d   1      23.956  52.047  -0.157  0.00  0.00     0.083 H 
ATOM     20  H   P34 d   1      22.597  50.523  -1.582  0.00  0.00     0.085 H 
ATOM     21  H   P34 d   1      22.447  46.025  -2.364  0.00  0.00     0.169 HD
ATOM     22  H   P34 d   1      23.517  43.940  -1.611  0.00  0.00     0.087 H 
ATOM     23  H   P34 d   1      25.394  42.876  -0.361  0.00  0.00     0.087 H 
ENDROOT
BRANCH   1  24
ATOM     24  NAM P34 d   1      27.284  44.169   1.286  0.00  0.00    -0.326 N 
ATOM     25  C   P34 d   1      27.097  43.215   2.251  0.00  0.00     0.248 C 
ATOM     26  O   P34 d   1      25.956  42.774   2.442  0.00  0.00    -0.271 OA
ATOM     27  H   P34 d   1      28.218  44.486   1.121  0.00  0.00     0.169 HD
BRANCH  25  28
ATOM     28  CA  P34 d   1      28.241  42.642   3.127  0.00  0.00     0.155 C 
ATOM     29  H   P34 d   1      28.234  41.545   3.040  0.00  0.00     0.090 H 
ATOM     30  H   P34 d   1      29.199  43.034   2.754  0.00  0.00     0.090 H 
BRANCH  28  31
ATOM     31  N   P34 d   1      28.098  43.030   4.663  0.00  0.00    -0.070 N 
ATOM     32  H   P34 d   1      28.781  42.517   5.198  0.00  0.00     0.279 HD
BRANCH  31  33
ATOM     33  CAA P34 d   1      26.654  42.836   5.329  0.00  0.00     0.066 C 
ATOM     34  H   P34 d   1      26.694  43.139   6.386  0.00  0.00     0.068 H 
ATOM     35  H   P34 d   1      26.358  41.779   5.262  0.00  0.00     0.068 H 
ATOM     36  H   P34 d   1      25.918  43.457   4.797  0.00  0.00     0.068 H 
ENDBRANCH  31  33
BRANCH  31  37
ATOM     37  CAB P34 d   1      28.338  44.453   4.719  0.00  0.00     0.066 C 
ATOM     38  H   P34 d   1      29.320  44.677   4.277  0.00  0.00     0.068 H 
ATOM     39  H   P34 d   1      28.323  44.786   5.767  0.00  0.00     0.068 H 
ATOM     40  H   P34 d   1      27.554  44.980   4.155  0.00  0.00     0.068 H 
ENDBRANCH  31  37
ENDBRANCH  28  31
ENDBRANCH  25  28
ENDBRANCH   1  24
TORSDOF 5
