REMARK  3 active torsions:
REMARK  status: ('A' for Active; 'I' for Inactive)
REMARK    1  A    between atoms: C5_2  and  C10_5 
REMARK    2  A    between atoms: C8_4  and  C13_6 
REMARK       I    between atoms: C10_5  and  N11_14 
REMARK    3  A    between atoms: C13_6  and  C18_18 
ROOT
ATOM      1  C4  3GN d   1      25.219  48.364  -0.224  0.00  0.00     0.078 A 
ATOM      2  C5  3GN d   1      23.999  48.804  -0.804  0.00  0.00     0.060 C 
ATOM      3  C6  3GN d   1      23.671  50.161  -0.733  0.00  0.00    -0.065 C 
ATOM      4  C8  3GN d   1      26.956  47.236   0.607  0.00  0.00     0.141 A 
ATOM      5  C1  3GN d   1      24.450  51.090   0.049  0.00  0.00    -0.080 C 
ATOM      6  C2  3GN d   1      25.701  50.664   0.601  0.00  0.00    -0.053 C 
ATOM      7  C3  3GN d   1      26.032  49.304   0.491  0.00  0.00     0.086 A 
ATOM      8  N7  3GN d   1      27.139  48.574   0.966  0.00  0.00    -0.231 NA
ATOM      9  N9  3GN d   1      25.790  47.067  -0.074  0.00  0.00    -0.340 N 
ATOM     10  H   3GN d   1      22.809  50.525  -1.280  0.00  0.00     0.085 H 
ATOM     11  H   3GN d   1      24.092  52.099   0.217  0.00  0.00     0.083 H 
ATOM     12  H   3GN d   1      26.369  51.367   1.087  0.00  0.00     0.087 H 
ATOM     13  H   3GN d   1      25.398  46.177  -0.414  0.00  0.00     0.167 HD
ENDROOT
BRANCH   4  14
ATOM     14  C13 3GN d   1      27.864  46.100   1.110  0.00  0.00     0.181 C 
ATOM     15  C17 3GN d   1      27.132  44.688   1.031  0.00  0.00    -0.026 C 
ATOM     16  C16 3GN d   1      27.288  44.035   2.426  0.00  0.00    -0.040 C 
ATOM     17  H   3GN d   1      27.603  44.058   0.262  0.00  0.00     0.037 H 
ATOM     18  H   3GN d   1      26.067  44.825   0.792  0.00  0.00     0.037 H 
ATOM     19  C15 3GN d   1      28.346  44.877   3.125  0.00  0.00     0.083 C 
ATOM     20  H   3GN d   1      26.338  44.067   2.979  0.00  0.00     0.035 H 
ATOM     21  H   3GN d   1      27.622  42.991   2.332  0.00  0.00     0.035 H 
ATOM     22  N14 3GN d   1      28.139  46.242   2.588  0.00  0.00    -0.059 N 
ATOM     23  H   3GN d   1      28.200  44.861   4.215  0.00  0.00     0.075 H 
ATOM     24  H   3GN d   1      29.356  44.513   2.885  0.00  0.00     0.075 H 
ATOM     25  H   3GN d   1      27.354  46.678   3.046  0.00  0.00     0.278 HD
ATOM     26  H   3GN d   1      28.966  46.800   2.734  0.00  0.00     0.278 HD
BRANCH  14  27
ATOM     27  C18 3GN d   1      29.210  46.075   0.369  0.00  0.00    -0.038 C 
ATOM     28  H   3GN d   1      29.032  45.972  -0.712  0.00  0.00     0.031 H 
ATOM     29  H   3GN d   1      29.809  45.224   0.725  0.00  0.00     0.031 H 
ATOM     30  H   3GN d   1      29.753  47.012   0.563  0.00  0.00     0.031 H 
ENDBRANCH  14  27
ENDBRANCH   4  14
BRANCH   2  31
ATOM     31  C10 3GN d   1      23.073  47.891  -1.623  0.00  0.00     0.251 C 
ATOM     32  N11 3GN d   1      23.197  46.523  -1.492  0.00  0.00    -0.366 N 
ATOM     33  H   3GN d   1      22.602  45.914  -2.018  0.00  0.00     0.159 HD
ATOM     34  H   3GN d   1      23.881  46.140  -0.872  0.00  0.00     0.159 HD
ATOM     35  O12 3GN d   1      22.254  48.315  -2.427  0.00  0.00    -0.268 OA
ENDBRANCH   2  31
TORSDOF 3
