REMARK  6 active torsions:
REMARK  status: ('A' for Active; 'I' for Inactive)
REMARK    1  A    between atoms: C07_7  and  O08_8 
REMARK    2  A    between atoms: O08_8  and  C09_9 
REMARK    3  A    between atoms: C09_9  and  C10_10 
REMARK    4  A    between atoms: C10_10  and  C11_11 
REMARK    5  A    between atoms: C11_11  and  C12_12 
REMARK    6  A    between atoms: C12_12  and  N13_13 
ROOT
ATOM      1  C10 32Z d   1      28.524  47.263   2.171  0.00  0.00    -0.043 C 
ATOM      2  H   32Z d   1      27.614  47.085   2.763  0.00  0.00     0.036 H 
ATOM      3  H   32Z d   1      29.185  47.955   2.714  0.00  0.00     0.036 H 
ENDROOT
BRANCH   1   4
ATOM      4  C09 32Z d   1      28.102  47.949   0.816  0.00  0.00     0.026 C 
ATOM      5  H   32Z d   1      28.870  48.653   0.464  0.00  0.00     0.075 H 
ATOM      6  H   32Z d   1      27.901  47.204   0.032  0.00  0.00     0.075 H 
BRANCH   4   7
ATOM      7  O08 32Z d   1      26.908  48.630   1.211  0.00  0.00    -0.351 OA
BRANCH   7   8
ATOM      8  C07 32Z d   1      25.917  49.151   0.385  0.00  0.00     0.076 C 
ATOM      9  C06 32Z d   1      24.982  48.205  -0.198  0.00  0.00    -0.007 C 
ATOM     10  C05 32Z d   1      25.283  46.727  -0.239  0.00  0.00    -0.023 C 
ATOM     11  C22 32Z d   1      23.788  48.708  -0.797  0.00  0.00     0.041 C 
ATOM     12  C04 32Z d   1      24.062  45.850  -0.484  0.00  0.00    -0.001 C 
ATOM     13  H   32Z d   1      26.007  46.544  -1.047  0.00  0.00     0.042 H 
ATOM     14  H   32Z d   1      25.728  46.438   0.725  0.00  0.00     0.042 H 
ATOM     15  N03 32Z d   1      23.063  46.418  -1.408  0.00  0.00    -0.357 N 
ATOM     16  H   32Z d   1      24.407  44.893  -0.901  0.00  0.00     0.064 H 
ATOM     17  H   32Z d   1      23.570  45.672   0.483  0.00  0.00     0.064 H 
ATOM     18  C02 32Z d   1      22.870  47.766  -1.546  0.00  0.00     0.252 C 
ATOM     19  H   32Z d   1      22.505  45.794  -1.955  0.00  0.00     0.162 HD
ATOM     20  O01 32Z d   1      22.020  48.160  -2.337  0.00  0.00    -0.268 OA
ATOM     21  C21 32Z d   1      23.471  50.085  -0.813  0.00  0.00    -0.067 C 
ATOM     22  C20 32Z d   1      24.285  50.982  -0.087  0.00  0.00    -0.079 C 
ATOM     23  H   32Z d   1      22.617  50.447  -1.374  0.00  0.00     0.085 H 
ATOM     24  C19 32Z d   1      25.526  50.512   0.477  0.00  0.00    -0.050 C 
ATOM     25  H   32Z d   1      23.980  52.014   0.045  0.00  0.00     0.083 H 
ATOM     26  H   32Z d   1      26.176  51.216   0.984  0.00  0.00     0.087 H 
ENDBRANCH   7   8
ENDBRANCH   4   7
ENDBRANCH   1   4
BRANCH   1  27
ATOM     27  C11 32Z d   1      29.255  45.933   2.013  0.00  0.00    -0.040 C 
ATOM     28  H   32Z d   1      30.264  46.026   2.441  0.00  0.00     0.035 H 
ATOM     29  H   32Z d   1      29.331  45.691   0.943  0.00  0.00     0.035 H 
BRANCH  27  30
ATOM     30  C12 32Z d   1      28.488  44.760   2.753  0.00  0.00     0.084 C 
ATOM     31  H   32Z d   1      28.211  45.103   3.761  0.00  0.00     0.076 H 
ATOM     32  H   32Z d   1      29.163  43.895   2.833  0.00  0.00     0.076 H 
BRANCH  30  33
ATOM     33  N13 32Z d   1      27.213  44.319   2.018  0.00  0.00    -0.071 N 
ATOM     34  C14 32Z d   1      26.349  43.285   2.740  0.00  0.00     0.084 C 
ATOM     35  C15 32Z d   1      26.561  41.758   2.356  0.00  0.00    -0.042 C 
ATOM     36  H   32Z d   1      25.297  43.533   2.536  0.00  0.00     0.076 H 
ATOM     37  H   32Z d   1      26.547  43.385   3.817  0.00  0.00     0.076 H 
ATOM     38  C16 32Z d   1      26.931  41.502   0.861  0.00  0.00    -0.062 C 
ATOM     39  H   32Z d   1      25.628  41.218   2.575  0.00  0.00     0.035 H 
ATOM     40  H   32Z d   1      27.372  41.358   2.982  0.00  0.00     0.035 H 
ATOM     41  C17 32Z d   1      26.769  42.767   0.042  0.00  0.00    -0.042 C 
ATOM     42  H   32Z d   1      26.270  40.722   0.454  0.00  0.00     0.033 H 
ATOM     43  H   32Z d   1      27.976  41.165   0.801  0.00  0.00     0.033 H 
ATOM     44  C18 32Z d   1      27.594  43.899   0.619  0.00  0.00     0.084 C 
ATOM     45  H   32Z d   1      25.709  43.060   0.039  0.00  0.00     0.035 H 
ATOM     46  H   32Z d   1      27.098  42.572  -0.989  0.00  0.00     0.035 H 
ATOM     47  H   32Z d   1      28.647  43.581   0.633  0.00  0.00     0.076 H 
ATOM     48  H   32Z d   1      27.484  44.772  -0.041  0.00  0.00     0.076 H 
ATOM     49  H   32Z d   1      26.635  45.140   1.932  0.00  0.00     0.279 HD
ENDBRANCH  30  33
ENDBRANCH  27  30
ENDBRANCH   1  27
TORSDOF 6
