REMARK WARNING: 32 MAX_TORS EXCEEDED!!!
REMARK  47 active torsions:
REMARK  status: ('A' for Active; 'I' for Inactive)
REMARK    1  A    between atoms: N_1  and  CA_2 
REMARK    2  A    between atoms: CA_2  and  C_3 
REMARK    3  A    between atoms: CA_2  and  CB_5 
REMARK       I    between atoms: C_3  and  N_12 
REMARK    4  A    between atoms: CB_5  and  CG_6 
REMARK    5  A    between atoms: N_12  and  CA_13 
REMARK    6  A    between atoms: CA_13  and  C_14 
REMARK    7  A    between atoms: CA_13  and  CB_16 
REMARK       I    between atoms: C_14  and  N_20 
REMARK    8  A    between atoms: CB_16  and  CG_17 
REMARK       I    between atoms: CG_17  and  ND2_19 
REMARK    9  A    between atoms: N_20  and  CA_21 
REMARK   10  A    between atoms: CA_21  and  C_22 
REMARK   11  A    between atoms: CA_21  and  CB_24 
REMARK       I    between atoms: C_22  and  N_28 
REMARK   12  A    between atoms: CB_24  and  CG1_25 
REMARK   13  A    between atoms: CB_24  and  CG2_26 
REMARK   14  A    between atoms: CG1_25  and  CD1_27 
REMARK   15  A    between atoms: N_28  and  CA_29 
REMARK   16  A    between atoms: CA_29  and  C_30 
REMARK   17  A    between atoms: CA_29  and  CB_32 
REMARK       I    between atoms: C_30  and  N_35 
REMARK   18  A    between atoms: CB_32  and  CG1_33 
REMARK   19  A    between atoms: CB_32  and  CG2_34 
REMARK   20  A    between atoms: N_35  and  CA_36 
REMARK   21  A    between atoms: CA_36  and  C_37 
REMARK       I    between atoms: C_37  and  N_39 
REMARK   22  A    between atoms: N_39  and  CA_40 
REMARK   23  A    between atoms: CA_40  and  C_41 
REMARK   24  A    between atoms: CA_40  and  CB_43 
REMARK       I    between atoms: C_41  and  N_46 
REMARK   25  A    between atoms: CB_43  and  OG1_44 
REMARK   26  A    between atoms: CB_43  and  CG2_45 
REMARK   27  A    between atoms: N_46  and  CA_47 
REMARK   28  A    between atoms: CA_47  and  C_48 
REMARK   29  A    between atoms: CA_47  and  CB_50 
REMARK       I    between atoms: C_48  and  N_53 
REMARK   30  A    between atoms: CB_50  and  OG1_51 
REMARK   31  A    between atoms: CB_50  and  CG2_52 
REMARK   32  A    between atoms: N_53  and  CA_54 
REMARK   33  A    between atoms: CA_54  and  C_55 
REMARK   34  A    between atoms: CA_54  and  CB_57 
REMARK       I    between atoms: C_55  and  N_65 
REMARK   35  A    between atoms: CB_57  and  CG_58 
REMARK   36  A    between atoms: CZ_63  and  OH_64 
REMARK   37  A    between atoms: CA_66  and  C_67 
REMARK       I    between atoms: C_67  and  N_72 
REMARK   38  A    between atoms: N_72  and  CA_73 
REMARK   39  A    between atoms: CA_73  and  C_74 
REMARK   40  A    between atoms: CA_73  and  CB_76 
REMARK       I    between atoms: C_74  and  N_80 
REMARK   41  A    between atoms: CB_76  and  CG1_77 
REMARK   42  A    between atoms: CB_76  and  CG2_78 
REMARK   43  A    between atoms: CG1_77  and  CD1_79 
REMARK   44  A    between atoms: N_80  and  CA_81 
REMARK   45  A    between atoms: CA_81  and  C_82 
REMARK   46  A    between atoms: CA_81  and  CB_84 
REMARK   47  A    between atoms: CB_84  and  CG_85 
REMARK       I    between atoms: CG_85  and  ND2_87 
ROOT
ATOM      1  CA  THR d   1     -16.453  18.989 -18.742  0.00  0.00     0.113 C 
ATOM      2  H   THR d   1     -15.848  18.087 -18.916  0.00  0.00     0.091 H 
ENDROOT
BRANCH   1   3
ATOM      3  N   THR d   1     -17.821  18.574 -18.511  0.00  0.00    -0.344 N 
ATOM      4  C   GLY d   1     -18.187  17.308 -18.676  0.00  0.00     0.236 C 
ATOM      5  O   GLY d   1     -17.388  16.408 -18.961  0.00  0.00    -0.272 OA
ATOM      6  H   THR d   1     -18.500  19.250 -18.223  0.00  0.00     0.163 HD
BRANCH   4   7
ATOM      7  CA  GLY d   1     -19.664  17.013 -18.484  0.00  0.00     0.069 C 
ATOM      8  H   GLY d   1     -19.860  16.913 -17.406  0.00  0.00     0.078 H 
ATOM      9  H   GLY d   1     -20.241  17.860 -18.884  0.00  0.00     0.078 H 
BRANCH   7  10
ATOM     10  N   GLY d   1     -20.114  15.800 -19.145  0.00  0.00    -0.351 N 
ATOM     11  C   VAL d   1     -20.281  15.756 -20.461  0.00  0.00     0.241 C 
ATOM     12  O   VAL d   1     -20.027  16.707 -21.204  0.00  0.00    -0.271 OA
ATOM     13  H   GLY d   1     -20.301  14.984 -18.599  0.00  0.00     0.163 HD
BRANCH  11  14
ATOM     14  CA  VAL d   1     -20.847  14.460 -21.028  0.00  0.00     0.092 C 
ATOM     15  H   VAL d   1     -21.402  13.951 -20.226  0.00  0.00     0.088 H 
BRANCH  14  16
ATOM     16  N   VAL d   1     -21.805  14.839 -22.058  0.00  0.00    -0.346 N 
ATOM     17  C   ILE d   1     -23.052  15.075 -21.681  0.00  0.00     0.241 C 
ATOM     18  O   ILE d   1     -23.414  14.842 -20.545  0.00  0.00    -0.271 OA
ATOM     19  H   VAL d   1     -21.530  14.918 -23.016  0.00  0.00     0.163 HD
BRANCH  17  20
ATOM     20  CA  ILE d   1     -24.052  15.625 -22.693  0.00  0.00     0.092 C 
ATOM     21  H   ILE d   1     -24.766  16.250 -22.137  0.00  0.00     0.088 H 
BRANCH  20  22
ATOM     22  N   ILE d   1     -23.429  16.487 -23.681  0.00  0.00    -0.346 N 
ATOM     23  C   ASN d   1     -23.050  17.720 -23.338  0.00  0.00     0.241 C 
ATOM     24  O   ASN d   1     -23.306  18.206 -22.223  0.00  0.00    -0.271 OA
ATOM     25  H   ILE d   1     -23.284  16.159 -24.614  0.00  0.00     0.163 HD
BRANCH  23  26
ATOM     26  CA  ASN d   1     -22.282  18.548 -24.388  0.00  0.00     0.097 C 
ATOM     27  H   ASN d   1     -22.107  17.911 -25.268  0.00  0.00     0.088 H 
BRANCH  26  28
ATOM     28  N   ASN d   1     -23.073  19.692 -24.797  0.00  0.00    -0.346 N 
ATOM     29  C   PHE d   1     -23.249  20.016 -26.066  0.00  0.00     0.249 C 
ATOM     30  O   PHE d   1     -22.838  19.329 -26.986  0.00  0.00    -0.271 OA
ATOM     31  H   ASN d   1     -23.502  20.257 -24.092  0.00  0.00     0.163 HD
BRANCH  29  32
ATOM     32  CA  PHE d   1     -24.061  21.288 -26.319  0.00  0.00     0.179 C 
ATOM     33  H   PHE d   1     -24.178  21.818 -25.362  0.00  0.00     0.099 H 
BRANCH  32  34
ATOM     34  N   PHE d   1     -23.371  22.208 -27.272  0.00  0.00    -0.066 N 
ATOM     35  H   PHE d   1     -23.935  23.031 -27.412  0.00  0.00     0.275 HD
ATOM     36  H   PHE d   1     -23.236  21.739 -28.154  0.00  0.00     0.275 HD
ATOM     37  H   PHE d   1     -22.476  22.475 -26.893  0.00  0.00     0.275 HD
ENDBRANCH  32  34
BRANCH  32  38
ATOM     38  CB  PHE d   1     -25.454  20.903 -26.834  0.00  0.00    -0.006 C 
ATOM     39  H   PHE d   1     -25.350  20.498 -27.851  0.00  0.00     0.043 H 
ATOM     40  H   PHE d   1     -26.078  21.809 -26.862  0.00  0.00     0.043 H 
BRANCH  38  41
ATOM     41  CG  PHE d   1     -26.144  19.877 -25.982  0.00  0.00    -0.056 A 
ATOM     42  CD1 PHE d   1     -26.765  20.246 -24.796  0.00  0.00    -0.077 A 
ATOM     43  CE1 PHE d   1     -27.379  19.300 -23.992  0.00  0.00    -0.082 A 
ATOM     44  H   PHE d   1     -26.769  21.288 -24.496  0.00  0.00     0.084 H 
ATOM     45  CZ  PHE d   1     -27.374  17.967 -24.371  0.00  0.00    -0.083 A 
ATOM     46  H   PHE d   1     -27.862  19.601 -23.069  0.00  0.00     0.083 H 
ATOM     47  CE2 PHE d   1     -26.752  17.586 -25.550  0.00  0.00    -0.082 A 
ATOM     48  H   PHE d   1     -27.856  17.223 -23.747  0.00  0.00     0.083 H 
ATOM     49  CD2 PHE d   1     -26.141  18.537 -26.348  0.00  0.00    -0.077 A 
ATOM     50  H   PHE d   1     -26.744  16.543 -25.847  0.00  0.00     0.083 H 
ATOM     51  H   PHE d   1     -25.655  18.233 -27.268  0.00  0.00     0.084 H 
ENDBRANCH  38  41
ENDBRANCH  32  38
ENDBRANCH  29  32
ENDBRANCH  26  28
BRANCH  26  52
ATOM     52  CB  ASN d   1     -20.908  19.018 -23.848  0.00  0.00     0.036 C 
ATOM     53  H   ASN d   1     -20.316  19.405 -24.690  0.00  0.00     0.051 H 
ATOM     54  H   ASN d   1     -20.393  18.153 -23.404  0.00  0.00     0.051 H 
BRANCH  52  55
ATOM     55  CG  ASN d   1     -21.018  20.124 -22.778  0.00  0.00     0.217 C 
ATOM     56  OD1 ASN d   1     -21.199  21.305 -23.100  0.00  0.00    -0.274 OA
ATOM     57  ND2 ASN d   1     -20.893  19.741 -21.503  0.00  0.00    -0.370 N 
ATOM     58  H   ASN d   1     -20.956  20.418 -20.769  0.00  0.00     0.159 HD
ATOM     59  H   ASN d   1     -20.736  18.778 -21.283  0.00  0.00     0.159 HD
ENDBRANCH  52  55
ENDBRANCH  26  52
ENDBRANCH  23  26
ENDBRANCH  20  22
BRANCH  20  60
ATOM     60  CB  ILE d   1     -24.852  14.475 -23.318  0.00  0.00    -0.030 C 
ATOM     61  H   ILE d   1     -25.358  14.861 -24.215  0.00  0.00     0.043 H 
BRANCH  60  62
ATOM     62  CG1 ILE d   1     -25.931  13.974 -22.339  0.00  0.00    -0.063 C 
ATOM     63  H   ILE d   1     -25.461  13.821 -21.356  0.00  0.00     0.033 H 
ATOM     64  H   ILE d   1     -26.317  13.015 -22.713  0.00  0.00     0.033 H 
BRANCH  62  65
ATOM     65  CD1 ILE d   1     -27.098  14.919 -22.164  0.00  0.00    -0.076 C 
ATOM     66  H   ILE d   1     -27.817  14.486 -21.453  0.00  0.00     0.027 H 
ATOM     67  H   ILE d   1     -27.591  15.076 -23.134  0.00  0.00     0.027 H 
ATOM     68  H   ILE d   1     -26.735  15.883 -21.777  0.00  0.00     0.027 H 
ENDBRANCH  62  65
ENDBRANCH  60  62
BRANCH  60  69
ATOM     69  CG2 ILE d   1     -23.936  13.342 -23.749  0.00  0.00    -0.071 C 
ATOM     70  H   ILE d   1     -23.178  13.729 -24.446  0.00  0.00     0.028 H 
ATOM     71  H   ILE d   1     -24.529  12.561 -24.248  0.00  0.00     0.028 H 
ATOM     72  H   ILE d   1     -23.439  12.916 -22.865  0.00  0.00     0.028 H 
ENDBRANCH  60  69
ENDBRANCH  20  60
ENDBRANCH  17  20
ENDBRANCH  14  16
BRANCH  14  73
ATOM     73  CB  VAL d   1     -19.749  13.474 -21.497  0.00  0.00    -0.033 C 
ATOM     74  H   VAL d   1     -19.256  13.075 -20.598  0.00  0.00     0.042 H 
BRANCH  73  75
ATOM     75  CG1 VAL d   1     -20.356  12.306 -22.250  0.00  0.00    -0.071 C 
ATOM     76  H   VAL d   1     -19.557  11.622 -22.572  0.00  0.00     0.028 H 
ATOM     77  H   VAL d   1     -20.896  12.680 -23.133  0.00  0.00     0.028 H 
ATOM     78  H   VAL d   1     -21.055  11.769 -21.592  0.00  0.00     0.028 H 
ENDBRANCH  73  75
BRANCH  73  79
ATOM     79  CG2 VAL d   1     -18.684  14.162 -22.339  0.00  0.00    -0.071 C 
ATOM     80  H   VAL d   1     -18.258  15.005 -21.774  0.00  0.00     0.028 H 
ATOM     81  H   VAL d   1     -19.137  14.536 -23.269  0.00  0.00     0.028 H 
ATOM     82  H   VAL d   1     -17.887  13.443 -22.582  0.00  0.00     0.028 H 
ENDBRANCH  73  79
ENDBRANCH  14  73
ENDBRANCH  11  14
ENDBRANCH   7  10
ENDBRANCH   4   7
ENDBRANCH   1   3
BRANCH   1  83
ATOM     83  C   THR d   1     -15.891  19.738 -17.563  0.00  0.00     0.243 C 
ATOM     84  O   THR d   1     -16.607  20.170 -16.662  0.00  0.00    -0.271 OA
ATOM     85  N   THR d   1     -14.571  19.830 -17.586  0.00  0.00    -0.344 N 
ATOM     86  H   THR d   1     -14.068  19.172 -18.146  0.00  0.00     0.163 HD
BRANCH  85  87
ATOM     87  CA  THR d   1     -13.808  20.817 -16.856  0.00  0.00     0.113 C 
ATOM     88  H   THR d   1     -14.443  21.679 -16.604  0.00  0.00     0.091 H 
BRANCH  87  89
ATOM     89  C   THR d   1     -12.705  21.235 -17.825  0.00  0.00     0.243 C 
ATOM     90  O   THR d   1     -12.466  20.556 -18.818  0.00  0.00    -0.271 OA
ATOM     91  N   TYR d   1     -12.063  22.364 -17.568  0.00  0.00    -0.346 N 
ATOM     92  H   TYR d   1     -12.387  22.959 -16.832  0.00  0.00     0.163 HD
BRANCH  91  93
ATOM     93  CA  TYR d   1     -10.897  22.751 -18.338  0.00  0.00     0.093 C 
ATOM     94  H   TYR d   1     -10.308  21.853 -18.576  0.00  0.00     0.088 H 
BRANCH  93  95
ATOM     95  C   TYR d   1     -10.052  23.688 -17.495  0.00  0.00     0.243 C 
ATOM     96  O   TYR d   1     -10.593  24.559 -16.807  0.00  0.00    -0.271 OA
ATOM     97  N   PRO d   1      -8.720  23.514 -17.524  0.00  0.00    -0.337 N 
ATOM     98  CA  PRO d   1      -7.921  24.310 -16.586  0.00  0.00     0.091 C 
ATOM     99  CD  PRO d   1      -7.884  22.543 -18.255  0.00  0.00    -0.001 C 
ATOM    100  CB  PRO d   1      -6.532  23.645 -16.649  0.00  0.00    -0.036 C 
ATOM    101  H   PRO d   1      -8.340  24.221 -15.573  0.00  0.00     0.087 H 
ATOM    102  CG  PRO d   1      -6.754  22.310 -17.299  0.00  0.00    -0.048 C 
ATOM    103  H   PRO d   1      -6.122  23.516 -15.637  0.00  0.00     0.036 H 
ATOM    104  H   PRO d   1      -5.841  24.255 -17.250  0.00  0.00     0.036 H 
ATOM    105  H   PRO d   1      -7.028  21.553 -16.549  0.00  0.00     0.035 H 
ATOM    106  H   PRO d   1      -5.851  21.984 -17.836  0.00  0.00     0.035 H 
ATOM    107  H   PRO d   1      -7.522  22.964 -19.204  0.00  0.00     0.064 H 
ATOM    108  H   PRO d   1      -8.436  21.612 -18.454  0.00  0.00     0.064 H 
BRANCH  98 109
ATOM    109  C   PRO d   1      -7.843  25.804 -16.942  0.00  0.00     0.241 C 
ATOM    110  O   PRO d   1      -8.024  26.181 -18.104  0.00  0.00    -0.271 OA
ATOM    111  N   ILE d   1      -7.597  26.628 -15.918  0.00  0.00    -0.346 N 
ATOM    112  H   ILE d   1      -7.580  26.244 -14.995  0.00  0.00     0.163 HD
BRANCH 111 113
ATOM    113  CA  ILE d   1      -7.351  28.068 -16.077  0.00  0.00     0.092 C 
ATOM    114  H   ILE d   1      -7.325  28.270 -17.158  0.00  0.00     0.088 H 
BRANCH 113 115
ATOM    115  C   ILE d   1      -5.991  28.530 -15.503  0.00  0.00     0.241 C 
ATOM    116  O   ILE d   1      -5.576  29.655 -15.768  0.00  0.00    -0.271 OA
ATOM    117  N   ASN d   1      -5.307  27.647 -14.758  0.00  0.00    -0.344 N 
ATOM    118  H   ASN d   1      -5.685  26.724 -14.690  0.00  0.00     0.163 HD
BRANCH 117 119
ATOM    119  CA  ASN d   1      -4.033  27.914 -14.020  0.00  0.00     0.104 C 
ATOM    120  H   ASN d   1      -4.028  27.182 -13.199  0.00  0.00     0.090 H 
BRANCH 119 121
ATOM    121  C   ASN d   1      -3.846  29.281 -13.329  0.00  0.00     0.197 C 
ATOM    122  O   ASN d   1      -2.910  30.049 -13.571  0.00  0.00    -0.646 OA
ATOM    123  OXT ASN d   1      -4.623  29.652 -12.458  0.00  0.00    -0.646 OA
ENDBRANCH 119 121
BRANCH 119 124
ATOM    124  CB  ASN d   1      -2.816  27.586 -14.897  0.00  0.00     0.037 C 
ATOM    125  H   ASN d   1      -1.927  28.065 -14.460  0.00  0.00     0.051 H 
ATOM    126  H   ASN d   1      -2.990  27.988 -15.906  0.00  0.00     0.051 H 
BRANCH 124 127
ATOM    127  CG  ASN d   1      -2.559  26.091 -15.007  0.00  0.00     0.217 C 
ATOM    128  OD1 ASN d   1      -3.477  25.297 -15.260  0.00  0.00    -0.274 OA
ATOM    129  ND2 ASN d   1      -1.302  25.697 -14.821  0.00  0.00    -0.370 N 
ATOM    130  H   ASN d   1      -1.068  24.727 -14.880  0.00  0.00     0.159 HD
ATOM    131  H   ASN d   1      -0.591  26.371 -14.622  0.00  0.00     0.159 HD
ENDBRANCH 124 127
ENDBRANCH 119 124
ENDBRANCH 117 119
ENDBRANCH 113 115
BRANCH 113 132
ATOM    132  CB  ILE d   1      -8.518  28.892 -15.482  0.00  0.00    -0.030 C 
ATOM    133  H   ILE d   1      -8.356  29.950 -15.738  0.00  0.00     0.043 H 
BRANCH 132 134
ATOM    134  CG1 ILE d   1      -8.590  28.770 -13.949  0.00  0.00    -0.063 C 
ATOM    135  H   ILE d   1      -8.158  27.800 -13.663  0.00  0.00     0.033 H 
ATOM    136  H   ILE d   1      -9.649  28.801 -13.653  0.00  0.00     0.033 H 
BRANCH 134 137
ATOM    137  CD1 ILE d   1      -7.855  29.857 -13.186  0.00  0.00    -0.076 C 
ATOM    138  H   ILE d   1      -7.964  29.684 -12.105  0.00  0.00     0.027 H 
ATOM    139  H   ILE d   1      -8.280  30.838 -13.445  0.00  0.00     0.027 H 
ATOM    140  H   ILE d   1      -6.788  29.837 -13.455  0.00  0.00     0.027 H 
ENDBRANCH 134 137
ENDBRANCH 132 134
BRANCH 132 141
ATOM    141  CG2 ILE d   1      -9.841  28.440 -16.087  0.00  0.00    -0.071 C 
ATOM    142  H   ILE d   1      -9.792  28.526 -17.183  0.00  0.00     0.028 H 
ATOM    143  H   ILE d   1     -10.655  29.075 -15.705  0.00  0.00     0.028 H 
ATOM    144  H   ILE d   1     -10.032  27.393 -15.810  0.00  0.00     0.028 H 
ENDBRANCH 132 141
ENDBRANCH 113 132
ENDBRANCH 111 113
ENDBRANCH  98 109
ENDBRANCH  93  95
BRANCH  93 145
ATOM    145  CB  TYR d   1     -11.313  23.417 -19.640  0.00  0.00    -0.014 C 
ATOM    146  H   TYR d   1     -11.625  24.448 -19.418  0.00  0.00     0.043 H 
ATOM    147  H   TYR d   1     -12.163  22.859 -20.059  0.00  0.00     0.043 H 
BRANCH 145 148
ATOM    148  CG  TYR d   1     -10.216  23.464 -20.678  0.00  0.00    -0.056 A 
ATOM    149  CD1 TYR d   1      -9.243  24.473 -20.658  0.00  0.00    -0.074 A 
ATOM    150  CE1 TYR d   1      -8.239  24.522 -21.618  0.00  0.00    -0.051 A 
ATOM    151  H   TYR d   1      -9.274  25.228 -19.881  0.00  0.00     0.084 H 
ATOM    152  CZ  TYR d   1      -8.206  23.549 -22.619  0.00  0.00     0.065 A 
ATOM    153  H   TYR d   1      -7.491  25.306 -21.590  0.00  0.00     0.087 H 
ATOM    154  CE2 TYR d   1      -9.156  22.544 -22.651  0.00  0.00    -0.051 A 
ATOM    155  CD2 TYR d   1     -10.147  22.502 -21.685  0.00  0.00    -0.074 A 
ATOM    156  H   TYR d   1      -9.125  21.791 -23.430  0.00  0.00     0.087 H 
ATOM    157  H   TYR d   1     -10.883  21.706 -21.712  0.00  0.00     0.084 H 
BRANCH 152 158
ATOM    158  OH  TYR d   1      -7.230  23.574 -23.585  0.00  0.00    -0.361 OA
ATOM    159  H   TYR d   1      -6.655  24.315 -23.434  0.00  0.00     0.217 HD
ENDBRANCH 152 158
ENDBRANCH 145 148
ENDBRANCH  93 145
ENDBRANCH  91  93
ENDBRANCH  87  89
BRANCH  87 160
ATOM    160  CB  THR d   1     -13.220  20.236 -15.559  0.00  0.00     0.060 C 
ATOM    161  H   THR d   1     -12.605  21.004 -15.066  0.00  0.00     0.086 H 
BRANCH 160 162
ATOM    162  OG1 THR d   1     -12.403  19.094 -15.860  0.00  0.00    -0.393 OA
ATOM    163  H   THR d   1     -12.044  18.742 -15.054  0.00  0.00     0.210 HD
ENDBRANCH 160 162
BRANCH 160 164
ATOM    164  CG2 THR d   1     -14.350  19.807 -14.614  0.00  0.00    -0.050 C 
ATOM    165  H   THR d   1     -13.918  19.393 -13.691  0.00  0.00     0.031 H 
ATOM    166  H   THR d   1     -14.968  19.041 -15.105  0.00  0.00     0.031 H 
ATOM    167  H   THR d   1     -14.974  20.679 -14.369  0.00  0.00     0.031 H 
ENDBRANCH 160 164
ENDBRANCH  87 160
ENDBRANCH  85  87
ENDBRANCH   1  83
BRANCH   1 168
ATOM    168  CB  THR d   1     -16.332  19.916 -19.964  0.00  0.00     0.060 C 
ATOM    169  H   THR d   1     -15.268  20.121 -20.155  0.00  0.00     0.086 H 
BRANCH 168 170
ATOM    170  OG1 THR d   1     -17.015  21.143 -19.707  0.00  0.00    -0.393 OA
ATOM    171  H   THR d   1     -17.932  20.964 -19.537  0.00  0.00     0.210 HD
ENDBRANCH 168 170
BRANCH 168 172
ATOM    172  CG2 THR d   1     -16.936  19.281 -21.174  0.00  0.00    -0.050 C 
ATOM    173  H   THR d   1     -16.838  19.961 -22.033  0.00  0.00     0.031 H 
ATOM    174  H   THR d   1     -18.001  19.077 -20.988  0.00  0.00     0.031 H 
ATOM    175  H   THR d   1     -16.414  18.337 -21.392  0.00  0.00     0.031 H 
ENDBRANCH 168 172
ENDBRANCH   1 168
TORSDOF 47
