REMARK WARNING: 32 MAX_TORS EXCEEDED!!!
REMARK  37 active torsions:
REMARK  status: ('A' for Active; 'I' for Inactive)
REMARK    1  A    between atoms: N_1  and  CA_2 
REMARK    2  A    between atoms: CA_2  and  C_3 
REMARK    3  A    between atoms: CA_2  and  CB_5 
REMARK       I    between atoms: C_3  and  N_12 
REMARK    4  A    between atoms: CB_5  and  CG_6 
REMARK    5  A    between atoms: N_12  and  CA_13 
REMARK    6  A    between atoms: CA_13  and  C_14 
REMARK    7  A    between atoms: CA_13  and  CB_16 
REMARK       I    between atoms: C_14  and  N_20 
REMARK    8  A    between atoms: CB_16  and  CG_17 
REMARK       I    between atoms: CG_17  and  ND2_19 
REMARK    9  A    between atoms: N_20  and  CA_21 
REMARK   10  A    between atoms: CA_21  and  C_22 
REMARK   11  A    between atoms: CA_21  and  CB_24 
REMARK       I    between atoms: C_22  and  N_28 
REMARK   12  A    between atoms: CB_24  and  CG1_25 
REMARK   13  A    between atoms: CB_24  and  CG2_26 
REMARK   14  A    between atoms: CG1_25  and  CD1_27 
REMARK   15  A    between atoms: N_28  and  CA_29 
REMARK   16  A    between atoms: CA_29  and  C_30 
REMARK   17  A    between atoms: CA_29  and  CB_32 
REMARK       I    between atoms: C_30  and  N_35 
REMARK   18  A    between atoms: CB_32  and  CG1_33 
REMARK   19  A    between atoms: CB_32  and  CG2_34 
REMARK   20  A    between atoms: N_35  and  CA_36 
REMARK   21  A    between atoms: CA_36  and  C_37 
REMARK       I    between atoms: C_37  and  N_39 
REMARK   22  A    between atoms: N_39  and  CA_40 
REMARK   23  A    between atoms: CA_40  and  C_41 
REMARK   24  A    between atoms: CA_40  and  CB_43 
REMARK       I    between atoms: C_41  and  N_46 
REMARK   25  A    between atoms: CB_43  and  OG1_44 
REMARK   26  A    between atoms: CB_43  and  CG2_45 
REMARK   27  A    between atoms: N_46  and  CA_47 
REMARK   28  A    between atoms: CA_47  and  C_48 
REMARK   29  A    between atoms: CA_47  and  CB_50 
REMARK       I    between atoms: C_48  and  N_53 
REMARK   30  A    between atoms: CB_50  and  OG1_51 
REMARK   31  A    between atoms: CB_50  and  CG2_52 
REMARK   32  A    between atoms: N_53  and  CA_54 
REMARK   33  A    between atoms: CA_54  and  C_55 
REMARK   34  A    between atoms: CA_54  and  CB_57 
REMARK       I    between atoms: C_55  and  N_65 
REMARK   35  A    between atoms: CB_57  and  CG_58 
REMARK   36  A    between atoms: CZ_63  and  OH_64 
REMARK   37  A    between atoms: CA_66  and  C_67 
ROOT
ATOM      1  C   VAL d   1     -72.838 -19.347 -32.924  0.00  0.00     0.241 C 
ATOM      2  O   VAL d   1     -72.713 -18.151 -33.198  0.00  0.00    -0.271 OA
ATOM      3  N   GLY d   1     -71.864 -20.072 -32.389  0.00  0.00    -0.351 N 
ATOM      4  H   GLY d   1     -72.017 -21.046 -32.220  0.00  0.00     0.163 HD
ENDROOT
BRANCH   1   5
ATOM      5  CA  VAL d   1     -74.166 -20.071 -33.134  0.00  0.00     0.092 C 
ATOM      6  H   VAL d   1     -74.171 -20.979 -32.513  0.00  0.00     0.088 H 
BRANCH   5   7
ATOM      7  N   VAL d   1     -75.245 -19.205 -32.679  0.00  0.00    -0.346 N 
ATOM      8  C   ILE d   1     -75.414 -18.966 -31.381  0.00  0.00     0.241 C 
ATOM      9  O   ILE d   1     -74.722 -19.499 -30.513  0.00  0.00    -0.271 OA
ATOM     10  H   VAL d   1     -75.862 -18.788 -33.346  0.00  0.00     0.163 HD
BRANCH   8  11
ATOM     11  CA  ILE d   1     -76.518 -17.978 -31.002  0.00  0.00     0.092 C 
ATOM     12  H   ILE d   1     -76.305 -17.586 -29.997  0.00  0.00     0.088 H 
BRANCH  11  13
ATOM     13  N   ILE d   1     -76.544 -16.859 -31.932  0.00  0.00    -0.346 N 
ATOM     14  C   ASN d   1     -75.562 -15.967 -31.987  0.00  0.00     0.241 C 
ATOM     15  O   ASN d   1     -74.573 -16.001 -31.253  0.00  0.00    -0.271 OA
ATOM     16  H   ILE d   1     -77.325 -16.759 -32.548  0.00  0.00     0.163 HD
BRANCH  14  17
ATOM     17  CA  ASN d   1     -75.755 -14.843 -32.992  0.00  0.00     0.097 C 
ATOM     18  H   ASN d   1     -76.835 -14.674 -33.117  0.00  0.00     0.088 H 
BRANCH  17  19
ATOM     19  N   ASN d   1     -75.155 -13.608 -32.518  0.00  0.00    -0.346 N 
ATOM     20  C   PHE d   1     -75.647 -12.425 -32.865  0.00  0.00     0.249 C 
ATOM     21  O   PHE d   1     -76.543 -12.289 -33.695  0.00  0.00    -0.271 OA
ATOM     22  H   ASN d   1     -74.356 -13.650 -31.919  0.00  0.00     0.163 HD
BRANCH  20  23
ATOM     23  CA  PHE d   1     -75.050 -11.220 -32.152  0.00  0.00     0.179 C 
ATOM     24  H   PHE d   1     -74.046 -11.043 -32.566  0.00  0.00     0.099 H 
BRANCH  23  25
ATOM     25  N   PHE d   1     -75.844 -10.016 -32.374  0.00  0.00    -0.066 N 
ATOM     26  H   PHE d   1     -75.421  -9.240 -31.889  0.00  0.00     0.275 HD
ATOM     27  H   PHE d   1     -76.779 -10.161 -32.025  0.00  0.00     0.275 HD
ATOM     28  H   PHE d   1     -75.881  -9.815 -33.361  0.00  0.00     0.275 HD
ENDBRANCH  23  25
BRANCH  23  29
ATOM     29  CB  PHE d   1     -74.904 -11.513 -30.647  0.00  0.00    -0.006 C 
ATOM     30  H   PHE d   1     -74.600 -10.582 -30.145  0.00  0.00     0.043 H 
ATOM     31  H   PHE d   1     -74.117 -12.271 -30.521  0.00  0.00     0.043 H 
BRANCH  29  32
ATOM     32  CG  PHE d   1     -76.166 -12.024 -29.972  0.00  0.00    -0.056 A 
ATOM     33  CD1 PHE d   1     -77.429 -11.619 -30.381  0.00  0.00    -0.077 A 
ATOM     34  CE1 PHE d   1     -78.569 -12.094 -29.749  0.00  0.00    -0.082 A 
ATOM     35  H   PHE d   1     -77.526 -10.922 -31.206  0.00  0.00     0.084 H 
ATOM     36  CZ  PHE d   1     -78.457 -12.974 -28.691  0.00  0.00    -0.083 A 
ATOM     37  H   PHE d   1     -79.548 -11.774 -30.086  0.00  0.00     0.083 H 
ATOM     38  CE2 PHE d   1     -77.208 -13.381 -28.270  0.00  0.00    -0.082 A 
ATOM     39  H   PHE d   1     -79.346 -13.343 -28.194  0.00  0.00     0.083 H 
ATOM     40  CD2 PHE d   1     -76.073 -12.907 -28.906  0.00  0.00    -0.077 A 
ATOM     41  H   PHE d   1     -77.115 -14.073 -27.441  0.00  0.00     0.083 H 
ATOM     42  H   PHE d   1     -75.096 -13.231 -28.566  0.00  0.00     0.084 H 
ENDBRANCH  29  32
ENDBRANCH  23  29
ENDBRANCH  20  23
ENDBRANCH  17  19
BRANCH  17  43
ATOM     43  CB  ASN d   1     -75.168 -15.239 -34.349  0.00  0.00     0.036 C 
ATOM     44  H   ASN d   1     -74.638 -16.197 -34.239  0.00  0.00     0.051 H 
ATOM     45  H   ASN d   1     -74.458 -14.462 -34.667  0.00  0.00     0.051 H 
BRANCH  43  46
ATOM     46  CG  ASN d   1     -76.234 -15.392 -35.418  0.00  0.00     0.217 C 
ATOM     47  OD1 ASN d   1     -76.574 -16.505 -35.823  0.00  0.00    -0.274 OA
ATOM     48  ND2 ASN d   1     -76.784 -14.269 -35.867  0.00  0.00    -0.370 N 
ATOM     49  H   ASN d   1     -77.492 -14.306 -36.572  0.00  0.00     0.159 HD
ATOM     50  H   ASN d   1     -76.490 -13.387 -35.500  0.00  0.00     0.159 HD
ENDBRANCH  43  46
ENDBRANCH  17  43
ENDBRANCH  14  17
ENDBRANCH  11  13
BRANCH  11  51
ATOM     51  CB  ILE d   1     -77.880 -18.702 -30.964  0.00  0.00    -0.030 C 
ATOM     52  H   ILE d   1     -78.096 -19.089 -31.971  0.00  0.00     0.043 H 
BRANCH  51  53
ATOM     53  CG1 ILE d   1     -78.995 -17.732 -30.567  0.00  0.00    -0.063 C 
ATOM     54  H   ILE d   1     -79.955 -18.262 -30.649  0.00  0.00     0.033 H 
ATOM     55  H   ILE d   1     -78.981 -16.887 -31.271  0.00  0.00     0.033 H 
BRANCH  53  56
ATOM     56  CD1 ILE d   1     -78.880 -17.175 -29.158  0.00  0.00    -0.076 C 
ATOM     57  H   ILE d   1     -79.720 -16.492 -28.964  0.00  0.00     0.027 H 
ATOM     58  H   ILE d   1     -77.931 -16.628 -29.056  0.00  0.00     0.027 H 
ATOM     59  H   ILE d   1     -78.905 -18.002 -28.433  0.00  0.00     0.027 H 
ENDBRANCH  53  56
ENDBRANCH  51  53
BRANCH  51  60
ATOM     60  CG2 ILE d   1     -77.837 -19.862 -30.005  0.00  0.00    -0.071 C 
ATOM     61  H   ILE d   1     -77.033 -20.552 -30.300  0.00  0.00     0.028 H 
ATOM     62  H   ILE d   1     -78.801 -20.392 -30.027  0.00  0.00     0.028 H 
ATOM     63  H   ILE d   1     -77.646 -19.490 -28.988  0.00  0.00     0.028 H 
ENDBRANCH  51  60
ENDBRANCH  11  51
ENDBRANCH   8  11
ENDBRANCH   5   7
BRANCH   5  64
ATOM     64  CB  VAL d   1     -74.332 -20.514 -34.619  0.00  0.00    -0.033 C 
ATOM     65  H   VAL d   1     -73.462 -21.135 -34.877  0.00  0.00     0.042 H 
BRANCH  64  66
ATOM     66  CG1 VAL d   1     -75.579 -21.380 -34.794  0.00  0.00    -0.071 C 
ATOM     67  H   VAL d   1     -75.673 -21.679 -35.849  0.00  0.00     0.028 H 
ATOM     68  H   VAL d   1     -76.469 -20.806 -34.495  0.00  0.00     0.028 H 
ATOM     69  H   VAL d   1     -75.493 -22.278 -34.165  0.00  0.00     0.028 H 
ENDBRANCH  64  66
BRANCH  64  70
ATOM     70  CG2 VAL d   1     -74.329 -19.316 -35.565  0.00  0.00    -0.071 C 
ATOM     71  H   VAL d   1     -73.416 -18.724 -35.404  0.00  0.00     0.028 H 
ATOM     72  H   VAL d   1     -75.212 -18.690 -35.367  0.00  0.00     0.028 H 
ATOM     73  H   VAL d   1     -74.357 -19.671 -36.606  0.00  0.00     0.028 H 
ENDBRANCH  64  70
ENDBRANCH   5  64
ENDBRANCH   1   5
BRANCH   3  74
ATOM     74  CA  GLY d   1     -70.584 -19.488 -32.043  0.00  0.00     0.069 C 
ATOM     75  H   GLY d   1     -69.995 -20.250 -31.512  0.00  0.00     0.078 H 
ATOM     76  H   GLY d   1     -70.769 -18.636 -31.373  0.00  0.00     0.078 H 
BRANCH  74  77
ATOM     77  C   GLY d   1     -69.761 -18.992 -33.216  0.00  0.00     0.236 C 
ATOM     78  O   GLY d   1     -69.430 -17.808 -33.278  0.00  0.00    -0.272 OA
ATOM     79  N   THR d   1     -69.427 -19.901 -34.133  0.00  0.00    -0.344 N 
ATOM     80  H   THR d   1     -69.766 -20.835 -34.018  0.00  0.00     0.163 HD
BRANCH  79  81
ATOM     81  CA  THR d   1     -68.590 -19.606 -35.302  0.00  0.00     0.113 C 
ATOM     82  H   THR d   1     -68.525 -20.512 -35.923  0.00  0.00     0.091 H 
BRANCH  81  83
ATOM     83  C   THR d   1     -67.180 -19.250 -34.802  0.00  0.00     0.243 C 
ATOM     84  O   THR d   1     -66.952 -19.126 -33.596  0.00  0.00    -0.271 OA
ATOM     85  N   THR d   1     -66.231 -19.099 -35.717  0.00  0.00    -0.344 N 
ATOM     86  H   THR d   1     -66.464 -19.176 -36.686  0.00  0.00     0.163 HD
BRANCH  85  87
ATOM     87  CA  THR d   1     -64.855 -18.823 -35.330  0.00  0.00     0.113 C 
ATOM     88  H   THR d   1     -64.878 -18.312 -34.356  0.00  0.00     0.091 H 
BRANCH  87  89
ATOM     89  C   THR d   1     -64.155 -17.900 -36.328  0.00  0.00     0.243 C 
ATOM     90  O   THR d   1     -64.667 -17.639 -37.423  0.00  0.00    -0.271 OA
ATOM     91  N   TYR d   1     -62.994 -17.392 -35.918  0.00  0.00    -0.346 N 
ATOM     92  H   TYR d   1     -62.692 -17.587 -34.985  0.00  0.00     0.163 HD
BRANCH  91  93
ATOM     93  CA  TYR d   1     -62.141 -16.565 -36.766  0.00  0.00     0.093 C 
ATOM     94  H   TYR d   1     -62.492 -16.636 -37.806  0.00  0.00     0.088 H 
BRANCH  93  95
ATOM     95  C   TYR d   1     -60.713 -17.110 -36.680  0.00  0.00     0.243 C 
ATOM     96  O   TYR d   1     -60.370 -17.783 -35.706  0.00  0.00    -0.271 OA
ATOM     97  N   PRO d   1     -59.889 -16.845 -37.712  0.00  0.00    -0.336 N 
ATOM     98  CA  PRO d   1     -58.488 -17.285 -37.792  0.00  0.00     0.098 C 
ATOM     99  CD  PRO d   1     -60.306 -16.153 -38.945  0.00  0.00    -0.001 C 
ATOM    100  CB  PRO d   1     -57.991 -16.609 -39.072  0.00  0.00    -0.035 C 
ATOM    101  H   PRO d   1     -58.440 -18.380 -37.885  0.00  0.00     0.089 H 
ATOM    102  CG  PRO d   1     -59.215 -16.488 -39.908  0.00  0.00    -0.048 C 
ATOM    103  H   PRO d   1     -57.234 -17.229 -39.574  0.00  0.00     0.036 H 
ATOM    104  H   PRO d   1     -57.567 -15.618 -38.852  0.00  0.00     0.036 H 
ATOM    105  H   PRO d   1     -59.429 -17.438 -40.420  0.00  0.00     0.035 H 
ATOM    106  H   PRO d   1     -59.097 -15.688 -40.653  0.00  0.00     0.035 H 
ATOM    107  H   PRO d   1     -60.371 -15.067 -38.785  0.00  0.00     0.064 H 
ATOM    108  H   PRO d   1     -61.276 -16.530 -39.301  0.00  0.00     0.064 H 
BRANCH  98 109
ATOM    109  C   PRO d   1     -57.638 -16.860 -36.597  0.00  0.00     0.196 C 
ATOM    110  O   PRO d   1     -56.992 -15.813 -36.642  0.00  0.00    -0.646 OA
ATOM    111  O1  PRO d   1     -57.598 -17.581 -35.565  0.00  0.00    -0.646 OA
ENDBRANCH  98 109
ENDBRANCH  93  95
BRANCH  93 112
ATOM    112  CB  TYR d   1     -62.192 -15.088 -36.332  0.00  0.00    -0.014 C 
ATOM    113  H   TYR d   1     -63.196 -14.882 -35.933  0.00  0.00     0.043 H 
ATOM    114  H   TYR d   1     -62.015 -14.463 -37.220  0.00  0.00     0.043 H 
BRANCH 112 115
ATOM    115  CG  TYR d   1     -61.172 -14.704 -35.271  0.00  0.00    -0.056 A 
ATOM    116  CD1 TYR d   1     -61.456 -14.864 -33.921  0.00  0.00    -0.074 A 
ATOM    117  CE1 TYR d   1     -60.536 -14.515 -32.948  0.00  0.00    -0.051 A 
ATOM    118  H   TYR d   1     -62.416 -15.270 -33.624  0.00  0.00     0.084 H 
ATOM    119  CZ  TYR d   1     -59.314 -13.994 -33.316  0.00  0.00     0.065 A 
ATOM    120  H   TYR d   1     -60.776 -14.651 -31.900  0.00  0.00     0.087 H 
ATOM    121  CE2 TYR d   1     -59.004 -13.821 -34.649  0.00  0.00    -0.051 A 
ATOM    122  CD2 TYR d   1     -59.931 -14.171 -35.619  0.00  0.00    -0.074 A 
ATOM    123  H   TYR d   1     -58.041 -13.414 -34.937  0.00  0.00     0.087 H 
ATOM    124  H   TYR d   1     -59.687 -14.028 -36.666  0.00  0.00     0.084 H 
BRANCH 119 125
ATOM    125  OH  TYR d   1     -58.402 -13.648 -32.344  0.00  0.00    -0.361 OA
ATOM    126  H   TYR d   1     -58.770 -13.829 -31.487  0.00  0.00     0.217 HD
ENDBRANCH 119 125
ENDBRANCH 112 115
ENDBRANCH  93 112
ENDBRANCH  91  93
ENDBRANCH  87  89
BRANCH  87 127
ATOM    127  CB  THR d   1     -64.047 -20.138 -35.164  0.00  0.00     0.060 C 
ATOM    128  H   THR d   1     -64.504 -20.728 -34.355  0.00  0.00     0.086 H 
BRANCH 127 129
ATOM    129  OG1 THR d   1     -62.689 -19.842 -34.810  0.00  0.00    -0.393 OA
ATOM    130  H   THR d   1     -62.292 -19.316 -35.494  0.00  0.00     0.210 HD
ENDBRANCH 127 129
BRANCH 127 131
ATOM    131  CG2 THR d   1     -64.072 -20.963 -36.437  0.00  0.00    -0.050 C 
ATOM    132  H   THR d   1     -63.492 -21.886 -36.287  0.00  0.00     0.031 H 
ATOM    133  H   THR d   1     -63.630 -20.382 -37.260  0.00  0.00     0.031 H 
ATOM    134  H   THR d   1     -65.112 -21.220 -36.687  0.00  0.00     0.031 H 
ENDBRANCH 127 131
ENDBRANCH  87 127
ENDBRANCH  85  87
ENDBRANCH  81  83
BRANCH  81 135
ATOM    135  CB  THR d   1     -69.191 -18.469 -36.179  0.00  0.00     0.060 C 
ATOM    136  H   THR d   1     -69.010 -17.506 -35.679  0.00  0.00     0.086 H 
BRANCH 135 137
ATOM    137  OG1 THR d   1     -70.601 -18.669 -36.319  0.00  0.00    -0.393 OA
ATOM    138  H   THR d   1     -70.967 -17.975 -36.854  0.00  0.00     0.210 HD
ENDBRANCH 135 137
BRANCH 135 139
ATOM    139  CG2 THR d   1     -68.558 -18.427 -37.568  0.00  0.00    -0.050 C 
ATOM    140  H   THR d   1     -69.010 -17.612 -38.152  0.00  0.00     0.031 H 
ATOM    141  H   THR d   1     -68.732 -19.385 -38.079  0.00  0.00     0.031 H 
ATOM    142  H   THR d   1     -67.476 -18.253 -37.473  0.00  0.00     0.031 H 
ENDBRANCH 135 139
ENDBRANCH  81 135
ENDBRANCH  79  81
ENDBRANCH  74  77
ENDBRANCH   3  74
TORSDOF 37
