REMARK WARNING: 32 MAX_TORS EXCEEDED!!!
REMARK  38 active torsions:
REMARK  status: ('A' for Active; 'I' for Inactive)
REMARK    1  A    between atoms: N_1  and  CA_2 
REMARK    2  A    between atoms: CA_2  and  C_3 
REMARK    3  A    between atoms: CA_2  and  CB_5 
REMARK       I    between atoms: C_3  and  N_12 
REMARK    4  A    between atoms: CB_5  and  CG_6 
REMARK    5  A    between atoms: N_12  and  CA_13 
REMARK    6  A    between atoms: CA_13  and  C_14 
REMARK    7  A    between atoms: CA_13  and  CB_16 
REMARK       I    between atoms: C_14  and  N_18 
REMARK    8  A    between atoms: CB_16  and  OG_17 
REMARK    9  A    between atoms: N_18  and  CA_19 
REMARK   10  A    between atoms: CA_19  and  C_20 
REMARK   11  A    between atoms: CA_19  and  CB_22 
REMARK       I    between atoms: C_20  and  N_26 
REMARK   12  A    between atoms: CB_22  and  CG1_23 
REMARK   13  A    between atoms: CB_22  and  CG2_24 
REMARK   14  A    between atoms: CG1_23  and  CD1_25 
REMARK   15  A    between atoms: N_26  and  CA_27 
REMARK   16  A    between atoms: CA_27  and  C_28 
REMARK   17  A    between atoms: CA_27  and  CB_30 
REMARK       I    between atoms: C_28  and  N_33 
REMARK   18  A    between atoms: CB_30  and  CG1_31 
REMARK   19  A    between atoms: CB_30  and  CG2_32 
REMARK   20  A    between atoms: N_33  and  CA_34 
REMARK   21  A    between atoms: CA_34  and  C_35 
REMARK       I    between atoms: C_35  and  N_37 
REMARK   22  A    between atoms: N_37  and  CA_38 
REMARK   23  A    between atoms: CA_38  and  C_39 
REMARK   24  A    between atoms: CA_38  and  CB_41 
REMARK       I    between atoms: C_39  and  N_44 
REMARK   25  A    between atoms: CB_41  and  OG1_42 
REMARK   26  A    between atoms: CB_41  and  CG2_43 
REMARK   27  A    between atoms: N_44  and  CA_45 
REMARK   28  A    between atoms: CA_45  and  C_46 
REMARK   29  A    between atoms: CA_45  and  CB_48 
REMARK       I    between atoms: C_46  and  N_52 
REMARK   30  A    between atoms: CB_48  and  CG_49 
REMARK   31  A    between atoms: CG_49  and  CD1_50 
REMARK   32  A    between atoms: CG_49  and  CD2_51 
REMARK   33  A    between atoms: N_52  and  CA_53 
REMARK   34  A    between atoms: CA_53  and  C_54 
REMARK   35  A    between atoms: CA_53  and  CB_56 
REMARK       I    between atoms: C_54  and  N_64 
REMARK   36  A    between atoms: CB_56  and  CG_57 
REMARK   37  A    between atoms: CZ_62  and  OH_63 
REMARK   38  A    between atoms: CA_65  and  C_66 
ROOT
ATOM      1  CA  GLY d   1     253.792 201.043 109.885  0.00  0.00     0.069 C 
ATOM      2  H   GLY d   1     253.964 201.386 110.916  0.00  0.00     0.078 H 
ATOM      3  H   GLY d   1     253.585 199.963 109.888  0.00  0.00     0.078 H 
ENDROOT
BRANCH   1   4
ATOM      4  N   GLY d   1     255.003 201.276 109.116  0.00  0.00    -0.351 N 
ATOM      5  C   VAL d   1     255.072 201.019 107.813  0.00  0.00     0.241 C 
ATOM      6  O   VAL d   1     254.125 200.568 107.166  0.00  0.00    -0.271 OA
ATOM      7  H   GLY d   1     255.810 201.641 109.581  0.00  0.00     0.163 HD
BRANCH   5   8
ATOM      8  CA  VAL d   1     256.409 201.298 107.134  0.00  0.00     0.092 C 
ATOM      9  H   VAL d   1     257.187 201.386 107.906  0.00  0.00     0.088 H 
BRANCH   8  10
ATOM     10  N   VAL d   1     256.755 200.189 106.253  0.00  0.00    -0.346 N 
ATOM     11  C   ILE d   1     257.620 199.244 106.605  0.00  0.00     0.241 C 
ATOM     12  O   ILE d   1     258.257 199.275 107.659  0.00  0.00    -0.271 OA
ATOM     13  H   VAL d   1     256.326 200.138 105.351  0.00  0.00     0.163 HD
BRANCH  11  14
ATOM     14  CA  ILE d   1     257.783 198.092 105.615  0.00  0.00     0.092 C 
ATOM     15  H   ILE d   1     257.594 197.146 106.142  0.00  0.00     0.088 H 
BRANCH  14  16
ATOM     16  N   ILE d   1     256.806 198.225 104.543  0.00  0.00    -0.346 N 
ATOM     17  C   SER d   1     255.553 197.813 104.692  0.00  0.00     0.243 C 
ATOM     18  O   SER d   1     255.143 197.276 105.720  0.00  0.00    -0.271 OA
ATOM     19  H   ILE d   1     257.086 198.636 103.675  0.00  0.00     0.163 HD
BRANCH  17  20
ATOM     20  CA  SER d   1     254.625 198.036 103.505  0.00  0.00     0.109 C 
ATOM     21  H   SER d   1     255.240 198.204 102.609  0.00  0.00     0.090 H 
BRANCH  20  22
ATOM     22  N   SER d   1     253.796 196.860 103.279  0.00  0.00    -0.344 N 
ATOM     23  C   PHE d   1     253.366 196.527 102.067  0.00  0.00     0.249 C 
ATOM     24  O   PHE d   1     253.569 197.217 101.068  0.00  0.00    -0.271 OA
ATOM     25  H   SER d   1     253.543 196.287 104.058  0.00  0.00     0.163 HD
BRANCH  23  26
ATOM     26  CA  PHE d   1     252.602 195.213 101.971  0.00  0.00     0.179 C 
ATOM     27  H   PHE d   1     252.266 194.937 102.981  0.00  0.00     0.099 H 
BRANCH  26  28
ATOM     28  N   PHE d   1     251.424 195.328 101.120  0.00  0.00    -0.066 N 
ATOM     29  H   PHE d   1     250.948 194.440 101.083  0.00  0.00     0.275 HD
ATOM     30  H   PHE d   1     251.706 195.597 100.190  0.00  0.00     0.275 HD
ATOM     31  H   PHE d   1     250.803 196.026 101.498  0.00  0.00     0.275 HD
ENDBRANCH  26  28
BRANCH  26  32
ATOM     32  CB  PHE d   1     253.534 194.115 101.454  0.00  0.00    -0.006 C 
ATOM     33  H   PHE d   1     253.673 194.258 100.372  0.00  0.00     0.043 H 
ATOM     34  H   PHE d   1     253.058 193.141 101.637  0.00  0.00     0.043 H 
BRANCH  32  35
ATOM     35  CG  PHE d   1     254.887 194.113 102.110  0.00  0.00    -0.056 A 
ATOM     36  CD1 PHE d   1     255.068 193.524 103.351  0.00  0.00    -0.077 A 
ATOM     37  CE1 PHE d   1     256.310 193.522 103.960  0.00  0.00    -0.082 A 
ATOM     38  H   PHE d   1     254.226 193.059 103.851  0.00  0.00     0.084 H 
ATOM     39  CZ  PHE d   1     257.388 194.112 103.329  0.00  0.00    -0.083 A 
ATOM     40  H   PHE d   1     256.437 193.058 104.931  0.00  0.00     0.083 H 
ATOM     41  CE2 PHE d   1     257.221 194.705 102.092  0.00  0.00    -0.082 A 
ATOM     42  H   PHE d   1     258.363 194.110 103.803  0.00  0.00     0.083 H 
ATOM     43  CD2 PHE d   1     255.977 194.702 101.487  0.00  0.00    -0.077 A 
ATOM     44  H   PHE d   1     258.064 195.172 101.596  0.00  0.00     0.083 H 
ATOM     45  H   PHE d   1     255.853 195.165 100.515  0.00  0.00     0.084 H 
ENDBRANCH  32  35
ENDBRANCH  26  32
ENDBRANCH  23  26
ENDBRANCH  20  22
BRANCH  20  46
ATOM     46  CB  SER d   1     253.758 199.275 103.736  0.00  0.00     0.044 C 
ATOM     47  H   SER d   1     253.119 199.108 104.615  0.00  0.00     0.077 H 
ATOM     48  H   SER d   1     253.127 199.443 102.850  0.00  0.00     0.077 H 
BRANCH  46  49
ATOM     49  OG  SER d   1     254.561 200.422 103.958  0.00  0.00    -0.398 OA
ATOM     50  H   SER d   1     254.001 201.177 104.099  0.00  0.00     0.209 HD
ENDBRANCH  46  49
ENDBRANCH  20  46
ENDBRANCH  17  20
ENDBRANCH  14  16
BRANCH  14  51
ATOM     51  CB  ILE d   1     259.224 198.059 105.064  0.00  0.00    -0.030 C 
ATOM     52  H   ILE d   1     259.212 197.482 104.128  0.00  0.00     0.043 H 
BRANCH  51  53
ATOM     53  CG1 ILE d   1     260.161 197.339 106.037  0.00  0.00    -0.063 C 
ATOM     54  H   ILE d   1     260.066 197.812 107.026  0.00  0.00     0.033 H 
ATOM     55  H   ILE d   1     261.193 197.452 105.674  0.00  0.00     0.033 H 
BRANCH  53  56
ATOM     56  CD1 ILE d   1     259.864 195.866 106.182  0.00  0.00    -0.076 C 
ATOM     57  H   ILE d   1     260.573 195.417 106.893  0.00  0.00     0.027 H 
ATOM     58  H   ILE d   1     259.965 195.374 105.204  0.00  0.00     0.027 H 
ATOM     59  H   ILE d   1     258.838 195.734 106.555  0.00  0.00     0.027 H 
ENDBRANCH  53  56
ENDBRANCH  51  53
BRANCH  51  60
ATOM     60  CG2 ILE d   1     259.708 199.463 104.730  0.00  0.00    -0.071 C 
ATOM     61  H   ILE d   1     259.004 199.937 104.030  0.00  0.00     0.028 H 
ATOM     62  H   ILE d   1     260.704 199.407 104.266  0.00  0.00     0.028 H 
ATOM     63  H   ILE d   1     259.766 200.060 105.652  0.00  0.00     0.028 H 
ENDBRANCH  51  60
ENDBRANCH  14  51
ENDBRANCH  11  14
ENDBRANCH   8  10
BRANCH   8  64
ATOM     64  CB  VAL d   1     256.335 202.632 106.360  0.00  0.00    -0.033 C 
ATOM     65  H   VAL d   1     255.595 202.522 105.554  0.00  0.00     0.042 H 
BRANCH  64  66
ATOM     66  CG1 VAL d   1     255.882 203.764 107.270  0.00  0.00    -0.071 C 
ATOM     67  H   VAL d   1     255.838 204.701 106.695  0.00  0.00     0.028 H 
ATOM     68  H   VAL d   1     256.596 203.876 108.099  0.00  0.00     0.028 H 
ATOM     69  H   VAL d   1     254.885 203.534 107.673  0.00  0.00     0.028 H 
ENDBRANCH  64  66
BRANCH  64  70
ATOM     70  CG2 VAL d   1     257.681 202.954 105.732  0.00  0.00    -0.071 C 
ATOM     71  H   VAL d   1     257.989 202.124 105.079  0.00  0.00     0.028 H 
ATOM     72  H   VAL d   1     258.431 203.095 106.524  0.00  0.00     0.028 H 
ATOM     73  H   VAL d   1     257.597 203.876 105.138  0.00  0.00     0.028 H 
ENDBRANCH  64  70
ENDBRANCH   8  64
ENDBRANCH   5   8
ENDBRANCH   1   4
BRANCH   1  74
ATOM     74  C   GLY d   1     252.573 201.762 109.338  0.00  0.00     0.236 C 
ATOM     75  O   GLY d   1     252.615 202.964 109.078  0.00  0.00    -0.272 OA
ATOM     76  N   THR d   1     251.486 201.018 109.161  0.00  0.00    -0.344 N 
ATOM     77  H   THR d   1     251.517 200.048 109.403  0.00  0.00     0.163 HD
BRANCH  76  78
ATOM     78  CA  THR d   1     250.249 201.574 108.624  0.00  0.00     0.113 C 
ATOM     79  H   THR d   1     250.498 202.482 108.055  0.00  0.00     0.091 H 
BRANCH  78  80
ATOM     80  C   THR d   1     249.299 201.954 109.755  0.00  0.00     0.243 C 
ATOM     81  O   THR d   1     249.526 201.600 110.912  0.00  0.00    -0.271 OA
ATOM     82  N   LEU d   1     248.238 202.677 109.415  0.00  0.00    -0.346 N 
ATOM     83  H   LEU d   1     248.095 202.907 108.452  0.00  0.00     0.163 HD
BRANCH  82  84
ATOM     84  CA  LEU d   1     247.276 203.145 110.404  0.00  0.00     0.089 C 
ATOM     85  H   LEU d   1     247.466 202.609 111.346  0.00  0.00     0.087 H 
BRANCH  84  86
ATOM     86  C   LEU d   1     245.840 202.868 109.979  0.00  0.00     0.241 C 
ATOM     87  O   LEU d   1     245.565 202.613 108.806  0.00  0.00    -0.271 OA
ATOM     88  N   TYR d   1     244.930 202.919 110.946  0.00  0.00    -0.346 N 
ATOM     89  H   TYR d   1     245.234 203.027 111.892  0.00  0.00     0.163 HD
BRANCH  88  90
ATOM     90  CA  TYR d   1     243.503 202.822 110.671  0.00  0.00     0.093 C 
ATOM     91  H   TYR d   1     243.281 203.436 109.785  0.00  0.00     0.088 H 
BRANCH  90  92
ATOM     92  C   TYR d   1     242.694 203.362 111.844  0.00  0.00     0.243 C 
ATOM     93  O   TYR d   1     242.705 202.783 112.930  0.00  0.00    -0.271 OA
ATOM     94  N   PRO d   1     241.994 204.484 111.621  0.00  0.00    -0.336 N 
ATOM     95  CA  PRO d   1     241.129 205.133 112.614  0.00  0.00     0.098 C 
ATOM     96  CD  PRO d   1     241.995 205.210 110.341  0.00  0.00    -0.001 C 
ATOM     97  CB  PRO d   1     240.472 206.271 111.820  0.00  0.00    -0.035 C 
ATOM     98  H   PRO d   1     241.731 205.532 113.444  0.00  0.00     0.089 H 
ATOM     99  CG  PRO d   1     240.689 205.926 110.374  0.00  0.00    -0.048 C 
ATOM    100  H   PRO d   1     240.947 207.233 112.061  0.00  0.00     0.036 H 
ATOM    101  H   PRO d   1     239.397 206.327 112.045  0.00  0.00     0.036 H 
ATOM    102  H   PRO d   1     240.733 206.838 109.761  0.00  0.00     0.035 H 
ATOM    103  H   PRO d   1     239.882 205.275 110.006  0.00  0.00     0.035 H 
ATOM    104  H   PRO d   1     242.046 204.515 109.490  0.00  0.00     0.064 H 
ATOM    105  H   PRO d   1     242.835 205.918 110.287  0.00  0.00     0.064 H 
BRANCH  95 106
ATOM    106  C   PRO d   1     240.070 204.191 113.179  0.00  0.00     0.196 C 
ATOM    107  O   PRO d   1     239.030 204.671 113.629  0.00  0.00    -0.646 OA
ATOM    108  O1  PRO d   1     240.257 202.945 113.185  0.00  0.00    -0.646 OA
ENDBRANCH  95 106
ENDBRANCH  90  92
BRANCH  90 109
ATOM    109  CB  TYR d   1     243.097 201.378 110.367  0.00  0.00    -0.014 C 
ATOM    110  H   TYR d   1     242.312 201.079 111.078  0.00  0.00     0.043 H 
ATOM    111  H   TYR d   1     243.978 200.732 110.500  0.00  0.00     0.043 H 
BRANCH 109 112
ATOM    112  CG  TYR d   1     242.570 201.188 108.962  0.00  0.00    -0.056 A 
ATOM    113  CD1 TYR d   1     242.379 202.277 108.119  0.00  0.00    -0.074 A 
ATOM    114  CE1 TYR d   1     241.899 202.112 106.834  0.00  0.00    -0.051 A 
ATOM    115  H   TYR d   1     242.611 203.274 108.477  0.00  0.00     0.084 H 
ATOM    116  CZ  TYR d   1     241.599 200.847 106.377  0.00  0.00     0.065 A 
ATOM    117  H   TYR d   1     241.759 202.972 106.189  0.00  0.00     0.087 H 
ATOM    118  CE2 TYR d   1     241.777 199.749 107.193  0.00  0.00    -0.051 A 
ATOM    119  CD2 TYR d   1     242.259 199.924 108.478  0.00  0.00    -0.074 A 
ATOM    120  H   TYR d   1     241.541 198.755 106.830  0.00  0.00     0.087 H 
ATOM    121  H   TYR d   1     242.396 199.060 109.118  0.00  0.00     0.084 H 
BRANCH 116 122
ATOM    122  OH  TYR d   1     241.119 200.680 105.098  0.00  0.00    -0.361 OA
ATOM    123  H   TYR d   1     241.055 201.527 104.672  0.00  0.00     0.217 HD
ENDBRANCH 116 122
ENDBRANCH 109 112
ENDBRANCH  90 109
ENDBRANCH  88  90
ENDBRANCH  84  86
BRANCH  84 124
ATOM    124  CB  LEU d   1     247.456 204.644 110.652  0.00  0.00    -0.035 C 
ATOM    125  H   LEU d   1     246.476 205.123 110.513  0.00  0.00     0.037 H 
ATOM    126  H   LEU d   1     248.160 205.023 109.896  0.00  0.00     0.037 H 
BRANCH 124 127
ATOM    127  CG  LEU d   1     247.983 205.066 112.023  0.00  0.00    -0.059 C 
ATOM    128  H   LEU d   1     248.981 204.624 112.161  0.00  0.00     0.038 H 
BRANCH 127 129
ATOM    129  CD1 LEU d   1     248.117 206.579 112.096  0.00  0.00    -0.073 C 
ATOM    130  H   LEU d   1     248.497 206.866 113.088  0.00  0.00     0.028 H 
ATOM    131  H   LEU d   1     247.133 207.043 111.932  0.00  0.00     0.028 H 
ATOM    132  H   LEU d   1     248.818 206.923 111.321  0.00  0.00     0.028 H 
ENDBRANCH 127 129
BRANCH 127 133
ATOM    133  CD2 LEU d   1     247.078 204.550 113.130  0.00  0.00    -0.073 C 
ATOM    134  H   LEU d   1     246.997 203.456 113.057  0.00  0.00     0.028 H 
ATOM    135  H   LEU d   1     246.079 205.000 113.027  0.00  0.00     0.028 H 
ATOM    136  H   LEU d   1     247.503 204.821 114.108  0.00  0.00     0.028 H 
ENDBRANCH 127 133
ENDBRANCH 124 127
ENDBRANCH  84 124
ENDBRANCH  82  84
ENDBRANCH  78  80
BRANCH  78 137
ATOM    137  CB  THR d   1     249.548 200.580 107.674  0.00  0.00     0.060 C 
ATOM    138  H   THR d   1     248.837 199.974 108.254  0.00  0.00     0.086 H 
BRANCH 137 139
ATOM    139  OG1 THR d   1     250.524 199.718 107.076  0.00  0.00    -0.393 OA
ATOM    140  H   THR d   1     250.980 199.237 107.757  0.00  0.00     0.210 HD
ENDBRANCH 137 139
BRANCH 137 141
ATOM    141  CG2 THR d   1     248.790 201.318 106.577  0.00  0.00    -0.050 C 
ATOM    142  H   THR d   1     248.300 200.588 105.915  0.00  0.00     0.031 H 
ATOM    143  H   THR d   1     249.494 201.929 105.993  0.00  0.00     0.031 H 
ATOM    144  H   THR d   1     248.029 201.969 107.032  0.00  0.00     0.031 H 
ENDBRANCH 137 141
ENDBRANCH  78 137
ENDBRANCH  76  78
ENDBRANCH   1  74
TORSDOF 38
