REMARK WARNING: 32 MAX_TORS EXCEEDED!!!
REMARK  38 active torsions:
REMARK  status: ('A' for Active; 'I' for Inactive)
REMARK    1  A    between atoms: N_1  and  CA_2 
REMARK    2  A    between atoms: CA_2  and  C_3 
REMARK    3  A    between atoms: CA_2  and  CB_5 
REMARK       I    between atoms: C_3  and  N_12 
REMARK    4  A    between atoms: CB_5  and  CG_6 
REMARK    5  A    between atoms: N_12  and  CA_13 
REMARK    6  A    between atoms: CA_13  and  C_14 
REMARK    7  A    between atoms: CA_13  and  CB_16 
REMARK       I    between atoms: C_14  and  N_18 
REMARK    8  A    between atoms: CB_16  and  OG_17 
REMARK    9  A    between atoms: N_18  and  CA_19 
REMARK   10  A    between atoms: CA_19  and  C_20 
REMARK   11  A    between atoms: CA_19  and  CB_22 
REMARK       I    between atoms: C_20  and  N_26 
REMARK   12  A    between atoms: CB_22  and  CG1_23 
REMARK   13  A    between atoms: CB_22  and  CG2_24 
REMARK   14  A    between atoms: CG1_23  and  CD1_25 
REMARK   15  A    between atoms: N_26  and  CA_27 
REMARK   16  A    between atoms: CA_27  and  C_28 
REMARK   17  A    between atoms: CA_27  and  CB_30 
REMARK       I    between atoms: C_28  and  N_33 
REMARK   18  A    between atoms: CB_30  and  CG1_31 
REMARK   19  A    between atoms: CB_30  and  CG2_32 
REMARK   20  A    between atoms: N_33  and  CA_34 
REMARK   21  A    between atoms: CA_34  and  C_35 
REMARK       I    between atoms: C_35  and  N_37 
REMARK   22  A    between atoms: N_37  and  CA_38 
REMARK   23  A    between atoms: CA_38  and  C_39 
REMARK   24  A    between atoms: CA_38  and  CB_41 
REMARK       I    between atoms: C_39  and  N_44 
REMARK   25  A    between atoms: CB_41  and  OG1_42 
REMARK   26  A    between atoms: CB_41  and  CG2_43 
REMARK   27  A    between atoms: N_44  and  CA_45 
REMARK   28  A    between atoms: CA_45  and  C_46 
REMARK   29  A    between atoms: CA_45  and  CB_48 
REMARK       I    between atoms: C_46  and  N_52 
REMARK   30  A    between atoms: CB_48  and  CG_49 
REMARK   31  A    between atoms: CG_49  and  CD1_50 
REMARK   32  A    between atoms: CG_49  and  CD2_51 
REMARK   33  A    between atoms: N_52  and  CA_53 
REMARK   34  A    between atoms: CA_53  and  C_54 
REMARK   35  A    between atoms: CA_53  and  CB_56 
REMARK       I    between atoms: C_54  and  N_64 
REMARK   36  A    between atoms: CB_56  and  CG_57 
REMARK   37  A    between atoms: CZ_62  and  OH_63 
REMARK   38  A    between atoms: CA_65  and  C_66 
ROOT
ATOM      1  CA  GLY d   1     -68.616 -19.944 -31.454  0.00  0.00     0.069 C 
ATOM      2  H   GLY d   1     -68.193 -20.943 -31.273  0.00  0.00     0.078 H 
ATOM      3  H   GLY d   1     -68.388 -19.290 -30.600  0.00  0.00     0.078 H 
ENDROOT
BRANCH   1   4
ATOM      4  N   GLY d   1     -70.055 -20.064 -31.577  0.00  0.00    -0.351 N 
ATOM      5  C   VAL d   1     -70.816 -19.009 -31.839  0.00  0.00     0.241 C 
ATOM      6  O   VAL d   1     -70.359 -17.892 -32.073  0.00  0.00    -0.271 OA
ATOM      7  H   GLY d   1     -70.483 -20.960 -31.462  0.00  0.00     0.163 HD
BRANCH   5   8
ATOM      8  CA  VAL d   1     -72.317 -19.230 -31.813  0.00  0.00     0.092 C 
ATOM      9  H   VAL d   1     -72.537 -20.148 -31.248  0.00  0.00     0.088 H 
BRANCH   8  10
ATOM     10  N   VAL d   1     -72.934 -18.101 -31.133  0.00  0.00    -0.346 N 
ATOM     11  C   ILE d   1     -73.914 -18.246 -30.250  0.00  0.00     0.241 C 
ATOM     12  O   ILE d   1     -74.425 -19.334 -29.987  0.00  0.00    -0.271 OA
ATOM     13  H   VAL d   1     -72.606 -17.179 -31.339  0.00  0.00     0.163 HD
BRANCH  11  14
ATOM     14  CA  ILE d   1     -74.372 -16.963 -29.560  0.00  0.00     0.092 C 
ATOM     15  H   ILE d   1     -73.526 -16.559 -28.985  0.00  0.00     0.088 H 
BRANCH  14  16
ATOM     16  N   ILE d   1     -74.772 -15.959 -30.536  0.00  0.00    -0.346 N 
ATOM     17  C   SER d   1     -73.879 -15.130 -31.064  0.00  0.00     0.243 C 
ATOM     18  O   SER d   1     -72.690 -15.143 -30.749  0.00  0.00    -0.271 OA
ATOM     19  H   ILE d   1     -75.731 -15.893 -30.812  0.00  0.00     0.163 HD
BRANCH  17  20
ATOM     20  CA  SER d   1     -74.395 -14.148 -32.106  0.00  0.00     0.109 C 
ATOM     21  H   SER d   1     -75.484 -14.049 -31.982  0.00  0.00     0.090 H 
BRANCH  20  22
ATOM     22  N   SER d   1     -73.792 -12.834 -31.924  0.00  0.00    -0.344 N 
ATOM     23  C   PHE d   1     -74.498 -11.712 -32.015  0.00  0.00     0.249 C 
ATOM     24  O   PHE d   1     -75.700 -11.693 -32.281  0.00  0.00    -0.271 OA
ATOM     25  H   SER d   1     -72.814 -12.775 -31.724  0.00  0.00     0.163 HD
BRANCH  23  26
ATOM     26  CA  PHE d   1     -73.727 -10.417 -31.772  0.00  0.00     0.179 C 
ATOM     27  H   PHE d   1     -72.692 -10.679 -31.508  0.00  0.00     0.099 H 
BRANCH  26  28
ATOM     28  N   PHE d   1     -73.692  -9.580 -32.966  0.00  0.00    -0.066 N 
ATOM     29  H   PHE d   1     -73.177  -8.736 -32.770  0.00  0.00     0.275 HD
ATOM     30  H   PHE d   1     -74.633  -9.343 -33.238  0.00  0.00     0.275 HD
ATOM     31  H   PHE d   1     -73.242 -10.082 -33.715  0.00  0.00     0.275 HD
ENDBRANCH  26  28
BRANCH  26  32
ATOM     32  CB  PHE d   1     -74.344  -9.649 -30.601  0.00  0.00    -0.006 C 
ATOM     33  H   PHE d   1     -75.238  -9.121 -30.965  0.00  0.00     0.043 H 
ATOM     34  H   PHE d   1     -73.607  -8.916 -30.240  0.00  0.00     0.043 H 
BRANCH  32  35
ATOM     35  CG  PHE d   1     -74.747 -10.521 -29.448  0.00  0.00    -0.056 A 
ATOM     36  CD1 PHE d   1     -73.791 -11.093 -28.626  0.00  0.00    -0.077 A 
ATOM     37  CE1 PHE d   1     -74.163 -11.897 -27.564  0.00  0.00    -0.082 A 
ATOM     38  H   PHE d   1     -72.740 -10.909 -28.817  0.00  0.00     0.084 H 
ATOM     39  CZ  PHE d   1     -75.499 -12.133 -27.315  0.00  0.00    -0.083 A 
ATOM     40  H   PHE d   1     -73.406 -12.341 -26.928  0.00  0.00     0.083 H 
ATOM     41  CE2 PHE d   1     -76.460 -11.568 -28.126  0.00  0.00    -0.082 A 
ATOM     42  H   PHE d   1     -75.793 -12.762 -26.483  0.00  0.00     0.083 H 
ATOM     43  CD2 PHE d   1     -76.083 -10.767 -29.185  0.00  0.00    -0.077 A 
ATOM     44  H   PHE d   1     -77.510 -11.753 -27.932  0.00  0.00     0.083 H 
ATOM     45  H   PHE d   1     -76.843 -10.325 -29.819  0.00  0.00     0.084 H 
ENDBRANCH  32  35
ENDBRANCH  26  32
ENDBRANCH  23  26
ENDBRANCH  20  22
BRANCH  20  46
ATOM     46  CB  SER d   1     -74.114 -14.677 -33.511  0.00  0.00     0.044 C 
ATOM     47  H   SER d   1     -73.026 -14.750 -33.658  0.00  0.00     0.077 H 
ATOM     48  H   SER d   1     -74.538 -13.981 -34.250  0.00  0.00     0.077 H 
BRANCH  46  49
ATOM     49  OG  SER d   1     -74.693 -15.956 -33.693  0.00  0.00    -0.398 OA
ATOM     50  H   SER d   1     -75.633 -15.897 -33.570  0.00  0.00     0.209 HD
ENDBRANCH  46  49
ENDBRANCH  20  46
ENDBRANCH  17  20
ENDBRANCH  14  16
BRANCH  14  51
ATOM     51  CB  ILE d   1     -75.515 -17.282 -28.576  0.00  0.00    -0.030 C 
ATOM     52  H   ILE d   1     -75.329 -18.276 -28.144  0.00  0.00     0.043 H 
BRANCH  51  53
ATOM     53  CG1 ILE d   1     -76.860 -17.328 -29.310  0.00  0.00    -0.063 C 
ATOM     54  H   ILE d   1     -76.754 -17.974 -30.194  0.00  0.00     0.033 H 
ATOM     55  H   ILE d   1     -77.119 -16.308 -29.630  0.00  0.00     0.033 H 
BRANCH  53  56
ATOM     56  CD1 ILE d   1     -77.970 -17.857 -28.465  0.00  0.00    -0.076 C 
ATOM     57  H   ILE d   1     -78.903 -17.864 -29.048  0.00  0.00     0.027 H 
ATOM     58  H   ILE d   1     -78.095 -17.215 -27.580  0.00  0.00     0.027 H 
ATOM     59  H   ILE d   1     -77.730 -18.881 -28.144  0.00  0.00     0.027 H 
ENDBRANCH  53  56
ENDBRANCH  51  53
BRANCH  51  60
ATOM     60  CG2 ILE d   1     -75.539 -16.259 -27.426  0.00  0.00    -0.071 C 
ATOM     61  H   ILE d   1     -74.561 -16.251 -26.922  0.00  0.00     0.028 H 
ATOM     62  H   ILE d   1     -76.322 -16.537 -26.704  0.00  0.00     0.028 H 
ATOM     63  H   ILE d   1     -75.751 -15.258 -27.830  0.00  0.00     0.028 H 
ENDBRANCH  51  60
ENDBRANCH  14  51
ENDBRANCH  11  14
ENDBRANCH   8  10
BRANCH   8  64
ATOM     64  CB  VAL d   1     -72.855 -19.398 -33.247  0.00  0.00    -0.033 C 
ATOM     65  H   VAL d   1     -72.687 -18.455 -33.788  0.00  0.00     0.042 H 
BRANCH  64  66
ATOM     66  CG1 VAL d   1     -72.114 -20.504 -33.983  0.00  0.00    -0.071 C 
ATOM     67  H   VAL d   1     -72.518 -20.601 -35.002  0.00  0.00     0.028 H 
ATOM     68  H   VAL d   1     -72.245 -21.454 -33.444  0.00  0.00     0.028 H 
ATOM     69  H   VAL d   1     -71.043 -20.256 -34.035  0.00  0.00     0.028 H 
ENDBRANCH  64  66
BRANCH  64  70
ATOM     70  CG2 VAL d   1     -74.349 -19.673 -33.226  0.00  0.00    -0.071 C 
ATOM     71  H   VAL d   1     -74.864 -18.862 -32.690  0.00  0.00     0.028 H 
ATOM     72  H   VAL d   1     -74.539 -20.628 -32.715  0.00  0.00     0.028 H 
ATOM     73  H   VAL d   1     -74.726 -19.727 -34.258  0.00  0.00     0.028 H 
ENDBRANCH  64  70
ENDBRANCH   8  64
ENDBRANCH   5   8
ENDBRANCH   1   4
BRANCH   1  74
ATOM     74  C   GLY d   1     -67.973 -19.362 -32.696  0.00  0.00     0.236 C 
ATOM     75  O   GLY d   1     -68.359 -19.677 -33.823  0.00  0.00    -0.272 OA
ATOM     76  N   THR d   1     -66.979 -18.510 -32.485  0.00  0.00    -0.344 N 
ATOM     77  H   THR d   1     -66.706 -18.301 -31.546  0.00  0.00     0.163 HD
BRANCH  76  78
ATOM     78  CA  THR d   1     -66.277 -17.872 -33.589  0.00  0.00     0.113 C 
ATOM     79  H   THR d   1     -66.827 -18.101 -34.514  0.00  0.00     0.091 H 
BRANCH  78  80
ATOM     80  C   THR d   1     -64.861 -18.408 -33.737  0.00  0.00     0.243 C 
ATOM     81  O   THR d   1     -64.084 -18.426 -32.782  0.00  0.00    -0.271 OA
ATOM     82  N   LEU d   1     -64.540 -18.839 -34.951  0.00  0.00    -0.346 N 
ATOM     83  H   LEU d   1     -65.183 -18.685 -35.701  0.00  0.00     0.163 HD
BRANCH  82  84
ATOM     84  CA  LEU d   1     -63.290 -19.526 -35.233  0.00  0.00     0.089 C 
ATOM     85  H   LEU d   1     -63.096 -20.240 -34.419  0.00  0.00     0.087 H 
BRANCH  84  86
ATOM     86  C   LEU d   1     -62.127 -18.543 -35.301  0.00  0.00     0.241 C 
ATOM     87  O   LEU d   1     -62.303 -17.379 -35.661  0.00  0.00    -0.271 OA
ATOM     88  N   TYR d   1     -60.937 -19.022 -34.956  0.00  0.00    -0.346 N 
ATOM     89  H   TYR d   1     -60.869 -19.965 -34.631  0.00  0.00     0.163 HD
BRANCH  88  90
ATOM     90  CA  TYR d   1     -59.728 -18.212 -35.038  0.00  0.00     0.093 C 
ATOM     91  H   TYR d   1     -59.974 -17.263 -35.536  0.00  0.00     0.088 H 
BRANCH  90  92
ATOM     92  C   TYR d   1     -58.665 -18.934 -35.857  0.00  0.00     0.243 C 
ATOM     93  O   TYR d   1     -58.445 -20.131 -35.676  0.00  0.00    -0.271 OA
ATOM     94  N   PRO d   1     -58.002 -18.203 -36.765  0.00  0.00    -0.336 N 
ATOM     95  CA  PRO d   1     -56.959 -18.772 -37.626  0.00  0.00     0.098 C 
ATOM     96  CD  PRO d   1     -58.236 -16.777 -37.051  0.00  0.00    -0.001 C 
ATOM     97  CB  PRO d   1     -56.651 -17.632 -38.602  0.00  0.00    -0.035 C 
ATOM     98  H   PRO d   1     -57.342 -19.652 -38.163  0.00  0.00     0.089 H 
ATOM     99  CG  PRO d   1     -57.038 -16.394 -37.864  0.00  0.00    -0.048 C 
ATOM    100  H   PRO d   1     -57.244 -17.737 -39.523  0.00  0.00     0.036 H 
ATOM    101  H   PRO d   1     -55.581 -17.615 -38.855  0.00  0.00     0.036 H 
ATOM    102  H   PRO d   1     -57.292 -15.589 -38.569  0.00  0.00     0.035 H 
ATOM    103  H   PRO d   1     -56.218 -16.063 -37.210  0.00  0.00     0.035 H 
ATOM    104  H   PRO d   1     -58.287 -16.191 -36.122  0.00  0.00     0.064 H 
ATOM    105  H   PRO d   1     -59.164 -16.636 -37.624  0.00  0.00     0.064 H 
BRANCH  95 106
ATOM    106  C   PRO d   1     -55.712 -19.174 -36.843  0.00  0.00     0.196 C 
ATOM    107  O   PRO d   1     -55.562 -20.351 -36.514  0.00  0.00    -0.646 OA
ATOM    108  O1  PRO d   1     -54.846 -18.311 -36.537  0.00  0.00    -0.646 OA
ENDBRANCH  95 106
ENDBRANCH  90  92
BRANCH  90 109
ATOM    109  CB  TYR d   1     -59.187 -17.905 -33.638  0.00  0.00    -0.014 C 
ATOM    110  H   TYR d   1     -58.146 -18.258 -33.589  0.00  0.00     0.043 H 
ATOM    111  H   TYR d   1     -59.796 -18.457 -32.907  0.00  0.00     0.043 H 
BRANCH 109 112
ATOM    112  CG  TYR d   1     -59.206 -16.441 -33.255  0.00  0.00    -0.056 A 
ATOM    113  CD1 TYR d   1     -59.971 -15.523 -33.963  0.00  0.00    -0.074 A 
ATOM    114  CE1 TYR d   1     -59.985 -14.184 -33.612  0.00  0.00    -0.051 A 
ATOM    115  H   TYR d   1     -60.566 -15.860 -34.804  0.00  0.00     0.084 H 
ATOM    116  CZ  TYR d   1     -59.224 -13.750 -32.546  0.00  0.00     0.065 A 
ATOM    117  H   TYR d   1     -60.590 -13.480 -34.172  0.00  0.00     0.087 H 
ATOM    118  CE2 TYR d   1     -58.453 -14.641 -31.831  0.00  0.00    -0.051 A 
ATOM    119  CD2 TYR d   1     -58.446 -15.975 -32.188  0.00  0.00    -0.074 A 
ATOM    120  H   TYR d   1     -57.856 -14.297 -30.994  0.00  0.00     0.087 H 
ATOM    121  H   TYR d   1     -57.836 -16.672 -31.625  0.00  0.00     0.084 H 
BRANCH 116 122
ATOM    122  OH  TYR d   1     -59.233 -12.420 -32.194  0.00  0.00    -0.361 OA
ATOM    123  H   TYR d   1     -59.809 -11.943 -32.779  0.00  0.00     0.217 HD
ENDBRANCH 116 122
ENDBRANCH 109 112
ENDBRANCH  90 109
ENDBRANCH  88  90
ENDBRANCH  84  86
BRANCH  84 124
ATOM    124  CB  LEU d   1     -63.394 -20.303 -36.551  0.00  0.00    -0.035 C 
ATOM    125  H   LEU d   1     -62.450 -20.853 -36.677  0.00  0.00     0.037 H 
ATOM    126  H   LEU d   1     -63.496 -19.561 -37.356  0.00  0.00     0.037 H 
BRANCH 124 127
ATOM    127  CG  LEU d   1     -64.532 -21.316 -36.725  0.00  0.00    -0.059 C 
ATOM    128  H   LEU d   1     -64.766 -21.732 -35.734  0.00  0.00     0.038 H 
BRANCH 127 129
ATOM    129  CD1 LEU d   1     -65.801 -20.657 -37.267  0.00  0.00    -0.073 C 
ATOM    130  H   LEU d   1     -66.590 -21.416 -37.377  0.00  0.00     0.028 H 
ATOM    131  H   LEU d   1     -65.589 -20.204 -38.247  0.00  0.00     0.028 H 
ATOM    132  H   LEU d   1     -66.137 -19.877 -36.568  0.00  0.00     0.028 H 
ENDBRANCH 127 129
BRANCH 127 133
ATOM    133  CD2 LEU d   1     -64.097 -22.462 -37.626  0.00  0.00    -0.073 C 
ATOM    134  H   LEU d   1     -63.184 -22.922 -37.219  0.00  0.00     0.028 H 
ATOM    135  H   LEU d   1     -63.895 -22.078 -38.637  0.00  0.00     0.028 H 
ATOM    136  H   LEU d   1     -64.897 -23.215 -37.673  0.00  0.00     0.028 H 
ENDBRANCH 127 133
ENDBRANCH 124 127
ENDBRANCH  84 124
ENDBRANCH  82  84
ENDBRANCH  78  80
BRANCH  78 137
ATOM    137  CB  THR d   1     -66.241 -16.345 -33.421  0.00  0.00     0.060 C 
ATOM    138  H   THR d   1     -65.690 -15.900 -34.263  0.00  0.00     0.086 H 
BRANCH 137 139
ATOM    139  OG1 THR d   1     -65.583 -16.009 -32.194  0.00  0.00    -0.393 OA
ATOM    140  H   THR d   1     -66.056 -16.395 -31.466  0.00  0.00     0.210 HD
ENDBRANCH 137 139
BRANCH 137 141
ATOM    141  CG2 THR d   1     -67.655 -15.796 -33.401  0.00  0.00    -0.050 C 
ATOM    142  H   THR d   1     -67.622 -14.703 -33.281  0.00  0.00     0.031 H 
ATOM    143  H   THR d   1     -68.209 -16.241 -32.562  0.00  0.00     0.031 H 
ATOM    144  H   THR d   1     -68.159 -16.046 -34.346  0.00  0.00     0.031 H 
ENDBRANCH 137 141
ENDBRANCH  78 137
ENDBRANCH  76  78
ENDBRANCH   1  74
TORSDOF 38
