REMARK  7 active torsions:
REMARK  status: ('A' for Active; 'I' for Inactive)
REMARK    1  A    between atoms: N11_11  and  C04_4 
REMARK       I    between atoms: C12_12  and  N11_11 
REMARK    2  A    between atoms: C14_14  and  C12_12 
REMARK    3  A    between atoms: N15_15  and  C14_14 
REMARK       I    between atoms: C21_21  and  N18_18 
REMARK    4  A    between atoms: C22_22  and  C21_21 
REMARK    5  A    between atoms: C23_23  and  O28_28 
REMARK    6  A    between atoms: C24_24  and  O29_29 
REMARK    7  A    between atoms: N30_30  and  C25_25 
ROOT
ATOM      1  N15 UHB d   1      27.206  43.470   2.544  0.00  0.00    -0.060 N 
ATOM      2  C16 UHB d   1      26.806  42.547   1.363  0.00  0.00     0.099 C 
ATOM      3  C17 UHB d   1      26.386  41.095   1.825  0.00  0.00     0.020 C 
ATOM      4  N18 UHB d   1      25.424  41.168   2.891  0.00  0.00    -0.347 N 
ATOM      5  C19 UHB d   1      25.909  41.859   4.041  0.00  0.00     0.020 C 
ATOM      6  C20 UHB d   1      26.281  43.316   3.741  0.00  0.00     0.099 C 
ATOM      7  C21 UHB d   1      24.082  40.753   2.748  0.00  0.00     0.251 C 
ATOM      8  O27 UHB d   1      23.297  40.948   3.709  0.00  0.00    -0.270 OA
ATOM      9  H   UHB d   1      28.090  43.114   2.871  0.00  0.00     0.280 HD
ATOM     10  H   UHB d   1      27.663  42.462   0.679  0.00  0.00     0.078 H 
ATOM     11  H   UHB d   1      25.958  43.005   0.833  0.00  0.00     0.078 H 
ATOM     12  H   UHB d   1      27.277  40.554   2.177  0.00  0.00     0.066 H 
ATOM     13  H   UHB d   1      25.944  40.557   0.974  0.00  0.00     0.066 H 
ATOM     14  H   UHB d   1      26.802  41.337   4.415  0.00  0.00     0.066 H 
ATOM     15  H   UHB d   1      25.127  41.847   4.815  0.00  0.00     0.066 H 
ATOM     16  H   UHB d   1      25.357  43.878   3.542  0.00  0.00     0.078 H 
ATOM     17  H   UHB d   1      26.782  43.737   4.625  0.00  0.00     0.078 H 
ENDROOT
BRANCH   7  18
ATOM     18  C22 UHB d   1      23.550  40.035   1.492  0.00  0.00     0.145 C 
ATOM     19  C23 UHB d   1      23.099  41.014   0.298  0.00  0.00     0.098 C 
ATOM     20  C24 UHB d   1      21.729  40.468  -0.093  0.00  0.00     0.105 C 
ATOM     21  H   UHB d   1      23.073  42.072   0.599  0.00  0.00     0.091 H 
ATOM     22  C25 UHB d   1      21.512  39.216   0.822  0.00  0.00     0.140 C 
ATOM     23  H   UHB d   1      21.772  40.116  -1.134  0.00  0.00     0.093 H 
ATOM     24  O26 UHB d   1      22.387  39.346   1.880  0.00  0.00    -0.346 OA
ATOM     25  H   UHB d   1      21.859  38.364   0.218  0.00  0.00     0.123 H 
ATOM     26  H   UHB d   1      24.317  39.338   1.123  0.00  0.00     0.102 H 
BRANCH  19  27
ATOM     27  O28 UHB d   1      23.934  40.802  -0.768  0.00  0.00    -0.390 OA
ATOM     28  H   UHB d   1      23.595  41.258  -1.530  0.00  0.00     0.210 HD
ENDBRANCH  19  27
BRANCH  20  29
ATOM     29  O29 UHB d   1      20.781  41.435  -0.055  0.00  0.00    -0.388 OA
ATOM     30  H   UHB d   1      21.022  42.137  -0.648  0.00  0.00     0.210 HD
ENDBRANCH  20  29
BRANCH  22  31
ATOM     31  N30 UHB d   1      20.214  38.812   1.276  0.00  0.00    -0.294 N 
ATOM     32  C32 UHB d   1      19.616  37.626   0.949  0.00  0.00     0.167 A 
ATOM     33  C31 UHB d   1      18.302  37.674   1.503  0.00  0.00     0.149 A 
ATOM     34  N37 UHB d   1      20.153  36.533   0.291  0.00  0.00    -0.222 NA
ATOM     35  N34 UHB d   1      18.067  38.944   2.086  0.00  0.00    -0.236 NA
ATOM     36  C38 UHB d   1      17.485  36.530   1.331  0.00  0.00     0.155 A 
ATOM     37  C33 UHB d   1      19.231  39.605   1.952  0.00  0.00     0.071 A 
ATOM     38  H   UHB d   1      19.404  40.618   2.313  0.00  0.00     0.144 H 
ATOM     39  N35 UHB d   1      18.006  35.421   0.674  0.00  0.00    -0.222 NA
ATOM     40  N39 UHB d   1      16.184  36.432   1.731  0.00  0.00    -0.382 N 
ATOM     41  C36 UHB d   1      19.295  35.492   0.239  0.00  0.00     0.091 A 
ATOM     42  H   UHB d   1      19.686  34.587  -0.211  0.00  0.00     0.146 H 
ATOM     43  H   UHB d   1      15.659  35.561   1.567  0.00  0.00     0.157 HD
ATOM     44  H   UHB d   1      15.727  37.229   2.197  0.00  0.00     0.157 HD
ENDBRANCH  22  31
ENDBRANCH   7  18
BRANCH   1  45
ATOM     45  C14 UHB d   1      27.514  44.836   2.084  0.00  0.00     0.156 C 
ATOM     46  H   UHB d   1      27.945  45.362   2.948  0.00  0.00     0.090 H 
ATOM     47  H   UHB d   1      28.278  44.732   1.299  0.00  0.00     0.090 H 
BRANCH  45  48
ATOM     48  C12 UHB d   1      26.442  45.754   1.517  0.00  0.00     0.248 C 
ATOM     49  N11 UHB d   1      26.751  46.989   0.919  0.00  0.00    -0.325 N 
ATOM     50  H   UHB d   1      27.717  47.247   0.919  0.00  0.00     0.169 HD
ATOM     51  O13 UHB d   1      25.258  45.355   1.602  0.00  0.00    -0.271 OA
BRANCH  49  52
ATOM     52  C04 UHB d   1      25.864  47.907   0.320  0.00  0.00     0.043 A 
ATOM     53  C03 UHB d   1      26.078  49.298   0.513  0.00  0.00    -0.057 A 
ATOM     54  C02 UHB d   1      25.200  50.255   0.004  0.00  0.00    -0.080 A 
ATOM     55  H   UHB d   1      26.948  49.625   1.071  0.00  0.00     0.086 H 
ATOM     56  C01 UHB d   1      24.103  49.897  -0.802  0.00  0.00    -0.067 A 
ATOM     57  H   UHB d   1      25.367  51.301   0.235  0.00  0.00     0.083 H 
ATOM     58  C06 UHB d   1      23.955  48.560  -1.058  0.00  0.00     0.042 A 
ATOM     59  H   UHB d   1      23.416  50.636  -1.197  0.00  0.00     0.085 H 
ATOM     60  C05 UHB d   1      24.758  47.548  -0.510  0.00  0.00     0.002 A 
ATOM     61  C07 UHB d   1      22.925  47.986  -1.946  0.00  0.00     0.252 A 
ATOM     62  C08 UHB d   1      24.164  46.227  -1.012  0.00  0.00     0.022 A 
ATOM     63  N09 UHB d   1      23.089  46.603  -1.880  0.00  0.00    -0.352 N 
ATOM     64  H   UHB d   1      23.788  45.629  -0.169  0.00  0.00     0.071 H 
ATOM     65  H   UHB d   1      24.920  45.649  -1.563  0.00  0.00     0.071 H 
ATOM     66  H   UHB d   1      22.522  45.949  -2.381  0.00  0.00     0.163 HD
ATOM     67  O10 UHB d   1      22.075  48.551  -2.605  0.00  0.00    -0.268 OA
ENDBRANCH  49  52
ENDBRANCH  45  48
ENDBRANCH   1  45
TORSDOF 7
