REMARK  3 active torsions:
REMARK  status: ('A' for Active; 'I' for Inactive)
REMARK    1  A    between atoms: CAS_9  and  CAV_13 
REMARK       I    between atoms: NAR_22  and  CAS_9 
REMARK    2  A    between atoms: CAW_12  and  NBC_26 
REMARK    3  A    between atoms: CAX_19  and  NAR_22 
ROOT
ATOM      1  CAJ 33C d   1      20.479  40.455   0.668  0.00  0.00    -0.066 A 
ATOM      2  CAL 33C d   1      21.621  41.245   0.672  0.00  0.00    -0.056 A 
ATOM      3  CAW 33C d   1      22.306  41.473   1.857  0.00  0.00     0.045 A 
ATOM      4  CAV 33C d   1      19.992  39.938   1.858  0.00  0.00     0.032 A 
ATOM      5  CAK 33C d   1      20.663  40.189   3.043  0.00  0.00    -0.066 A 
ATOM      6  CAM 33C d   1      21.826  40.949   3.048  0.00  0.00    -0.056 A 
ATOM      7  H   33C d   1      19.969  40.243  -0.265  0.00  0.00     0.085 H 
ATOM      8  H   33C d   1      21.978  41.684  -0.252  0.00  0.00     0.087 H 
ATOM      9  H   33C d   1      20.278  39.789   3.974  0.00  0.00     0.085 H 
ATOM     10  H   33C d   1      22.355  41.131   3.977  0.00  0.00     0.087 H 
ENDROOT
BRANCH   3  11
ATOM     11  NBC 33C d   1      23.385  42.258   1.834  0.00  0.00    -0.252 N 
ATOM     12  CAU 33C d   1      24.654  41.820   1.780  0.00  0.00     0.236 A 
ATOM     13  CBE 33C d   1      25.635  42.984   1.674  0.00  0.00     0.043 A 
ATOM     14  OAC 33C d   1      25.009  40.641   1.794  0.00  0.00    -0.272 OA
ATOM     15  CBB 33C d   1      26.274  43.050   0.267  0.00  0.00    -0.025 C 
ATOM     16  CBD 33C d   1      24.714  44.214   1.684  0.00  0.00     0.043 A 
ATOM     17  H   33C d   1      26.386  42.975   2.478  0.00  0.00     0.057 H 
ATOM     18  CAE 33C d   1      25.207  42.841  -0.826  0.00  0.00    -0.101 C 
ATOM     19  CAP 33C d   1      26.443  44.560   0.165  0.00  0.00    -0.051 C 
ATOM     20  H   33C d   1      27.178  42.435   0.145  0.00  0.00     0.047 H 
ATOM     21  CAD 33C d   1      24.419  43.925  -0.809  0.00  0.00    -0.101 C 
ATOM     22  H   33C d   1      25.112  41.979  -1.485  0.00  0.00     0.077 H 
ATOM     23  CBA 33C d   1      24.966  44.859   0.301  0.00  0.00    -0.025 C 
ATOM     24  H   33C d   1      23.560  44.113  -1.451  0.00  0.00     0.077 H 
ATOM     25  H   33C d   1      24.656  45.911   0.216  0.00  0.00     0.047 H 
ATOM     26  H   33C d   1      26.860  44.882  -0.800  0.00  0.00     0.035 H 
ATOM     27  H   33C d   1      27.045  44.982   0.984  0.00  0.00     0.035 H 
ATOM     28  CAT 33C d   1      23.316  43.590   1.776  0.00  0.00     0.236 A 
ATOM     29  H   33C d   1      24.912  44.914   2.509  0.00  0.00     0.057 H 
ATOM     30  OAB 33C d   1      22.262  44.236   1.785  0.00  0.00    -0.272 OA
ENDBRANCH   3  11
BRANCH   4  31
ATOM     31  CAS 33C d   1      18.798  38.977   1.859  0.00  0.00     0.256 C 
ATOM     32  NAR 33C d   1      19.015  37.858   1.152  0.00  0.00    -0.321 N 
ATOM     33  H   33C d   1      19.888  37.796   0.669  0.00  0.00     0.169 HD
ATOM     34  OAA 33C d   1      17.790  39.222   2.505  0.00  0.00    -0.267 OA
BRANCH  32  35
ATOM     35  CAX 33C d   1      18.183  36.812   1.025  0.00  0.00     0.064 A 
ATOM     36  CAI 33C d   1      16.829  36.899   1.375  0.00  0.00    -0.055 A 
ATOM     37  CAG 33C d   1      15.992  35.795   1.285  0.00  0.00    -0.080 A 
ATOM     38  H   33C d   1      16.428  37.844   1.722  0.00  0.00     0.087 H 
ATOM     39  CAO 33C d   1      16.512  34.573   0.841  0.00  0.00    -0.071 A 
ATOM     40  H   33C d   1      14.946  35.878   1.556  0.00  0.00     0.083 H 
ATOM     41  CAY 33C d   1      17.854  34.474   0.470  0.00  0.00    -0.005 A 
ATOM     42  H   33C d   1      15.870  33.701   0.785  0.00  0.00     0.084 H 
ATOM     43  CAN 33C d   1      18.374  33.253   0.035  0.00  0.00    -0.069 A 
ATOM     44  CAZ 33C d   1      18.699  35.595   0.554  0.00  0.00     0.093 A 
ATOM     45  CAF 33C d   1      19.726  33.186  -0.308  0.00  0.00    -0.065 A 
ATOM     46  H   33C d   1      17.741  32.376  -0.035  0.00  0.00     0.085 H 
ATOM     47  CAH 33C d   1      20.532  34.329  -0.205  0.00  0.00     0.003 A 
ATOM     48  H   33C d   1      20.152  32.251  -0.654  0.00  0.00     0.085 H 
ATOM     49  NAQ 33C d   1      20.011  35.483   0.220  0.00  0.00    -0.258 NA
ATOM     50  H   33C d   1      21.581  34.276  -0.471  0.00  0.00     0.114 H 
ENDBRANCH  32  35
ENDBRANCH   4  31
TORSDOF 3
