REMARK  4 active torsions:
REMARK  status: ('A' for Active; 'I' for Inactive)
REMARK    1  A    between atoms: CAI_3  and  CAL_4 
REMARK       I    between atoms: CAL_4  and  NAE_6 
REMARK       I    between atoms: NAF_11  and  CAQ_12 
REMARK    2  A    between atoms: CAQ_12  and  CAR_14 
REMARK    3  A    between atoms: CAT_20  and  CAV_21 
REMARK    4  A    between atoms: CAV_21  and  CAY_22 
ROOT
ATOM      1  CAR 09L d   1      24.658  42.657   1.894  0.00  0.00     0.071 A 
ATOM      2  CAS 09L d   1      25.051  44.001   1.538  0.00  0.00    -0.058 A 
ATOM      3  CAU 09L d   1      25.523  41.560   1.628  0.00  0.00     0.132 A 
ATOM      4  FAA 09L d   1      25.225  40.282   1.994  0.00  0.00    -0.205 F 
ATOM      5  CAX 09L d   1      26.743  41.767   0.953  0.00  0.00    -0.044 A 
ATOM      6  CAW 09L d   1      27.073  43.086   0.589  0.00  0.00    -0.074 A 
ATOM      7  CAT 09L d   1      26.218  44.192   0.872  0.00  0.00    -0.051 A 
ATOM      8  H   09L d   1      24.423  44.845   1.799  0.00  0.00     0.086 H 
ATOM      9  H   09L d   1      27.404  40.939   0.722  0.00  0.00     0.088 H 
ATOM     10  H   09L d   1      28.010  43.268   0.075  0.00  0.00     0.084 H 
ENDROOT
BRANCH   1  11
ATOM     11  CAQ 09L d   1      23.307  42.487   2.593  0.00  0.00     0.257 C 
ATOM     12  NAF 09L d   1      22.434  41.317   2.418  0.00  0.00    -0.345 N 
ATOM     13  CAO 09L d   1      21.176  41.234   3.127  0.00  0.00     0.013 C 
ATOM     14  CAP 09L d   1      22.720  40.151   1.613  0.00  0.00     0.013 C 
ATOM     15  CAM 09L d   1      20.041  40.757   2.301  0.00  0.00     0.013 C 
ATOM     16  H   09L d   1      21.302  40.541   3.972  0.00  0.00     0.066 H 
ATOM     17  H   09L d   1      20.928  42.236   3.507  0.00  0.00     0.066 H 
ATOM     18  NAE 09L d   1      20.466  39.611   1.544  0.00  0.00    -0.348 N 
ATOM     19  H   09L d   1      19.201  40.478   2.954  0.00  0.00     0.066 H 
ATOM     20  H   09L d   1      19.722  41.556   1.615  0.00  0.00     0.066 H 
ATOM     21  CAL 09L d   1      19.859  38.285   1.740  0.00  0.00     0.231 C 
ATOM     22  CAN 09L d   1      21.585  39.929   0.686  0.00  0.00     0.013 C 
ATOM     23  OAB 09L d   1      18.891  38.220   2.569  0.00  0.00    -0.272 OA
ATOM     24  H   09L d   1      21.379  40.837   0.101  0.00  0.00     0.066 H 
ATOM     25  H   09L d   1      21.800  39.094   0.003  0.00  0.00     0.066 H 
ATOM     26  H   09L d   1      23.643  40.315   1.037  0.00  0.00     0.066 H 
ATOM     27  H   09L d   1      22.845  39.273   2.263  0.00  0.00     0.066 H 
ATOM     28  OAC 09L d   1      22.884  43.452   3.215  0.00  0.00    -0.267 OA
BRANCH  21  29
ATOM     29  CAI 09L d   1      20.410  37.059   0.891  0.00  0.00     0.056 A 
ATOM     30  CAJ 09L d   1      19.286  36.388   0.176  0.00  0.00    -0.089 A 
ATOM     31  CAK 09L d   1      19.971  35.694   1.294  0.00  0.00    -0.089 A 
ATOM     32  H   09L d   1      18.522  36.399  -0.600  0.00  0.00     0.078 H 
ATOM     33  H   09L d   1      20.076  34.823   1.939  0.00  0.00     0.078 H 
ATOM     34  H   09L d   1      21.402  37.245   0.453  0.00  0.00     0.067 H 
ENDBRANCH  21  29
ENDBRANCH   1  11
BRANCH   7  35
ATOM     35  CAV 09L d   1      26.686  45.596   0.404  0.00  0.00     0.002 C 
ATOM     36  H   09L d   1      27.532  45.474  -0.288  0.00  0.00     0.049 H 
ATOM     37  H   09L d   1      27.012  46.172   1.283  0.00  0.00     0.049 H 
BRANCH  35  38
ATOM     38  CAY 09L d   1      25.571  46.375  -0.311  0.00  0.00     0.070 A 
ATOM     39  CAZ 09L d   1      25.374  47.798  -0.118  0.00  0.00     0.006 A 
ATOM     40  CBB 09L d   1      26.262  48.615   0.733  0.00  0.00    -0.070 A 
ATOM     41  CBA 09L d   1      24.310  48.417  -0.788  0.00  0.00     0.046 A 
ATOM     42  CBE 09L d   1      25.975  49.980   0.949  0.00  0.00    -0.082 A 
ATOM     43  H   09L d   1      27.135  48.166   1.192  0.00  0.00     0.084 H 
ATOM     44  CBF 09L d   1      24.883  50.578   0.282  0.00  0.00    -0.082 A 
ATOM     45  H   09L d   1      26.589  50.566   1.623  0.00  0.00     0.083 H 
ATOM     46  CBD 09L d   1      24.045  49.805  -0.592  0.00  0.00    -0.067 A 
ATOM     47  H   09L d   1      24.675  51.631   0.431  0.00  0.00     0.083 H 
ATOM     48  H   09L d   1      23.212  50.276  -1.102  0.00  0.00     0.085 H 
ATOM     49  CBC 09L d   1      23.483  47.636  -1.661  0.00  0.00     0.272 A 
ATOM     50  OAD 09L d   1      22.537  48.133  -2.278  0.00  0.00    -0.266 OA
ATOM     51  NAH 09L d   1      23.699  46.318  -1.809  0.00  0.00    -0.243 N 
ATOM     52  NAG 09L d   1      24.752  45.678  -1.122  0.00  0.00    -0.175 NA
ATOM     53  H   09L d   1      23.107  45.785  -2.413  0.00  0.00     0.192 HD
ENDBRANCH  35  38
ENDBRANCH   7  35
TORSDOF 4
