REMARK  2 active torsions:
REMARK  status: ('A' for Active; 'I' for Inactive)
REMARK    1  A    between atoms: NAM_2  and  CAL_4 
REMARK    2  A    between atoms: CAK_10  and  CAI_11 
REMARK       I    between atoms: CAI_11  and  NAA_13 
ROOT
ATOM      1  CAL 33E d   1      23.897  47.609  -1.046  0.00  0.00     0.120 A 
ATOM      2  CAH 33E d   1      23.611  46.235  -1.176  0.00  0.00    -0.035 A 
ATOM      3  CAJ 33E d   1      25.072  48.005  -0.369  0.00  0.00     0.039 A 
ATOM      4  IAE 33E d   1      25.591  50.036  -0.051  0.00  0.00    -0.042 I 
ATOM      5  CAF 33E d   1      25.930  47.058   0.196  0.00  0.00    -0.064 A 
ATOM      6  CAG 33E d   1      25.661  45.699   0.056  0.00  0.00    -0.066 A 
ATOM      7  CAK 33E d   1      24.511  45.290  -0.627  0.00  0.00     0.034 A 
ATOM      8  H   33E d   1      22.715  45.906  -1.689  0.00  0.00     0.088 H 
ATOM      9  H   33E d   1      26.807  47.382   0.745  0.00  0.00     0.085 H 
ATOM     10  H   33E d   1      26.338  44.963   0.474  0.00  0.00     0.085 H 
ENDROOT
BRANCH   7  11
ATOM     11  CAI 33E d   1      24.271  43.783  -0.724  0.00  0.00     0.249 C 
ATOM     12  OAB 33E d   1      23.673  43.274  -1.678  0.00  0.00    -0.268 OA
ATOM     13  NAA 33E d   1      24.794  43.098   0.288  0.00  0.00    -0.366 N 
ATOM     14  H   33E d   1      24.695  42.103   0.323  0.00  0.00     0.159 HD
ATOM     15  H   33E d   1      25.287  43.577   1.014  0.00  0.00     0.159 HD
ENDBRANCH   7  11
BRANCH   1  16
ATOM     16  NAM 33E d   1      23.069  48.541  -1.571  0.00  0.00    -0.114 N 
ATOM     17  OAC 33E d   1      23.139  49.821  -1.172  0.00  0.00    -0.532 OA
ATOM     18  OAD 33E d   1      22.121  48.273  -2.487  0.00  0.00    -0.532 OA
ENDBRANCH   1  16
TORSDOF 2
