REMARK WARNING: 32 MAX_TORS EXCEEDED!!!
REMARK  41 active torsions:
REMARK  status: ('A' for Active; 'I' for Inactive)
REMARK    1  A    between atoms: N_1  and  CA_2 
REMARK    2  A    between atoms: CA_2  and  C_3 
REMARK    3  A    between atoms: CA_2  and  CB_5 
REMARK       I    between atoms: C_3  and  N_8 
REMARK    4  A    between atoms: CB_5  and  OG1_6 
REMARK    5  A    between atoms: CB_5  and  CG2_7 
REMARK    6  A    between atoms: N_8  and  CA_9 
REMARK    7  A    between atoms: CA_9  and  C_10 
REMARK    8  A    between atoms: CA_9  and  CB_12 
REMARK       I    between atoms: C_10  and  N_14 
REMARK    9  A    between atoms: CB_12  and  SG_13 
REMARK   10  A    between atoms: N_14  and  CA_15 
REMARK   11  A    between atoms: CA_15  and  C_16 
REMARK   12  A    between atoms: CA_15  and  CB_18 
REMARK       I    between atoms: C_16  and  N_22 
REMARK   13  A    between atoms: CB_18  and  CG1_19 
REMARK   14  A    between atoms: CB_18  and  CG2_20 
REMARK   15  A    between atoms: CG1_19  and  CD1_21 
REMARK   16  A    between atoms: N_22  and  CA_23 
REMARK   17  A    between atoms: CA_23  and  C_24 
REMARK   18  A    between atoms: CA_23  and  CB_26 
REMARK       I    between atoms: C_24  and  N_34 
REMARK   19  A    between atoms: CB_26  and  CG_27 
REMARK   20  A    between atoms: CZ_32  and  OH_33 
REMARK   21  A    between atoms: N_34  and  CA_35 
REMARK   22  A    between atoms: CA_35  and  C_36 
REMARK   23  A    between atoms: CA_35  and  CB_38 
REMARK       I    between atoms: C_36  and  N_42 
REMARK   24  A    between atoms: CB_38  and  CG_39 
REMARK       I    between atoms: CG_39  and  ND2_41 
REMARK   25  A    between atoms: CA_43  and  C_44 
REMARK       I    between atoms: C_44  and  N_49 
REMARK   26  A    between atoms: N_49  and  CA_50 
REMARK   27  A    between atoms: CA_50  and  C_51 
REMARK   28  A    between atoms: CA_50  and  CB_53 
REMARK       I    between atoms: C_51  and  N_57 
REMARK   29  A    between atoms: CB_53  and  CG_54 
REMARK   30  A    between atoms: CG_54  and  CD1_55 
REMARK   31  A    between atoms: CG_54  and  CD2_56 
REMARK   32  A    between atoms: N_57  and  CA_58 
REMARK   33  A    between atoms: CA_58  and  C_59 
REMARK   34  A    between atoms: CA_58  and  CB_61 
REMARK       I    between atoms: C_59  and  N_68 
REMARK   35  A    between atoms: CB_61  and  CG_62 
REMARK   36  A    between atoms: N_68  and  CA_69 
REMARK   37  A    between atoms: CA_69  and  C_70 
REMARK       I    between atoms: C_70  and  N_72 
REMARK   38  A    between atoms: N_72  and  CA_73 
REMARK   39  A    between atoms: CA_73  and  C_74 
REMARK   40  A    between atoms: CA_73  and  CB_76 
REMARK   41  A    between atoms: CB_76  and  OG_77 
ROOT
ATOM      1  CA  ASN d   1      14.620  26.934  12.347  0.00  0.00     0.097 C 
ATOM      2  H   ASN d   1      15.212  27.746  12.796  0.00  0.00     0.088 H 
ENDROOT
BRANCH   1   3
ATOM      3  N   ASN d   1      15.515  25.965  11.736  0.00  0.00    -0.346 N 
ATOM      4  C   TYR d   1      16.736  25.740  12.203  0.00  0.00     0.241 C 
ATOM      5  O   TYR d   1      17.188  26.292  13.206  0.00  0.00    -0.271 OA
ATOM      6  H   ASN d   1      15.200  25.451  10.938  0.00  0.00     0.163 HD
BRANCH   4   7
ATOM      7  CA  TYR d   1      17.561  24.727  11.427  0.00  0.00     0.093 C 
ATOM      8  H   TYR d   1      17.161  24.676  10.403  0.00  0.00     0.088 H 
BRANCH   7   9
ATOM      9  N   TYR d   1      18.959  25.131  11.338  0.00  0.00    -0.346 N 
ATOM     10  C   ILE d   1      19.317  26.126  10.536  0.00  0.00     0.241 C 
ATOM     11  O   ILE d   1      18.500  26.797   9.917  0.00  0.00    -0.271 OA
ATOM     12  H   TYR d   1      19.650  24.657  11.883  0.00  0.00     0.163 HD
BRANCH  10  13
ATOM     13  CA  ILE d   1      20.816  26.420  10.425  0.00  0.00     0.092 C 
ATOM     14  H   ILE d   1      21.349  25.601  10.931  0.00  0.00     0.088 H 
BRANCH  13  15
ATOM     15  N   ILE d   1      21.270  26.433   9.036  0.00  0.00    -0.346 N 
ATOM     16  C   CYS d   1      21.400  25.311   8.334  0.00  0.00     0.241 C 
ATOM     17  O   CYS d   1      21.108  24.205   8.785  0.00  0.00    -0.271 OA
ATOM     18  H   ILE d   1      21.488  27.307   8.603  0.00  0.00     0.163 HD
BRANCH  16  19
ATOM     19  CA  CYS d   1      21.937  25.457   6.911  0.00  0.00     0.097 C 
ATOM     20  H   CYS d   1      22.197  26.513   6.746  0.00  0.00     0.088 H 
BRANCH  19  21
ATOM     21  N   CYS d   1      23.125  24.648   6.680  0.00  0.00    -0.345 N 
ATOM     22  C   THR d   1      24.324  24.958   7.162  0.00  0.00     0.251 C 
ATOM     23  O   THR d   1      24.539  25.955   7.855  0.00  0.00    -0.271 OA
ATOM     24  H   CYS d   1      23.034  23.817   6.131  0.00  0.00     0.163 HD
BRANCH  22  25
ATOM     25  CA  THR d   1      25.446  23.991   6.802  0.00  0.00     0.199 C 
ATOM     26  H   THR d   1      26.375  24.563   6.658  0.00  0.00     0.103 H 
BRANCH  25  27
ATOM     27  N   THR d   1      25.660  23.029   7.873  0.00  0.00    -0.064 N 
ATOM     28  H   THR d   1      25.890  23.519   8.724  0.00  0.00     0.275 HD
ATOM     29  H   THR d   1      26.418  22.413   7.625  0.00  0.00     0.275 HD
ATOM     30  H   THR d   1      24.820  22.489   8.012  0.00  0.00     0.275 HD
ENDBRANCH  25  27
BRANCH  25  31
ATOM     31  CB  THR d   1      25.091  23.279   5.477  0.00  0.00     0.068 C 
ATOM     32  H   THR d   1      25.091  24.017   4.662  0.00  0.00     0.086 H 
BRANCH  31  33
ATOM     33  OG1 THR d   1      23.789  22.681   5.576  0.00  0.00    -0.393 OA
ATOM     34  H   THR d   1      23.144  23.356   5.752  0.00  0.00     0.210 HD
ENDBRANCH  31  33
BRANCH  31  35
ATOM     35  CG2 THR d   1      26.112  22.198   5.172  0.00  0.00    -0.050 C 
ATOM     36  H   THR d   1      25.848  21.700   4.228  0.00  0.00     0.031 H 
ATOM     37  H   THR d   1      26.118  21.459   5.987  0.00  0.00     0.031 H 
ATOM     38  H   THR d   1      27.110  22.651   5.080  0.00  0.00     0.031 H 
ENDBRANCH  31  35
ENDBRANCH  25  31
ENDBRANCH  22  25
ENDBRANCH  19  21
BRANCH  19  39
ATOM     39  CB  CYS d   1      20.862  25.048   5.914  0.00  0.00     0.001 C 
ATOM     40  H   CYS d   1      21.172  25.379   4.912  0.00  0.00     0.052 H 
ATOM     41  H   CYS d   1      19.922  25.547   6.191  0.00  0.00     0.052 H 
BRANCH  39  42
ATOM     42  SG  CYS d   1      20.572  23.263   5.865  0.00  0.00    -0.180 SA
ATOM     43  H   CYS d   1      21.424  22.792   5.603  0.00  0.00     0.101 HD
ENDBRANCH  39  42
ENDBRANCH  19  39
ENDBRANCH  16  19
ENDBRANCH  13  15
BRANCH  13  44
ATOM     44  CB  ILE d   1      21.176  27.734  11.168  0.00  0.00    -0.030 C 
ATOM     45  H   ILE d   1      20.802  27.667  12.200  0.00  0.00     0.043 H 
BRANCH  44  46
ATOM     46  CG1 ILE d   1      20.535  28.947  10.486  0.00  0.00    -0.063 C 
ATOM     47  H   ILE d   1      20.239  28.655   9.467  0.00  0.00     0.033 H 
ATOM     48  H   ILE d   1      21.284  29.751  10.434  0.00  0.00     0.033 H 
BRANCH  46  49
ATOM     49  CD1 ILE d   1      19.316  29.478  11.202  0.00  0.00    -0.076 C 
ATOM     50  H   ILE d   1      18.916  30.343  10.653  0.00  0.00     0.027 H 
ATOM     51  H   ILE d   1      19.594  29.787  12.220  0.00  0.00     0.027 H 
ATOM     52  H   ILE d   1      18.549  28.691  11.254  0.00  0.00     0.027 H 
ENDBRANCH  46  49
ENDBRANCH  44  46
BRANCH  44  53
ATOM     53  CG2 ILE d   1      22.678  27.925  11.197  0.00  0.00    -0.071 C 
ATOM     54  H   ILE d   1      23.148  27.059  11.685  0.00  0.00     0.028 H 
ATOM     55  H   ILE d   1      22.921  28.839  11.759  0.00  0.00     0.028 H 
ATOM     56  H   ILE d   1      23.056  28.016  10.168  0.00  0.00     0.028 H 
ENDBRANCH  44  53
ENDBRANCH  13  44
ENDBRANCH  10  13
ENDBRANCH   7   9
BRANCH   7  57
ATOM     57  CB  TYR d   1      17.421  23.345  12.057  0.00  0.00    -0.014 C 
ATOM     58  H   TYR d   1      17.872  23.374  13.060  0.00  0.00     0.043 H 
ATOM     59  H   TYR d   1      17.965  22.622  11.431  0.00  0.00     0.043 H 
BRANCH  57  60
ATOM     60  CG  TYR d   1      15.987  22.874  12.192  0.00  0.00    -0.056 A 
ATOM     61  CD1 TYR d   1      15.319  22.298  11.120  0.00  0.00    -0.074 A 
ATOM     62  CE1 TYR d   1      14.010  21.863  11.242  0.00  0.00    -0.051 A 
ATOM     63  H   TYR d   1      15.831  22.187  10.171  0.00  0.00     0.084 H 
ATOM     64  CZ  TYR d   1      13.352  22.013  12.443  0.00  0.00     0.065 A 
ATOM     65  H   TYR d   1      13.506  21.407  10.398  0.00  0.00     0.087 H 
ATOM     66  CE2 TYR d   1      13.989  22.587  13.514  0.00  0.00    -0.051 A 
ATOM     67  CD2 TYR d   1      15.298  23.016  13.387  0.00  0.00    -0.074 A 
ATOM     68  H   TYR d   1      13.468  22.704  14.457  0.00  0.00     0.087 H 
ATOM     69  H   TYR d   1      15.794  23.471  14.237  0.00  0.00     0.084 H 
BRANCH  64  70
ATOM     70  OH  TYR d   1      12.052  21.590  12.581  0.00  0.00    -0.361 OA
ATOM     71  H   TYR d   1      11.752  21.218  11.760  0.00  0.00     0.217 HD
ENDBRANCH  64  70
ENDBRANCH  57  60
ENDBRANCH   7  57
ENDBRANCH   4   7
ENDBRANCH   1   3
BRANCH   1  72
ATOM     72  C   ASN d   1      13.815  26.243  13.432  0.00  0.00     0.243 C 
ATOM     73  O   ASN d   1      12.973  25.402  13.141  0.00  0.00    -0.271 OA
ATOM     74  N   PRO d   1      14.070  26.609  14.695  0.00  0.00    -0.337 N 
ATOM     75  CA  PRO d   1      13.430  25.945  15.835  0.00  0.00     0.091 C 
ATOM     76  CD  PRO d   1      14.934  27.723  15.113  0.00  0.00    -0.001 C 
ATOM     77  CB  PRO d   1      14.027  26.679  17.045  0.00  0.00    -0.036 C 
ATOM     78  H   PRO d   1      13.703  24.879  15.850  0.00  0.00     0.087 H 
ATOM     79  CG  PRO d   1      14.488  27.987  16.513  0.00  0.00    -0.048 C 
ATOM     80  H   PRO d   1      14.872  26.112  17.462  0.00  0.00     0.036 H 
ATOM     81  H   PRO d   1      13.264  26.826  17.823  0.00  0.00     0.036 H 
ATOM     82  H   PRO d   1      15.324  28.372  17.115  0.00  0.00     0.035 H 
ATOM     83  H   PRO d   1      13.664  28.716  16.521  0.00  0.00     0.035 H 
ATOM     84  H   PRO d   1      14.778  28.605  14.475  0.00  0.00     0.064 H 
ATOM     85  H   PRO d   1      15.995  27.433  15.084  0.00  0.00     0.064 H 
BRANCH  75  86
ATOM     86  C   PRO d   1      11.909  26.059  15.853  0.00  0.00     0.241 C 
ATOM     87  O   PRO d   1      11.248  25.208  16.448  0.00  0.00    -0.271 OA
ATOM     88  N   LEU d   1      11.364  27.084  15.207  0.00  0.00    -0.346 N 
ATOM     89  H   LEU d   1      11.956  27.721  14.713  0.00  0.00     0.163 HD
BRANCH  88  90
ATOM     90  CA  LEU d   1       9.920  27.300  15.202  0.00  0.00     0.089 C 
ATOM     91  H   LEU d   1       9.516  26.890  16.140  0.00  0.00     0.087 H 
BRANCH  90  92
ATOM     92  C   LEU d   1       9.206  26.617  14.050  0.00  0.00     0.241 C 
ATOM     93  O   LEU d   1       7.976  26.616  13.991  0.00  0.00    -0.271 OA
ATOM     94  N   PHE d   1       9.981  26.050  13.135  0.00  0.00    -0.346 N 
ATOM     95  H   PHE d   1      10.971  26.043  13.275  0.00  0.00     0.163 HD
BRANCH  94  96
ATOM     96  CA  PHE d   1       9.434  25.438  11.932  0.00  0.00     0.093 C 
ATOM     97  H   PHE d   1       9.004  26.247  11.324  0.00  0.00     0.088 H 
BRANCH  96  98
ATOM     98  C   PHE d   1       8.327  24.424  12.193  0.00  0.00     0.241 C 
ATOM     99  O   PHE d   1       8.422  23.597  13.099  0.00  0.00    -0.271 OA
ATOM    100  N   GLY d   1       7.275  24.505  11.386  0.00  0.00    -0.351 N 
ATOM    101  H   GLY d   1       7.264  25.214  10.681  0.00  0.00     0.163 HD
BRANCH 100 102
ATOM    102  CA  GLY d   1       6.144  23.607  11.487  0.00  0.00     0.069 C 
ATOM    103  H   GLY d   1       6.518  22.614  11.777  0.00  0.00     0.078 H 
ATOM    104  H   GLY d   1       5.666  23.544  10.498  0.00  0.00     0.078 H 
BRANCH 102 105
ATOM    105  C   GLY d   1       5.097  24.029  12.492  0.00  0.00     0.236 C 
ATOM    106  O   GLY d   1       4.114  23.319  12.696  0.00  0.00    -0.272 OA
ATOM    107  N   SER d   1       5.294  25.189  13.108  0.00  0.00    -0.343 N 
ATOM    108  H   SER d   1       6.120  25.716  12.908  0.00  0.00     0.163 HD
BRANCH 107 109
ATOM    109  CA  SER d   1       4.329  25.709  14.070  0.00  0.00     0.116 C 
ATOM    110  H   SER d   1       3.325  25.638  13.626  0.00  0.00     0.093 H 
BRANCH 109 111
ATOM    111  C   SER d   1       4.608  27.165  14.400  0.00  0.00     0.198 C 
ATOM    112  O   SER d   1       4.834  27.506  15.560  0.00  0.00    -0.646 OA
ATOM    113  O1  SER d   1       4.608  28.027  13.481  0.00  0.00    -0.646 OA
ENDBRANCH 109 111
BRANCH 109 114
ATOM    114  CB  SER d   1       4.355  24.881  15.355  0.00  0.00     0.045 C 
ATOM    115  H   SER d   1       3.949  23.880  15.148  0.00  0.00     0.077 H 
ATOM    116  H   SER d   1       3.736  25.378  16.117  0.00  0.00     0.077 H 
BRANCH 114 117
ATOM    117  OG  SER d   1       5.678  24.753  15.843  0.00  0.00    -0.398 OA
ATOM    118  H   SER d   1       6.032  25.616  16.026  0.00  0.00     0.209 HD
ENDBRANCH 114 117
ENDBRANCH 109 114
ENDBRANCH 107 109
ENDBRANCH 102 105
ENDBRANCH 100 102
ENDBRANCH  96  98
BRANCH  96 119
ATOM    119  CB  PHE d   1      10.540  24.768  11.120  0.00  0.00    -0.014 C 
ATOM    120  H   PHE d   1      11.071  24.059  11.772  0.00  0.00     0.043 H 
ATOM    121  H   PHE d   1      11.239  25.544  10.776  0.00  0.00     0.043 H 
BRANCH 119 122
ATOM    122  CG  PHE d   1      10.031  24.024   9.925  0.00  0.00    -0.056 A 
ATOM    123  CD1 PHE d   1       9.507  24.704   8.842  0.00  0.00    -0.077 A 
ATOM    124  CE1 PHE d   1       9.032  24.018   7.742  0.00  0.00    -0.082 A 
ATOM    125  H   PHE d   1       9.469  25.787   8.856  0.00  0.00     0.084 H 
ATOM    126  CZ  PHE d   1       9.064  22.642   7.723  0.00  0.00    -0.083 A 
ATOM    127  H   PHE d   1       8.634  24.563   6.894  0.00  0.00     0.083 H 
ATOM    128  CE2 PHE d   1       9.573  21.957   8.797  0.00  0.00    -0.082 A 
ATOM    129  H   PHE d   1       8.688  22.101   6.862  0.00  0.00     0.083 H 
ATOM    130  CD2 PHE d   1      10.051  22.645   9.894  0.00  0.00    -0.077 A 
ATOM    131  H   PHE d   1       9.600  20.873   8.784  0.00  0.00     0.083 H 
ATOM    132  H   PHE d   1      10.447  22.096  10.741  0.00  0.00     0.084 H 
ENDBRANCH 119 122
ENDBRANCH  96 119
ENDBRANCH  94  96
ENDBRANCH  90  92
BRANCH  90 133
ATOM    133  CB  LEU d   1       9.626  28.788  15.157  0.00  0.00    -0.035 C 
ATOM    134  H   LEU d   1       8.569  28.943  14.894  0.00  0.00     0.037 H 
ATOM    135  H   LEU d   1      10.266  29.263  14.399  0.00  0.00     0.037 H 
BRANCH 133 136
ATOM    136  CG  LEU d   1       9.904  29.412  16.514  0.00  0.00    -0.059 C 
ATOM    137  H   LEU d   1      10.869  29.035  16.883  0.00  0.00     0.038 H 
BRANCH 136 138
ATOM    138  CD1 LEU d   1       9.998  30.910  16.384  0.00  0.00    -0.073 C 
ATOM    139  H   LEU d   1      10.199  31.352  17.371  0.00  0.00     0.028 H 
ATOM    140  H   LEU d   1       9.049  31.304  15.992  0.00  0.00     0.028 H 
ATOM    141  H   LEU d   1      10.815  31.168  15.694  0.00  0.00     0.028 H 
ENDBRANCH 136 138
BRANCH 136 142
ATOM    142  CD2 LEU d   1       8.821  29.007  17.504  0.00  0.00    -0.073 C 
ATOM    143  H   LEU d   1       8.780  27.910  17.574  0.00  0.00     0.028 H 
ATOM    144  H   LEU d   1       7.848  29.389  17.160  0.00  0.00     0.028 H 
ATOM    145  H   LEU d   1       9.052  29.429  18.493  0.00  0.00     0.028 H 
ENDBRANCH 136 142
ENDBRANCH 133 136
ENDBRANCH  90 133
ENDBRANCH  88  90
ENDBRANCH  75  86
ENDBRANCH   1  72
BRANCH   1 146
ATOM    146  CB  ASN d   1      13.693  27.520  11.288  0.00  0.00     0.036 C 
ATOM    147  H   ASN d   1      13.099  26.703  10.851  0.00  0.00     0.051 H 
ATOM    148  H   ASN d   1      14.307  27.987  10.504  0.00  0.00     0.051 H 
BRANCH 146 149
ATOM    149  CG  ASN d   1      12.747  28.560  11.842  0.00  0.00     0.217 C 
ATOM    150  OD1 ASN d   1      12.709  28.810  13.046  0.00  0.00    -0.274 OA
ATOM    151  ND2 ASN d   1      11.964  29.165  10.961  0.00  0.00    -0.370 N 
ATOM    152  H   ASN d   1      11.316  29.863  11.265  0.00  0.00     0.159 HD
ATOM    153  H   ASN d   1      12.021  28.923   9.992  0.00  0.00     0.159 HD
ENDBRANCH 146 149
ENDBRANCH   1 146
TORSDOF 41
