REMARK  25 active torsions:
REMARK  status: ('A' for Active; 'I' for Inactive)
REMARK    1  A    between atoms: CA_2  and  C_3 
REMARK       I    between atoms: C_3  and  N_8 
REMARK    2  A    between atoms: N_8  and  CA_9 
REMARK    3  A    between atoms: CA_9  and  C_10 
REMARK    4  A    between atoms: CA_9  and  CB_12 
REMARK       I    between atoms: C_10  and  N_19 
REMARK    5  A    between atoms: CB_12  and  CG_13 
REMARK    6  A    between atoms: N_19  and  CA_20 
REMARK    7  A    between atoms: CA_20  and  C_21 
REMARK    8  A    between atoms: CA_20  and  CB_23 
REMARK       I    between atoms: C_21  and  N_24 
REMARK    9  A    between atoms: N_24  and  CA_25 
REMARK   10  A    between atoms: CA_25  and  C_26 
REMARK   11  A    between atoms: CA_25  and  CB_28 
REMARK       I    between atoms: C_26  and  N_31 
REMARK   12  A    between atoms: CB_28  and  OG1_29 
REMARK   13  A    between atoms: CB_28  and  CG2_30 
REMARK   14  A    between atoms: N_31  and  CA_32 
REMARK   15  A    between atoms: CA_32  and  C_33 
REMARK   16  A    between atoms: CA_32  and  CB_35 
REMARK       I    between atoms: C_33  and  N_37 
REMARK   17  A    between atoms: CB_35  and  SG_36 
REMARK   18  A    between atoms: N_37  and  CA_38 
REMARK   19  A    between atoms: CA_38  and  C_39 
REMARK   20  A    between atoms: CA_38  and  CB_41 
REMARK       I    between atoms: C_39  and  N_45 
REMARK   21  A    between atoms: CB_41  and  CG_42 
REMARK   22  A    between atoms: N_45  and  CA_46 
REMARK   23  A    between atoms: CA_46  and  C_47 
REMARK   24  A    between atoms: CA_46  and  CB_49 
REMARK   25  A    between atoms: CB_49  and  OG_50 
ROOT
ATOM      1  C   ALA d   1      -5.580 -14.712 -33.359  0.00  0.00     0.240 C 
ATOM      2  O   ALA d   1      -5.475 -14.511 -32.150  0.00  0.00    -0.271 OA
ATOM      3  N   THR d   1      -4.642 -14.366 -34.238  0.00  0.00    -0.344 N 
ATOM      4  H24 THR d   1      -4.779 -14.596 -35.202  0.00  0.00     0.163 HD
ENDROOT
BRANCH   3   5
ATOM      5  CA  THR d   1      -3.420 -13.663 -33.851  0.00  0.00     0.113 C 
ATOM      6  H25 THR d   1      -3.592 -13.216 -32.861  0.00  0.00     0.091 H 
BRANCH   5   7
ATOM      7  C   THR d   1      -3.040 -12.560 -34.825  0.00  0.00     0.243 C 
ATOM      8  O   THR d   1      -3.439 -12.574 -35.988  0.00  0.00    -0.271 OA
ATOM      9  N   CYS d   1      -2.267 -11.596 -34.340  0.00  0.00    -0.345 N 
ATOM     10  H31 CYS d   1      -2.150 -11.506 -33.351  0.00  0.00     0.163 HD
BRANCH   9  11
ATOM     11  CA  CYS d   1      -1.589 -10.669 -35.233  0.00  0.00     0.097 C 
ATOM     12  H32 CYS d   1      -2.148 -10.597 -36.178  0.00  0.00     0.088 H 
BRANCH  11  13
ATOM     13  C   CYS d   1      -0.206 -11.251 -35.503  0.00  0.00     0.241 C 
ATOM     14  O   CYS d   1       0.600 -11.411 -34.583  0.00  0.00    -0.271 OA
ATOM     15  N   ASP d   1       0.059 -11.585 -36.761  0.00  0.00    -0.345 N 
ATOM     16  H36 ASP d   1      -0.606 -11.362 -37.474  0.00  0.00     0.163 HD
BRANCH  15  17
ATOM     17  CA  ASP d   1       1.291 -12.267 -37.130  0.00  0.00     0.098 C 
ATOM     18  H37 ASP d   1       1.742 -12.694 -36.222  0.00  0.00     0.088 H 
BRANCH  17  19
ATOM     19  C   ASP d   1       2.255 -11.270 -37.734  0.00  0.00     0.241 C 
ATOM     20  O   ASP d   1       1.831 -10.277 -38.326  0.00  0.00    -0.271 OA
ATOM     21  N   SER d   1       3.549 -11.531 -37.589  0.00  0.00    -0.343 N 
ATOM     22  H40 SER d   1       3.837 -12.357 -37.104  0.00  0.00     0.163 HD
BRANCH  21  23
ATOM     23  CA  SER d   1       4.553 -10.625 -38.131  0.00  0.00     0.116 C 
ATOM     24  H41 SER d   1       4.190  -9.594 -38.005  0.00  0.00     0.093 H 
BRANCH  23  25
ATOM     25  C   SER d   1       4.769 -10.877 -39.625  0.00  0.00     0.198 C 
ATOM     26  O   SER d   1       5.571 -10.198 -40.276  0.00  0.00    -0.646 OA
ATOM     27  OXT SER d   1       4.147 -11.766 -40.217  0.00  0.00    -0.646 OA
ENDBRANCH  23  25
BRANCH  23  28
ATOM     28  CB  SER d   1       5.869 -10.766 -37.368  0.00  0.00     0.045 C 
ATOM     29  H42 SER d   1       5.722 -10.429 -36.331  0.00  0.00     0.077 H 
ATOM     30  H43 SER d   1       6.634 -10.141 -37.852  0.00  0.00     0.077 H 
BRANCH  28  31
ATOM     31  OG  SER d   1       6.308 -12.113 -37.360  0.00  0.00    -0.398 OA
ATOM     32  H44 SER d   1       5.652 -12.656 -36.940  0.00  0.00     0.209 HD
ENDBRANCH  28  31
ENDBRANCH  23  28
ENDBRANCH  21  23
ENDBRANCH  17  19
BRANCH  17  33
ATOM     33  CB  ASP d   1       1.023 -13.402 -38.118  0.00  0.00     0.043 C 
ATOM     34  H38 ASP d   1       1.981 -13.873 -38.382  0.00  0.00     0.052 H 
ATOM     35  H39 ASP d   1       0.560 -12.980 -39.022  0.00  0.00     0.052 H 
BRANCH  33  36
ATOM     36  CG  ASP d   1       0.105 -14.458 -37.552  0.00  0.00     0.175 C 
ATOM     37  OD1 ASP d   1      -0.013 -14.533 -36.315  0.00  0.00    -0.648 OA
ATOM     38  OD2 ASP d   1      -0.505 -15.207 -38.343  0.00  0.00    -0.648 OA
ENDBRANCH  33  36
ENDBRANCH  17  33
ENDBRANCH  15  17
ENDBRANCH  11  13
BRANCH  11  39
ATOM     39  CB  CYS d   1      -1.488  -9.274 -34.621  0.00  0.00     0.001 C 
ATOM     40  H33 CYS d   1      -1.129  -8.582 -35.398  0.00  0.00     0.052 H 
ATOM     41  H34 CYS d   1      -0.759  -9.311 -33.798  0.00  0.00     0.052 H 
BRANCH  39  42
ATOM     42  SG  CYS d   1      -3.053  -8.631 -33.966  0.00  0.00    -0.180 SA
ATOM     43  H35 CYS d   1      -3.392  -9.247 -33.243  0.00  0.00     0.101 HD
ENDBRANCH  39  42
ENDBRANCH  11  39
ENDBRANCH   9  11
ENDBRANCH   5   7
BRANCH   5  44
ATOM     44  CB  THR d   1      -2.205 -14.613 -33.765  0.00  0.00     0.060 C 
ATOM     45  H26 THR d   1      -1.305 -14.008 -33.583  0.00  0.00     0.086 H 
BRANCH  44  46
ATOM     46  OG1 THR d   1      -2.047 -15.301 -35.013  0.00  0.00    -0.393 OA
ATOM     47  H27 THR d   1      -1.906 -14.668 -35.707  0.00  0.00     0.210 HD
ENDBRANCH  44  46
BRANCH  44  48
ATOM     48  CG2 THR d   1      -2.347 -15.616 -32.611  0.00  0.00    -0.050 C 
ATOM     49  H28 THR d   1      -1.464 -16.272 -32.584  0.00  0.00     0.031 H 
ATOM     50  H29 THR d   1      -3.251 -16.224 -32.763  0.00  0.00     0.031 H 
ATOM     51  H30 THR d   1      -2.427 -15.071 -31.659  0.00  0.00     0.031 H 
ENDBRANCH  44  48
ENDBRANCH   5  44
ENDBRANCH   3   5
BRANCH   1  52
ATOM     52  CA  ALA d   1      -6.807 -15.428 -33.935  0.00  0.00     0.086 C 
ATOM     53  H20 ALA d   1      -6.470 -16.067 -34.764  0.00  0.00     0.086 H 
BRANCH  52  54
ATOM     54  N   ALA d   1      -7.455 -16.279 -32.942  0.00  0.00    -0.346 N 
ATOM     55  C   PHE d   1      -6.853 -17.355 -32.445  0.00  0.00     0.241 C 
ATOM     56  O   PHE d   1      -5.713 -17.697 -32.767  0.00  0.00    -0.271 OA
ATOM     57  H19 ALA d   1      -8.375 -16.047 -32.627  0.00  0.00     0.163 HD
BRANCH  55  58
ATOM     58  CA  PHE d   1      -7.664 -18.194 -31.470  0.00  0.00     0.093 C 
ATOM     59  H11 PHE d   1      -7.136 -18.202 -30.505  0.00  0.00     0.088 H 
BRANCH  58  60
ATOM     60  N   PHE d   1      -8.996 -17.646 -31.250  0.00  0.00    -0.346 N 
ATOM     61  C   PRO d   1      -9.406 -17.213 -30.063  0.00  0.00     0.249 C 
ATOM     62  O   PRO d   1      -8.691 -17.193 -29.069  0.00  0.00    -0.271 OA
ATOM     63  H10 PHE d   1      -9.627 -17.594 -32.024  0.00  0.00     0.163 HD
BRANCH  61  64
ATOM     64  CA  PRO d   1     -10.837 -16.684 -29.977  0.00  0.00     0.178 C 
ATOM     65  N   PRO d   1     -11.508 -16.602 -31.281  0.00  0.00    -0.062 N 
ATOM     66  CD  PRO d   1     -12.601 -17.582 -31.411  0.00  0.00     0.083 C 
ATOM     67  H1  PRO d   1     -10.829 -16.775 -32.006  0.00  0.00     0.278 HD
ATOM     68  H2  PRO d   1     -11.889 -15.675 -31.392  0.00  0.00     0.278 HD
ATOM     69  CG  PRO d   1     -12.375 -18.496 -30.250  0.00  0.00    -0.040 C 
ATOM     70  H8  PRO d   1     -12.531 -18.128 -32.363  0.00  0.00     0.075 H 
ATOM     71  H9  PRO d   1     -13.583 -17.090 -31.342  0.00  0.00     0.075 H 
ATOM     72  CB  PRO d   1     -11.718 -17.664 -29.196  0.00  0.00    -0.028 C 
ATOM     73  H6  PRO d   1     -13.333 -18.892 -29.883  0.00  0.00     0.035 H 
ATOM     74  H7  PRO d   1     -11.721 -19.331 -30.542  0.00  0.00     0.035 H 
ATOM     75  H4  PRO d   1     -12.470 -17.123 -28.602  0.00  0.00     0.036 H 
ATOM     76  H5  PRO d   1     -11.107 -18.291 -28.530  0.00  0.00     0.036 H 
ATOM     77  H3  PRO d   1     -10.823 -15.696 -29.493  0.00  0.00     0.099 H 
ENDBRANCH  61  64
ENDBRANCH  58  60
BRANCH  58  78
ATOM     78  CB  PHE d   1      -7.760 -19.630 -31.980  0.00  0.00    -0.014 C 
ATOM     79  H12 PHE d   1      -8.012 -20.284 -31.133  0.00  0.00     0.043 H 
ATOM     80  H13 PHE d   1      -6.781 -19.920 -32.389  0.00  0.00     0.043 H 
BRANCH  78  81
ATOM     81  CG  PHE d   1      -8.789 -19.817 -33.043  0.00  0.00    -0.056 A 
ATOM     82  CD1 PHE d   1      -8.496 -19.534 -34.365  0.00  0.00    -0.077 A 
ATOM     83  CE1 PHE d   1      -9.447 -19.698 -35.348  0.00  0.00    -0.082 A 
ATOM     84  H14 PHE d   1      -7.507 -19.179 -34.630  0.00  0.00     0.084 H 
ATOM     85  CZ  PHE d   1     -10.710 -20.138 -35.013  0.00  0.00    -0.083 A 
ATOM     86  H16 PHE d   1      -9.203 -19.482 -36.382  0.00  0.00     0.083 H 
ATOM     87  CE2 PHE d   1     -11.018 -20.423 -33.697  0.00  0.00    -0.082 A 
ATOM     88  H18 PHE d   1     -11.463 -20.261 -35.784  0.00  0.00     0.083 H 
ATOM     89  CD2 PHE d   1     -10.059 -20.258 -32.718  0.00  0.00    -0.077 A 
ATOM     90  H17 PHE d   1     -12.009 -20.775 -33.434  0.00  0.00     0.083 H 
ATOM     91  H15 PHE d   1     -10.303 -20.476 -31.685  0.00  0.00     0.084 H 
ENDBRANCH  78  81
ENDBRANCH  58  78
ENDBRANCH  55  58
ENDBRANCH  52  54
BRANCH  52  92
ATOM     92  CB  ALA d   1      -7.806 -14.413 -34.486  0.00  0.00    -0.049 C 
ATOM     93  H21 ALA d   1      -7.308 -13.777 -35.233  0.00  0.00     0.030 H 
ATOM     94  H22 ALA d   1      -8.183 -13.787 -33.664  0.00  0.00     0.030 H 
ATOM     95  H23 ALA d   1      -8.646 -14.944 -34.958  0.00  0.00     0.030 H 
ENDBRANCH  52  92
ENDBRANCH   1  52
TORSDOF 25
