REMARK  12 active torsions:
REMARK  status: ('A' for Active; 'I' for Inactive)
REMARK    1  A    between atoms: N1_21  and  C1_1 
REMARK    2  A    between atoms: C3_3  and  C12_8 
REMARK    3  A    between atoms: C12_8  and  C23_19 
REMARK    4  A    between atoms: C14_10  and  C17_13 
REMARK    5  A    between atoms: C15_11  and  C16_12 
REMARK    6  A    between atoms: C18_14  and  C19_15 
REMARK    7  A    between atoms: C19_15  and  C20_16 
REMARK    8  A    between atoms: C19_15  and  C21_17 
REMARK    9  A    between atoms: C19_15  and  C22_18 
REMARK   10  A    between atoms: C23_19  and  C24_20 
REMARK   11  A    between atoms: C23_19  and  O5_31 
REMARK   12  A    between atoms: C5_23  and  C6_24 
ROOT
ATOM      1  C2  33H d   1       6.536  32.448   1.238  0.00  0.00     0.254 C 
ATOM      2  C3  33H d   1       7.387  33.760   1.141  0.00  0.00     0.118 C 
ATOM      3  O1  33H d   1       8.673  33.615   1.789  0.00  0.00    -0.374 OA
ATOM      4  O2  33H d   1       5.311  32.488   1.017  0.00  0.00    -0.270 OA
ATOM      5  N1  33H d   1       7.173  31.287   1.577  0.00  0.00    -0.307 N 
ATOM      6  C4  33H d   1       9.401  32.459   1.372  0.00  0.00     0.040 C 
ATOM      7  C5  33H d   1       8.656  31.170   1.827  0.00  0.00     0.044 C 
ATOM      8  H   33H d   1       7.573  33.934   0.071  0.00  0.00     0.098 H 
ATOM      9  H   33H d   1      10.405  32.478   1.822  0.00  0.00     0.077 H 
ATOM     10  H   33H d   1       9.491  32.460   0.276  0.00  0.00     0.077 H 
ATOM     11  H   33H d   1       9.027  30.355   1.188  0.00  0.00     0.077 H 
ENDROOT
BRANCH   5  12
ATOM     12  C1  33H d   1       6.390  30.102   1.669  0.00  0.00     0.063 A 
ATOM     13  C13 33H d   1       5.522  29.910   2.787  0.00  0.00    -0.030 A 
ATOM     14  C14 33H d   1       4.834  28.743   2.626  0.00  0.00     0.061 A 
ATOM     15  H   33H d   1       5.425  30.588   3.634  0.00  0.00     0.090 H 
ATOM     16  S1  33H d   1       5.155  27.891   1.163  0.00  0.00    -0.072 SA
ATOM     17  C15 33H d   1       6.289  29.138   0.682  0.00  0.00     0.109 A 
BRANCH  14  18
ATOM     18  C17 33H d   1       3.895  28.247   3.535  0.00  0.00    -0.059 C 
ATOM     19  C18 33H d   1       3.062  27.802   4.288  0.00  0.00    -0.092 C 
BRANCH  19  20
ATOM     20  C19 33H d   1       2.061  27.302   5.237  0.00  0.00     0.013 C 
BRANCH  20  21
ATOM     21  C20 33H d   1       2.444  25.877   5.696  0.00  0.00    -0.059 C 
ATOM     22  H   33H d   1       1.691  25.506   6.407  0.00  0.00     0.029 H 
ATOM     23  H   33H d   1       3.429  25.901   6.185  0.00  0.00     0.029 H 
ATOM     24  H   33H d   1       2.484  25.209   4.823  0.00  0.00     0.029 H 
ENDBRANCH  20  21
BRANCH  20  25
ATOM     25  C21 33H d   1       2.074  28.269   6.432  0.00  0.00    -0.059 C 
ATOM     26  H   33H d   1       1.800  29.278   6.090  0.00  0.00     0.029 H 
ATOM     27  H   33H d   1       3.081  28.293   6.874  0.00  0.00     0.029 H 
ATOM     28  H   33H d   1       1.350  27.928   7.187  0.00  0.00     0.029 H 
ENDBRANCH  20  25
BRANCH  20  29
ATOM     29  C22 33H d   1       0.675  27.301   4.564  0.00  0.00    -0.059 C 
ATOM     30  H   33H d   1       0.682  26.605   3.712  0.00  0.00     0.029 H 
ATOM     31  H   33H d   1       0.440  28.315   4.208  0.00  0.00     0.029 H 
ATOM     32  H   33H d   1      -0.086  26.982   5.292  0.00  0.00     0.029 H 
ENDBRANCH  20  29
ENDBRANCH  19  20
ENDBRANCH  14  18
BRANCH  17  33
ATOM     33  C16 33H d   1       6.939  28.915  -0.622  0.00  0.00     0.219 C 
ATOM     34  O3  33H d   1       6.707  27.939  -1.328  0.00  0.00    -0.643 OA
ATOM     35  O4  33H d   1       7.810  29.896  -0.988  0.00  0.00    -0.643 OA
ENDBRANCH  17  33
ENDBRANCH   5  12
BRANCH   7  36
ATOM     36  C6  33H d   1       8.949  30.741   3.303  0.00  0.00    -0.032 C 
ATOM     37  C11 33H d   1       8.357  31.668   4.412  0.00  0.00    -0.060 C 
ATOM     38  C10 33H d   1       8.533  31.065   5.827  0.00  0.00    -0.065 C 
ATOM     39  H   33H d   1       7.284  31.812   4.219  0.00  0.00     0.033 H 
ATOM     40  H   33H d   1       8.871  32.640   4.374  0.00  0.00     0.033 H 
ATOM     41  C9  33H d   1      10.018  30.710   6.127  0.00  0.00    -0.065 C 
ATOM     42  H   33H d   1       7.927  30.150   5.901  0.00  0.00     0.033 H 
ATOM     43  H   33H d   1       8.185  31.797   6.571  0.00  0.00     0.033 H 
ATOM     44  C8  33H d   1      10.663  29.821   5.023  0.00  0.00    -0.065 C 
ATOM     45  H   33H d   1      10.593  31.644   6.206  0.00  0.00     0.033 H 
ATOM     46  H   33H d   1      10.063  30.169   7.084  0.00  0.00     0.033 H 
ATOM     47  C7  33H d   1      10.455  30.420   3.604  0.00  0.00    -0.060 C 
ATOM     48  H   33H d   1      11.742  29.737   5.219  0.00  0.00     0.033 H 
ATOM     49  H   33H d   1      10.205  28.822   5.058  0.00  0.00     0.033 H 
ATOM     50  H   33H d   1      11.037  31.350   3.525  0.00  0.00     0.033 H 
ATOM     51  H   33H d   1      10.817  29.696   2.859  0.00  0.00     0.033 H 
ATOM     52  H   33H d   1       8.419  29.784   3.417  0.00  0.00     0.043 H 
ENDBRANCH   7  36
BRANCH   2  53
ATOM     53  C12 33H d   1       6.674  35.025   1.689  0.00  0.00    -0.009 C 
ATOM     54  H   33H d   1       5.792  35.214   1.060  0.00  0.00     0.041 H 
ATOM     55  H   33H d   1       7.373  35.870   1.603  0.00  0.00     0.041 H 
BRANCH  53  56
ATOM     56  C23 33H d   1       6.206  34.951   3.142  0.00  0.00     0.035 C 
ATOM     57  H   33H d   1       5.893  33.917   3.350  0.00  0.00     0.082 H 
BRANCH  56  58
ATOM     58  C24 33H d   1       7.289  35.334   4.165  0.00  0.00    -0.052 C 
ATOM     59  H   33H d   1       6.877  35.256   5.182  0.00  0.00     0.030 H 
ATOM     60  H   33H d   1       7.618  36.367   3.981  0.00  0.00     0.030 H 
ATOM     61  H   33H d   1       8.146  34.652   4.064  0.00  0.00     0.030 H 
ENDBRANCH  56  58
BRANCH  56  62
ATOM     62  O5  33H d   1       5.095  35.808   3.292  0.00  0.00    -0.396 OA
ATOM     63  H   33H d   1       4.426  35.571   2.660  0.00  0.00     0.210 HD
ENDBRANCH  56  62
ENDBRANCH  53  56
ENDBRANCH   2  53
TORSDOF 12
