REMARK  15 active torsions:
REMARK  status: ('A' for Active; 'I' for Inactive)
REMARK    1  A    between atoms: C3'_5  and  O3'_4 
REMARK    2  A    between atoms: C2'_6  and  O2'_7 
REMARK    3  A    between atoms: C1'_8  and  O1'_9 
REMARK    4  A    between atoms: C5'_12  and  C4'_11 
REMARK    5  A    between atoms: O5'_13  and  C5'_12 
REMARK    6  A    between atoms: PBG_14  and  O5'_13 
REMARK    7  A    between atoms: OAV_17  and  PBG_14 
REMARK    8  A    between atoms: PBF_18  and  OAV_17 
REMARK    9  A    between atoms: OAS_21  and  PBF_18 
REMARK   10  A    between atoms: CAM_22  and  OAS_21 
REMARK   11  A    between atoms: CAK_23  and  CAM_22 
REMARK   12  A    between atoms: CAL_24  and  CAK_23 
REMARK   13  A    between atoms: CAN_25  and  CAL_24 
REMARK   14  A    between atoms: CAN_25  and  N9_26 
REMARK   15  A    between atoms: C8_32  and  NAA_33 
ROOT
ATOM      1  OAS JS2 d   1       5.912   1.924   4.281  0.00  0.00    -0.290 OA
ENDROOT
BRANCH   1   2
ATOM      2  PBF JS2 d   1       7.272   2.631   3.501  0.00  0.00     0.417 P 
ATOM      3  OAH JS2 d   1       7.916   3.657   4.454  0.00  0.00    -0.624 OA
ATOM      4  OAC JS2 d   1       8.289   1.683   2.974  0.00  0.00    -0.624 OA
BRANCH   2   5
ATOM      5  OAV JS2 d   1       6.695   3.543   2.300  0.00  0.00    -0.180 OA
BRANCH   5   6
ATOM      6  PBG JS2 d   1       5.151   4.058   2.529  0.00  0.00     0.417 P 
ATOM      7  OAI JS2 d   1       4.906   3.788   4.195  0.00  0.00    -0.624 OA
ATOM      8  OAD JS2 d   1       4.891   5.449   2.036  0.00  0.00    -0.624 OA
BRANCH   6   9
ATOM      9  O5' JS2 d   1       4.242   2.984   1.659  0.00  0.00    -0.287 OA
BRANCH   9  10
ATOM     10  C5' JS2 d   1       2.794   2.861   1.730  0.00  0.00     0.058 C 
ATOM     11  H9  JS2 d   1       2.508   1.811   1.890  0.00  0.00     0.079 H 
ATOM     12  H10 JS2 d   1       2.399   3.478   2.550  0.00  0.00     0.079 H 
BRANCH  10  13
ATOM     13  C4' JS2 d   1       2.258   3.356   0.391  0.00  0.00     0.090 C 
ATOM     14  C3' JS2 d   1       0.713   3.106   0.306  0.00  0.00     0.092 C 
ATOM     15  C2' JS2 d   1       0.614   1.689  -0.160  0.00  0.00     0.110 C 
ATOM     16  H3  JS2 d   1       0.260   3.216   1.302  0.00  0.00     0.091 H 
ATOM     17  C1' JS2 d   1       1.971   1.435  -0.842  0.00  0.00     0.156 C 
ATOM     18  H4  JS2 d   1       0.425   0.990   0.668  0.00  0.00     0.094 H 
ATOM     19  O4' JS2 d   1       2.812   2.571  -0.660  0.00  0.00    -0.349 OA
ATOM     20  H6  JS2 d   1       2.435   0.499  -0.498  0.00  0.00     0.133 H 
ATOM     21  H8  JS2 d   1       2.494   4.422   0.259  0.00  0.00     0.090 H 
BRANCH  14  22
ATOM     22  O3' JS2 d   1       0.023   4.012  -0.621  0.00  0.00    -0.390 OA
ATOM     23  H2  JS2 d   1       0.419   3.945  -1.482  0.00  0.00     0.210 HD
ENDBRANCH  14  22
BRANCH  15  24
ATOM     24  O2' JS2 d   1      -0.398   1.606  -1.143  0.00  0.00    -0.388 OA
ATOM     25  H5  JS2 d   1      -1.226   1.882  -0.768  0.00  0.00     0.210 HD
ENDBRANCH  15  24
BRANCH  17  26
ATOM     26  O1' JS2 d   1       1.743   1.468  -2.199  0.00  0.00    -0.369 OA
ATOM     27  H7  JS2 d   1       1.320   2.287  -2.428  0.00  0.00     0.212 HD
ENDBRANCH  17  26
ENDBRANCH  10  13
ENDBRANCH   9  10
ENDBRANCH   6   9
ENDBRANCH   5   6
ENDBRANCH   2   5
ENDBRANCH   1   2
BRANCH   1  28
ATOM     28  CAM JS2 d   1       5.661   0.529   4.053  0.00  0.00     0.032 C 
ATOM     29  H11 JS2 d   1       4.994   0.142   4.837  0.00  0.00     0.075 H 
ATOM     30  H12 JS2 d   1       6.611  -0.025   4.073  0.00  0.00     0.075 H 
BRANCH  28  31
ATOM     31  CAK JS2 d   1       4.994   0.357   2.678  0.00  0.00    -0.043 C 
ATOM     32  H13 JS2 d   1       4.779   1.351   2.258  0.00  0.00     0.036 H 
ATOM     33  H14 JS2 d   1       4.053  -0.199   2.804  0.00  0.00     0.036 H 
BRANCH  31  34
ATOM     34  CAL JS2 d   1       5.921  -0.427   1.685  0.00  0.00    -0.047 C 
ATOM     35  H15 JS2 d   1       6.574  -1.092   2.269  0.00  0.00     0.035 H 
ATOM     36  H16 JS2 d   1       6.536   0.300   1.134  0.00  0.00     0.035 H 
BRANCH  34  37
ATOM     37  CAN JS2 d   1       5.134  -1.291   0.652  0.00  0.00     0.018 C 
ATOM     38  H17 JS2 d   1       5.851  -1.835   0.020  0.00  0.00     0.065 H 
ATOM     39  H18 JS2 d   1       4.521  -0.628   0.024  0.00  0.00     0.065 H 
BRANCH  37  40
ATOM     40  N9  JS2 d   1       4.230  -2.290   1.344  0.00  0.00    -0.164 N 
ATOM     41  C4  JS2 d   1       4.772  -3.271   2.024  0.00  0.00     0.160 A 
ATOM     42  N3  JS2 d   1       6.075  -3.586   2.175  0.00  0.00    -0.334 N 
ATOM     43  C5  JS2 d   1       3.786  -4.006   2.577  0.00  0.00     0.190 A 
ATOM     44  C2  JS2 d   1       6.451  -4.698   2.928  0.00  0.00     0.069 A 
ATOM     45  H19 JS2 d   1       6.797  -3.001   1.731  0.00  0.00     0.168 HD
ATOM     46  N1  JS2 d   1       5.496  -5.426   3.476  0.00  0.00    -0.203 NA
ATOM     47  H1  JS2 d   1       7.500  -4.958   3.060  0.00  0.00     0.143 H 
ATOM     48  C6  JS2 d   1       4.126  -5.076   3.303  0.00  0.00     0.301 A 
ATOM     49  O6  JS2 d   1       3.277  -5.777   3.828  0.00  0.00    -0.263 OA
ATOM     50  N7  JS2 d   1       2.597  -3.473   2.244  0.00  0.00    -0.055 NA
ATOM     51  C8  JS2 d   1       2.906  -2.408   1.496  0.00  0.00     0.702 A 
BRANCH  51  52
ATOM     52  NAA JS2 d   1       2.018  -1.579   0.959  0.00  0.00    -0.233 N 
ATOM     53  H20 JS2 d   1       1.011  -1.730   1.117  0.00  0.00     0.174 HD
ATOM     54  H21 JS2 d   1       2.336  -0.786   0.384  0.00  0.00     0.174 HD
ENDBRANCH  51  52
ENDBRANCH  37  40
ENDBRANCH  34  37
ENDBRANCH  31  34
ENDBRANCH  28  31
ENDBRANCH   1  28
TORSDOF 15
