REMARK WARNING: 32 MAX_TORS EXCEEDED!!!
REMARK  43 active torsions:
REMARK  status: ('A' for Active; 'I' for Inactive)
REMARK    1  A    between atoms: CA_2  and  N_1 
REMARK    2  A    between atoms: C_3  and  CA_2 
REMARK    3  A    between atoms: CA_2  and  CB_5 
REMARK       I    between atoms: N_8  and  C_3 
REMARK    4  A    between atoms: CB_5  and  OG1_6 
REMARK    5  A    between atoms: CB_5  and  CG2_7 
REMARK    6  A    between atoms: CA_9  and  N_8 
REMARK    7  A    between atoms: C_10  and  CA_9 
REMARK    8  A    between atoms: CA_9  and  CB_12 
REMARK       I    between atoms: N_17  and  C_10 
REMARK    9  A    between atoms: CB_12  and  CG_13 
REMARK   10  A    between atoms: CG_13  and  CD_14 
REMARK   11  A    between atoms: CD_14  and  CE_15 
REMARK   12  A    between atoms: CE_15  and  NZ_16 
REMARK   13  A    between atoms: CA_18  and  N_17 
REMARK   14  A    between atoms: C_19  and  CA_18 
REMARK   15  A    between atoms: CA_18  and  CB_21 
REMARK       I    between atoms: N_26  and  C_19 
REMARK   16  A    between atoms: CB_21  and  CG_22 
REMARK   17  A    between atoms: CG_22  and  CD_23 
REMARK       I    between atoms: CD_23  and  NE2_25 
REMARK   18  A    between atoms: CA_27  and  N_26 
REMARK   19  A    between atoms: C_28  and  CA_27 
REMARK   20  A    between atoms: CA_27  and  CB_30 
REMARK       I    between atoms: N_33  and  C_28 
REMARK   21  A    between atoms: CB_30  and  OG1_31 
REMARK   22  A    between atoms: CB_30  and  CG2_32 
REMARK   23  A    between atoms: CA_34  and  N_33 
REMARK   24  A    between atoms: C_35  and  CA_34 
REMARK   25  A    between atoms: CA_34  and  CB_37 
REMARK       I    between atoms: N_38  and  C_35 
REMARK   26  A    between atoms: CA_39  and  N_38 
REMARK   27  A    between atoms: C_40  and  CA_39 
REMARK   28  A    between atoms: CA_39  and  CB_42 
REMARK       I    between atoms: N_58  and  C_40 
REMARK   29  A    between atoms: CB_42  and  CG_43 
REMARK   30  A    between atoms: CG_43  and  CD_44 
REMARK   31  A    between atoms: CD_44  and  NE_45 
REMARK       I    between atoms: NE_45  and  CZ_46 
REMARK       I    between atoms: CZ_46  and  NH1_47 
REMARK   32  A    between atoms: CH_50  and  CH3_51 
REMARK       I    between atoms: NZ_52  and  CH_50 
REMARK   33  A    between atoms: CE_53  and  NZ_52 
REMARK   34  A    between atoms: CD_54  and  CE_53 
REMARK   35  A    between atoms: CG_55  and  CD_54 
REMARK   36  A    between atoms: CB_56  and  CG_55 
REMARK   37  A    between atoms: CA_57  and  CB_56 
REMARK   38  A    between atoms: CA_57  and  N_58 
REMARK   39  A    between atoms: CA_57  and  C_59 
REMARK       I    between atoms: C_59  and  N_61 
REMARK   40  A    between atoms: N_61  and  CA_62 
REMARK   41  A    between atoms: CA_62  and  C_63 
REMARK   42  A    between atoms: CA_62  and  CB_65 
REMARK       I    between atoms: C_63  and  N_67 
REMARK   43  A    between atoms: CB_65  and  OG_66 
ROOT
ATOM      1  CA  ALA d   1      15.783  22.708  -4.621  0.00  0.00     0.086 C 
ATOM      2  H   ALA d   1      15.402  22.447  -5.619  0.00  0.00     0.086 H 
ENDROOT
BRANCH   1   3
ATOM      3  N   ALA d   1      14.816  23.556  -3.952  0.00  0.00    -0.346 N 
ATOM      4  C   THR d   1      13.576  23.149  -3.734  0.00  0.00     0.243 C 
ATOM      5  O   THR d   1      13.112  22.105  -4.222  0.00  0.00    -0.271 OA
ATOM      6  H   ALA d   1      15.092  24.468  -3.649  0.00  0.00     0.163 HD
BRANCH   4   7
ATOM      7  CA  THR d   1      12.760  24.037  -2.797  0.00  0.00     0.113 C 
ATOM      8  H   THR d   1      12.739  25.065  -3.189  0.00  0.00     0.091 H 
BRANCH   7   9
ATOM      9  N   THR d   1      11.429  23.538  -2.722  0.00  0.00    -0.344 N 
ATOM     10  C   GLN d   1      10.584  23.605  -3.733  0.00  0.00     0.241 C 
ATOM     11  O   GLN d   1      10.783  24.247  -4.753  0.00  0.00    -0.271 OA
ATOM     12  H   THR d   1      11.122  23.119  -1.867  0.00  0.00     0.163 HD
BRANCH  10  13
ATOM     13  CA  GLN d   1       9.325  22.800  -3.547  0.00  0.00     0.090 C 
ATOM     14  H   GLN d   1       9.103  22.748  -2.471  0.00  0.00     0.087 H 
BRANCH  13  15
ATOM     15  N   GLN d   1       8.175  23.401  -4.210  0.00  0.00    -0.346 N 
ATOM     16  C   LYS d   1       7.464  24.347  -3.618  0.00  0.00     0.241 C 
ATOM     17  O   LYS d   1       7.850  24.917  -2.591  0.00  0.00    -0.271 OA
ATOM     18  H   GLN d   1       7.919  23.094  -5.127  0.00  0.00     0.163 HD
BRANCH  16  19
ATOM     19  CA  LYS d   1       6.101  24.669  -4.246  0.00  0.00     0.089 C 
ATOM     20  H   LYS d   1       6.021  25.759  -4.366  0.00  0.00     0.087 H 
BRANCH  19  21
ATOM     21  N   LYS d   1       5.945  24.056  -5.549  0.00  0.00    -0.346 N 
ATOM     22  C   THR d   1       6.423  24.612  -6.658  0.00  0.00     0.251 C 
ATOM     23  O   THR d   1       6.988  25.714  -6.669  0.00  0.00    -0.271 OA
ATOM     24  H   LYS d   1       5.461  23.184  -5.617  0.00  0.00     0.163 HD
BRANCH  22  25
ATOM     25  CA  THR d   1       6.219  23.795  -7.941  0.00  0.00     0.199 C 
ATOM     26  H   THR d   1       5.334  23.155  -7.808  0.00  0.00     0.103 H 
BRANCH  25  27
ATOM     27  N   THR d   1       5.976  24.655  -9.095  0.00  0.00    -0.064 N 
ATOM     28  H   THR d   1       5.168  25.231  -8.920  0.00  0.00     0.275 HD
ATOM     29  H   THR d   1       5.812  24.085  -9.910  0.00  0.00     0.275 HD
ATOM     30  H   THR d   1       6.780  25.242  -9.252  0.00  0.00     0.275 HD
ENDBRANCH  25  27
BRANCH  25  31
ATOM     31  CB  THR d   1       7.464  22.874  -8.152  0.00  0.00     0.068 C 
ATOM     32  H   THR d   1       7.281  22.249  -9.038  0.00  0.00     0.086 H 
BRANCH  31  33
ATOM     33  OG1 THR d   1       7.652  21.998  -7.009  0.00  0.00    -0.393 OA
ATOM     34  H   THR d   1       8.412  21.447  -7.155  0.00  0.00     0.210 HD
ENDBRANCH  31  33
BRANCH  31  35
ATOM     35  CG2 THR d   1       8.755  23.724  -8.413  0.00  0.00    -0.050 C 
ATOM     36  H   THR d   1       9.614  23.052  -8.558  0.00  0.00     0.031 H 
ATOM     37  H   THR d   1       8.944  24.379  -7.550  0.00  0.00     0.031 H 
ATOM     38  H   THR d   1       8.614  24.338  -9.315  0.00  0.00     0.031 H 
ENDBRANCH  31  35
ENDBRANCH  25  31
ENDBRANCH  22  25
ENDBRANCH  19  21
BRANCH  19  39
ATOM     39  CB  LYS d   1       4.988  24.189  -3.298  0.00  0.00    -0.038 C 
ATOM     40  H   LYS d   1       5.195  24.605  -2.301  0.00  0.00     0.036 H 
ATOM     41  H   LYS d   1       5.036  23.091  -3.254  0.00  0.00     0.036 H 
BRANCH  39  42
ATOM     42  CG  LYS d   1       3.568  24.574  -3.674  0.00  0.00    -0.061 C 
ATOM     43  H   LYS d   1       3.262  23.992  -4.556  0.00  0.00     0.033 H 
ATOM     44  H   LYS d   1       3.541  25.647  -3.914  0.00  0.00     0.033 H 
BRANCH  42  45
ATOM     45  CD  LYS d   1       2.586  24.295  -2.528  0.00  0.00    -0.043 C 
ATOM     46  H   LYS d   1       2.989  24.730  -1.601  0.00  0.00     0.035 H 
ATOM     47  H   LYS d   1       2.482  23.207  -2.407  0.00  0.00     0.035 H 
BRANCH  45  48
ATOM     48  CE  LYS d   1       1.200  24.899  -2.798  0.00  0.00     0.080 C 
ATOM     49  H   LYS d   1       1.326  25.966  -3.034  0.00  0.00     0.075 H 
ATOM     50  H   LYS d   1       0.592  24.794  -1.888  0.00  0.00     0.075 H 
BRANCH  48  51
ATOM     51  NZ  LYS d   1       0.466  24.240  -3.941  0.00  0.00    -0.079 N 
ATOM     52  H   LYS d   1      -0.431  24.682  -4.064  0.00  0.00     0.274 HD
ATOM     53  H   LYS d   1       0.333  23.262  -3.736  0.00  0.00     0.274 HD
ATOM     54  H   LYS d   1       1.006  24.336  -4.787  0.00  0.00     0.274 HD
ENDBRANCH  48  51
ENDBRANCH  45  48
ENDBRANCH  42  45
ENDBRANCH  39  42
ENDBRANCH  19  39
ENDBRANCH  16  19
ENDBRANCH  13  15
BRANCH  13  55
ATOM     55  CB  GLN d   1       9.581  21.377  -4.064  0.00  0.00    -0.030 C 
ATOM     56  H   GLN d   1      10.667  21.201  -4.058  0.00  0.00     0.037 H 
ATOM     57  H   GLN d   1       9.205  21.316  -5.096  0.00  0.00     0.037 H 
BRANCH  55  58
ATOM     58  CG  GLN d   1       8.922  20.277  -3.257  0.00  0.00     0.011 C 
ATOM     59  H   GLN d   1       7.841  20.286  -3.463  0.00  0.00     0.047 H 
ATOM     60  H   GLN d   1       9.093  20.471  -2.188  0.00  0.00     0.047 H 
BRANCH  58  61
ATOM     61  CD  GLN d   1       9.481  18.881  -3.603  0.00  0.00     0.215 C 
ATOM     62  OE1 GLN d   1      10.720  18.618  -3.637  0.00  0.00    -0.274 OA
ATOM     63  NE2 GLN d   1       8.571  17.995  -3.881  0.00  0.00    -0.370 N 
ATOM     64  H   GLN d   1       8.838  17.061  -4.117  0.00  0.00     0.159 HD
ATOM     65  H   GLN d   1       7.604  18.248  -3.858  0.00  0.00     0.159 HD
ENDBRANCH  58  61
ENDBRANCH  55  58
ENDBRANCH  13  55
ENDBRANCH  10  13
ENDBRANCH   7   9
BRANCH   7  66
ATOM     66  CB  THR d   1      13.423  24.038  -1.407  0.00  0.00     0.060 C 
ATOM     67  H   THR d   1      14.388  24.561  -1.470  0.00  0.00     0.086 H 
BRANCH  66  68
ATOM     68  OG1 THR d   1      13.641  22.688  -0.979  0.00  0.00    -0.393 OA
ATOM     69  H   THR d   1      14.209  22.248  -1.601  0.00  0.00     0.210 HD
ENDBRANCH  66  68
BRANCH  66  70
ATOM     70  CG2 THR d   1      12.544  24.739  -0.398  0.00  0.00    -0.050 C 
ATOM     71  H   THR d   1      13.035  24.729   0.586  0.00  0.00     0.031 H 
ATOM     72  H   THR d   1      11.577  24.219  -0.331  0.00  0.00     0.031 H 
ATOM     73  H   THR d   1      12.380  25.779  -0.715  0.00  0.00     0.031 H 
ENDBRANCH  66  70
ENDBRANCH   7  66
ENDBRANCH   4   7
ENDBRANCH   1   3
BRANCH   1  74
ATOM     74  C   ALA d   1      15.985  21.438  -3.816  0.00  0.00     0.240 C 
ATOM     75  O   ALA d   1      15.710  21.421  -2.624  0.00  0.00    -0.271 OA
ATOM     76  N   ARG d   1      16.540  20.410  -4.464  0.00  0.00    -0.346 N 
ATOM     77  H   ARG d   1      16.763  20.515  -5.433  0.00  0.00     0.163 HD
BRANCH  76  78
ATOM     78  CA  ARG d   1      16.831  19.143  -3.810  0.00  0.00     0.089 C 
ATOM     79  H   ARG d   1      16.530  19.207  -2.754  0.00  0.00     0.087 H 
BRANCH  78  80
ATOM     80  C   ARG d   1      18.292  18.867  -3.885  0.00  0.00     0.241 C 
ATOM     81  O   ARG d   1      18.936  19.387  -4.759  0.00  0.00    -0.271 OA
ATOM     82  N   ALY d   1      18.800  18.025  -2.989  0.00  0.00    -0.346 N 
ATOM     83  H   ALY d   1      18.200  17.684  -2.265  0.00  0.00     0.163 HD
BRANCH  82  84
ATOM     84  CA  ALY d   1      20.181  17.575  -3.007  0.00  0.00     0.089 C 
ATOM     85  H   ALY d   1      20.662  18.072  -3.863  0.00  0.00     0.087 H 
BRANCH  84  86
ATOM     86  CB  ALY d   1      21.063  17.833  -1.774  0.00  0.00    -0.038 C 
ATOM     87  H   ALY d   1      21.813  17.031  -1.708  0.00  0.00     0.036 H 
ATOM     88  H   ALY d   1      21.571  18.800  -1.906  0.00  0.00     0.036 H 
BRANCH  86  89
ATOM     89  CG  ALY d   1      20.297  17.872  -0.487  0.00  0.00    -0.061 C 
ATOM     90  H   ALY d   1      19.416  18.521  -0.603  0.00  0.00     0.033 H 
ATOM     91  H   ALY d   1      19.971  16.855  -0.223  0.00  0.00     0.033 H 
BRANCH  89  92
ATOM     92  CD  ALY d   1      21.184  18.417   0.606  0.00  0.00    -0.050 C 
ATOM     93  H   ALY d   1      22.087  17.792   0.671  0.00  0.00     0.035 H 
ATOM     94  H   ALY d   1      21.469  19.448   0.348  0.00  0.00     0.035 H 
BRANCH  92  95
ATOM     95  CE  ALY d   1      20.500  18.426   1.959  0.00  0.00    -0.005 C 
ATOM     96  H   ALY d   1      19.628  19.093   1.894  0.00  0.00     0.064 H 
ATOM     97  H   ALY d   1      20.163  17.402   2.176  0.00  0.00     0.064 H 
BRANCH  95  98
ATOM     98  NZ  ALY d   1      21.316  18.867   3.059  0.00  0.00    -0.361 N 
ATOM     99  CH  ALY d   1      20.957  19.926   3.850  0.00  0.00     0.213 C 
ATOM    100  OH  ALY d   1      19.909  20.615   3.646  0.00  0.00    -0.274 OA
ATOM    101  H   ALY d   1      22.171  18.386   3.252  0.00  0.00     0.162 HD
BRANCH  99 102
ATOM    102  CH3 ALY d   1      21.935  20.252   4.946  0.00  0.00    -0.003 C 
ATOM    103  H   ALY d   1      22.759  19.523   4.931  0.00  0.00     0.040 H 
ATOM    104  H   ALY d   1      21.424  20.208   5.919  0.00  0.00     0.040 H 
ATOM    105  H   ALY d   1      22.338  21.264   4.789  0.00  0.00     0.040 H 
ENDBRANCH  99 102
ENDBRANCH  95  98
ENDBRANCH  92  95
ENDBRANCH  89  92
ENDBRANCH  86  89
ENDBRANCH  84  86
BRANCH  84 106
ATOM    106  C   ALY d   1      20.214  16.080  -3.215  0.00  0.00     0.241 C 
ATOM    107  O   ALY d   1      19.218  15.365  -3.093  0.00  0.00    -0.271 OA
ATOM    108  N   SER d   1      21.380  15.549  -3.572  0.00  0.00    -0.344 N 
ATOM    109  H   SER d   1      22.168  16.134  -3.762  0.00  0.00     0.163 HD
BRANCH 108 110
ATOM    110  CA  SER d   1      21.492  14.079  -3.684  0.00  0.00     0.109 C 
ATOM    111  H   SER d   1      20.852  13.646  -2.901  0.00  0.00     0.090 H 
BRANCH 110 112
ATOM    112  C   SER d   1      22.904  13.535  -3.469  0.00  0.00     0.240 C 
ATOM    113  O   SER d   1      23.902  14.243  -3.655  0.00  0.00    -0.271 OA
ATOM    114  N   THR d   1      22.970  12.267  -3.060  0.00  0.00    -0.368 N 
ATOM    115  H   THR d   1      23.859  11.840  -2.897  0.00  0.00     0.159 HD
ATOM    116  H   THR d   1      22.130  11.744  -2.916  0.00  0.00     0.159 HD
ENDBRANCH 110 112
BRANCH 110 117
ATOM    117  CB  SER d   1      20.964  13.603  -5.051  0.00  0.00     0.044 C 
ATOM    118  H   SER d   1      19.873  13.477  -4.990  0.00  0.00     0.077 H 
ATOM    119  H   SER d   1      21.431  12.639  -5.300  0.00  0.00     0.077 H 
BRANCH 117 120
ATOM    120  OG  SER d   1      21.268  14.547  -6.078  0.00  0.00    -0.398 OA
ATOM    121  H   SER d   1      20.864  15.381  -5.870  0.00  0.00     0.209 HD
ENDBRANCH 117 120
ENDBRANCH 110 117
ENDBRANCH 108 110
ENDBRANCH  84 106
ENDBRANCH  82  84
ENDBRANCH  78  80
BRANCH  78 122
ATOM    122  CB  ARG d   1      16.053  18.009  -4.480  0.00  0.00    -0.036 C 
ATOM    123  H   ARG d   1      16.319  17.058  -3.996  0.00  0.00     0.036 H 
ATOM    124  H   ARG d   1      16.327  17.968  -5.545  0.00  0.00     0.036 H 
BRANCH 122 125
ATOM    125  CG  ARG d   1      14.552  18.219  -4.364  0.00  0.00    -0.048 C 
ATOM    126  H   ARG d   1      14.284  19.163  -4.861  0.00  0.00     0.035 H 
ATOM    127  H   ARG d   1      14.280  18.274  -3.300  0.00  0.00     0.035 H 
BRANCH 125 128
ATOM    128  CD  ARG d   1      13.792  17.102  -5.002  0.00  0.00     0.009 C 
ATOM    129  H   ARG d   1      14.142  16.977  -6.037  0.00  0.00     0.064 H 
ATOM    130  H   ARG d   1      12.721  17.354  -5.004  0.00  0.00     0.064 H 
BRANCH 128 131
ATOM    131  NE  ARG d   1      13.982  15.848  -4.284  0.00  0.00    -0.227 N 
ATOM    132  CZ  ARG d   1      13.216  15.413  -3.295  0.00  0.00     0.665 C 
ATOM    133  NH1 ARG d   1      12.186  16.143  -2.869  0.00  0.00    -0.235 N 
ATOM    134  NH2 ARG d   1      13.509  14.248  -2.709  0.00  0.00    -0.235 N 
ATOM    135  H   ARG d   1      11.594  15.799  -2.099  0.00  0.00     0.174 HD
ATOM    136  H   ARG d   1      11.982  17.051  -3.309  0.00  0.00     0.174 HD
ATOM    137  H   ARG d   1      14.307  13.689  -3.044  0.00  0.00     0.174 HD
ATOM    138  H   ARG d   1      12.937  13.909  -1.922  0.00  0.00     0.174 HD
ATOM    139  H   ARG d   1      14.774  15.254  -4.568  0.00  0.00     0.177 HD
ENDBRANCH 128 131
ENDBRANCH 125 128
ENDBRANCH 122 125
ENDBRANCH  78 122
ENDBRANCH  76  78
ENDBRANCH   1  74
BRANCH   1 140
ATOM    140  CB  ALA d   1      17.091  23.424  -4.769  0.00  0.00    -0.049 C 
ATOM    141  H   ALA d   1      17.813  22.768  -5.278  0.00  0.00     0.030 H 
ATOM    142  H   ALA d   1      17.477  23.692  -3.774  0.00  0.00     0.030 H 
ATOM    143  H   ALA d   1      16.944  24.338  -5.364  0.00  0.00     0.030 H 
ENDBRANCH   1 140
TORSDOF 43
