REMARK  10 active torsions:
REMARK  status: ('A' for Active; 'I' for Inactive)
REMARK    1  A    between atoms: C30_2  and  O32_3 
REMARK    2  A    between atoms: C30_2  and  C28_5 
REMARK    3  A    between atoms: O32_3  and  C33_4 
REMARK    4  A    between atoms: C25_9  and  C21_10 
REMARK    5  A    between atoms: C17_17  and  C4_18 
REMARK    6  A    between atoms: C4_18  and  C14_19 
REMARK    7  A    between atoms: C14_19  and  C16_20 
REMARK    8  A    between atoms: C14_19  and  C15_21 
REMARK    9  A    between atoms: C2_25  and  N7_26 
REMARK   10  A    between atoms: C10_28  and  C13_29 
ROOT
ATOM      1  C21 99S d   1      17.302 -31.167 -21.621  0.00  0.00    -0.017 A 
ATOM      2  C20 99S d   1      16.983 -30.416 -20.508  0.00  0.00    -0.052 A 
ATOM      3  C19 99S d   1      17.870 -30.380 -19.438  0.00  0.00     0.046 A 
ATOM      4  C23 99S d   1      17.549 -29.726 -18.390  0.00  0.00     0.099 C 
ATOM      5  N24 99S d   1      17.277 -29.134 -17.443  0.00  0.00    -0.191 NA
ATOM      6  C18 99S d   1      19.060 -31.078 -19.471  0.00  0.00    -0.055 A 
ATOM      7  C22 99S d   1      18.502 -31.851 -21.675  0.00  0.00    -0.064 A 
ATOM      8  C17 99S d   1      19.399 -31.810 -20.611  0.00  0.00    -0.037 A 
ATOM      9  H6  99S d   1      16.053 -29.861 -20.468  0.00  0.00     0.087 H 
ATOM     10  H7  99S d   1      19.728 -31.058 -18.617  0.00  0.00     0.086 H 
ATOM     11  H8  99S d   1      18.748 -32.428 -22.559  0.00  0.00     0.085 H 
ENDROOT
BRANCH   1  12
ATOM     12  C25 99S d   1      16.405 -31.198 -22.793  0.00  0.00     0.016 A 
ATOM     13  C26 99S d   1      16.680 -31.193 -24.153  0.00  0.00    -0.064 A 
ATOM     14  C27 99S d   1      15.539 -31.211 -24.948  0.00  0.00    -0.059 A 
ATOM     15  H5  99S d   1      17.691 -31.177 -24.558  0.00  0.00     0.085 H 
ATOM     16  C28 99S d   1      14.367 -31.218 -24.212  0.00  0.00     0.080 A 
ATOM     17  H4  99S d   1      15.565 -31.219 -26.037  0.00  0.00     0.085 H 
ATOM     18  S29 99S d   1      14.700 -31.190 -22.523  0.00  0.00    -0.084 SA
BRANCH  16  19
ATOM     19  C30 99S d   1      12.956 -31.224 -24.637  0.00  0.00     0.299 C 
ATOM     20  O31 99S d   1      12.030 -31.224 -23.844  0.00  0.00    -0.259 OA
BRANCH  19  21
ATOM     21  O32 99S d   1      12.716 -31.216 -26.063  0.00  0.00    -0.322 OA
BRANCH  21  22
ATOM     22  C33 99S d   1      11.308 -31.215 -26.295  0.00  0.00     0.013 C 
ATOM     23  H1  99S d   1      11.115 -31.209 -27.378  0.00  0.00     0.067 H 
ATOM     24  H2  99S d   1      10.862 -30.320 -25.838  0.00  0.00     0.067 H 
ATOM     25  H3  99S d   1      10.862 -32.116 -25.848  0.00  0.00     0.067 H 
ENDBRANCH  21  22
ENDBRANCH  19  21
ENDBRANCH  16  19
ENDBRANCH   1  12
BRANCH   8  26
ATOM     26  C4  99S d   1      20.680 -32.602 -20.657  0.00  0.00     0.064 C 
ATOM     27  C3  99S d   1      20.381 -33.774 -19.736  0.00  0.00     0.091 C 
ATOM     28  C8  99S d   1      20.026 -33.550 -18.541  0.00  0.00     0.101 C 
ATOM     29  C2  99S d   1      20.524 -35.061 -20.086  0.00  0.00     0.162 C 
ATOM     30  N9  99S d   1      19.710 -33.366 -17.446  0.00  0.00    -0.191 NA
ATOM     31  O1  99S d   1      20.776 -35.481 -21.440  0.00  0.00    -0.274 OA
ATOM     32  C6  99S d   1      20.934 -34.536 -22.398  0.00  0.00     0.175 A 
ATOM     33  C5  99S d   1      20.904 -33.131 -22.041  0.00  0.00     0.040 A 
ATOM     34  N12 99S d   1      21.124 -34.772 -23.697  0.00  0.00    -0.256 N 
ATOM     35  C10 99S d   1      21.112 -32.499 -23.374  0.00  0.00     0.063 A 
ATOM     36  N11 99S d   1      21.238 -33.495 -24.279  0.00  0.00    -0.177 NA
ATOM     37  H21 99S d   1      21.176 -35.686 -24.169  0.00  0.00     0.191 HD
BRANCH  26  38
ATOM     38  C14 99S d   1      21.910 -31.851 -20.100  0.00  0.00    -0.041 C 
ATOM     39  H9  99S d   1      21.650 -31.563 -19.071  0.00  0.00     0.041 H 
BRANCH  38  40
ATOM     40  C16 99S d   1      22.263 -30.565 -20.836  0.00  0.00    -0.072 C 
ATOM     41  H10 99S d   1      23.147 -30.106 -20.369  0.00  0.00     0.028 H 
ATOM     42  H11 99S d   1      21.415 -29.867 -20.782  0.00  0.00     0.028 H 
ATOM     43  H12 99S d   1      22.483 -30.794 -21.889  0.00  0.00     0.028 H 
ENDBRANCH  38  40
BRANCH  38  44
ATOM     44  C15 99S d   1      23.148 -32.745 -20.019  0.00  0.00    -0.072 C 
ATOM     45  H13 99S d   1      22.895 -33.674 -19.488  0.00  0.00     0.028 H 
ATOM     46  H14 99S d   1      23.946 -32.218 -19.476  0.00  0.00     0.028 H 
ATOM     47  H15 99S d   1      23.493 -32.986 -21.035  0.00  0.00     0.028 H 
ENDBRANCH  38  44
ENDBRANCH  26  38
BRANCH  29  48
ATOM     48  N7  99S d   1      20.453 -36.028 -19.174  0.00  0.00    -0.379 N 
ATOM     49  H16 99S d   1      20.565 -37.012 -19.457  0.00  0.00     0.158 HD
ATOM     50  H17 99S d   1      20.286 -35.792 -18.185  0.00  0.00     0.158 HD
ENDBRANCH  29  48
BRANCH  35  51
ATOM     51  C13 99S d   1      21.162 -31.025 -23.695  0.00  0.00    -0.033 C 
ATOM     52  H18 99S d   1      21.330 -30.890 -24.774  0.00  0.00     0.035 H 
ATOM     53  H19 99S d   1      21.983 -30.555 -23.134  0.00  0.00     0.035 H 
ATOM     54  H20 99S d   1      20.209 -30.555 -23.411  0.00  0.00     0.035 H 
ENDBRANCH  35  51
ENDBRANCH   8  26
TORSDOF 10
