REMARK  4 active torsions:
REMARK  status: ('A' for Active; 'I' for Inactive)
REMARK    1  A    between atoms: C2_2  and  C1_1 
REMARK    2  A    between atoms: C3_3  and  C16_12 
REMARK    3  A    between atoms: N1_21  and  C5_20 
REMARK    4  A    between atoms: C9_25  and  C10_26 
ROOT
ATOM      1  O3  33J d   1      30.607 -71.862 -14.532  0.00  0.00    -0.273 OA
ATOM      2  N1  33J d   1      32.682 -70.955 -14.486  0.00  0.00    -0.311 N 
ATOM      3  C6  33J d   1      31.752 -71.761 -14.964  0.00  0.00     0.224 C 
ATOM      4  C7  33J d   1      32.318 -72.387 -16.231  0.00  0.00     0.012 C 
ATOM      5  C8  33J d   1      33.474 -71.432 -16.592  0.00  0.00    -0.037 C 
ATOM      6  C9  33J d   1      33.087 -70.247 -15.699  0.00  0.00     0.024 C 
ATOM      7  H   33J d   1      31.563 -72.416 -17.031  0.00  0.00     0.047 H 
ATOM      8  H   33J d   1      32.689 -73.405 -16.039  0.00  0.00     0.047 H 
ATOM      9  H   33J d   1      33.471 -71.164 -17.659  0.00  0.00     0.036 H 
ATOM     10  H   33J d   1      34.455 -71.850 -16.322  0.00  0.00     0.036 H 
ATOM     11  H   33J d   1      32.156 -69.884 -16.158  0.00  0.00     0.074 H 
ENDROOT
BRANCH   2  12
ATOM     12  C5  33J d   1      33.046 -70.765 -13.108  0.00  0.00     0.063 A 
ATOM     13  C2  33J d   1      34.030 -71.418 -12.383  0.00  0.00     0.109 A 
ATOM     14  S1  33J d   1      34.009 -70.800 -10.729  0.00  0.00    -0.080 SA
ATOM     15  C3  33J d   1      32.711 -69.674 -11.061  0.00  0.00     0.018 A 
ATOM     16  C4  33J d   1      32.312 -69.797 -12.357  0.00  0.00    -0.038 A 
ATOM     17  H   33J d   1      31.502 -69.207 -12.784  0.00  0.00     0.089 H 
BRANCH  13  18
ATOM     18  C1  33J d   1      35.043 -72.448 -12.739  0.00  0.00     0.219 C 
ATOM     19  O1  33J d   1      35.969 -72.696 -11.776  0.00  0.00    -0.643 OA
ATOM     20  O2  33J d   1      35.088 -72.991 -13.846  0.00  0.00    -0.643 OA
ENDBRANCH  13  18
BRANCH  15  21
ATOM     21  C16 33J d   1      32.173 -68.733 -10.078  0.00  0.00    -0.019 A 
ATOM     22  C17 33J d   1      32.562 -68.738  -8.712  0.00  0.00    -0.072 A 
ATOM     23  C18 33J d   1      32.003 -67.822  -7.792  0.00  0.00    -0.082 A 
ATOM     24  H   33J d   1      33.299 -69.455  -8.370  0.00  0.00     0.084 H 
ATOM     25  C19 33J d   1      31.079 -66.845  -8.238  0.00  0.00    -0.083 A 
ATOM     26  H   33J d   1      32.281 -67.867  -6.745  0.00  0.00     0.083 H 
ATOM     27  C20 33J d   1      30.691 -66.796  -9.597  0.00  0.00    -0.082 A 
ATOM     28  H   33J d   1      30.667 -66.131  -7.534  0.00  0.00     0.083 H 
ATOM     29  C21 33J d   1      31.253 -67.724 -10.507  0.00  0.00    -0.072 A 
ATOM     30  H   33J d   1      29.973 -66.058  -9.937  0.00  0.00     0.083 H 
ATOM     31  H   33J d   1      30.980 -67.669 -11.555  0.00  0.00     0.084 H 
ENDBRANCH  15  21
ENDBRANCH   2  12
BRANCH   6  32
ATOM     32  C10 33J d   1      33.830 -68.909 -15.489  0.00  0.00    -0.034 C 
ATOM     33  C11 33J d   1      35.028 -68.652 -16.439  0.00  0.00    -0.060 C 
ATOM     34  C12 33J d   1      35.471 -67.188 -16.379  0.00  0.00    -0.065 C 
ATOM     35  H   33J d   1      35.869 -69.295 -16.140  0.00  0.00     0.033 H 
ATOM     36  H   33J d   1      34.729 -68.895 -17.469  0.00  0.00     0.033 H 
ATOM     37  C13 33J d   1      34.310 -66.261 -16.787  0.00  0.00    -0.065 C 
ATOM     38  H   33J d   1      36.316 -67.036 -17.067  0.00  0.00     0.033 H 
ATOM     39  H   33J d   1      35.785 -66.946 -15.353  0.00  0.00     0.033 H 
ATOM     40  C14 33J d   1      33.134 -66.394 -15.816  0.00  0.00    -0.065 C 
ATOM     41  H   33J d   1      33.973 -66.531 -17.799  0.00  0.00     0.033 H 
ATOM     42  H   33J d   1      34.663 -65.219 -16.783  0.00  0.00     0.033 H 
ATOM     43  C15 33J d   1      32.694 -67.855 -15.645  0.00  0.00    -0.060 C 
ATOM     44  H   33J d   1      32.286 -65.810 -16.203  0.00  0.00     0.033 H 
ATOM     45  H   33J d   1      33.436 -65.997 -14.836  0.00  0.00     0.033 H 
ATOM     46  H   33J d   1      32.101 -68.131 -16.529  0.00  0.00     0.033 H 
ATOM     47  H   33J d   1      32.061 -67.910 -14.747  0.00  0.00     0.033 H 
ATOM     48  H   33J d   1      34.222 -68.876 -14.462  0.00  0.00     0.043 H 
ENDBRANCH   6  32
TORSDOF 4
