REMARK  5 active torsions:
REMARK  status: ('A' for Active; 'I' for Inactive)
REMARK    1  A    between atoms: C26_7  and  C22_8 
REMARK    2  A    between atoms: C18_15  and  C4_16 
REMARK    3  A    between atoms: C4_16  and  C14_22 
REMARK    4  A    between atoms: C2_20  and  N7_21 
REMARK    5  A    between atoms: C10_27  and  C13_28 
ROOT
ATOM      1  C22 33G d   1      16.969   2.089 -96.579  0.00  0.00    -0.024 A 
ATOM      2  C21 33G d   1      16.659   1.306 -97.692  0.00  0.00    -0.052 A 
ATOM      3  C20 33G d   1      17.523   1.334 -98.788  0.00  0.00     0.046 A 
ATOM      4  C24 33G d   1      17.285   0.657 -99.854  0.00  0.00     0.099 C 
ATOM      5  N25 33G d   1      17.090   0.075-100.819  0.00  0.00    -0.191 NA
ATOM      6  C19 33G d   1      18.658   2.146 -98.785  0.00  0.00    -0.055 A 
ATOM      7  C23 33G d   1      18.106   2.891 -96.587  0.00  0.00    -0.065 A 
ATOM      8  C18 33G d   1      18.988   2.931 -97.674  0.00  0.00    -0.037 A 
ATOM      9  H5  33G d   1      15.767   0.690 -97.705  0.00  0.00     0.087 H 
ATOM     10  H6  33G d   1      19.297   2.169 -99.660  0.00  0.00     0.086 H 
ATOM     11  H7  33G d   1      18.317   3.507 -95.720  0.00  0.00     0.085 H 
ENDROOT
BRANCH   1  12
ATOM     12  C26 33G d   1      16.111   2.116 -95.367  0.00  0.00    -0.023 A 
ATOM     13  C27 33G d   1      16.697   1.970 -94.106  0.00  0.00    -0.072 A 
ATOM     14  C28 33G d   1      15.909   2.002 -92.951  0.00  0.00    -0.079 A 
ATOM     15  H3  33G d   1      17.769   1.831 -94.023  0.00  0.00     0.084 H 
ATOM     16  C29 33G d   1      14.530   2.188 -93.055  0.00  0.00    -0.046 A 
ATOM     17  H2  33G d   1      16.369   1.883 -91.977  0.00  0.00     0.083 H 
ATOM     18  C30 33G d   1      13.953   2.340 -94.313  0.00  0.00     0.117 A 
ATOM     19  H1  33G d   1      13.913   2.214 -92.164  0.00  0.00     0.088 H 
ATOM     20  F32 33G d   1      12.628   2.512 -94.407  0.00  0.00    -0.206 F 
ATOM     21  C31 33G d   1      14.733   2.309 -95.472  0.00  0.00    -0.035 A 
ATOM     22  H4  33G d   1      14.271   2.434 -96.445  0.00  0.00     0.089 H 
ENDBRANCH   1  12
BRANCH   8  23
ATOM     23  C4  33G d   1      20.227   3.835 -97.630  0.00  0.00     0.065 C 
ATOM     24  C3  33G d   1      19.899   5.108 -98.441  0.00  0.00     0.091 C 
ATOM     25  C8  33G d   1      19.343   5.049 -99.605  0.00  0.00     0.101 C 
ATOM     26  C2  33G d   1      20.201   6.340 -97.952  0.00  0.00     0.162 C 
ATOM     27  N9  33G d   1      18.828   5.025-100.667  0.00  0.00    -0.191 NA
ATOM     28  O1  33G d   1      20.506   6.581 -96.537  0.00  0.00    -0.274 OA
ATOM     29  C6  33G d   1      20.658   5.537 -95.671  0.00  0.00     0.175 A 
ATOM     30  C5  33G d   1      20.522   4.180 -96.187  0.00  0.00     0.040 A 
ATOM     31  N12 33G d   1      20.923   5.605 -94.351  0.00  0.00    -0.256 N 
ATOM     32  C10 33G d   1      20.768   3.380 -94.939  0.00  0.00     0.063 A 
ATOM     33  N11 33G d   1      20.992   4.255 -93.921  0.00  0.00    -0.177 NA
ATOM     34  H20 33G d   1      21.048   6.453 -93.779  0.00  0.00     0.191 HD
BRANCH  26  35
ATOM     35  N7  33G d   1      20.233   7.395 -98.772  0.00  0.00    -0.379 N 
ATOM     36  H8  33G d   1      20.462   8.328 -98.402  0.00  0.00     0.158 HD
ATOM     37  H9  33G d   1      20.029   7.275 -99.774  0.00  0.00     0.158 HD
ENDBRANCH  26  35
BRANCH  32  38
ATOM     38  C13 33G d   1      20.760   1.877 -94.799  0.00  0.00    -0.033 C 
ATOM     39  H17 33G d   1      20.976   1.605 -93.755  0.00  0.00     0.035 H 
ATOM     40  H18 33G d   1      21.527   1.443 -95.457  0.00  0.00     0.035 H 
ATOM     41  H19 33G d   1      19.771   1.488 -95.082  0.00  0.00     0.035 H 
ENDBRANCH  32  38
BRANCH  23  42
ATOM     42  C14 33G d   1      21.553   3.203 -98.089  0.00  0.00    -0.033 A 
ATOM     43  C17 33G d   1      21.512   1.749 -98.531  0.00  0.00    -0.060 A 
ATOM     44  C16 33G d   1      21.994   2.171 -99.915  0.00  0.00    -0.064 A 
ATOM     45  H11 33G d   1      20.507   1.302 -98.520  0.00  0.00     0.033 H 
ATOM     46  H12 33G d   1      22.210   1.093 -97.991  0.00  0.00     0.033 H 
ATOM     47  C15 33G d   1      22.076   3.618 -99.462  0.00  0.00    -0.060 A 
ATOM     48  H13 33G d   1      21.261   1.994-100.716  0.00  0.00     0.033 H 
ATOM     49  H14 33G d   1      22.963   1.737-100.202  0.00  0.00     0.033 H 
ATOM     50  H15 33G d   1      23.096   4.030 -99.451  0.00  0.00     0.033 H 
ATOM     51  H16 33G d   1      21.411   4.301-100.011  0.00  0.00     0.033 H 
ATOM     52  H10 33G d   1      22.291   3.375 -97.291  0.00  0.00     0.042 H 
ENDBRANCH  23  42
ENDBRANCH   8  23
TORSDOF 5
