REMARK  19 active torsions:
REMARK  status: ('A' for Active; 'I' for Inactive)
REMARK    1  A    between atoms: C12_8  and  N_1 
REMARK    2  A    between atoms: N_1  and  C13_10 
REMARK    3  A    between atoms: N_1  and  C14_12 
REMARK    4  A    between atoms: N_1  and  C15_14 
REMARK    5  A    between atoms: P_2  and  O11_7 
REMARK    6  A    between atoms: O12_9  and  P_2 
REMARK    7  A    between atoms: C1_3  and  C2_4 
REMARK    8  A    between atoms: O11_7  and  C1_3 
REMARK    9  A    between atoms: C2_4  and  C3_5 
REMARK   10  A    between atoms: C2_4  and  O21_16 
REMARK   11  A    between atoms: C3_5  and  O31_23 
REMARK   12  A    between atoms: C11_6  and  C12_8 
REMARK   13  A    between atoms: C11_6  and  O12_9 
REMARK   14  A    between atoms: O21_16  and  C21_15 
REMARK   15  A    between atoms: C21_15  and  C22_17 
REMARK   16  A    between atoms: C22_17  and  C23_19 
REMARK   17  A    between atoms: C23_19  and  C24_20 
REMARK   18  A    between atoms: C24_20  and  C25_21 
REMARK   19  A    between atoms: C25_21  and  C26_22 
ROOT
ATOM      1  C1  POV d   1     -47.242 -15.465  31.985  0.00  0.00     0.058 C 
ATOM      2  H   POV d   1     -47.786 -16.091  31.262  0.00  0.00     0.079 H 
ATOM      3  H   POV d   1     -47.024 -14.486  31.532  0.00  0.00     0.079 H 
ENDROOT
BRANCH   1   4
ATOM      4  C2  POV d   1     -45.926 -16.151  32.349  0.00  0.00     0.089 C 
ATOM      5  H   POV d   1     -45.248 -15.409  32.795  0.00  0.00     0.090 H 
BRANCH   4   6
ATOM      6  C3  POV d   1     -45.299 -16.727  31.085  0.00  0.00     0.043 C 
ATOM      7  H   POV d   1     -45.358 -15.986  30.274  0.00  0.00     0.078 H 
ATOM      8  H   POV d   1     -45.839 -17.638  30.789  0.00  0.00     0.078 H 
BRANCH   6   9
ATOM      9  O31 POV d   1     -43.932 -17.045  31.342  0.00  0.00    -0.398 OA
ATOM     10  H   POV d   1     -43.468 -16.257  31.598  0.00  0.00     0.209 HD
ENDBRANCH   6   9
ENDBRANCH   4   6
BRANCH   4  11
ATOM     11  O21 POV d   1     -46.119 -17.222  33.272  0.00  0.00    -0.312 OA
BRANCH  11  12
ATOM     12  C21 POV d   1     -45.416 -16.988  34.524  0.00  0.00     0.259 C 
ATOM     13  O22 POV d   1     -45.828 -16.138  35.294  0.00  0.00    -0.265 OA
BRANCH  12  14
ATOM     14  C22 POV d   1     -44.202 -17.812  34.881  0.00  0.00     0.016 C 
ATOM     15  H   POV d   1     -43.678 -18.114  33.962  0.00  0.00     0.048 H 
ATOM     16  H   POV d   1     -44.514 -18.708  35.437  0.00  0.00     0.048 H 
BRANCH  14  17
ATOM     17  C23 POV d   1     -43.272 -16.971  35.748  0.00  0.00    -0.057 C 
ATOM     18  H   POV d   1     -43.865 -16.469  36.526  0.00  0.00     0.033 H 
ATOM     19  H   POV d   1     -42.780 -16.216  35.117  0.00  0.00     0.033 H 
BRANCH  17  20
ATOM     20  C24 POV d   1     -42.205 -17.831  36.415  0.00  0.00    -0.065 C 
ATOM     21  H   POV d   1     -42.695 -18.546  37.093  0.00  0.00     0.033 H 
ATOM     22  H   POV d   1     -41.532 -17.180  36.992  0.00  0.00     0.033 H 
BRANCH  20  23
ATOM     23  C25 POV d   1     -41.385 -18.605  35.390  0.00  0.00    -0.069 C 
ATOM     24  H   POV d   1     -40.829 -17.894  34.762  0.00  0.00     0.032 H 
ATOM     25  H   POV d   1     -42.063 -19.198  34.760  0.00  0.00     0.032 H 
BRANCH  23  26
ATOM     26  C26 POV d   1     -40.398 -19.540  36.079  0.00  0.00    -0.077 C 
ATOM     27  H   POV d   1     -39.819 -20.086  35.320  0.00  0.00     0.027 H 
ATOM     28  H   POV d   1     -40.949 -20.257  36.706  0.00  0.00     0.027 H 
ATOM     29  H   POV d   1     -39.714 -18.952  36.708  0.00  0.00     0.027 H 
ENDBRANCH  23  26
ENDBRANCH  20  23
ENDBRANCH  17  20
ENDBRANCH  14  17
ENDBRANCH  12  14
ENDBRANCH  11  12
ENDBRANCH   4  11
ENDBRANCH   1   4
BRANCH   1  30
ATOM     30  O11 POV d   1     -48.056 -15.273  33.141  0.00  0.00    -0.287 OA
BRANCH  30  31
ATOM     31  P   POV d   1     -49.371 -14.342  33.079  0.00  0.00     0.408 P 
ATOM     32  O13 POV d   1     -50.070 -14.412  34.416  0.00  0.00    -0.624 OA
ATOM     33  O14 POV d   1     -48.995 -12.997  32.508  0.00  0.00    -0.624 OA
BRANCH  31  34
ATOM     34  O12 POV d   1     -50.288 -15.127  32.014  0.00  0.00    -0.288 OA
BRANCH  34  35
ATOM     35  C11 POV d   1     -51.676 -14.825  31.891  0.00  0.00     0.054 C 
ATOM     36  H   POV d   1     -52.176 -14.997  32.855  0.00  0.00     0.077 H 
ATOM     37  H   POV d   1     -51.799 -13.772  31.597  0.00  0.00     0.077 H 
BRANCH  35  38
ATOM     38  C12 POV d   1     -52.294 -15.727  30.828  0.00  0.00     0.104 C 
ATOM     39  H   POV d   1     -51.501 -16.316  30.344  0.00  0.00     0.079 H 
ATOM     40  H   POV d   1     -53.017 -16.407  31.303  0.00  0.00     0.079 H 
BRANCH  38  41
ATOM     41  N   POV d   1     -52.982 -14.914  29.817  0.00  0.00    -0.077 N 
BRANCH  41  42
ATOM     42  C13 POV d   1     -52.067 -13.900  29.272  0.00  0.00     0.067 C 
ATOM     43  H   POV d   1     -52.594 -13.299  28.517  0.00  0.00     0.068 H 
ATOM     44  H   POV d   1     -51.203 -14.398  28.807  0.00  0.00     0.068 H 
ATOM     45  H   POV d   1     -51.719 -13.245  30.085  0.00  0.00     0.068 H 
ENDBRANCH  41  42
BRANCH  41  46
ATOM     46  C14 POV d   1     -53.447 -15.783  28.726  0.00  0.00     0.067 C 
ATOM     47  H   POV d   1     -54.132 -16.543  29.129  0.00  0.00     0.068 H 
ATOM     48  H   POV d   1     -52.583 -16.279  28.259  0.00  0.00     0.068 H 
ATOM     49  H   POV d   1     -53.974 -15.177  27.974  0.00  0.00     0.068 H 
ENDBRANCH  41  46
BRANCH  41  50
ATOM     50  C15 POV d   1     -54.130 -14.252  30.445  0.00  0.00     0.067 C 
ATOM     51  H   POV d   1     -53.778 -13.603  31.260  0.00  0.00     0.068 H 
ATOM     52  H   POV d   1     -54.815 -15.011  30.850  0.00  0.00     0.068 H 
ATOM     53  H   POV d   1     -54.658 -13.645  29.695  0.00  0.00     0.068 H 
ENDBRANCH  41  50
ENDBRANCH  38  41
ENDBRANCH  35  38
ENDBRANCH  34  35
ENDBRANCH  31  34
ENDBRANCH  30  31
ENDBRANCH   1  30
TORSDOF 19
