REMARK  6 active torsions:
REMARK  status: ('A' for Active; 'I' for Inactive)
REMARK    1  A    between atoms: CAC_1  and  CA_2 
REMARK    2  A    between atoms: CA_2  and  CB_3 
REMARK    3  A    between atoms: CB_3  and  CBC_4 
REMARK    4  A    between atoms: CB_3  and  CG_5 
REMARK    5  A    between atoms: CB_3  and  OHB_13 
REMARK    6  A    between atoms: CG_5  and  CGC_6 
ROOT
ATOM      1  CB  FLC d   1      15.487  26.880   5.724  0.00  0.00     0.164 C 
ENDROOT
BRANCH   1   2
ATOM      2  CA  FLC d   1      15.182  27.831   6.871  0.00  0.00     0.054 C 
ATOM      3  H   FLC d   1      16.121  27.963   7.428  0.00  0.00     0.054 H 
ATOM      4  H   FLC d   1      14.887  28.788   6.416  0.00  0.00     0.054 H 
BRANCH   2   5
ATOM      5  CAC FLC d   1      14.111  27.488   7.897  0.00  0.00     0.176 C 
ATOM      6  OA1 FLC d   1      13.238  28.358   8.171  0.00  0.00    -0.648 OA
ATOM      7  OA2 FLC d   1      14.091  26.381   8.502  0.00  0.00    -0.648 OA
ENDBRANCH   2   5
ENDBRANCH   1   2
BRANCH   1   8
ATOM      8  CBC FLC d   1      14.278  26.589   4.840  0.00  0.00     0.210 C 
ATOM      9  OB1 FLC d   1      14.094  25.404   4.445  0.00  0.00    -0.646 OA
ATOM     10  OB2 FLC d   1      13.461  27.490   4.502  0.00  0.00    -0.646 OA
ENDBRANCH   1   8
BRANCH   1  11
ATOM     11  CG  FLC d   1      16.566  27.567   4.928  0.00  0.00     0.054 C 
ATOM     12  H   FLC d   1      17.288  28.013   5.628  0.00  0.00     0.054 H 
ATOM     13  H   FLC d   1      16.104  28.360   4.322  0.00  0.00     0.054 H 
BRANCH  11  14
ATOM     14  CGC FLC d   1      17.307  26.626   4.006  0.00  0.00     0.176 C 
ATOM     15  OG1 FLC d   1      18.305  27.084   3.402  0.00  0.00    -0.648 OA
ATOM     16  OG2 FLC d   1      16.941  25.418   3.845  0.00  0.00    -0.648 OA
ENDBRANCH  11  14
ENDBRANCH   1  11
BRANCH   1  17
ATOM     17  OHB FLC d   1      16.020  25.649   6.170  0.00  0.00    -0.378 OA
ATOM     18  H   FLC d   1      16.283  25.129   5.420  0.00  0.00     0.211 HD
ENDBRANCH   1  17
TORSDOF 6
