REMARK  8 active torsions:
REMARK  status: ('A' for Active; 'I' for Inactive)
REMARK       I    between atoms: N1_1  and  C17_10 
REMARK    1  A    between atoms: C26_15  and  N1_1 
REMARK    2  A    between atoms: N1_1  and  C27_29 
REMARK    3  A    between atoms: C17_10  and  C14_23 
REMARK    4  A    between atoms: C24_14  and  C26_15 
REMARK    5  A    between atoms: C27_29  and  C28_16 
REMARK    6  A    between atoms: C28_16  and  O2_32 
REMARK    7  A    between atoms: C25_28  and  N2_30 
REMARK    8  A    between atoms: O2_32  and  C33_33 
ROOT
ATOM      1  C20 3F9 d   1       7.826  10.453  15.088  0.00  0.00    -0.042 C 
ATOM      2  C21 3F9 d   1       6.675   9.596  15.572  0.00  0.00    -0.057 C 
ATOM      3  C22 3F9 d   1       7.293  11.612  14.253  0.00  0.00     0.084 C 
ATOM      4  C24 3F9 d   1       5.841   9.127  14.394  0.00  0.00    -0.015 C 
ATOM      5  C23 3F9 d   1       5.433  10.315  13.549  0.00  0.00     0.089 C 
ATOM      6  N2  3F9 d   1       6.573  11.099  13.083  0.00  0.00    -0.066 N 
ATOM      7  H   3F9 d   1       8.503   9.842  14.473  0.00  0.00     0.035 H 
ATOM      8  H   3F9 d   1       8.375  10.850  15.955  0.00  0.00     0.035 H 
ATOM      9  H   3F9 d   1       6.043  10.186  16.253  0.00  0.00     0.033 H 
ATOM     10  H   3F9 d   1       7.073   8.721  16.107  0.00  0.00     0.033 H 
ATOM     11  H   3F9 d   1       8.134  12.236  13.918  0.00  0.00     0.076 H 
ATOM     12  H   3F9 d   1       6.608  12.217  14.865  0.00  0.00     0.076 H 
ATOM     13  H   3F9 d   1       6.412   8.412  13.783  0.00  0.00     0.045 H 
ATOM     14  H   3F9 d   1       4.782  10.966  14.150  0.00  0.00     0.076 H 
ATOM     15  H   3F9 d   1       4.878   9.948  12.673  0.00  0.00     0.076 H 
ATOM     16  H   3F9 d   1       7.188  10.519  12.534  0.00  0.00     0.280 HD
ENDROOT
BRANCH   4  17
ATOM     17  C26 3F9 d   1       4.589   8.461  14.964  0.00  0.00     0.003 C 
ATOM     18  H   3F9 d   1       4.868   7.480  15.376  0.00  0.00     0.065 H 
ATOM     19  H   3F9 d   1       4.187   9.095  15.768  0.00  0.00     0.065 H 
BRANCH  17  20
ATOM     20  N1  3F9 d   1       3.539   8.265  13.945  0.00  0.00    -0.346 N 
ATOM     21  C17 3F9 d   1       2.384   8.970  13.909  0.00  0.00     0.253 C 
ATOM     22  O1  3F9 d   1       1.525   8.774  13.049  0.00  0.00    -0.267 OA
BRANCH  21  23
ATOM     23  C14 3F9 d   1       2.217   9.978  14.875  0.00  0.00     0.033 A 
ATOM     24  C8  3F9 d   1       2.494  11.307  14.545  0.00  0.00    -0.067 A 
ATOM     25  C7  3F9 d   1       2.342  12.333  15.474  0.00  0.00    -0.071 A 
ATOM     26  H   3F9 d   1       2.835  11.545  13.544  0.00  0.00     0.085 H 
ATOM     27  C12 3F9 d   1       1.888  12.033  16.749  0.00  0.00    -0.026 A 
ATOM     28  H   3F9 d   1       2.576  13.356  15.203  0.00  0.00     0.084 H 
ATOM     29  C5  3F9 d   1       1.728  13.055  17.680  0.00  0.00    -0.072 A 
ATOM     30  C13 3F9 d   1       1.593  10.708  17.092  0.00  0.00    -0.025 A 
ATOM     31  C1  3F9 d   1       1.271  12.743  18.956  0.00  0.00    -0.082 A 
ATOM     32  H   3F9 d   1       1.957  14.081  17.414  0.00  0.00     0.084 H 
ATOM     33  C2  3F9 d   1       0.976  11.424  19.294  0.00  0.00    -0.082 A 
ATOM     34  H   3F9 d   1       1.144  13.530  19.691  0.00  0.00     0.083 H 
ATOM     35  C6  3F9 d   1       1.135  10.400  18.366  0.00  0.00    -0.072 A 
ATOM     36  H   3F9 d   1       0.619  11.193  20.291  0.00  0.00     0.083 H 
ATOM     37  H   3F9 d   1       0.904   9.375  18.634  0.00  0.00     0.084 H 
ATOM     38  C11 3F9 d   1       1.755   9.689  16.160  0.00  0.00    -0.057 A 
ATOM     39  H   3F9 d   1       1.522   8.666  16.432  0.00  0.00     0.086 H 
ENDBRANCH  21  23
BRANCH  20  40
ATOM     40  C27 3F9 d   1       3.807   7.208  12.962  0.00  0.00     0.018 C 
ATOM     41  H   3F9 d   1       4.890   7.139  12.782  0.00  0.00     0.067 H 
ATOM     42  H   3F9 d   1       3.293   7.444  12.019  0.00  0.00     0.067 H 
BRANCH  40  43
ATOM     43  C28 3F9 d   1       3.293   5.874  13.503  0.00  0.00     0.034 C 
ATOM     44  H   3F9 d   1       3.667   5.719  14.526  0.00  0.00     0.076 H 
ATOM     45  H   3F9 d   1       3.639   5.053  12.858  0.00  0.00     0.076 H 
BRANCH  43  46
ATOM     46  O2  3F9 d   1       1.869   5.911  13.512  0.00  0.00    -0.394 OA
BRANCH  46  47
ATOM     47  C33 3F9 d   1       1.404   4.766  14.230  0.00  0.00     0.004 C 
ATOM     48  H   3F9 d   1       0.304   4.769  14.253  0.00  0.00     0.066 H 
ATOM     49  H   3F9 d   1       1.792   4.796  15.259  0.00  0.00     0.066 H 
ATOM     50  H   3F9 d   1       1.758   3.852  13.731  0.00  0.00     0.066 H 
ENDBRANCH  46  47
ENDBRANCH  43  46
ENDBRANCH  40  43
ENDBRANCH  20  40
ENDBRANCH  17  20
ENDBRANCH   4  17
BRANCH   6  51
ATOM     51  C25 3F9 d   1       6.079  12.212  12.257  0.00  0.00     0.111 C 
ATOM     52  C18 3F9 d   1       7.202  12.973  11.634  0.00  0.00    -0.013 C 
ATOM     53  C15 3F9 d   1       6.550  13.624  10.581  0.00  0.00    -0.050 A 
ATOM     54  H   3F9 d   1       7.640  13.693  12.341  0.00  0.00     0.043 H 
ATOM     55  H   3F9 d   1       7.988  12.298  11.264  0.00  0.00     0.043 H 
ATOM     56  C9  3F9 d   1       6.842  14.771   9.967  0.00  0.00    -0.076 A 
ATOM     57  C16 3F9 d   1       5.482  12.887  10.199  0.00  0.00    -0.050 A 
ATOM     58  C3  3F9 d   1       6.053  15.233   8.923  0.00  0.00    -0.082 A 
ATOM     59  H   3F9 d   1       7.703  15.347  10.286  0.00  0.00     0.084 H 
ATOM     60  C4  3F9 d   1       4.961  14.479   8.529  0.00  0.00    -0.082 A 
ATOM     61  H   3F9 d   1       6.287  16.167   8.425  0.00  0.00     0.083 H 
ATOM     62  C10 3F9 d   1       4.697  13.293   9.198  0.00  0.00    -0.076 A 
ATOM     63  H   3F9 d   1       4.326  14.809   7.715  0.00  0.00     0.083 H 
ATOM     64  H   3F9 d   1       3.845  12.690   8.905  0.00  0.00     0.084 H 
ATOM     65  C19 3F9 d   1       5.412  11.737  10.998  0.00  0.00    -0.013 C 
ATOM     66  H   3F9 d   1       5.959  10.898  10.544  0.00  0.00     0.043 H 
ATOM     67  H   3F9 d   1       4.370  11.438  11.183  0.00  0.00     0.043 H 
ATOM     68  H   3F9 d   1       5.420  12.855  12.859  0.00  0.00     0.085 H 
ENDBRANCH   6  51
TORSDOF 8
