REMARK  6 active torsions:
REMARK  status: ('A' for Active; 'I' for Inactive)
REMARK    1  A    between atoms: O01_1  and  C02_2 
REMARK    2  A    between atoms: C02_2  and  C03_3 
REMARK    3  A    between atoms: N06_6  and  C09_9 
REMARK    4  A    between atoms: C14_14  and  O15_15 
REMARK    5  A    between atoms: O15_15  and  C16_16 
REMARK    6  A    between atoms: N18_18  and  C20_20 
ROOT
ATOM      1  C09 35E d   1      11.660  88.932  38.047  0.00  0.00     0.179 A 
ATOM      2  N10 35E d   1      10.511  89.510  37.654  0.00  0.00    -0.238 NA
ATOM      3  C11 35E d   1       9.750  90.253  38.523  0.00  0.00     0.021 A 
ATOM      4  C12 35E d   1      10.202  90.408  39.861  0.00  0.00     0.022 A 
ATOM      5  N13 35E d   1      11.363  89.833  40.266  0.00  0.00    -0.232 NA
ATOM      6  C14 35E d   1      12.122  89.101  39.407  0.00  0.00     0.211 A 
ATOM      7  H   35E d   1       8.824  90.712  38.195  0.00  0.00     0.117 H 
ATOM      8  H   35E d   1       9.616  90.990  40.563  0.00  0.00     0.117 H 
ENDROOT
BRANCH   6   9
ATOM      9  O15 35E d   1      13.321  88.513  39.836  0.00  0.00    -0.323 OA
BRANCH   9  10
ATOM     10  C16 35E d   1      13.963  89.244  40.831  0.00  0.00     0.077 A 
ATOM     11  C17 35E d   1      15.368  88.789  41.016  0.00  0.00     0.023 A 
ATOM     12  N18 35E d   1      15.025  88.220  42.329  0.00  0.00    -0.361 N 
ATOM     13  H   35E d   1      16.101  89.608  41.061  0.00  0.00     0.068 H 
ATOM     14  H   35E d   1      15.697  88.043  40.278  0.00  0.00     0.068 H 
ATOM     15  C19 35E d   1      13.622  88.672  42.138  0.00  0.00     0.023 A 
ATOM     16  H   35E d   1      12.892  87.851  42.089  0.00  0.00     0.068 H 
ATOM     17  H   35E d   1      13.289  89.415  42.877  0.00  0.00     0.068 H 
ATOM     18  H   35E d   1      13.817  90.328  40.713  0.00  0.00     0.089 H 
BRANCH  12  19
ATOM     19  C20 35E d   1      15.901  88.274  43.475  0.00  0.00     0.126 A 
ATOM     20  C21 35E d   1      15.341  88.199  44.744  0.00  0.00    -0.038 A 
ATOM     21  C22 35E d   1      16.187  88.270  45.885  0.00  0.00    -0.067 A 
ATOM     22  H   35E d   1      14.269  88.087  44.864  0.00  0.00     0.089 H 
ATOM     23  C23 35E d   1      17.605  88.422  45.708  0.00  0.00    -0.007 A 
ATOM     24  H   35E d   1      15.765  88.210  46.882  0.00  0.00     0.085 H 
ATOM     25  C24 35E d   1      18.478  88.497  46.836  0.00  0.00    -0.071 A 
ATOM     26  C28 35E d   1      18.114  88.496  44.426  0.00  0.00     0.069 A 
ATOM     27  C25 35E d   1      19.862  88.650  46.641  0.00  0.00    -0.082 A 
ATOM     28  H   35E d   1      18.074  88.436  47.840  0.00  0.00     0.084 H 
ATOM     29  C26 35E d   1      20.389  88.730  45.322  0.00  0.00    -0.081 A 
ATOM     30  H   35E d   1      20.527  88.707  47.495  0.00  0.00     0.083 H 
ATOM     31  C27 35E d   1      19.537  88.655  44.229  0.00  0.00    -0.054 A 
ATOM     32  H   35E d   1      21.456  88.850  45.171  0.00  0.00     0.083 H 
ATOM     33  H   35E d   1      19.940  88.716  43.224  0.00  0.00     0.087 H 
ATOM     34  N29 35E d   1      17.260  88.423  43.316  0.00  0.00    -0.231 NA
ENDBRANCH  12  19
ENDBRANCH   9  10
ENDBRANCH   6   9
BRANCH   1  35
ATOM     35  N06 35E d   1      12.391  88.158  37.041  0.00  0.00    -0.362 N 
ATOM     36  C05 35E d   1      13.588  87.399  37.525  0.00  0.00    -0.003 C 
ATOM     37  C04 35E d   1      14.093  86.315  36.642  0.00  0.00    -0.045 C 
ATOM     38  H   35E d   1      14.405  88.121  37.667  0.00  0.00     0.064 H 
ATOM     39  H   35E d   1      13.326  86.946  38.493  0.00  0.00     0.064 H 
ATOM     40  C03 35E d   1      14.171  86.759  35.245  0.00  0.00    -0.031 C 
ATOM     41  H   35E d   1      15.096  86.016  36.980  0.00  0.00     0.036 H 
ATOM     42  H   35E d   1      13.412  85.454  36.707  0.00  0.00     0.036 H 
ATOM     43  C08 35E d   1      12.812  87.131  34.778  0.00  0.00    -0.045 C 
ATOM     44  H   35E d   1      14.809  87.654  35.205  0.00  0.00     0.043 H 
ATOM     45  C07 35E d   1      12.226  88.237  35.594  0.00  0.00    -0.003 C 
ATOM     46  H   35E d   1      12.157  86.250  34.851  0.00  0.00     0.036 H 
ATOM     47  H   35E d   1      12.873  87.457  33.729  0.00  0.00     0.036 H 
ATOM     48  H   35E d   1      12.690  89.177  35.259  0.00  0.00     0.064 H 
ATOM     49  H   35E d   1      11.146  88.266  35.385  0.00  0.00     0.064 H 
BRANCH  40  50
ATOM     50  C02 35E d   1      14.807  85.679  34.314  0.00  0.00     0.020 C 
ATOM     51  H   35E d   1      13.986  85.052  33.936  0.00  0.00     0.074 H 
ATOM     52  H   35E d   1      15.278  86.211  33.475  0.00  0.00     0.074 H 
BRANCH  50  53
ATOM     53  O01 35E d   1      15.778  84.811  34.854  0.00  0.00    -0.400 OA
ATOM     54  H   35E d   1      16.075  84.211  34.180  0.00  0.00     0.209 HD
ENDBRANCH  50  53
ENDBRANCH  40  50
ENDBRANCH   1  35
TORSDOF 6
