REMARK  5 active torsions:
REMARK  status: ('A' for Active; 'I' for Inactive)
REMARK    1  A    between atoms: C01_1  and  C02_2 
REMARK       I    between atoms: C02_2  and  N04_4 
REMARK    2  A    between atoms: C07_7  and  C10_10 
REMARK    3  A    between atoms: C19_19  and  O20_20 
REMARK    4  A    between atoms: O20_20  and  C21_21 
REMARK    5  A    between atoms: N23_23  and  C25_25 
ROOT
ATOM      1  C10 35D d   1      11.514  89.931  40.645  0.00  0.00     0.092 A 
ATOM      2  N11 35D d   1      10.938  89.901  39.397  0.00  0.00    -0.246 NA
ATOM      3  C12 35D d   1      11.376  88.948  38.455  0.00  0.00     0.086 A 
ATOM      4  C13 35D d   1      10.801  88.882  37.129  0.00  0.00    -0.053 A 
ATOM      5  C14 35D d   1      11.254  87.929  36.221  0.00  0.00    -0.081 A 
ATOM      6  C15 35D d   1      12.277  87.022  36.590  0.00  0.00    -0.081 A 
ATOM      7  C16 35D d   1      12.847  87.084  37.900  0.00  0.00    -0.053 A 
ATOM      8  C17 35D d   1      12.393  88.045  38.819  0.00  0.00     0.088 A 
ATOM      9  N18 35D d   1      12.983  88.082  40.124  0.00  0.00    -0.221 NA
ATOM     10  C19 35D d   1      12.576  88.983  41.029  0.00  0.00     0.191 A 
ATOM     11  H   35D d   1      10.018  89.574  36.843  0.00  0.00     0.087 H 
ATOM     12  H   35D d   1      10.822  87.881  35.228  0.00  0.00     0.083 H 
ATOM     13  H   35D d   1      12.628  86.281  35.880  0.00  0.00     0.083 H 
ATOM     14  H   35D d   1      13.629  86.390  38.184  0.00  0.00     0.087 H 
ENDROOT
BRANCH  10  15
ATOM     15  O20 35D d   1      13.174  89.025  42.324  0.00  0.00    -0.324 OA
BRANCH  15  16
ATOM     16  C21 35D d   1      13.804  87.787  42.703  0.00  0.00     0.077 C 
ATOM     17  C22 35D d   1      15.156  87.662  42.158  0.00  0.00     0.023 C 
ATOM     18  N23 35D d   1      15.713  87.978  43.467  0.00  0.00    -0.361 N 
ATOM     19  H   35D d   1      15.396  88.400  41.378  0.00  0.00     0.068 H 
ATOM     20  H   35D d   1      15.403  86.653  41.797  0.00  0.00     0.068 H 
ATOM     21  C24 35D d   1      14.375  87.931  44.046  0.00  0.00     0.023 C 
ATOM     22  H   35D d   1      14.200  87.067  44.704  0.00  0.00     0.068 H 
ATOM     23  H   35D d   1      14.077  88.854  44.565  0.00  0.00     0.068 H 
ATOM     24  H   35D d   1      13.142  86.923  42.541  0.00  0.00     0.089 H 
BRANCH  18  25
ATOM     25  C25 35D d   1      16.715  88.176  44.480  0.00  0.00     0.126 A 
ATOM     26  C26 35D d   1      16.389  88.198  45.859  0.00  0.00    -0.038 A 
ATOM     27  C27 35D d   1      17.408  88.396  46.780  0.00  0.00    -0.067 A 
ATOM     28  H   35D d   1      15.365  88.063  46.188  0.00  0.00     0.089 H 
ATOM     29  C28 35D d   1      18.735  88.570  46.321  0.00  0.00    -0.007 A 
ATOM     30  H   35D d   1      17.189  88.417  47.842  0.00  0.00     0.085 H 
ATOM     31  C29 35D d   1      19.821  88.778  47.231  0.00  0.00    -0.071 A 
ATOM     32  C33 35D d   1      18.985  88.538  44.970  0.00  0.00     0.069 A 
ATOM     33  C30 35D d   1      21.131  88.948  46.726  0.00  0.00    -0.082 A 
ATOM     34  H   35D d   1      19.640  88.805  48.300  0.00  0.00     0.084 H 
ATOM     35  C31 35D d   1      21.377  88.914  45.334  0.00  0.00    -0.081 A 
ATOM     36  H   35D d   1      21.955  89.106  47.413  0.00  0.00     0.083 H 
ATOM     37  C32 35D d   1      20.321  88.710  44.452  0.00  0.00    -0.054 A 
ATOM     38  H   35D d   1      22.384  89.046  44.956  0.00  0.00     0.083 H 
ATOM     39  H   35D d   1      20.500  88.680  43.383  0.00  0.00     0.087 H 
ATOM     40  N34 35D d   1      17.954  88.341  44.076  0.00  0.00    -0.231 NA
ENDBRANCH  18  25
ENDBRANCH  15  16
ENDBRANCH  10  15
BRANCH   1  41
ATOM     41  C07 35D d   1      11.008  90.984  41.649  0.00  0.00    -0.004 C 
ATOM     42  C06 35D d   1      10.160  90.427  42.730  0.00  0.00    -0.041 C 
ATOM     43  C05 35D d   1       9.721  91.485  43.668  0.00  0.00    -0.002 C 
ATOM     44  H   35D d   1       9.273  89.954  42.282  0.00  0.00     0.036 H 
ATOM     45  H   35D d   1      10.737  89.673  43.285  0.00  0.00     0.036 H 
ATOM     46  N04 35D d   1       9.135  92.616  42.976  0.00  0.00    -0.352 N 
ATOM     47  H   35D d   1       8.973  91.062  44.355  0.00  0.00     0.064 H 
ATOM     48  H   35D d   1      10.592  91.833  44.243  0.00  0.00     0.064 H 
ATOM     49  C02 35D d   1       7.857  93.166  43.346  0.00  0.00     0.215 C 
ATOM     50  C09 35D d   1       9.917  93.162  41.897  0.00  0.00    -0.002 C 
ATOM     51  O03 35D d   1       7.240  92.687  44.247  0.00  0.00    -0.274 OA
ATOM     52  C08 35D d   1      10.342  92.112  40.941  0.00  0.00    -0.041 C 
ATOM     53  H   35D d   1      10.812  93.647  42.315  0.00  0.00     0.064 H 
ATOM     54  H   35D d   1       9.312  93.908  41.361  0.00  0.00     0.064 H 
ATOM     55  H   35D d   1       9.458  91.731  40.409  0.00  0.00     0.036 H 
ATOM     56  H   35D d   1      11.046  92.548  40.217  0.00  0.00     0.036 H 
ATOM     57  H   35D d   1      11.900  91.399  42.141  0.00  0.00     0.050 H 
BRANCH  49  58
ATOM     58  C01 35D d   1       7.324  94.314  42.607  0.00  0.00    -0.003 C 
ATOM     59  H   35D d   1       8.036  94.606  41.821  0.00  0.00     0.040 H 
ATOM     60  H   35D d   1       7.174  95.157  43.297  0.00  0.00     0.040 H 
ATOM     61  H   35D d   1       6.362  94.040  42.148  0.00  0.00     0.040 H 
ENDBRANCH  49  58
ENDBRANCH   1  41
TORSDOF 5
