REMARK  29 active torsions:
REMARK  status: ('A' for Active; 'I' for Inactive)
REMARK    1  A    between atoms: N_1  and  CA_2 
REMARK    2  A    between atoms: CA_2  and  C_3 
REMARK    3  A    between atoms: CA_2  and  CB_5 
REMARK       I    between atoms: C_3  and  N_10 
REMARK    4  A    between atoms: CB_5  and  CG_6 
REMARK    5  A    between atoms: CG_6  and  CD_7 
REMARK    6  A    between atoms: N_10  and  CA_11 
REMARK    7  A    between atoms: CA_11  and  C_12 
REMARK    8  A    between atoms: CA_11  and  CB_14 
REMARK       I    between atoms: C_12  and  N_18 
REMARK    9  A    between atoms: CB_14  and  CG1_15 
REMARK   10  A    between atoms: CB_14  and  CG2_16 
REMARK   11  A    between atoms: CG1_15  and  CD1_17 
REMARK   12  A    between atoms: N_18  and  CA_19 
REMARK   13  A    between atoms: CA_19  and  C_20 
REMARK   14  A    between atoms: CA_19  and  CB_22 
REMARK       I    between atoms: C_20  and  N4_28 
REMARK   15  A    between atoms: CB_22  and  CG_23 
REMARK   16  A    between atoms: N4_28  and  C19_29 
REMARK   17  A    between atoms: C19_29  and  C21_30 
REMARK   18  A    between atoms: C19_29  and  C25_34 
REMARK   19  A    between atoms: C21_30  and  C22_31 
REMARK   20  A    between atoms: C22_31  and  C23_32 
REMARK   21  A    between atoms: C22_31  and  C24_33 
REMARK   22  A    between atoms: C25_34  and  O6_35 
REMARK   23  A    between atoms: C25_34  and  C20_36 
REMARK   24  A    between atoms: C20_36  and  N5_37 
REMARK   25  A    between atoms: N5_37  and  C26_38 
REMARK   26  A    between atoms: C26_38  and  C27_39 
REMARK   27  A    between atoms: C26_38  and  C30_42 
REMARK   28  A    between atoms: C27_39  and  C28_40 
REMARK   29  A    between atoms: C28_40  and  C29_41 
ROOT
ATOM      1  CA  TIH d   1     -13.872   5.402  15.529  0.00  0.00     0.093 C 
ATOM      2  H21 TIH d   1     -13.763   4.450  16.070  0.00  0.00     0.088 H 
ENDROOT
BRANCH   1   3
ATOM      3  N   TIH d   1     -13.760   6.520  16.461  0.00  0.00    -0.346 N 
ATOM      4  C   ILE d   1     -13.935   6.474  17.763  0.00  0.00     0.241 C 
ATOM      5  O   ILE d   1     -14.212   5.471  18.357  0.00  0.00    -0.271 OA
ATOM      6  H20 TIH d   1     -13.527   7.410  16.070  0.00  0.00     0.163 HD
BRANCH   4   7
ATOM      7  CA  ILE d   1     -13.796   7.803  18.481  0.00  0.00     0.092 C 
ATOM      8  H10 ILE d   1     -14.211   8.589  17.833  0.00  0.00     0.088 H 
BRANCH   7   9
ATOM      9  N   ILE d   1     -14.527   7.787  19.703  0.00  0.00    -0.346 N 
ATOM     10  C   GLU d   1     -15.345   8.779  20.041  0.00  0.00     0.249 C 
ATOM     11  O   GLU d   1     -15.526   9.769  19.333  0.00  0.00    -0.271 OA
ATOM     12  H9  ILE d   1     -14.422   7.009  20.323  0.00  0.00     0.163 HD
BRANCH  10  13
ATOM     13  CA  GLU d   1     -16.065   8.632  21.377  0.00  0.00     0.176 C 
ATOM     14  H4  GLU d   1     -15.560   7.846  21.957  0.00  0.00     0.099 H 
BRANCH  13  15
ATOM     15  N   GLU d   1     -16.011   9.870  22.145  0.00  0.00    -0.066 N 
ATOM     16  H1  GLU d   1     -16.494   9.743  23.021  0.00  0.00     0.275 HD
ATOM     17  H2  GLU d   1     -16.453  10.610  21.622  0.00  0.00     0.275 HD
ATOM     18  H3  GLU d   1     -15.049  10.113  22.324  0.00  0.00     0.275 HD
ENDBRANCH  13  15
BRANCH  13  19
ATOM     19  CB  GLU d   1     -17.517   8.207  21.148  0.00  0.00    -0.021 C 
ATOM     20  H5  GLU d   1     -17.869   8.669  20.214  0.00  0.00     0.037 H 
ATOM     21  H6  GLU d   1     -18.122   8.576  21.990  0.00  0.00     0.037 H 
BRANCH  19  22
ATOM     22  CG  GLU d   1     -17.715   6.704  21.041  0.00  0.00     0.018 C 
ATOM     23  H7  GLU d   1     -17.446   6.244  22.003  0.00  0.00     0.049 H 
ATOM     24  H8  GLU d   1     -17.054   6.317  20.252  0.00  0.00     0.049 H 
BRANCH  22  25
ATOM     25  CD  GLU d   1     -19.144   6.326  20.705  0.00  0.00     0.172 C 
ATOM     26  OE1 GLU d   1     -19.341   5.349  19.952  0.00  0.00    -0.648 OA
ATOM     27  OE2 GLU d   1     -20.070   7.006  21.195  0.00  0.00    -0.648 OA
ENDBRANCH  22  25
ENDBRANCH  19  22
ENDBRANCH  13  19
ENDBRANCH  10  13
ENDBRANCH   7   9
BRANCH   7  28
ATOM     28  CB  ILE d   1     -12.338   8.134  18.766  0.00  0.00    -0.030 C 
ATOM     29  H11 ILE d   1     -11.751   8.035  17.841  0.00  0.00     0.043 H 
BRANCH  28  30
ATOM     30  CG1 ILE d   1     -11.807   7.215  19.824  0.00  0.00    -0.063 C 
ATOM     31  H12 ILE d   1     -11.880   6.180  19.458  0.00  0.00     0.033 H 
ATOM     32  H13 ILE d   1     -12.424   7.328  20.728  0.00  0.00     0.033 H 
BRANCH  30  33
ATOM     33  CD1 ILE d   1     -10.382   7.493  20.183  0.00  0.00    -0.076 C 
ATOM     34  H17 ILE d   1     -10.056   6.787  20.961  0.00  0.00     0.027 H 
ATOM     35  H18 ILE d   1     -10.293   8.522  20.561  0.00  0.00     0.027 H 
ATOM     36  H19 ILE d   1      -9.749   7.374  19.291  0.00  0.00     0.027 H 
ENDBRANCH  30  33
ENDBRANCH  28  30
BRANCH  28  37
ATOM     37  CG2 ILE d   1     -12.204   9.522  19.319  0.00  0.00    -0.071 C 
ATOM     38  H14 ILE d   1     -12.580  10.248  18.583  0.00  0.00     0.028 H 
ATOM     39  H15 ILE d   1     -11.145   9.731  19.532  0.00  0.00     0.028 H 
ATOM     40  H16 ILE d   1     -12.788   9.605  20.247  0.00  0.00     0.028 H 
ENDBRANCH  28  37
ENDBRANCH   7  28
ENDBRANCH   4   7
ENDBRANCH   1   3
BRANCH   1  41
ATOM     41  C   TIH d   1     -12.728   5.588  14.512  0.00  0.00     0.241 C 
ATOM     42  O   TIH d   1     -12.943   5.632  13.299  0.00  0.00    -0.271 OA
ATOM     43  N4  LHE d   1     -11.524   5.698  15.063  0.00  0.00    -0.352 N 
ATOM     44  H27 LHE d   1     -11.451   5.644  16.059  0.00  0.00     0.163 HD
BRANCH  43  45
ATOM     45  C19 LHE d   1     -10.305   5.893  14.289  0.00  0.00     0.039 C 
ATOM     46  H28 LHE d   1     -10.516   6.334  13.303  0.00  0.00     0.076 H 
BRANCH  45  47
ATOM     47  C21 LHE d   1      -9.483   6.830  15.148  0.00  0.00    -0.041 C 
ATOM     48  H29 LHE d   1      -8.423   6.550  15.058  0.00  0.00     0.036 H 
ATOM     49  H30 LHE d   1      -9.804   6.720  16.194  0.00  0.00     0.036 H 
BRANCH  47  50
ATOM     50  C22 LHE d   1      -9.640   8.320  14.735  0.00  0.00    -0.059 C 
ATOM     51  H31 LHE d   1      -8.940   8.531  13.913  0.00  0.00     0.038 H 
BRANCH  50  52
ATOM     52  C23 LHE d   1      -9.251   9.126  15.975  0.00  0.00    -0.073 C 
ATOM     53  H32 LHE d   1      -9.339  10.200  15.756  0.00  0.00     0.028 H 
ATOM     54  H33 LHE d   1      -8.213   8.892  16.254  0.00  0.00     0.028 H 
ATOM     55  H34 LHE d   1      -9.922   8.865  16.807  0.00  0.00     0.028 H 
ENDBRANCH  50  52
BRANCH  50  56
ATOM     56  C24 LHE d   1     -11.060   8.758  14.278  0.00  0.00    -0.073 C 
ATOM     57  H35 LHE d   1     -11.351   8.184  13.386  0.00  0.00     0.028 H 
ATOM     58  H36 LHE d   1     -11.053   9.831  14.038  0.00  0.00     0.028 H 
ATOM     59  H37 LHE d   1     -11.780   8.568  15.087  0.00  0.00     0.028 H 
ENDBRANCH  50  56
ENDBRANCH  47  50
ENDBRANCH  45  47
BRANCH  45  60
ATOM     60  C25 LHE d   1      -9.587   4.539  14.126  0.00  0.00     0.078 C 
ATOM     61  H38 LHE d   1      -9.359   4.144  15.127  0.00  0.00     0.088 H 
BRANCH  60  62
ATOM     62  O6  LHE d   1      -8.360   4.699  13.418  0.00  0.00    -0.392 OA
ATOM     63  H39 LHE d   1      -7.793   5.291  13.899  0.00  0.00     0.210 HD
ENDBRANCH  60  62
BRANCH  60  64
ATOM     64  C20 LHE d   1     -10.499   3.548  13.413  0.00  0.00     0.108 C 
ATOM     65  H40 LHE d   1     -11.306   4.120  12.931  0.00  0.00     0.079 H 
ATOM     66  H41 LHE d   1     -10.928   2.879  14.173  0.00  0.00     0.079 H 
BRANCH  64  67
ATOM     67  N5  LHE d   1      -9.861   2.708  12.380  0.00  0.00    -0.059 N 
ATOM     68  H42 LHE d   1      -9.618   1.812  12.772  0.00  0.00     0.278 HD
ATOM     69  H43 LHE d   1      -9.029   3.162  12.038  0.00  0.00     0.278 HD
BRANCH  67  70
ATOM     70  C26 LHE d   1     -10.842   2.522  11.250  0.00  0.00     0.184 C 
ATOM     71  H44 LHE d   1     -11.728   3.122  11.503  0.00  0.00     0.101 H 
BRANCH  70  72
ATOM     72  C27 LHE d   1     -10.415   2.998   9.818  0.00  0.00    -0.029 C 
ATOM     73  H45 LHE d   1     -10.399   4.098   9.812  0.00  0.00     0.036 H 
ATOM     74  H46 LHE d   1     -11.165   2.638   9.098  0.00  0.00     0.036 H 
BRANCH  72  75
ATOM     75  C28 LHE d   1      -9.007   2.484   9.357  0.00  0.00    -0.066 C 
ATOM     76  H47 LHE d   1      -9.109   1.442   9.020  0.00  0.00     0.032 H 
ATOM     77  H48 LHE d   1      -8.321   2.527  10.216  0.00  0.00     0.032 H 
BRANCH  75  78
ATOM     78  C29 LHE d   1      -8.382   3.343   8.166  0.00  0.00    -0.076 C 
ATOM     79  H49 LHE d   1      -7.399   2.931   7.893  0.00  0.00     0.027 H 
ATOM     80  H50 LHE d   1      -8.264   4.388   8.490  0.00  0.00     0.027 H 
ATOM     81  H51 LHE d   1      -9.052   3.303   7.294  0.00  0.00     0.027 H 
ENDBRANCH  75  78
ENDBRANCH  72  75
ENDBRANCH  70  72
BRANCH  70  82
ATOM     82  C30 LHE d   1     -11.258   1.043  11.281  0.00  0.00     0.204 C 
ATOM     83  O7  LHE d   1     -10.425   0.231  10.885  0.00  0.00    -0.646 OA
ATOM     84  O8  LHE d   1     -12.374   0.742  11.753  0.00  0.00    -0.646 OA
ENDBRANCH  70  82
ENDBRANCH  67  70
ENDBRANCH  64  67
ENDBRANCH  60  64
ENDBRANCH  45  60
ENDBRANCH  43  45
ENDBRANCH   1  41
BRANCH   1  85
ATOM     85  CB  TIH d   1     -15.204   5.405  14.765  0.00  0.00    -0.008 C 
ATOM     86  H22 TIH d   1     -15.336   4.431  14.271  0.00  0.00     0.044 H 
ATOM     87  H23 TIH d   1     -15.180   6.201  14.006  0.00  0.00     0.044 H 
BRANCH  85  88
ATOM     88  CG  TIH d   1     -16.380   5.649  15.704  0.00  0.00    -0.015 A 
ATOM     89  CD  TIH d   1     -16.725   6.803  16.276  0.00  0.00    -0.070 A 
ATOM     90  CE1 TIH d   1     -17.815   6.700  17.058  0.00  0.00    -0.076 A 
ATOM     91  H24 TIH d   1     -16.180   7.734  16.126  0.00  0.00     0.085 H 
ATOM     92  CE2 TIH d   1     -18.383   5.476  17.115  0.00  0.00    -0.045 A 
ATOM     93  H25 TIH d   1     -18.214   7.550  17.610  0.00  0.00     0.084 H 
ATOM     94  SD  TIH d   1     -17.449   4.436  16.140  0.00  0.00    -0.106 SA
ATOM     95  H26 TIH d   1     -19.273   5.204  17.680  0.00  0.00     0.095 H 
ENDBRANCH  85  88
ENDBRANCH   1  85
TORSDOF 29
