REMARK  27 active torsions:
REMARK  status: ('A' for Active; 'I' for Inactive)
REMARK    1  A    between atoms: CA_2  and  N_1 
REMARK    2  A    between atoms: C_3  and  CA_2 
REMARK    3  A    between atoms: CA_2  and  CB_5 
REMARK       I    between atoms: N_10  and  C_3 
REMARK    4  A    between atoms: CB_5  and  CG_6 
REMARK    5  A    between atoms: CG_6  and  CD_7 
REMARK    6  A    between atoms: CA_11  and  N_10 
REMARK    7  A    between atoms: C_12  and  CA_11 
REMARK    8  A    between atoms: CA_11  and  CB_14 
REMARK       I    between atoms: N_18  and  C_12 
REMARK    9  A    between atoms: CB_14  and  CG1_15 
REMARK   10  A    between atoms: CB_14  and  CG2_16 
REMARK   11  A    between atoms: CG1_15  and  CD1_17 
REMARK   12  A    between atoms: CA_19  and  N_18 
REMARK   13  A    between atoms: C_20  and  CA_19 
REMARK   14  A    between atoms: CA_19  and  CB_22 
REMARK       I    between atoms: N4_32  and  C_20 
REMARK   15  A    between atoms: CB_22  and  CG_23 
REMARK   16  A    between atoms: C19_28  and  C20_29 
REMARK   17  A    between atoms: C23_33  and  C19_28 
REMARK   18  A    between atoms: N4_32  and  C23_33 
REMARK   19  A    between atoms: C23_33  and  C25_36 
REMARK   20  A    between atoms: C25_36  and  O6_37 
REMARK   21  A    between atoms: C25_36  and  C26_38 
REMARK   22  A    between atoms: C26_38  and  N5_39 
REMARK   23  A    between atoms: N5_39  and  C27_40 
REMARK   24  A    between atoms: C27_40  and  C28_41 
REMARK   25  A    between atoms: C27_40  and  C31_44 
REMARK   26  A    between atoms: C28_41  and  C29_42 
REMARK   27  A    between atoms: C29_42  and  C30_43 
ROOT
ATOM      1  CA  TIH d   1      27.759   6.075  16.355  0.00  0.00     0.093 C 
ATOM      2  H21 TIH d   1      27.526   5.247  17.041  0.00  0.00     0.088 H 
ENDROOT
BRANCH   1   3
ATOM      3  N   TIH d   1      27.913   7.262  17.183  0.00  0.00    -0.346 N 
ATOM      4  C   ILE d   1      27.879   6.984  18.484  0.00  0.00     0.241 C 
ATOM      5  O   ILE d   1      27.800   5.823  18.889  0.00  0.00    -0.271 OA
ATOM      6  H20 TIH d   1      28.031   8.184  16.815  0.00  0.00     0.163 HD
BRANCH   4   7
ATOM      7  CA  ILE d   1      27.936   8.104  19.490  0.00  0.00     0.092 C 
ATOM      8  H10 ILE d   1      27.677   9.053  18.999  0.00  0.00     0.088 H 
BRANCH   7   9
ATOM      9  N   ILE d   1      26.959   7.828  20.543  0.00  0.00    -0.346 N 
ATOM     10  C   GLU d   1      26.169   8.808  20.941  0.00  0.00     0.249 C 
ATOM     11  O   GLU d   1      26.487   9.978  20.724  0.00  0.00    -0.271 OA
ATOM     12  H9  ILE d   1      26.891   6.918  20.952  0.00  0.00     0.163 HD
BRANCH  10  13
ATOM     13  CA  GLU d   1      24.900   8.476  21.720  0.00  0.00     0.176 C 
ATOM     14  H4  GLU d   1      25.192   8.072  22.701  0.00  0.00     0.099 H 
BRANCH  13  15
ATOM     15  N   GLU d   1      24.089   9.668  21.941  0.00  0.00    -0.066 N 
ATOM     16  H1  GLU d   1      23.259   9.419  22.457  0.00  0.00     0.275 HD
ATOM     17  H2  GLU d   1      23.826  10.065  21.053  0.00  0.00     0.275 HD
ATOM     18  H3  GLU d   1      24.621  10.344  22.467  0.00  0.00     0.275 HD
ENDBRANCH  13  15
BRANCH  13  19
ATOM     19  CB  GLU d   1      24.092   7.409  20.979  0.00  0.00    -0.021 C 
ATOM     20  H5  GLU d   1      24.739   6.533  20.822  0.00  0.00     0.037 H 
ATOM     21  H6  GLU d   1      23.788   7.820  20.005  0.00  0.00     0.037 H 
BRANCH  19  22
ATOM     22  CG  GLU d   1      22.843   6.954  21.716  0.00  0.00     0.018 C 
ATOM     23  H7  GLU d   1      22.190   7.825  21.874  0.00  0.00     0.049 H 
ATOM     24  H8  GLU d   1      23.140   6.537  22.690  0.00  0.00     0.049 H 
BRANCH  22  25
ATOM     25  CD  GLU d   1      22.068   5.898  20.952  0.00  0.00     0.172 C 
ATOM     26  OE1 GLU d   1      22.510   5.517  19.846  0.00  0.00    -0.648 OA
ATOM     27  OE2 GLU d   1      21.018   5.448  21.456  0.00  0.00    -0.648 OA
ENDBRANCH  22  25
ENDBRANCH  19  22
ENDBRANCH  13  19
ENDBRANCH  10  13
ENDBRANCH   7   9
BRANCH   7  28
ATOM     28  CB  ILE d   1      29.364   8.209  20.055  0.00  0.00    -0.030 C 
ATOM     29  H11 ILE d   1      30.066   8.292  19.212  0.00  0.00     0.043 H 
BRANCH  28  30
ATOM     30  CG1 ILE d   1      29.715   6.953  20.853  0.00  0.00    -0.063 C 
ATOM     31  H12 ILE d   1      29.885   6.128  20.145  0.00  0.00     0.033 H 
ATOM     32  H13 ILE d   1      28.864   6.707  21.505  0.00  0.00     0.033 H 
BRANCH  30  33
ATOM     33  CD1 ILE d   1      30.950   7.103  21.716  0.00  0.00    -0.076 C 
ATOM     34  H17 ILE d   1      31.136   6.163  22.256  0.00  0.00     0.027 H 
ATOM     35  H18 ILE d   1      30.795   7.917  22.440  0.00  0.00     0.027 H 
ATOM     36  H19 ILE d   1      31.816   7.338  21.079  0.00  0.00     0.027 H 
ENDBRANCH  30  33
ENDBRANCH  28  30
BRANCH  28  37
ATOM     37  CG2 ILE d   1      29.504   9.453  20.920  0.00  0.00    -0.071 C 
ATOM     38  H14 ILE d   1      29.247  10.343  20.327  0.00  0.00     0.028 H 
ATOM     39  H15 ILE d   1      30.541   9.537  21.276  0.00  0.00     0.028 H 
ATOM     40  H16 ILE d   1      28.825   9.379  21.782  0.00  0.00     0.028 H 
ENDBRANCH  28  37
ENDBRANCH   7  28
ENDBRANCH   4   7
ENDBRANCH   1   3
BRANCH   1  41
ATOM     41  C   TIH d   1      28.969   5.642  15.597  0.00  0.00     0.241 C 
ATOM     42  O   TIH d   1      29.202   4.430  15.431  0.00  0.00    -0.271 OA
ATOM     43  N4  TVA d   1      30.084   6.246  15.652  0.00  0.00    -0.352 N 
ATOM     44  H31 TVA d   1      30.151   6.915  16.392  0.00  0.00     0.163 HD
BRANCH  43  45
ATOM     45  C23 TVA d   1      31.299   6.139  14.822  0.00  0.00     0.043 C 
ATOM     46  H32 TVA d   1      31.105   6.593  13.839  0.00  0.00     0.077 H 
BRANCH  45  47
ATOM     47  C19 TVA d   1      32.442   6.890  15.494  0.00  0.00    -0.014 C 
ATOM     48  H27 TVA d   1      32.797   6.316  16.363  0.00  0.00     0.044 H 
ATOM     49  H28 TVA d   1      33.267   7.019  14.778  0.00  0.00     0.044 H 
BRANCH  47  50
ATOM     50  C20 TVA d   1      31.955   8.245  15.951  0.00  0.00    -0.016 A 
ATOM     51  C21 TVA d   1      30.764   8.722  16.482  0.00  0.00    -0.070 A 
ATOM     52  C22 TVA d   1      30.800  10.099  16.753  0.00  0.00    -0.076 A 
ATOM     53  H29 TVA d   1      29.894   8.094  16.669  0.00  0.00     0.085 H 
ATOM     54  C24 TVA d   1      31.998  10.749  16.452  0.00  0.00    -0.045 A 
ATOM     55  H30 TVA d   1      29.945  10.628  17.172  0.00  0.00     0.084 H 
ATOM     56  S2  TVA d   1      33.074   9.550  15.815  0.00  0.00    -0.106 SA
ATOM     57  H33 TVA d   1      32.215  11.807  16.591  0.00  0.00     0.095 H 
ENDBRANCH  47  50
ENDBRANCH  45  47
BRANCH  45  58
ATOM     58  C25 TVA d   1      31.651   4.671  14.624  0.00  0.00     0.078 C 
ATOM     59  H34 TVA d   1      31.387   4.116  15.537  0.00  0.00     0.088 H 
BRANCH  58  60
ATOM     60  O6  TVA d   1      33.059   4.545  14.388  0.00  0.00    -0.392 OA
ATOM     61  H35 TVA d   1      33.536   4.888  15.135  0.00  0.00     0.210 HD
ENDBRANCH  58  60
BRANCH  58  62
ATOM     62  C26 TVA d   1      30.886   4.078  13.450  0.00  0.00     0.108 C 
ATOM     63  H36 TVA d   1      30.348   4.966  13.085  0.00  0.00     0.079 H 
ATOM     64  H37 TVA d   1      30.184   3.414  13.976  0.00  0.00     0.079 H 
BRANCH  62  65
ATOM     65  N5  TVA d   1      31.071   3.355  12.225  0.00  0.00    -0.059 N 
ATOM     66  H38 TVA d   1      32.072   3.240  12.266  0.00  0.00     0.278 HD
ATOM     67  H39 TVA d   1      30.844   4.093  11.577  0.00  0.00     0.278 HD
BRANCH  65  68
ATOM     68  C27 TVA d   1      30.755   2.219  11.382  0.00  0.00     0.184 C 
ATOM     69  H40 TVA d   1      29.811   2.409  10.851  0.00  0.00     0.101 H 
BRANCH  68  70
ATOM     70  C28 TVA d   1      31.875   2.012  10.369  0.00  0.00    -0.029 C 
ATOM     71  H41 TVA d   1      31.586   1.212   9.672  0.00  0.00     0.036 H 
ATOM     72  H42 TVA d   1      32.792   1.721  10.902  0.00  0.00     0.036 H 
BRANCH  70  73
ATOM     73  C29 TVA d   1      32.141   3.287   9.580  0.00  0.00    -0.066 C 
ATOM     74  H43 TVA d   1      31.525   4.100   9.992  0.00  0.00     0.032 H 
ATOM     75  H44 TVA d   1      31.872   3.120   8.527  0.00  0.00     0.032 H 
BRANCH  73  76
ATOM     76  C30 TVA d   1      33.600   3.683   9.661  0.00  0.00    -0.076 C 
ATOM     77  H45 TVA d   1      33.762   4.605   9.083  0.00  0.00     0.027 H 
ATOM     78  H46 TVA d   1      34.222   2.876   9.246  0.00  0.00     0.027 H 
ATOM     79  H47 TVA d   1      33.875   3.856  10.712  0.00  0.00     0.027 H 
ENDBRANCH  73  76
ENDBRANCH  70  73
ENDBRANCH  68  70
BRANCH  68  80
ATOM     80  C31 TVA d   1      30.612   0.990  12.229  0.00  0.00     0.204 C 
ATOM     81  O7  TVA d   1      29.477   0.484  12.359  0.00  0.00    -0.646 OA
ATOM     82  O8  TVA d   1      31.633   0.518  12.773  0.00  0.00    -0.646 OA
ENDBRANCH  68  80
ENDBRANCH  65  68
ENDBRANCH  62  65
ENDBRANCH  58  62
ENDBRANCH  45  58
ENDBRANCH  43  45
ENDBRANCH   1  41
BRANCH   1  83
ATOM     83  CB  TIH d   1      26.562   6.258  15.460  0.00  0.00    -0.008 C 
ATOM     84  H22 TIH d   1      26.595   5.496  14.667  0.00  0.00     0.044 H 
ATOM     85  H23 TIH d   1      26.609   7.260  15.008  0.00  0.00     0.044 H 
BRANCH  83  86
ATOM     86  CG  TIH d   1      25.257   6.124  16.207  0.00  0.00    -0.015 A 
ATOM     87  CD  TIH d   1      24.621   6.781  17.216  0.00  0.00    -0.070 A 
ATOM     88  CE1 TIH d   1      23.392   6.251  17.517  0.00  0.00    -0.076 A 
ATOM     89  H24 TIH d   1      25.045   7.641  17.732  0.00  0.00     0.085 H 
ATOM     90  CE2 TIH d   1      23.010   5.162  16.794  0.00  0.00    -0.045 A 
ATOM     91  H25 TIH d   1      22.757   6.678  18.292  0.00  0.00     0.084 H 
ATOM     92  SD  TIH d   1      24.278   4.861  15.702  0.00  0.00    -0.106 SA
ATOM     93  H26 TIH d   1      22.083   4.600  16.895  0.00  0.00     0.095 H 
ENDBRANCH  83  86
ENDBRANCH   1  83
TORSDOF 27
