REMARK  9 active torsions:
REMARK  status: ('A' for Active; 'I' for Inactive)
REMARK    1  A    between atoms: C1_1  and  C7_7 
REMARK    2  A    between atoms: C2_2  and  C18_18 
REMARK    3  A    between atoms: C3_3  and  C17_17 
REMARK    4  A    between atoms: C18_18  and  C19_19 
REMARK    5  A    between atoms: C18_18  and  O22_22 
REMARK    6  A    between atoms: O22_22  and  C23_23 
REMARK    7  A    between atoms: C23_23  and  C24_24 
REMARK    8  A    between atoms: C23_23  and  C25_25 
REMARK    9  A    between atoms: C23_23  and  C26_26 
ROOT
ATOM      1  C1  LF0 d   1     -45.259  15.079  28.284  0.00  0.00    -0.002 A 
ATOM      2  C2  LF0 d   1     -46.094  13.935  28.405  0.00  0.00     0.017 A 
ATOM      3  C3  LF0 d   1     -47.473  14.070  28.154  0.00  0.00     0.041 A 
ATOM      4  N1  LF0 d   1     -47.960  15.288  27.830  0.00  0.00    -0.253 NA
ATOM      5  C5  LF0 d   1     -47.199  16.400  27.695  0.00  0.00     0.068 A 
ATOM      6  C6  LF0 d   1     -45.820  16.338  27.924  0.00  0.00     0.004 A 
ATOM      7  C13 LF0 d   1     -45.051  17.509  27.793  0.00  0.00    -0.070 A 
ATOM      8  C14 LF0 d   1     -45.663  18.714  27.427  0.00  0.00    -0.082 A 
ATOM      9  C15 LF0 d   1     -47.045  18.749  27.194  0.00  0.00    -0.081 A 
ATOM     10  C16 LF0 d   1     -47.830  17.605  27.332  0.00  0.00    -0.054 A 
ATOM     11  H   LF0 d   1     -43.983  17.478  27.976  0.00  0.00     0.084 H 
ATOM     12  H   LF0 d   1     -45.071  19.616  27.324  0.00  0.00     0.083 H 
ATOM     13  H   LF0 d   1     -47.512  19.683  26.901  0.00  0.00     0.083 H 
ATOM     14  H   LF0 d   1     -48.900  17.642  27.164  0.00  0.00     0.087 H 
ENDROOT
BRANCH   1  15
ATOM     15  C7  LF0 d   1     -43.799  14.896  28.507  0.00  0.00    -0.024 A 
ATOM     16  C8  LF0 d   1     -42.974  14.852  27.372  0.00  0.00    -0.070 A 
ATOM     17  C9  LF0 d   1     -41.606  14.641  27.536  0.00  0.00    -0.049 A 
ATOM     18  H   LF0 d   1     -43.395  14.980  26.381  0.00  0.00     0.085 H 
ATOM     19  C10 LF0 d   1     -41.064  14.485  28.818  0.00  0.00     0.075 A 
ATOM     20  H   LF0 d   1     -40.959  14.598  26.668  0.00  0.00     0.087 H 
ATOM     21  C11 LF0 d   1     -41.878  14.547  29.959  0.00  0.00    -0.024 A 
ATOM     22  O27 LF0 d   1     -39.713  14.302  28.950  0.00  0.00    -0.351 OA
ATOM     23  C12 LF0 d   1     -43.263  14.735  29.800  0.00  0.00    -0.063 A 
ATOM     24  C21 LF0 d   1     -41.276  14.377  31.357  0.00  0.00    -0.036 C 
ATOM     25  H   LF0 d   1     -43.914  14.756  30.667  0.00  0.00     0.085 H 
ATOM     26  C20 LF0 d   1     -39.728  14.539  31.334  0.00  0.00    -0.041 C 
ATOM     27  H   LF0 d   1     -41.525  13.374  31.734  0.00  0.00     0.040 H 
ATOM     28  H   LF0 d   1     -41.705  15.137  32.026  0.00  0.00     0.040 H 
ATOM     29  C4  LF0 d   1     -39.141  13.758  30.160  0.00  0.00     0.026 C 
ATOM     30  H   LF0 d   1     -39.474  15.604  31.227  0.00  0.00     0.036 H 
ATOM     31  H   LF0 d   1     -39.307  14.155  32.275  0.00  0.00     0.036 H 
ATOM     32  H   LF0 d   1     -38.047  13.871  30.143  0.00  0.00     0.075 H 
ATOM     33  H   LF0 d   1     -39.398  12.692  30.251  0.00  0.00     0.075 H 
ENDBRANCH   1  15
BRANCH   2  34
ATOM     34  C18 LF0 d   1     -45.497  12.591  28.763  0.00  0.00     0.151 C 
ATOM     35  H   LF0 d   1     -44.401  12.666  28.719  0.00  0.00     0.108 H 
BRANCH  34  36
ATOM     36  C19 LF0 d   1     -45.913  12.188  30.171  0.00  0.00     0.208 C 
ATOM     37  O20 LF0 d   1     -45.938  13.071  31.047  0.00  0.00    -0.646 OA
ATOM     38  O21 LF0 d   1     -46.240  11.005  30.426  0.00  0.00    -0.646 OA
ENDBRANCH  34  36
BRANCH  34  39
ATOM     39  O22 LF0 d   1     -45.937  11.581  27.833  0.00  0.00    -0.360 OA
BRANCH  39  40
ATOM     40  C23 LF0 d   1     -45.327  11.436  26.551  0.00  0.00     0.051 C 
BRANCH  40  41
ATOM     41  C24 LF0 d   1     -43.789  11.401  26.680  0.00  0.00    -0.048 C 
ATOM     42  H   LF0 d   1     -43.340  11.289  25.682  0.00  0.00     0.031 H 
ATOM     43  H   LF0 d   1     -43.493  10.551  27.313  0.00  0.00     0.031 H 
ATOM     44  H   LF0 d   1     -43.438  12.338  27.137  0.00  0.00     0.031 H 
ENDBRANCH  40  41
BRANCH  40  45
ATOM     45  C25 LF0 d   1     -45.750  12.569  25.630  0.00  0.00    -0.048 C 
ATOM     46  H   LF0 d   1     -45.271  12.441  24.648  0.00  0.00     0.031 H 
ATOM     47  H   LF0 d   1     -45.442  13.531  26.066  0.00  0.00     0.031 H 
ATOM     48  H   LF0 d   1     -46.843  12.555  25.509  0.00  0.00     0.031 H 
ENDBRANCH  40  45
BRANCH  40  49
ATOM     49  C26 LF0 d   1     -45.833  10.099  25.974  0.00  0.00    -0.048 C 
ATOM     50  H   LF0 d   1     -45.390   9.938  24.980  0.00  0.00     0.031 H 
ATOM     51  H   LF0 d   1     -46.929  10.129  25.887  0.00  0.00     0.031 H 
ATOM     52  H   LF0 d   1     -45.541   9.277  26.643  0.00  0.00     0.031 H 
ENDBRANCH  40  49
ENDBRANCH  39  40
ENDBRANCH  34  39
ENDBRANCH   2  34
BRANCH   3  53
ATOM     53  C17 LF0 d   1     -48.505  12.936  28.264  0.00  0.00    -0.035 C 
ATOM     54  H   LF0 d   1     -49.503  13.323  28.012  0.00  0.00     0.035 H 
ATOM     55  H   LF0 d   1     -48.512  12.545  29.292  0.00  0.00     0.035 H 
ATOM     56  H   LF0 d   1     -48.238  12.129  27.566  0.00  0.00     0.035 H 
ENDBRANCH   3  53
TORSDOF 9
