REMARK  24 active torsions:
REMARK  status: ('A' for Active; 'I' for Inactive)
REMARK    1  A    between atoms: C_1  and  CH3_3 
REMARK       I    between atoms: N_4  and  C_1 
REMARK    2  A    between atoms: CA_5  and  N_4 
REMARK    3  A    between atoms: C_6  and  CA_5 
REMARK    4  A    between atoms: CA_5  and  CB_8 
REMARK       I    between atoms: N_13  and  C_6 
REMARK    5  A    between atoms: CB_8  and  CG_9 
REMARK    6  A    between atoms: CG_9  and  CD_10 
REMARK       I    between atoms: CD_10  and  NE2_12 
REMARK    7  A    between atoms: CA_14  and  N_13 
REMARK    8  A    between atoms: C_15  and  CA_14 
REMARK    9  A    between atoms: CA_14  and  CB_17 
REMARK       I    between atoms: N_24  and  C_15 
REMARK   10  A    between atoms: CB_17  and  CG_18 
REMARK   11  A    between atoms: CA_25  and  N_24 
REMARK   12  A    between atoms: C_26  and  CA_25 
REMARK   13  A    between atoms: CA_25  and  CB_28 
REMARK       I    between atoms: N_32  and  C_26 
REMARK   14  A    between atoms: CB_28  and  CG_29 
REMARK   15  A    between atoms: CA_33  and  N_32 
REMARK   16  A    between atoms: C_34  and  CA_33 
REMARK   17  A    between atoms: CA_33  and  CB_36 
REMARK       I    between atoms: N_40  and  C_34 
REMARK   18  A    between atoms: CB_36  and  CG_37 
REMARK   19  A    between atoms: CG_37  and  CD1_38 
REMARK   20  A    between atoms: CG_37  and  CD2_39 
REMARK   21  A    between atoms: CA_52  and  N_40 
REMARK   22  A    between atoms: CB_48  and  CG_51 
REMARK   23  A    between atoms: CA_52  and  CB_48 
REMARK   24  A    between atoms: C_49  and  CA_52 
ROOT
ATOM      1  C   ALC d   1     -41.483  15.756 -47.300  0.00  0.00     0.241 C 
ATOM      2  O   ALC d   1     -41.465  14.793 -46.531  0.00  0.00    -0.271 OA
ATOM      3  N   ASP d   1     -40.382  16.215 -47.913  0.00  0.00    -0.346 N 
ATOM      4  H   ASP d   1     -40.466  17.010 -48.514  0.00  0.00     0.163 HD
ENDROOT
BRANCH   3   5
ATOM      5  CA  ASP d   1     -39.056  15.602 -47.742  0.00  0.00     0.098 C 
ATOM      6  H   ASP d   1     -39.209  14.633 -47.246  0.00  0.00     0.088 H 
BRANCH   5   7
ATOM      7  C   ASP d   1     -38.109  16.406 -46.874  0.00  0.00     0.241 C 
ATOM      8  O   ASP d   1     -38.149  17.634 -46.898  0.00  0.00    -0.271 OA
ATOM      9  N   LEU d   1     -37.230  15.705 -46.130  0.00  0.00    -0.346 N 
ATOM     10  H   LEU d   1     -37.274  14.707 -46.175  0.00  0.00     0.163 HD
BRANCH   9  11
ATOM     11  CA  LEU d   1     -36.214  16.306 -45.259  0.00  0.00     0.089 C 
ATOM     12  H   LEU d   1     -36.708  17.064 -44.634  0.00  0.00     0.087 H 
BRANCH  11  13
ATOM     13  C   LEU d   1     -35.124  16.993 -46.077  0.00  0.00     0.241 C 
ATOM     14  O   LEU d   1     -34.781  18.131 -45.779  0.00  0.00    -0.271 OA
ATOM     15  N   ZCL d   1     -34.743  16.739 -47.350  0.00  0.00    -0.344 N 
ATOM     16  H   ZCL d   1     -35.353  16.069 -47.774  0.00  0.00     0.163 HD
BRANCH  15  17
ATOM     17  CA  ZCL d   1     -33.702  17.156 -48.288  0.00  0.00     0.100 C 
ATOM     18  H   ZCL d   1     -33.184  18.023 -47.852  0.00  0.00     0.090 H 
BRANCH  17  19
ATOM     19  CB  ZCL d   1     -32.666  16.031 -48.513  0.00  0.00    -0.013 C 
ATOM     20  H   ZCL d   1     -33.155  15.225 -49.079  0.00  0.00     0.043 H 
ATOM     21  H   ZCL d   1     -31.837  16.444 -49.106  0.00  0.00     0.043 H 
BRANCH  19  22
ATOM     22  CG  ZCL d   1     -32.089  15.435 -47.251  0.00  0.00    -0.054 A 
ATOM     23  CD2 ZCL d   1     -31.036  16.046 -46.577  0.00  0.00    -0.075 A 
ATOM     24  CE2 ZCL d   1     -30.555  15.529 -45.384  0.00  0.00    -0.060 A 
ATOM     25  H   ZCL d   1     -30.585  16.940 -46.991  0.00  0.00     0.084 H 
ATOM     26  CZ  ZCL d   1     -31.127  14.386 -44.848  0.00  0.00     0.055 A 
ATOM     27  H   ZCL d   1     -29.734  16.017 -44.872  0.00  0.00     0.086 H 
ATOM     28 CLZ  ZCL d   1     -30.587  13.798 -43.305  0.00  0.00    -0.083 Cl
ATOM     29  CE1 ZCL d   1     -32.155  13.750 -45.534  0.00  0.00     0.056 A 
ATOM     30 CLE1 ZCL d   1     -32.823  12.264 -44.953  0.00  0.00    -0.083 Cl
ATOM     31  CD1 ZCL d   1     -32.636  14.272 -46.720  0.00  0.00    -0.054 A 
ATOM     32  H   ZCL d   1     -33.445  13.771 -47.240  0.00  0.00     0.086 H 
ENDBRANCH  19  22
ENDBRANCH  17  19
BRANCH  17  33
ATOM     33  C   ZCL d   1     -34.286  17.576 -49.637  0.00  0.00     0.197 C 
ATOM     34  O   ZCL d   1     -33.629  18.532 -50.232  0.00  0.00    -0.646 OA
ATOM     35  OXT ZCL d   1     -35.315  17.024 -50.087  0.00  0.00    -0.646 OA
ENDBRANCH  17  33
ENDBRANCH  15  17
ENDBRANCH  11  13
BRANCH  11  36
ATOM     36  CB  LEU d   1     -35.579  15.256 -44.333  0.00  0.00    -0.035 C 
ATOM     37  H   LEU d   1     -34.590  15.631 -44.031  0.00  0.00     0.037 H 
ATOM     38  H   LEU d   1     -35.458  14.329 -44.913  0.00  0.00     0.037 H 
BRANCH  36  39
ATOM     39  CG  LEU d   1     -36.347  14.912 -43.068  0.00  0.00    -0.059 C 
ATOM     40  H   LEU d   1     -37.401  14.752 -43.341  0.00  0.00     0.038 H 
BRANCH  39  41
ATOM     41  CD1 LEU d   1     -35.816  13.636 -42.445  0.00  0.00    -0.073 C 
ATOM     42  H   LEU d   1     -36.387  13.408 -41.533  0.00  0.00     0.028 H 
ATOM     43  H   LEU d   1     -34.754  13.767 -42.190  0.00  0.00     0.028 H 
ATOM     44  H   LEU d   1     -35.922  12.807 -43.160  0.00  0.00     0.028 H 
ENDBRANCH  39  41
BRANCH  39  45
ATOM     45  CD2 LEU d   1     -36.283  16.039 -42.062  0.00  0.00    -0.073 C 
ATOM     46  H   LEU d   1     -36.669  16.962 -42.520  0.00  0.00     0.028 H 
ATOM     47  H   LEU d   1     -35.239  16.194 -41.750  0.00  0.00     0.028 H 
ATOM     48  H   LEU d   1     -36.894  15.782 -41.184  0.00  0.00     0.028 H 
ENDBRANCH  39  45
ENDBRANCH  36  39
ENDBRANCH  11  36
ENDBRANCH   9  11
ENDBRANCH   5   7
BRANCH   5  49
ATOM     49  CB  ASP d   1     -38.407  15.337 -49.110  0.00  0.00     0.043 C 
ATOM     50  H   ASP d   1     -37.434  14.851 -48.949  0.00  0.00     0.052 H 
ATOM     51  H   ASP d   1     -38.256  16.300 -49.620  0.00  0.00     0.052 H 
BRANCH  49  52
ATOM     52  CG  ASP d   1     -39.252  14.446 -49.999  0.00  0.00     0.175 C 
ATOM     53  OD1 ASP d   1     -39.317  13.222 -49.725  0.00  0.00    -0.648 OA
ATOM     54  OD2 ASP d   1     -39.886  14.976 -50.939  0.00  0.00    -0.648 OA
ENDBRANCH  49  52
ENDBRANCH   5  49
ENDBRANCH   3   5
BRANCH   1  55
ATOM     55  CA  ALC d   1     -42.815  16.467 -47.607  0.00  0.00     0.089 C 
ATOM     56  H   ALC d   1     -42.844  16.637 -48.693  0.00  0.00     0.087 H 
BRANCH  55  57
ATOM     57  N   ALC d   1     -43.964  15.608 -47.307  0.00  0.00    -0.346 N 
ATOM     58  C   GLN d   1     -44.561  14.808 -48.207  0.00  0.00     0.241 C 
ATOM     59  O   GLN d   1     -44.215  14.729 -49.385  0.00  0.00    -0.271 OA
ATOM     60  H   ALC d   1     -44.326  15.618 -46.375  0.00  0.00     0.163 HD
BRANCH  58  61
ATOM     61  CA  GLN d   1     -45.718  13.957 -47.690  0.00  0.00     0.089 C 
ATOM     62  H   GLN d   1     -45.947  14.323 -46.678  0.00  0.00     0.087 H 
BRANCH  61  63
ATOM     63  N   GLN d   1     -46.955  14.084 -48.467  0.00  0.00    -0.348 N 
ATOM     64  C   ACE d   1     -47.556  15.248 -48.730  0.00  0.00     0.214 C 
ATOM     65  O   ACE d   1     -47.115  16.354 -48.383  0.00  0.00    -0.274 OA
ATOM     66  H   GLN d   1     -47.374  13.248 -48.822  0.00  0.00     0.163 HD
BRANCH  64  67
ATOM     67  CH3 ACE d   1     -48.849  15.153 -49.527  0.00  0.00    -0.003 C 
ATOM     68  H   ACE d   1     -49.073  14.097 -49.738  0.00  0.00     0.040 H 
ATOM     69  H   ACE d   1     -48.737  15.700 -50.475  0.00  0.00     0.040 H 
ATOM     70  H   ACE d   1     -49.672  15.593 -48.945  0.00  0.00     0.040 H 
ENDBRANCH  64  67
ENDBRANCH  61  63
BRANCH  61  71
ATOM     71  CB  GLN d   1     -45.292  12.474 -47.553  0.00  0.00    -0.030 C 
ATOM     72  H   GLN d   1     -45.079  12.084 -48.559  0.00  0.00     0.037 H 
ATOM     73  H   GLN d   1     -46.131  11.915 -47.113  0.00  0.00     0.037 H 
BRANCH  71  74
ATOM     74  CG  GLN d   1     -44.039  12.243 -46.668  0.00  0.00     0.011 C 
ATOM     75  H   GLN d   1     -43.201  12.802 -47.110  0.00  0.00     0.047 H 
ATOM     76  H   GLN d   1     -43.808  11.168 -46.677  0.00  0.00     0.047 H 
BRANCH  74  77
ATOM     77  CD  GLN d   1     -44.187  12.683 -45.216  0.00  0.00     0.215 C 
ATOM     78  OE1 GLN d   1     -43.407  13.496 -44.693  0.00  0.00    -0.274 OA
ATOM     79  NE2 GLN d   1     -45.202  12.177 -44.541  0.00  0.00    -0.370 N 
ATOM     80  H   GLN d   1     -45.344  12.433 -43.585  0.00  0.00     0.159 HD
ATOM     81  H   GLN d   1     -45.829  11.537 -44.986  0.00  0.00     0.159 HD
ENDBRANCH  74  77
ENDBRANCH  71  74
ENDBRANCH  61  71
ENDBRANCH  58  61
ENDBRANCH  55  57
BRANCH  55  82
ATOM     82  CB  ALC d   1     -42.835  17.874 -46.951  0.00  0.00    -0.035 C 
ATOM     83  H   ALC d   1     -41.952  18.431 -47.297  0.00  0.00     0.037 H 
ATOM     84  H   ALC d   1     -42.785  17.749 -45.859  0.00  0.00     0.037 H 
BRANCH  82  85
ATOM     85  CG  ALC d   1     -44.083  18.691 -47.287  0.00  0.00    -0.052 C 
ATOM     86  CD2 ALC d   1     -44.268  19.855 -46.318  0.00  0.00    -0.062 C 
ATOM     87  CE2 ALC d   1     -45.498  20.704 -46.639  0.00  0.00    -0.065 C 
ATOM     88  H   ALC d   1     -43.376  20.497 -46.365  0.00  0.00     0.033 H 
ATOM     89  H   ALC d   1     -44.376  19.451 -45.300  0.00  0.00     0.033 H 
ATOM     90  CZ  ALC d   1     -45.458  21.222 -48.072  0.00  0.00    -0.065 C 
ATOM     91  H   ALC d   1     -45.531  21.561 -45.950  0.00  0.00     0.033 H 
ATOM     92  H   ALC d   1     -46.401  20.090 -46.505  0.00  0.00     0.033 H 
ATOM     93  CE1 ALC d   1     -45.278  20.078 -49.064  0.00  0.00    -0.065 C 
ATOM     94  H   ALC d   1     -44.618  21.924 -48.177  0.00  0.00     0.033 H 
ATOM     95  H   ALC d   1     -46.401  21.743 -48.292  0.00  0.00     0.033 H 
ATOM     96  CD1 ALC d   1     -44.052  19.229 -48.720  0.00  0.00    -0.062 C 
ATOM     97  H   ALC d   1     -45.152  20.496 -50.074  0.00  0.00     0.033 H 
ATOM     98  H   ALC d   1     -46.173  19.440 -49.041  0.00  0.00     0.033 H 
ATOM     99  H   ALC d   1     -44.009  18.377 -49.414  0.00  0.00     0.033 H 
ATOM    100  H   ALC d   1     -43.151  19.848 -48.843  0.00  0.00     0.033 H 
ATOM    101  H   ALC d   1     -44.953  18.024 -47.192  0.00  0.00     0.040 H 
ENDBRANCH  82  85
ENDBRANCH  55  82
ENDBRANCH   1  55
TORSDOF 24
