REMARK  8 active torsions:
REMARK  status: ('A' for Active; 'I' for Inactive)
REMARK    1  A    between atoms: C1_1  and  C6_5 
REMARK    2  A    between atoms: C2_2  and  C30_29 
REMARK    3  A    between atoms: C13_12  and  O33_32 
REMARK    4  A    between atoms: C14_13  and  C15_14 
REMARK    5  A    between atoms: C17_16  and  C18_17 
REMARK    6  A    between atoms: C20_19  and  C21_20 
REMARK    7  A    between atoms: C23_22  and  C24_23 
REMARK    8  A    between atoms: C25_24  and  O34_33 
ROOT
ATOM      1  C6  BC9 d   1      34.323 -12.628  31.852  0.00  0.00     0.055 C 
ATOM      2  C7  BC9 d   1      33.000 -12.400  31.181  0.00  0.00    -0.025 C 
ATOM      3  C8  BC9 d   1      32.486 -13.510  30.352  0.00  0.00    -0.101 C 
ATOM      4  C9  BC9 d   1      31.276 -14.001  30.474  0.00  0.00    -0.085 C 
ATOM      5  C10 BC9 d   1      31.111 -15.032  29.494  0.00  0.00    -0.065 C 
ATOM      6  C11 BC9 d   1      30.063 -15.754  29.185  0.00  0.00     0.051 C 
ATOM      7  C12 BC9 d   1      28.964 -15.692  29.744  0.00  0.00     0.098 C 
ATOM      8  C13 BC9 d   1      30.330 -16.673  28.067  0.00  0.00     0.073 C 
ATOM      9  C14 BC9 d   1      30.396 -18.071  28.579  0.00  0.00    -0.028 C 
ATOM     10  C16 BC9 d   1      31.612 -18.225  29.451  0.00  0.00    -0.056 C 
ATOM     11  C17 BC9 d   1      31.570 -19.494  30.262  0.00  0.00    -0.057 C 
ATOM     12  C19 BC9 d   1      32.681 -19.507  31.286  0.00  0.00    -0.059 C 
ATOM     13  C20 BC9 d   1      34.016 -19.068  30.737  0.00  0.00    -0.057 C 
ATOM     14  C22 BC9 d   1      34.792 -18.490  31.889  0.00  0.00    -0.057 C 
ATOM     15  C23 BC9 d   1      36.265 -18.329  31.659  0.00  0.00    -0.032 C 
ATOM     16  C25 BC9 d   1      36.616 -16.911  31.285  0.00  0.00     0.047 C 
ATOM     17  C26 BC9 d   1      36.077 -15.982  32.344  0.00  0.00     0.040 C 
ATOM     18  C27 BC9 d   1      35.833 -14.556  31.964  0.00  0.00     0.261 C 
ATOM     19  O28 BC9 d   1      36.714 -13.862  31.584  0.00  0.00    -0.265 OA
ATOM     20  O29 BC9 d   1      34.522 -14.005  32.086  0.00  0.00    -0.315 OA
ATOM     21  N35 BC9 d   1      27.940 -15.644  30.254  0.00  0.00    -0.192 NA
ATOM     22  H7  BC9 d   1      35.171 -12.190  31.305  0.00  0.00     0.085 H 
ATOM     23  H8  BC9 d   1      33.101 -11.517  30.533  0.00  0.00     0.042 H 
ATOM     24  H9  BC9 d   1      32.257 -12.196  31.966  0.00  0.00     0.042 H 
ATOM     25  H10 BC9 d   1      33.146 -13.943  29.601  0.00  0.00     0.076 H 
ATOM     26  H11 BC9 d   1      30.526 -13.680  31.196  0.00  0.00     0.083 H 
ATOM     27  H12 BC9 d   1      32.003 -15.252  28.910  0.00  0.00     0.085 H 
ATOM     28  H13 BC9 d   1      31.290 -16.412  27.597  0.00  0.00     0.092 H 
ATOM     29  H14 BC9 d   1      29.494 -18.309  29.161  0.00  0.00     0.043 H 
ATOM     30  H18 BC9 d   1      31.668 -17.367  30.137  0.00  0.00     0.034 H 
ATOM     31  H19 BC9 d   1      32.507 -18.242  28.812  0.00  0.00     0.034 H 
ATOM     32  H20 BC9 d   1      31.686 -20.355  29.587  0.00  0.00     0.039 H 
ATOM     33  H24 BC9 d   1      32.785 -20.531  31.673  0.00  0.00     0.034 H 
ATOM     34  H25 BC9 d   1      32.404 -18.830  32.108  0.00  0.00     0.034 H 
ATOM     35  H26 BC9 d   1      33.863 -18.298  29.967  0.00  0.00     0.039 H 
ATOM     36  H30 BC9 d   1      34.655 -19.152  32.756  0.00  0.00     0.034 H 
ATOM     37  H31 BC9 d   1      34.374 -17.498  32.115  0.00  0.00     0.034 H 
ATOM     38  H32 BC9 d   1      36.597 -19.007  30.859  0.00  0.00     0.043 H 
ATOM     39  H36 BC9 d   1      37.706 -16.790  31.195  0.00  0.00     0.084 H 
ATOM     40  H37 BC9 d   1      36.796 -15.981  33.176  0.00  0.00     0.051 H 
ATOM     41  H38 BC9 d   1      35.119 -16.398  32.688  0.00  0.00     0.051 H 
ENDROOT
BRANCH   8  42
ATOM     42  O33 BC9 d   1      29.298 -16.551  27.119  0.00  0.00    -0.390 OA
ATOM     43  H39 BC9 d   1      29.266 -15.656  26.800  0.00  0.00     0.210 HD
ENDBRANCH   8  42
BRANCH   9  44
ATOM     44  C15 BC9 d   1      30.484 -18.965  27.375  0.00  0.00    -0.070 C 
ATOM     45  H15 BC9 d   1      30.535 -20.015  27.701  0.00  0.00     0.028 H 
ATOM     46  H16 BC9 d   1      31.387 -18.715  26.798  0.00  0.00     0.028 H 
ATOM     47  H17 BC9 d   1      29.594 -18.820  26.745  0.00  0.00     0.028 H 
ENDBRANCH   9  44
BRANCH  11  48
ATOM     48  C18 BC9 d   1      30.261 -19.600  30.986  0.00  0.00    -0.073 C 
ATOM     49  H21 BC9 d   1      30.242 -20.529  31.574  0.00  0.00     0.028 H 
ATOM     50  H22 BC9 d   1      29.438 -19.611  30.256  0.00  0.00     0.028 H 
ATOM     51  H23 BC9 d   1      30.143 -18.738  31.659  0.00  0.00     0.028 H 
ENDBRANCH  11  48
BRANCH   1  52
ATOM     52  C1  BC9 d   1      34.032 -11.946  33.157  0.00  0.00    -0.015 A 
ATOM     53  C2  BC9 d   1      35.203 -11.822  34.063  0.00  0.00     0.036 A 
ATOM     54  C3  BC9 d   1      35.054 -10.330  34.043  0.00  0.00    -0.052 A 
ATOM     55  H2  BC9 d   1      36.157 -12.209  33.677  0.00  0.00     0.057 H 
ATOM     56  C5  BC9 d   1      33.942 -10.452  33.041  0.00  0.00    -0.058 A 
ATOM     57  H3  BC9 d   1      35.939  -9.796  33.668  0.00  0.00     0.034 H 
ATOM     58  H4  BC9 d   1      34.745  -9.897  35.006  0.00  0.00     0.034 H 
ATOM     59  H5  BC9 d   1      32.983 -10.029  33.376  0.00  0.00     0.033 H 
ATOM     60  H6  BC9 d   1      34.187 -10.060  32.043  0.00  0.00     0.033 H 
ATOM     61  H1  BC9 d   1      33.154 -12.413  33.627  0.00  0.00     0.045 H 
BRANCH  53  62
ATOM     62  C30 BC9 d   1      34.877 -12.395  35.377  0.00  0.00     0.177 C 
ATOM     63  O31 BC9 d   1      33.784 -12.146  35.861  0.00  0.00    -0.648 OA
ATOM     64  O32 BC9 d   1      35.715 -13.102  35.923  0.00  0.00    -0.648 OA
ENDBRANCH  53  62
ENDBRANCH   1  52
BRANCH  13  65
ATOM     65  C21 BC9 d   1      34.763 -20.218  30.132  0.00  0.00    -0.073 C 
ATOM     66  H27 BC9 d   1      35.729 -19.864  29.743  0.00  0.00     0.028 H 
ATOM     67  H28 BC9 d   1      34.172 -20.648  29.310  0.00  0.00     0.028 H 
ATOM     68  H29 BC9 d   1      34.937 -20.987  30.899  0.00  0.00     0.028 H 
ENDBRANCH  13  65
BRANCH  15  69
ATOM     69  C24 BC9 d   1      36.925 -18.691  32.956  0.00  0.00    -0.070 C 
ATOM     70  H33 BC9 d   1      38.016 -18.593  32.852  0.00  0.00     0.028 H 
ATOM     71  H34 BC9 d   1      36.674 -19.729  33.218  0.00  0.00     0.028 H 
ATOM     72  H35 BC9 d   1      36.570 -18.017  33.749  0.00  0.00     0.028 H 
ENDBRANCH  15  69
BRANCH  16  73
ATOM     73  O34 BC9 d   1      35.989 -16.651  30.054  0.00  0.00    -0.395 OA
ATOM     74  H40 BC9 d   1      36.158 -15.752  29.797  0.00  0.00     0.210 HD
ENDBRANCH  16  73
TORSDOF 8
