REMARK  9 active torsions:
REMARK  status: ('A' for Active; 'I' for Inactive)
REMARK       I    between atoms: C8_20  and  N2_6 
REMARK    1  A    between atoms: C18_30  and  N3_10 
REMARK    2  A    between atoms: O4_14  and  C24_36 
REMARK    3  A    between atoms: C25_37  and  O4_14 
REMARK    4  A    between atoms: N5_16  and  C28_40 
REMARK    5  A    between atoms: C9_21  and  C8_20 
REMARK    6  A    between atoms: C19_31  and  C20_32 
REMARK    7  A    between atoms: C22_34  and  C21_33 
REMARK    8  A    between atoms: C23_35  and  C22_34 
REMARK    9  A    between atoms: C24_36  and  C23_35 
ROOT
ATOM      1  S2  38H d   1      -4.586  20.378  47.136  0.00  0.00    -0.054 SA
ATOM      2  N4  38H d   1      -3.383  22.506  46.243  0.00  0.00    -0.216 NA
ATOM      3  C18 38H d   1      -4.529  22.084  46.814  0.00  0.00     0.170 A 
ATOM      4  C19 38H d   1      -2.501  21.507  46.055  0.00  0.00     0.149 A 
ATOM      5  C21 38H d   1      -2.989  20.261  46.475  0.00  0.00     0.022 A 
ENDROOT
BRANCH   3   6
ATOM      6  N3  38H d   1      -5.560  22.893  47.120  0.00  0.00    -0.355 N 
ATOM      7  C15 38H d   1      -6.719  22.266  47.697  0.00  0.00     0.022 C 
ATOM      8  C14 38H d   1      -7.848  23.189  48.106  0.00  0.00    -0.018 A 
ATOM      9  H   38H d   1      -6.392  21.718  48.593  0.00  0.00     0.071 H 
ATOM     10  H   38H d   1      -7.118  21.555  46.958  0.00  0.00     0.071 H 
ATOM     11  C9  38H d   1      -8.849  22.749  48.966  0.00  0.00     0.040 A 
ATOM     12  C13 38H d   1      -7.906  24.487  47.620  0.00  0.00    -0.048 A 
ATOM     13  C10 38H d   1      -9.911  23.589  49.284  0.00  0.00    -0.067 A 
ATOM     14  C11 38H d   1      -9.962  24.896  48.815  0.00  0.00    -0.081 A 
ATOM     15  H   38H d   1     -10.714  23.217  49.910  0.00  0.00     0.085 H 
ATOM     16  C12 38H d   1      -8.934  25.341  47.993  0.00  0.00    -0.076 A 
ATOM     17  H   38H d   1     -10.783  25.552  49.084  0.00  0.00     0.083 H 
ATOM     18  H   38H d   1      -8.935  26.366  47.639  0.00  0.00     0.084 H 
ATOM     19  C17 38H d   1      -6.823  25.013  46.710  0.00  0.00    -0.025 C 
ATOM     20  C16 38H d   1      -5.485  24.341  46.987  0.00  0.00     0.001 C 
ATOM     21  H   38H d   1      -6.718  26.096  46.868  0.00  0.00     0.042 H 
ATOM     22  H   38H d   1      -7.110  24.821  45.666  0.00  0.00     0.042 H 
ATOM     23  H   38H d   1      -4.803  24.576  46.157  0.00  0.00     0.064 H 
ATOM     24  H   38H d   1      -5.080  24.753  47.923  0.00  0.00     0.064 H 
BRANCH  11  25
ATOM     25  C8  38H d   1      -8.991  21.337  49.437  0.00  0.00     0.258 C 
ATOM     26  O1  38H d   1      -8.384  20.412  48.921  0.00  0.00    -0.267 OA
ATOM     27  N2  38H d   1      -9.917  20.999  50.337  0.00  0.00    -0.301 N 
ATOM     28  C7  38H d   1     -10.308  19.741  50.669  0.00  0.00     0.174 A 
ATOM     29  H   38H d   1     -10.370  21.750  50.817  0.00  0.00     0.171 HD
ATOM     30  N1  38H d   1     -11.349  19.529  51.491  0.00  0.00    -0.223 NA
ATOM     31  S1  38H d   1      -9.746  18.316  49.854  0.00  0.00    -0.050 SA
ATOM     32  C6  38H d   1     -11.633  18.199  51.561  0.00  0.00     0.076 A 
ATOM     33  C1  38H d   1     -10.865  17.399  50.720  0.00  0.00     0.037 A 
ATOM     34  C5  38H d   1     -12.599  17.587  52.355  0.00  0.00    -0.054 A 
ATOM     35  C2  38H d   1     -11.023  16.027  50.669  0.00  0.00    -0.064 A 
ATOM     36  C3  38H d   1     -11.988  15.416  51.457  0.00  0.00    -0.082 A 
ATOM     37  H   38H d   1     -10.396  15.431  50.016  0.00  0.00     0.085 H 
ATOM     38  C4  38H d   1     -12.769  16.204  52.302  0.00  0.00    -0.081 A 
ATOM     39  H   38H d   1     -12.133  14.342  51.416  0.00  0.00     0.083 H 
ATOM     40  H   38H d   1     -13.520  15.734  52.927  0.00  0.00     0.083 H 
ATOM     41  H   38H d   1     -13.218  18.185  53.014  0.00  0.00     0.087 H 
ENDBRANCH  11  25
ENDBRANCH   3   6
BRANCH   5  42
ATOM     42  C22 38H d   1      -2.286  18.919  46.426  0.00  0.00    -0.030 C 
ATOM     43  H   38H d   1      -1.621  18.893  45.550  0.00  0.00     0.041 H 
ATOM     44  H   38H d   1      -3.039  18.122  46.339  0.00  0.00     0.041 H 
BRANCH  42  45
ATOM     45  C23 38H d   1      -1.450  18.686  47.700  0.00  0.00    -0.041 C 
ATOM     46  H   38H d   1      -2.125  18.432  48.530  0.00  0.00     0.036 H 
ATOM     47  H   38H d   1      -0.901  19.608  47.942  0.00  0.00     0.036 H 
BRANCH  45  48
ATOM     48  C24 38H d   1      -0.458  17.557  47.508  0.00  0.00     0.026 C 
ATOM     49  H   38H d   1       0.152  17.739  46.611  0.00  0.00     0.075 H 
ATOM     50  H   38H d   1       0.198  17.478  48.387  0.00  0.00     0.075 H 
BRANCH  48  51
ATOM     51  O4  38H d   1      -1.217  16.348  47.350  0.00  0.00    -0.351 OA
BRANCH  51  52
ATOM     52  C25 38H d   1      -0.656  15.135  47.061  0.00  0.00     0.068 A 
ATOM     53  C26 38H d   1      -1.404  14.004  46.776  0.00  0.00    -0.049 A 
ATOM     54  C27 38H d   1      -0.761  12.802  46.504  0.00  0.00    -0.052 A 
ATOM     55  H   38H d   1      -2.487  14.056  46.765  0.00  0.00     0.087 H 
ATOM     56  C28 38H d   1       0.626  12.709  46.525  0.00  0.00     0.060 A 
ATOM     57  H   38H d   1      -1.351  11.923  46.272  0.00  0.00     0.087 H 
ATOM     58  C29 38H d   1       1.385  13.850  46.808  0.00  0.00    -0.052 A 
ATOM     59  C30 38H d   1       0.737  15.057  47.087  0.00  0.00    -0.049 A 
ATOM     60  H   38H d   1       2.468  13.798  46.811  0.00  0.00     0.087 H 
ATOM     61  H   38H d   1       1.321  15.939  47.325  0.00  0.00     0.087 H 
BRANCH  56  62
ATOM     62  N5  38H d   1       1.155  11.513  46.216  0.00  0.00    -0.215 N 
ATOM     63  N6  38H d   1       0.483  10.293  46.343  0.00  0.00    -0.177 NA
ATOM     64  C31 38H d   1       1.283   9.305  45.895  0.00  0.00     0.037 A 
ATOM     65  C32 38H d   1       2.480   9.957  45.454  0.00  0.00     0.049 A 
ATOM     66  H   38H d   1       1.066   8.238  45.873  0.00  0.00     0.118 H 
ATOM     67  C33 38H d   1       3.637   9.429  44.896  0.00  0.00     0.019 A 
ATOM     68  C35 38H d   1       2.369  11.343  45.658  0.00  0.00     0.165 A 
ATOM     69  N7  38H d   1       4.642  10.246  44.560  0.00  0.00    -0.253 NA
ATOM     70  H   38H d   1       3.725   8.361  44.734  0.00  0.00     0.116 H 
ATOM     71  C34 38H d   1       4.478  11.557  44.772  0.00  0.00     0.088 A 
ATOM     72  N8  38H d   1       3.407  12.149  45.301  0.00  0.00    -0.222 NA
ATOM     73  H   38H d   1       5.299  12.203  44.484  0.00  0.00     0.146 H 
ENDBRANCH  56  62
ENDBRANCH  51  52
ENDBRANCH  48  51
ENDBRANCH  45  48
ENDBRANCH  42  45
ENDBRANCH   5  42
BRANCH   4  74
ATOM     74  C20 38H d   1      -1.181  21.789  45.402  0.00  0.00     0.230 C 
ATOM     75  O2  38H d   1      -1.085  22.833  44.699  0.00  0.00    -0.643 OA
ATOM     76  O3  38H d   1      -0.236  20.973  45.521  0.00  0.00    -0.643 OA
ENDBRANCH   4  74
TORSDOF 9
