REMARK  10 active torsions:
REMARK  status: ('A' for Active; 'I' for Inactive)
REMARK    1  A    between atoms: C9_11  and  C13_4 
REMARK    2  A    between atoms: C6_6  and  C21_19 
REMARK    3  A    between atoms: C16_8  and  O19_30 
REMARK    4  A    between atoms: C2_9  and  N12_27 
REMARK    5  A    between atoms: C22_17  and  N7_26 
REMARK    6  A    between atoms: O28_31  and  C25_18 
REMARK    7  A    between atoms: O19_30  and  C20_20 
REMARK    8  A    between atoms: C29_22  and  C30_21 
REMARK    9  A    between atoms: C30_21  and  O31_29 
REMARK   10  A    between atoms: C29_22  and  O28_31 
ROOT
ATOM      1  C5  ML9 d   1     -15.546  11.446  28.180  0.00  0.00     0.037 A 
ATOM      2  C6  ML9 d   1     -14.617  12.473  28.433  0.00  0.00     0.064 A 
ATOM      3  C4  ML9 d   1     -16.882  11.649  28.650  0.00  0.00     0.164 A 
ATOM      4  C2  ML9 d   1     -16.293  13.683  29.499  0.00  0.00     0.722 A 
ATOM      5  C10 ML9 d   1     -15.273  10.224  27.500  0.00  0.00    -0.051 A 
ATOM      6  C9  ML9 d   1     -16.178   9.263  27.274  0.00  0.00     0.045 A 
ATOM      7  C8  ML9 d   1     -17.564   9.436  27.742  0.00  0.00     0.260 A 
ATOM      8  N1  ML9 d   1     -15.009  13.576  29.090  0.00  0.00    -0.067 NA
ATOM      9  N3  ML9 d   1     -17.260  12.757  29.305  0.00  0.00    -0.044 NA
ATOM     10  N7  ML9 d   1     -17.847  10.672  28.432  0.00  0.00    -0.292 N 
ATOM     11  O11 ML9 d   1     -18.442   8.596  27.567  0.00  0.00    -0.267 OA
ATOM     12  H   ML9 d   1     -14.259  10.060  27.139  0.00  0.00     0.086 H 
ENDROOT
BRANCH  10  13
ATOM     13  C22 ML9 d   1     -19.204  10.995  28.958  0.00  0.00     0.022 C 
ATOM     14  C23 ML9 d   1     -20.225  11.309  27.861  0.00  0.00    -0.043 C 
ATOM     15  C24 ML9 d   1     -21.573  11.718  28.475  0.00  0.00    -0.039 C 
ATOM     16  H   ML9 d   1     -19.846  12.134  27.240  0.00  0.00     0.036 H 
ATOM     17  H   ML9 d   1     -20.369  10.416  27.235  0.00  0.00     0.036 H 
ATOM     18  C25 ML9 d   1     -22.077  10.689  29.471  0.00  0.00     0.038 C 
ATOM     19  H   ML9 d   1     -22.313  11.825  27.669  0.00  0.00     0.036 H 
ATOM     20  H   ML9 d   1     -21.451  12.682  28.991  0.00  0.00     0.036 H 
ATOM     21  C26 ML9 d   1     -21.060  10.417  30.561  0.00  0.00    -0.039 C 
ATOM     22  H   ML9 d   1     -22.253   9.749  28.928  0.00  0.00     0.083 H 
ATOM     23  C27 ML9 d   1     -19.720   9.969  29.971  0.00  0.00    -0.043 C 
ATOM     24  H   ML9 d   1     -20.905  11.337  31.145  0.00  0.00     0.036 H 
ATOM     25  H   ML9 d   1     -21.444   9.625  31.220  0.00  0.00     0.036 H 
ATOM     26  H   ML9 d   1     -19.853   9.000  29.468  0.00  0.00     0.036 H 
ATOM     27  H   ML9 d   1     -18.986   9.863  30.783  0.00  0.00     0.036 H 
ATOM     28  H   ML9 d   1     -19.083  11.931  29.523  0.00  0.00     0.073 H 
BRANCH  18  29
ATOM     29  O28 ML9 d   1     -23.319  11.115  30.048  0.00  0.00    -0.384 OA
BRANCH  29  30
ATOM     30  C29 ML9 d   1     -24.287  10.092  30.311  0.00  0.00     0.039 C 
ATOM     31  H   ML9 d   1     -23.766   9.227  30.748  0.00  0.00     0.077 H 
ATOM     32  H   ML9 d   1     -25.016  10.485  31.035  0.00  0.00     0.077 H 
BRANCH  30  33
ATOM     33  C30 ML9 d   1     -25.037   9.625  29.089  0.00  0.00     0.036 C 
ATOM     34  H   ML9 d   1     -25.903   9.028  29.411  0.00  0.00     0.077 H 
ATOM     35  H   ML9 d   1     -24.368   9.001  28.479  0.00  0.00     0.077 H 
BRANCH  33  36
ATOM     36  O31 ML9 d   1     -25.499  10.713  28.296  0.00  0.00    -0.399 OA
ATOM     37  H   ML9 d   1     -24.757  11.231  28.008  0.00  0.00     0.209 HD
ENDBRANCH  33  36
ENDBRANCH  30  33
ENDBRANCH  29  30
ENDBRANCH  18  29
ENDBRANCH  10  13
BRANCH   6  38
ATOM     38  C13 ML9 d   1     -15.764   8.027  26.554  0.00  0.00    -0.003 A 
ATOM     39  C14 ML9 d   1     -16.277   6.794  26.943  0.00  0.00    -0.067 A 
ATOM     40  C15 ML9 d   1     -15.898   5.644  26.285  0.00  0.00    -0.031 A 
ATOM     41  H   ML9 d   1     -16.978   6.737  27.768  0.00  0.00     0.085 H 
ATOM     42  C16 ML9 d   1     -14.994   5.772  25.235  0.00  0.00     0.163 A 
ATOM     43  H   ML9 d   1     -16.290   4.676  26.575  0.00  0.00     0.090 H 
ATOM     44  N17 ML9 d   1     -14.479   6.925  24.828  0.00  0.00    -0.236 NA
ATOM     45  C18 ML9 d   1     -14.868   8.031  25.488  0.00  0.00     0.016 A 
ATOM     46  H   ML9 d   1     -14.459   8.983  25.171  0.00  0.00     0.116 H 
BRANCH  42  47
ATOM     47  O19 ML9 d   1     -14.659   4.615  24.631  0.00  0.00    -0.339 OA
BRANCH  47  48
ATOM     48  C20 ML9 d   1     -13.738   4.669  23.547  0.00  0.00     0.012 C 
ATOM     49  H   ML9 d   1     -13.566   3.653  23.161  0.00  0.00     0.067 H 
ATOM     50  H   ML9 d   1     -12.786   5.095  23.896  0.00  0.00     0.067 H 
ATOM     51  H   ML9 d   1     -14.151   5.300  22.746  0.00  0.00     0.067 H 
ENDBRANCH  47  48
ENDBRANCH  42  47
ENDBRANCH   6  38
BRANCH   2  52
ATOM     52  C21 ML9 d   1     -13.180  12.422  28.009  0.00  0.00    -0.034 C 
ATOM     53  H   ML9 d   1     -12.671  13.344  28.326  0.00  0.00     0.035 H 
ATOM     54  H   ML9 d   1     -13.124  12.330  26.914  0.00  0.00     0.035 H 
ATOM     55  H   ML9 d   1     -12.691  11.554  28.475  0.00  0.00     0.035 H 
ENDBRANCH   2  52
BRANCH   4  56
ATOM     56  N12 ML9 d   1     -16.637  14.800  30.151  0.00  0.00    -0.231 N 
ATOM     57  H   ML9 d   1     -15.934  15.534  30.322  0.00  0.00     0.174 HD
ATOM     58  H   ML9 d   1     -17.604  14.926  30.482  0.00  0.00     0.174 HD
ENDBRANCH   4  56
TORSDOF 10
