REMARK  4 active torsions:
REMARK  status: ('A' for Active; 'I' for Inactive)
REMARK    1  A    between atoms: CAI_3  and  CAL_4 
REMARK       I    between atoms: CAL_4  and  NAE_6 
REMARK       I    between atoms: NAF_11  and  CAQ_12 
REMARK    2  A    between atoms: CAQ_12  and  CAR_14 
REMARK    3  A    between atoms: CAT_20  and  CAV_21 
REMARK    4  A    between atoms: CAV_21  and  CAY_22 
ROOT
ATOM      1  CAR 09L d   1      20.104  -2.007  17.591  0.00  0.00     0.071 A 
ATOM      2  CAS 09L d   1      19.821  -0.633  17.570  0.00  0.00    -0.058 A 
ATOM      3  CAU 09L d   1      21.423  -2.409  17.380  0.00  0.00     0.132 A 
ATOM      4  FAA 09L d   1      21.742  -3.709  17.394  0.00  0.00    -0.205 F 
ATOM      5  CAX 09L d   1      22.410  -1.475  17.164  0.00  0.00    -0.044 A 
ATOM      6  CAW 09L d   1      22.125  -0.088  17.160  0.00  0.00    -0.074 A 
ATOM      7  CAT 09L d   1      20.821   0.362  17.371  0.00  0.00    -0.051 A 
ATOM      8  H12 09L d   1      18.795  -0.314  17.712  0.00  0.00     0.086 H 
ATOM      9  H13 09L d   1      23.427  -1.808  16.993  0.00  0.00     0.088 H 
ATOM     10  H14 09L d   1      22.922   0.627  16.992  0.00  0.00     0.084 H 
ENDROOT
BRANCH   1  11
ATOM     11  CAQ 09L d   1      19.055  -2.957  17.895  0.00  0.00     0.257 C 
ATOM     12  NAF 09L d   1      18.699  -4.019  17.120  0.00  0.00    -0.345 N 
ATOM     13  CAO 09L d   1      19.190  -4.245  15.739  0.00  0.00     0.013 C 
ATOM     14  CAP 09L d   1      17.599  -4.869  17.586  0.00  0.00     0.013 C 
ATOM     15  CAM 09L d   1      17.982  -4.107  14.865  0.00  0.00     0.013 C 
ATOM     16  H6  09L d   1      19.948  -3.494  15.471  0.00  0.00     0.066 H 
ATOM     17  H7  09L d   1      19.622  -5.252  15.643  0.00  0.00     0.066 H 
ATOM     18  NAE 09L d   1      16.810  -4.865  15.362  0.00  0.00    -0.348 N 
ATOM     19  H4  09L d   1      17.711  -3.042  14.809  0.00  0.00     0.066 H 
ATOM     20  H5  09L d   1      18.235  -4.474  13.859  0.00  0.00     0.066 H 
ATOM     21  CAL 09L d   1      16.200  -5.862  14.661  0.00  0.00     0.231 C 
ATOM     22  CAN 09L d   1      16.357  -4.652  16.749  0.00  0.00     0.013 C 
ATOM     23  OAB 09L d   1      15.257  -6.514  15.114  0.00  0.00    -0.272 OA
ATOM     24  H8  09L d   1      15.574  -5.376  17.019  0.00  0.00     0.066 H 
ATOM     25  H9  09L d   1      15.972  -3.630  16.881  0.00  0.00     0.066 H 
ATOM     26  H10 09L d   1      17.903  -5.924  17.513  0.00  0.00     0.066 H 
ATOM     27  H11 09L d   1      17.374  -4.624  18.634  0.00  0.00     0.066 H 
ATOM     28  OAC 09L d   1      18.553  -2.879  19.021  0.00  0.00    -0.267 OA
BRANCH  21  29
ATOM     29  CAI 09L d   1      16.757  -6.192  13.267  0.00  0.00     0.056 A 
ATOM     30  CAJ 09L d   1      16.402  -7.535  12.681  0.00  0.00    -0.089 A 
ATOM     31  CAK 09L d   1      17.649  -7.405  13.283  0.00  0.00    -0.089 A 
ATOM     32  H1  09L d   1      15.681  -8.162  12.158  0.00  0.00     0.078 H 
ATOM     33  H2  09L d   1      18.598  -7.859  13.566  0.00  0.00     0.078 H 
ATOM     34  H3  09L d   1      16.929  -5.298  12.649  0.00  0.00     0.067 H 
ENDBRANCH  21  29
ENDBRANCH   1  11
BRANCH   7  35
ATOM     35  CAV 09L d   1      20.512   1.744  17.336  0.00  0.00     0.002 C 
ATOM     36  H15 09L d   1      20.157   2.000  16.327  0.00  0.00     0.049 H 
ATOM     37  H16 09L d   1      21.425   2.315  17.560  0.00  0.00     0.049 H 
BRANCH  35  38
ATOM     38  CAY 09L d   1      19.467   2.118  18.315  0.00  0.00     0.070 A 
ATOM     39  CAZ 09L d   1      19.740   2.423  19.636  0.00  0.00     0.006 A 
ATOM     40  CBB 09L d   1      21.049   2.371  20.134  0.00  0.00    -0.070 A 
ATOM     41  CBA 09L d   1      18.689   2.742  20.521  0.00  0.00     0.046 A 
ATOM     42  CBE 09L d   1      21.345   2.659  21.458  0.00  0.00    -0.082 A 
ATOM     43  H17 09L d   1      21.855   2.097  19.463  0.00  0.00     0.084 H 
ATOM     44  CBF 09L d   1      20.288   2.974  22.322  0.00  0.00    -0.082 A 
ATOM     45  H18 09L d   1      22.368   2.641  21.815  0.00  0.00     0.083 H 
ATOM     46  CBD 09L d   1      18.983   3.007  21.843  0.00  0.00    -0.067 A 
ATOM     47  H19 09L d   1      20.488   3.192  23.365  0.00  0.00     0.083 H 
ATOM     48  H20 09L d   1      18.176   3.247  22.526  0.00  0.00     0.085 H 
ATOM     49  CBC 09L d   1      17.378   2.820  20.052  0.00  0.00     0.272 A 
ATOM     50  OAD 09L d   1      16.409   3.124  20.776  0.00  0.00    -0.266 OA
ATOM     51  NAH 09L d   1      17.187   2.520  18.700  0.00  0.00    -0.243 N 
ATOM     52  NAG 09L d   1      18.200   2.209  17.893  0.00  0.00    -0.175 NA
ATOM     53  H21 09L d   1      16.259   2.539  18.327  0.00  0.00     0.192 HD
ENDBRANCH  35  38
ENDBRANCH   7  35
TORSDOF 4
