REMARK  24 active torsions:
REMARK  status: ('A' for Active; 'I' for Inactive)
REMARK    1  A    between atoms: CAD_1  and  OBE_2 
REMARK    2  A    between atoms: OBE_2  and  CBS_3 
REMARK    3  A    between atoms: CBU_5  and  OBG_6 
REMARK    4  A    between atoms: OBG_6  and  CAF_7 
REMARK    5  A    between atoms: CBT_8  and  OBF_9 
REMARK    6  A    between atoms: OBF_9  and  CAE_10 
REMARK    7  A    between atoms: CBP_12  and  CBW_13 
REMARK    8  A    between atoms: CBW_13  and  CAW_14 
REMARK    9  A    between atoms: CBW_13  and  CBL_17 
REMARK   10  A    between atoms: CAW_14  and  CAK_15 
REMARK       I    between atoms: CBL_17  and  N_19 
REMARK   11  A    between atoms: CA_24  and  C_25 
REMARK   12  A    between atoms: C_25  and  OBI_27 
REMARK   13  A    between atoms: OBI_27  and  CBV_28 
REMARK   14  A    between atoms: CBV_28  and  CBA_29 
REMARK   15  A    between atoms: CBV_28  and  CBO_41 
REMARK   16  A    between atoms: CBA_29  and  CAY_30 
REMARK   17  A    between atoms: CAY_30  and  CBM_31 
REMARK   18  A    between atoms: CBQ_35  and  OBC_36 
REMARK   19  A    between atoms: OBC_36  and  CAB_37 
REMARK   20  A    between atoms: CBR_38  and  OBD_39 
REMARK   21  A    between atoms: OBD_39  and  CAC_40 
REMARK   22  A    between atoms: CBN_46  and  OBH_47 
REMARK   23  A    between atoms: OBH_47  and  CAX_48 
REMARK   24  A    between atoms: CAX_48  and  CBJ_49 
ROOT
ATOM      1  CBL 37L d   1     -12.561   4.884 -10.752  0.00  0.00     0.229 C 
ATOM      2  OAI 37L d   1     -13.296   4.230 -11.459  0.00  0.00    -0.273 OA
ATOM      3  N   37L d   1     -11.482   4.319 -10.182  0.00  0.00    -0.338 N 
ATOM      4  CBB 37L d   1     -10.681   4.946  -9.157  0.00  0.00    -0.001 C 
ATOM      5  CAV 37L d   1      -9.179   4.626  -9.303  0.00  0.00    -0.050 C 
ATOM      6  CAU 37L d   1      -8.937   3.147  -9.477  0.00  0.00    -0.061 C 
ATOM      7  CB  37L d   1      -9.775   2.599 -10.592  0.00  0.00    -0.037 C 
ATOM      8  CA  37L d   1     -11.264   2.887 -10.411  0.00  0.00     0.098 C 
ATOM      9  H   37L d   1     -11.024   4.590  -8.174  0.00  0.00     0.064 H 
ATOM     10  H   37L d   1     -10.817   6.036  -9.220  0.00  0.00     0.064 H 
ATOM     11  H   37L d   1      -8.652   4.970  -8.401  0.00  0.00     0.035 H 
ATOM     12  H   37L d   1      -8.785   5.157 -10.182  0.00  0.00     0.035 H 
ATOM     13  H   37L d   1      -9.195   2.627  -8.543  0.00  0.00     0.033 H 
ATOM     14  H   37L d   1      -7.875   2.980  -9.709  0.00  0.00     0.033 H 
ATOM     15  H   37L d   1      -9.631   1.509 -10.637  0.00  0.00     0.036 H 
ATOM     16  H   37L d   1      -9.442   3.052 -11.537  0.00  0.00     0.036 H 
ATOM     17  H   37L d   1     -11.808   2.599 -11.322  0.00  0.00     0.088 H 
ENDROOT
BRANCH   8  18
ATOM     18  C   37L d   1     -11.741   1.998  -9.240  0.00  0.00     0.282 C 
ATOM     19  O   37L d   1     -11.429   0.843  -9.193  0.00  0.00    -0.263 OA
BRANCH  18  20
ATOM     20  OBI 37L d   1     -12.520   2.602  -8.400  0.00  0.00    -0.310 OA
BRANCH  20  21
ATOM     21  CBV 37L d   1     -12.891   1.863  -7.142  0.00  0.00     0.073 C 
ATOM     22  H   37L d   1     -12.590   0.810  -7.243  0.00  0.00     0.091 H 
BRANCH  21  23
ATOM     23  CBA 37L d   1     -14.352   1.873  -7.012  0.00  0.00    -0.033 C 
ATOM     24  H   37L d   1     -14.796   1.638  -7.991  0.00  0.00     0.037 H 
ATOM     25  H   37L d   1     -14.672   2.877  -6.696  0.00  0.00     0.037 H 
BRANCH  23  26
ATOM     26  CAY 37L d   1     -14.886   0.783  -5.918  0.00  0.00    -0.038 C 
ATOM     27  H   37L d   1     -15.930   1.026  -5.671  0.00  0.00     0.040 H 
ATOM     28  H   37L d   1     -14.265   0.870  -5.014  0.00  0.00     0.040 H 
BRANCH  26  29
ATOM     29  CBM 37L d   1     -14.837  -0.578  -6.367  0.00  0.00    -0.055 A 
ATOM     30  CAQ 37L d   1     -15.939  -0.957  -7.185  0.00  0.00    -0.042 A 
ATOM     31  CBR 37L d   1     -15.835  -2.231  -7.723  0.00  0.00     0.102 A 
ATOM     32  H   37L d   1     -16.786  -0.306  -7.371  0.00  0.00     0.088 H 
ATOM     33  CBQ 37L d   1     -14.766  -3.126  -7.551  0.00  0.00     0.101 A 
ATOM     34  CAP 37L d   1     -13.724  -2.729  -6.716  0.00  0.00    -0.048 A 
ATOM     35  CAO 37L d   1     -13.811  -1.462  -6.178  0.00  0.00    -0.074 A 
ATOM     36  H   37L d   1     -12.887  -3.383  -6.500  0.00  0.00     0.087 H 
ATOM     37  H   37L d   1     -12.991  -1.137  -5.548  0.00  0.00     0.084 H 
BRANCH  31  38
ATOM     38  OBD 37L d   1     -17.019  -2.714  -8.424  0.00  0.00    -0.353 OA
BRANCH  38  39
ATOM     39  CAC 37L d   1     -18.115  -1.860  -8.235  0.00  0.00     0.010 C 
ATOM     40  H   37L d   1     -18.986  -2.256  -8.777  0.00  0.00     0.066 H 
ATOM     41  H   37L d   1     -17.870  -0.858  -8.618  0.00  0.00     0.066 H 
ATOM     42  H   37L d   1     -18.349  -1.796  -7.162  0.00  0.00     0.066 H 
ENDBRANCH  38  39
ENDBRANCH  31  38
BRANCH  33  43
ATOM     43  OBC 37L d   1     -14.687  -4.432  -8.141  0.00  0.00    -0.353 OA
BRANCH  43  44
ATOM     44  CAB 37L d   1     -13.739  -5.364  -7.806  0.00  0.00     0.010 C 
ATOM     45  H   37L d   1     -13.897  -6.277  -8.399  0.00  0.00     0.066 H 
ATOM     46  H   37L d   1     -13.822  -5.603  -6.736  0.00  0.00     0.066 H 
ATOM     47  H   37L d   1     -12.738  -4.960  -8.015  0.00  0.00     0.066 H 
ENDBRANCH  43  44
ENDBRANCH  33  43
ENDBRANCH  26  29
ENDBRANCH  23  26
ENDBRANCH  21  23
BRANCH  21  48
ATOM     48  CBO 37L d   1     -12.060   2.457  -6.017  0.00  0.00    -0.026 A 
ATOM     49  CAR 37L d   1     -11.105   1.726  -5.379  0.00  0.00    -0.042 A 
ATOM     50  CBN 37L d   1     -10.333   2.275  -4.444  0.00  0.00     0.070 A 
ATOM     51  H   37L d   1     -10.971   0.681  -5.636  0.00  0.00     0.088 H 
ATOM     52  CAM 37L d   1     -10.483   3.639  -4.166  0.00  0.00    -0.051 A 
ATOM     53  CAL 37L d   1     -11.460   4.375  -4.789  0.00  0.00    -0.080 A 
ATOM     54  H   37L d   1      -9.822   4.118  -3.453  0.00  0.00     0.087 H 
ATOM     55  CAN 37L d   1     -12.228   3.799  -5.739  0.00  0.00    -0.074 A 
ATOM     56  H   37L d   1     -11.614   5.414  -4.520  0.00  0.00     0.083 H 
ATOM     57  H   37L d   1     -12.967   4.383  -6.276  0.00  0.00     0.084 H 
BRANCH  50  58
ATOM     58  OBH 37L d   1      -9.354   1.487  -3.891  0.00  0.00    -0.341 OA
BRANCH  58  59
ATOM     59  CAX 37L d   1      -8.438   2.114  -3.026  0.00  0.00     0.105 C 
ATOM     60  H   37L d   1      -8.117   3.071  -3.463  0.00  0.00     0.091 H 
ATOM     61  H   37L d   1      -7.562   1.463  -2.884  0.00  0.00     0.091 H 
BRANCH  59  62
ATOM     62  CBJ 37L d   1      -9.066   2.353  -1.760  0.00  0.00     0.198 C 
ATOM     63  OAJ 37L d   1      -8.371   3.244  -1.165  0.00  0.00    -0.646 OA
ATOM     64  OAG 37L d   1     -10.146   1.837  -1.354  0.00  0.00    -0.646 OA
ENDBRANCH  59  62
ENDBRANCH  58  59
ENDBRANCH  50  58
ENDBRANCH  21  48
ENDBRANCH  20  21
ENDBRANCH  18  20
ENDBRANCH   8  18
BRANCH   1  65
ATOM     65  CBW 37L d   1     -12.861   6.361 -10.379  0.00  0.00     0.052 C 
ATOM     66  H   37L d   1     -11.921   6.928 -10.302  0.00  0.00     0.062 H 
BRANCH  65  67
ATOM     67  CBP 37L d   1     -13.599   6.383  -9.034  0.00  0.00    -0.039 A 
ATOM     68  CAS 37L d   1     -13.127   7.142  -8.025  0.00  0.00    -0.041 A 
ATOM     69  CBS 37L d   1     -13.727   7.177  -6.748  0.00  0.00     0.104 A 
ATOM     70  H   37L d   1     -12.248   7.752  -8.202  0.00  0.00     0.088 H 
ATOM     71  CBU 37L d   1     -14.848   6.441  -6.594  0.00  0.00     0.135 A 
ATOM     72  CBT 37L d   1     -15.386   5.718  -7.589  0.00  0.00     0.104 A 
ATOM     73  CAT 37L d   1     -14.773   5.662  -8.858  0.00  0.00    -0.041 A 
ATOM     74  H   37L d   1     -15.202   5.079  -9.665  0.00  0.00     0.088 H 
BRANCH  69  75
ATOM     75  OBE 37L d   1     -13.233   7.851  -5.691  0.00  0.00    -0.353 OA
BRANCH  75  76
ATOM     76  CAD 37L d   1     -12.026   8.626  -5.917  0.00  0.00     0.010 C 
ATOM     77  H   37L d   1     -11.729   9.124  -4.982  0.00  0.00     0.066 H 
ATOM     78  H   37L d   1     -12.216   9.384  -6.691  0.00  0.00     0.066 H 
ATOM     79  H   37L d   1     -11.218   7.958  -6.249  0.00  0.00     0.066 H 
ENDBRANCH  75  76
ENDBRANCH  69  75
BRANCH  71  80
ATOM     80  OBG 37L d   1     -15.476   6.417  -5.315  0.00  0.00    -0.351 OA
BRANCH  80  81
ATOM     81  CAF 37L d   1     -16.471   7.408  -5.263  0.00  0.00     0.011 C 
ATOM     82  H   37L d   1     -16.956   7.389  -4.276  0.00  0.00     0.067 H 
ATOM     83  H   37L d   1     -17.222   7.215  -6.044  0.00  0.00     0.067 H 
ATOM     84  H   37L d   1     -16.015   8.395  -5.429  0.00  0.00     0.067 H 
ENDBRANCH  80  81
ENDBRANCH  71  80
BRANCH  72  85
ATOM     85  OBF 37L d   1     -16.550   4.974  -7.340  0.00  0.00    -0.353 OA
BRANCH  85  86
ATOM     86  CAE 37L d   1     -17.087   4.269  -8.413  0.00  0.00     0.010 C 
ATOM     87  H   37L d   1     -17.990   3.733  -8.085  0.00  0.00     0.066 H 
ATOM     88  H   37L d   1     -16.346   3.546  -8.784  0.00  0.00     0.066 H 
ATOM     89  H   37L d   1     -17.350   4.971  -9.218  0.00  0.00     0.066 H 
ENDBRANCH  85  86
ENDBRANCH  72  85
ENDBRANCH  65  67
BRANCH  65  90
ATOM     90  CAW 37L d   1     -13.766   6.990 -11.467  0.00  0.00    -0.035 C 
ATOM     91  H   37L d   1     -14.026   8.016 -11.169  0.00  0.00     0.040 H 
ATOM     92  H   37L d   1     -14.684   6.392 -11.561  0.00  0.00     0.040 H 
BRANCH  90  93
ATOM     93  CAK 37L d   1     -13.089   7.026 -12.753  0.00  0.00    -0.111 C 
ATOM     94  CAA 37L d   1     -12.958   8.088 -13.554  0.00  0.00    -0.125 C 
ATOM     95  H   37L d   1     -12.427   7.994 -14.500  0.00  0.00     0.066 H 
ATOM     96  H   37L d   1     -13.383   9.047 -13.261  0.00  0.00     0.066 H 
ATOM     97  H   37L d   1     -12.644   6.094 -13.098  0.00  0.00     0.075 H 
ENDBRANCH  90  93
ENDBRANCH  65  90
ENDBRANCH   1  65
TORSDOF 24
