REMARK  24 active torsions:
REMARK  status: ('A' for Active; 'I' for Inactive)
REMARK    1  A    between atoms: NCE_6  and  CBG_7 
REMARK    2  A    between atoms: CBG_7  and  CAY_8 
REMARK    3  A    between atoms: CAY_8  and  OBN_9 
REMARK    4  A    between atoms: OBN_9  and  CBS_10 
REMARK    5  A    between atoms: CBT_15  and  CCB_16 
REMARK    6  A    between atoms: CCB_16  and  CBC_17 
REMARK    7  A    between atoms: CCB_16  and  OBO_29 
REMARK    8  A    between atoms: CBC_17  and  CAZ_18 
REMARK    9  A    between atoms: CAZ_18  and  CBR_19 
REMARK   10  A    between atoms: CBV_23  and  OBH_24 
REMARK   11  A    between atoms: OBH_24  and  CAA_25 
REMARK   12  A    between atoms: CBW_26  and  OBI_27 
REMARK   13  A    between atoms: OBI_27  and  CAB_28 
REMARK   14  A    between atoms: OBO_29  and  C_30 
REMARK   15  A    between atoms: C_30  and  CA_32 
REMARK       I    between atoms: N_37  and  CBQ_38 
REMARK   16  A    between atoms: CBQ_38  and  CCD_40 
REMARK   17  A    between atoms: CCD_40  and  CCA_41 
REMARK   18  A    between atoms: CCD_40  and  CBU_47 
REMARK   19  A    between atoms: CBX_50  and  OBJ_51 
REMARK   20  A    between atoms: OBJ_51  and  CAC_52 
REMARK   21  A    between atoms: CBZ_53  and  OBL_54 
REMARK   22  A    between atoms: OBL_54  and  CAE_55 
REMARK   23  A    between atoms: CBY_56  and  OBK_57 
REMARK   24  A    between atoms: OBK_57  and  CAD_58 
ROOT
ATOM      1  OBO 37K d   1      12.494   2.888  12.831  0.00  0.00    -0.310 OA
ENDROOT
BRANCH   1   2
ATOM      2  CCB 37K d   1      13.373   1.731  13.158  0.00  0.00     0.073 C 
ATOM      3  H   37K d   1      14.414   2.063  13.288  0.00  0.00     0.091 H 
BRANCH   2   4
ATOM      4  CBT 37K d   1      12.852   1.167  14.451  0.00  0.00    -0.026 A 
ATOM      5  CAO 37K d   1      13.604   1.062  15.598  0.00  0.00    -0.042 A 
ATOM      6  CBS 37K d   1      13.058   0.544  16.747  0.00  0.00     0.069 A 
ATOM      7  H   37K d   1      14.637   1.391  15.595  0.00  0.00     0.088 H 
ATOM      8  CAK 37K d   1      11.745   0.122  16.795  0.00  0.00    -0.051 A 
ATOM      9  CAJ 37K d   1      10.966   0.237  15.637  0.00  0.00    -0.080 A 
ATOM     10  H   37K d   1      11.327  -0.288  17.707  0.00  0.00     0.087 H 
ATOM     11  CAL 37K d   1      11.530   0.760  14.501  0.00  0.00    -0.074 A 
ATOM     12  H   37K d   1       9.930  -0.083  15.638  0.00  0.00     0.083 H 
ATOM     13  H   37K d   1      10.919   0.858  13.611  0.00  0.00     0.084 H 
BRANCH   6  14
ATOM     14  OBN 37K d   1      13.893   0.482  17.836  0.00  0.00    -0.349 OA
BRANCH  14  15
ATOM     15  CAY 37K d   1      13.434  -0.023  18.999  0.00  0.00     0.049 C 
ATOM     16  H   37K d   1      12.549   0.544  19.322  0.00  0.00     0.077 H 
ATOM     17  H   37K d   1      13.162  -1.080  18.859  0.00  0.00     0.077 H 
BRANCH  15  18
ATOM     18  CBG 37K d   1      14.499   0.084  20.034  0.00  0.00     0.103 C 
ATOM     19  H   37K d   1      14.876   1.117  20.044  0.00  0.00     0.079 H 
ATOM     20  H   37K d   1      14.061  -0.156  21.014  0.00  0.00     0.079 H 
BRANCH  18  21
ATOM     21  NCE 37K d   1      15.667  -0.856  19.782  0.00  0.00    -0.065 N 
ATOM     22  CBE 37K d   1      15.259  -2.262  19.937  0.00  0.00     0.103 C 
ATOM     23  CAW 37K d   1      16.441  -3.147  19.658  0.00  0.00     0.042 C 
ATOM     24  H   37K d   1      14.905  -2.432  20.964  0.00  0.00     0.079 H 
ATOM     25  H   37K d   1      14.450  -2.492  19.228  0.00  0.00     0.079 H 
ATOM     26  OBM 37K d   1      17.471  -2.857  20.549  0.00  0.00    -0.388 OA
ATOM     27  H   37K d   1      16.790  -2.976  18.629  0.00  0.00     0.076 H 
ATOM     28  H   37K d   1      16.144  -4.200  19.774  0.00  0.00     0.076 H 
ATOM     29  CAX 37K d   1      17.881  -1.489  20.357  0.00  0.00     0.042 C 
ATOM     30  CBF 37K d   1      16.720  -0.568  20.698  0.00  0.00     0.103 C 
ATOM     31  H   37K d   1      18.176  -1.337  19.308  0.00  0.00     0.076 H 
ATOM     32  H   37K d   1      18.734  -1.265  21.014  0.00  0.00     0.076 H 
ATOM     33  H   37K d   1      17.030   0.482  20.596  0.00  0.00     0.079 H 
ATOM     34  H   37K d   1      16.383  -0.753  21.729  0.00  0.00     0.079 H 
ATOM     35  H   37K d   1      16.000  -0.715  18.841  0.00  0.00     0.280 HD
ENDBRANCH  18  21
ENDBRANCH  15  18
ENDBRANCH  14  15
ENDBRANCH   6  14
ENDBRANCH   2   4
BRANCH   2  36
ATOM     36  CBC 37K d   1      13.307   0.703  12.007  0.00  0.00    -0.033 C 
ATOM     37  H   37K d   1      13.379   1.227  11.043  0.00  0.00     0.037 H 
ATOM     38  H   37K d   1      12.354   0.157  12.057  0.00  0.00     0.037 H 
BRANCH  36  39
ATOM     39  CAZ 37K d   1      14.468  -0.284  12.139  0.00  0.00    -0.038 C 
ATOM     40  H   37K d   1      14.266  -1.147  11.487  0.00  0.00     0.040 H 
ATOM     41  H   37K d   1      14.521  -0.620  13.185  0.00  0.00     0.040 H 
BRANCH  39  42
ATOM     42  CBR 37K d   1      15.806   0.297  11.758  0.00  0.00    -0.055 A 
ATOM     43  CAP 37K d   1      16.085   0.477  10.433  0.00  0.00    -0.042 A 
ATOM     44  CBW 37K d   1      17.288   1.064   9.997  0.00  0.00     0.102 A 
ATOM     45  H   37K d   1      15.358   0.158   9.695  0.00  0.00     0.088 H 
ATOM     46  CBV 37K d   1      18.194   1.460  10.929  0.00  0.00     0.101 A 
ATOM     47  CAN 37K d   1      17.922   1.211  12.274  0.00  0.00    -0.048 A 
ATOM     48  CAM 37K d   1      16.706   0.644  12.689  0.00  0.00    -0.074 A 
ATOM     49  H   37K d   1      18.669   1.462  13.019  0.00  0.00     0.087 H 
ATOM     50  H   37K d   1      16.499   0.490  13.742  0.00  0.00     0.084 H 
BRANCH  44  51
ATOM     51  OBI 37K d   1      17.607   1.319   8.662  0.00  0.00    -0.353 OA
BRANCH  51  52
ATOM     52  CAB 37K d   1      17.259   0.075   8.017  0.00  0.00     0.010 C 
ATOM     53  H   37K d   1      17.468   0.149   6.940  0.00  0.00     0.066 H 
ATOM     54  H   37K d   1      16.189  -0.130   8.169  0.00  0.00     0.066 H 
ATOM     55  H   37K d   1      17.855  -0.742   8.450  0.00  0.00     0.066 H 
ENDBRANCH  51  52
ENDBRANCH  44  51
BRANCH  46  56
ATOM     56  OBH 37K d   1      19.372   1.988  10.453  0.00  0.00    -0.353 OA
BRANCH  56  57
ATOM     57  CAA 37K d   1      20.339   1.948  11.431  0.00  0.00     0.010 C 
ATOM     58  H   37K d   1      21.275   2.372  11.039  0.00  0.00     0.066 H 
ATOM     59  H   37K d   1      20.509   0.905  11.736  0.00  0.00     0.066 H 
ATOM     60  H   37K d   1      20.006   2.535  12.300  0.00  0.00     0.066 H 
ENDBRANCH  56  57
ENDBRANCH  46  56
ENDBRANCH  39  42
ENDBRANCH  36  39
ENDBRANCH   2  36
ENDBRANCH   1   2
BRANCH   1  61
ATOM     61  C   37K d   1      13.058   4.081  12.645  0.00  0.00     0.282 C 
ATOM     62  O   37K d   1      14.274   4.241  12.638  0.00  0.00    -0.263 OA
BRANCH  61  63
ATOM     63  CA  37K d   1      12.087   5.242  12.431  0.00  0.00     0.098 C 
ATOM     64  CB  37K d   1      12.403   6.240  13.520  0.00  0.00    -0.037 C 
ATOM     65  CAU 37K d   1      11.915   5.741  14.885  0.00  0.00    -0.061 C 
ATOM     66  H   37K d   1      11.907   7.194  13.288  0.00  0.00     0.036 H 
ATOM     67  H   37K d   1      13.491   6.393  13.562  0.00  0.00     0.036 H 
ATOM     68  CAV 37K d   1      10.443   5.519  14.868  0.00  0.00    -0.050 C 
ATOM     69  H   37K d   1      12.158   6.491  15.652  0.00  0.00     0.033 H 
ATOM     70  H   37K d   1      12.420   4.794  15.125  0.00  0.00     0.033 H 
ATOM     71  CBD 37K d   1      10.086   4.497  13.769  0.00  0.00    -0.001 C 
ATOM     72  H   37K d   1       9.932   6.471  14.662  0.00  0.00     0.035 H 
ATOM     73  H   37K d   1      10.120   5.133  15.846  0.00  0.00     0.035 H 
ATOM     74  N   37K d   1      10.691   4.839  12.439  0.00  0.00    -0.338 N 
ATOM     75  H   37K d   1       8.992   4.466  13.660  0.00  0.00     0.064 H 
ATOM     76  H   37K d   1      10.452   3.507  14.078  0.00  0.00     0.064 H 
ATOM     77  CBQ 37K d   1      10.142   4.576  11.213  0.00  0.00     0.229 C 
ATOM     78  OAG 37K d   1      10.739   4.738  10.189  0.00  0.00    -0.273 OA
ATOM     79  H   37K d   1      12.293   5.701  11.453  0.00  0.00     0.088 H 
BRANCH  77  80
ATOM     80  CCD 37K d   1       8.752   3.969  11.196  0.00  0.00     0.056 C 
ATOM     81  H   37K d   1       8.160   4.424  12.004  0.00  0.00     0.063 H 
BRANCH  80  82
ATOM     82  CCA 37K d   1       8.065   4.335   9.810  0.00  0.00    -0.022 C 
ATOM     83  CBA 37K d   1       6.751   3.636   9.613  0.00  0.00    -0.057 C 
ATOM     84  CAT 37K d   1       5.829   4.124   8.609  0.00  0.00    -0.061 C 
ATOM     85  H   37K d   1       6.222   3.670  10.577  0.00  0.00     0.034 H 
ATOM     86  H   37K d   1       6.979   2.591   9.357  0.00  0.00     0.034 H 
ATOM     87  CAS 37K d   1       5.611   5.603   8.516  0.00  0.00    -0.050 C 
ATOM     88  H   37K d   1       4.851   3.661   8.809  0.00  0.00     0.033 H 
ATOM     89  H   37K d   1       6.201   3.786   7.631  0.00  0.00     0.033 H 
ATOM     90  CAH 37K d   1       6.810   6.327   8.847  0.00  0.00    -0.106 C 
ATOM     91  H   37K d   1       4.812   5.893   9.215  0.00  0.00     0.038 H 
ATOM     92  H   37K d   1       5.310   5.858   7.489  0.00  0.00     0.038 H 
ATOM     93  CAI 37K d   1       7.863   5.861   9.664  0.00  0.00    -0.102 C 
ATOM     94  H   37K d   1       6.915   7.327   8.428  0.00  0.00     0.076 H 
ATOM     95  H   37K d   1       8.518   6.561  10.180  0.00  0.00     0.077 H 
ATOM     96  H   37K d   1       8.744   4.004   9.010  0.00  0.00     0.048 H 
ENDBRANCH  80  82
BRANCH  80  97
ATOM     97  CBU 37K d   1       8.808   2.492  11.448  0.00  0.00    -0.039 A 
ATOM     98  CAR 37K d   1       8.107   1.927  12.480  0.00  0.00    -0.041 A 
ATOM     99  CBY 37K d   1       8.157   0.498  12.657  0.00  0.00     0.104 A 
ATOM    100  H   37K d   1       7.524   2.545  13.153  0.00  0.00     0.088 H 
ATOM    101  CBZ 37K d   1       8.881  -0.259  11.787  0.00  0.00     0.135 A 
ATOM    102  CBX 37K d   1       9.587   0.325  10.734  0.00  0.00     0.104 A 
ATOM    103  CAQ 37K d   1       9.539   1.727  10.536  0.00  0.00    -0.041 A 
ATOM    104  H   37K d   1      10.053   2.192   9.703  0.00  0.00     0.088 H 
BRANCH  99 105
ATOM    105  OBK 37K d   1       7.526  -0.159  13.689  0.00  0.00    -0.353 OA
BRANCH 105 106
ATOM    106  CAD 37K d   1       6.823   0.625  14.570  0.00  0.00     0.010 C 
ATOM    107  H   37K d   1       6.367  -0.011  15.344  0.00  0.00     0.066 H 
ATOM    108  H   37K d   1       6.033   1.167  14.029  0.00  0.00     0.066 H 
ATOM    109  H   37K d   1       7.505   1.347  15.043  0.00  0.00     0.066 H 
ENDBRANCH 105 106
ENDBRANCH  99 105
BRANCH 101 110
ATOM    110  OBL 37K d   1       8.898  -1.641  11.895  0.00  0.00    -0.351 OA
BRANCH 110 111
ATOM    111  CAE 37K d   1      10.032  -2.127  12.659  0.00  0.00     0.011 C 
ATOM    112  H   37K d   1       9.995  -3.225  12.712  0.00  0.00     0.067 H 
ATOM    113  H   37K d   1       9.995  -1.709  13.676  0.00  0.00     0.067 H 
ATOM    114  H   37K d   1      10.966  -1.815  12.168  0.00  0.00     0.067 H 
ENDBRANCH 110 111
ENDBRANCH 101 110
BRANCH 102 115
ATOM    115  OBJ 37K d   1      10.258  -0.539   9.899  0.00  0.00    -0.353 OA
BRANCH 115 116
ATOM    116  CAC 37K d   1      10.850  -0.011   8.818  0.00  0.00     0.010 C 
ATOM    117  H   37K d   1      11.345  -0.809   8.245  0.00  0.00     0.066 H 
ATOM    118  H   37K d   1      11.598   0.731   9.135  0.00  0.00     0.066 H 
ATOM    119  H   37K d   1      10.093   0.478   8.187  0.00  0.00     0.066 H 
ENDBRANCH 115 116
ENDBRANCH 102 115
ENDBRANCH  80  97
ENDBRANCH  77  80
ENDBRANCH  61  63
ENDBRANCH   1  61
TORSDOF 24
