REMARK  26 active torsions:
REMARK  status: ('A' for Active; 'I' for Inactive)
REMARK    1  A    between atoms: CCF_14  and  OAL_15 
REMARK    2  A    between atoms: CCP_16  and  CBL_17 
REMARK    3  A    between atoms: CBL_17  and  NBR_18 
REMARK       I    between atoms: NBR_18  and  CCB_19 
REMARK    4  A    between atoms: CCB_19  and  CBM_21 
REMARK    5  A    between atoms: CBM_21  and  OBX_22 
REMARK    6  A    between atoms: OBX_22  and  CCG_23 
REMARK    7  A    between atoms: CCH_28  and  CCY_29 
REMARK    8  A    between atoms: CCY_29  and  CBP_30 
REMARK    9  A    between atoms: CCY_29  and  OBY_42 
REMARK   10  A    between atoms: CBP_30  and  CBK_31 
REMARK   11  A    between atoms: CBK_31  and  CCE_32 
REMARK   12  A    between atoms: CCJ_36  and  OBS_37 
REMARK   13  A    between atoms: OBS_37  and  CAA_38 
REMARK   14  A    between atoms: CCK_39  and  OBT_40 
REMARK   15  A    between atoms: OBT_40  and  CAB_41 
REMARK   16  A    between atoms: OBY_42  and  C_43 
REMARK   17  A    between atoms: C_43  and  CA_45 
REMARK       I    between atoms: N_50  and  CCD_51 
REMARK   18  A    between atoms: CCD_51  and  CDA_53 
REMARK   19  A    between atoms: CDA_53  and  CCX_54 
REMARK   20  A    between atoms: CDA_53  and  CCI_60 
REMARK   21  A    between atoms: CCL_63  and  OBU_64 
REMARK   22  A    between atoms: OBU_64  and  CAC_65 
REMARK   23  A    between atoms: CCQ_66  and  OBW_67 
REMARK   24  A    between atoms: OBW_67  and  CAE_68 
REMARK   25  A    between atoms: CCM_69  and  OBV_70 
REMARK   26  A    between atoms: OBV_70  and  CAD_71 
ROOT
ATOM      1  CCY 37M d   1       6.886 -19.595  55.574  0.00  0.00     0.073 C 
ATOM      2  H   37M d   1       6.661 -18.796  56.295  0.00  0.00     0.091 H 
ENDROOT
BRANCH   1   3
ATOM      3  CCH 37M d   1       5.641 -20.103  55.109  0.00  0.00    -0.026 A 
ATOM      4  CBC 37M d   1       4.444 -19.579  55.612  0.00  0.00    -0.042 A 
ATOM      5  CCG 37M d   1       3.196 -20.034  55.161  0.00  0.00     0.070 A 
ATOM      6  H   37M d   1       4.483 -18.803  56.368  0.00  0.00     0.088 H 
ATOM      7  CAR 37M d   1       3.138 -21.016  54.178  0.00  0.00    -0.051 A 
ATOM      8  CAQ 37M d   1       4.324 -21.534  53.661  0.00  0.00    -0.080 A 
ATOM      9  H   37M d   1       2.181 -21.375  53.818  0.00  0.00     0.087 H 
ATOM     10  CAT 37M d   1       5.567 -21.081  54.112  0.00  0.00    -0.074 A 
ATOM     11  H   37M d   1       4.282 -22.301  52.896  0.00  0.00     0.083 H 
ATOM     12  H   37M d   1       6.477 -21.489  53.687  0.00  0.00     0.084 H 
BRANCH   5  13
ATOM     13  OBX 37M d   1       2.024 -19.539  55.654  0.00  0.00    -0.342 OA
BRANCH  13  14
ATOM     14  CBM 37M d   1       2.142 -18.870  56.918  0.00  0.00     0.099 C 
ATOM     15  H   37M d   1       3.187 -18.560  57.068  0.00  0.00     0.089 H 
ATOM     16  H   37M d   1       1.492 -17.982  56.920  0.00  0.00     0.089 H 
BRANCH  14  17
ATOM     17  CCB 37M d   1       1.724 -19.805  58.057  0.00  0.00     0.242 C 
ATOM     18  NBR 37M d   1       2.625 -19.912  59.049  0.00  0.00    -0.355 N 
ATOM     19  H   37M d   1       3.473 -19.388  58.968  0.00  0.00     0.162 HD
ATOM     20  OAG 37M d   1       0.638 -20.382  58.030  0.00  0.00    -0.271 OA
BRANCH  18  21
ATOM     21  CBL 37M d   1       2.446 -20.752  60.249  0.00  0.00     0.024 C 
ATOM     22  H   37M d   1       1.778 -20.243  60.959  0.00  0.00     0.071 H 
ATOM     23  H   37M d   1       2.006 -21.718  59.960  0.00  0.00     0.071 H 
BRANCH  21  24
ATOM     24  CCP 37M d   1       3.696 -20.965  60.850  0.00  0.00     0.027 A 
ATOM     25  CCW 37M d   1       4.615 -21.853  60.285  0.00  0.00     0.097 A 
ATOM     26  OBZ 37M d   1       4.254 -22.500  59.130  0.00  0.00    -0.308 OA
ATOM     27  CCV 37M d   1       5.870 -22.085  60.853  0.00  0.00    -0.001 A 
ATOM     28  CCT 37M d   1       5.033 -23.507  58.621  0.00  0.00     0.090 A 
ATOM     29  CCU 37M d   1       6.296 -23.747  59.187  0.00  0.00    -0.001 A 
ATOM     30  CBF 37M d   1       4.575 -24.275  57.551  0.00  0.00    -0.001 A 
ATOM     31  CCR 37M d   1       6.751 -22.977  60.256  0.00  0.00    -0.058 C 
ATOM     32  CBA 37M d   1       7.099 -24.772  58.668  0.00  0.00    -0.067 A 
ATOM     33  H   37M d   1       7.775 -23.073  60.615  0.00  0.00     0.086 H 
ATOM     34  CAY 37M d   1       6.642 -25.547  57.601  0.00  0.00    -0.034 A 
ATOM     35  H   37M d   1       8.081 -24.964  59.098  0.00  0.00     0.085 H 
ATOM     36  CCS 37M d   1       5.383 -25.295  57.045  0.00  0.00     0.174 A 
ATOM     37  H   37M d   1       7.264 -26.347  57.202  0.00  0.00     0.089 H 
ATOM     38  OAJ 37M d   1       4.978 -25.976  56.104  0.00  0.00    -0.288 OA
ATOM     39  H   37M d   1       3.596 -24.081  57.114  0.00  0.00     0.094 H 
ATOM     40  CAZ 37M d   1       6.224 -21.417  62.024  0.00  0.00    -0.068 A 
ATOM     41  CAX 37M d   1       5.323 -20.527  62.612  0.00  0.00    -0.049 A 
ATOM     42  H   37M d   1       7.194 -21.588  62.476  0.00  0.00     0.085 H 
ATOM     43  CCF 37M d   1       4.071 -20.302  62.028  0.00  0.00     0.076 A 
ATOM     44  H   37M d   1       5.594 -20.008  63.524  0.00  0.00     0.087 H 
BRANCH  43  45
ATOM     45  OAL 37M d   1       3.170 -19.433  62.580  0.00  0.00    -0.360 OA
ATOM     46  H   37M d   1       2.384 -19.413  62.047  0.00  0.00     0.217 HD
ENDBRANCH  43  45
ENDBRANCH  21  24
ENDBRANCH  18  21
ENDBRANCH  14  17
ENDBRANCH  13  14
ENDBRANCH   5  13
ENDBRANCH   1   3
BRANCH   1  47
ATOM     47  CBP 37M d   1       7.811 -20.620  56.306  0.00  0.00    -0.033 C 
ATOM     48  H   37M d   1       8.857 -20.310  56.161  0.00  0.00     0.037 H 
ATOM     49  H   37M d   1       7.657 -21.612  55.856  0.00  0.00     0.037 H 
BRANCH  47  50
ATOM     50  CBK 37M d   1       7.536 -20.724  57.828  0.00  0.00    -0.038 C 
ATOM     51  H   37M d   1       7.594 -21.788  58.099  0.00  0.00     0.040 H 
ATOM     52  H   37M d   1       6.514 -20.357  58.002  0.00  0.00     0.040 H 
BRANCH  50  53
ATOM     53  CCE 37M d   1       8.398 -20.013  58.713  0.00  0.00    -0.055 A 
ATOM     54  CBB 37M d   1       9.801 -19.944  58.600  0.00  0.00    -0.042 A 
ATOM     55  CCK 37M d   1      10.566 -19.223  59.547  0.00  0.00     0.102 A 
ATOM     56  H   37M d   1      10.299 -20.448  57.780  0.00  0.00     0.088 H 
ATOM     57  CCJ 37M d   1       9.927 -18.567  60.611  0.00  0.00     0.101 A 
ATOM     58  CAW 37M d   1       8.538 -18.638  60.724  0.00  0.00    -0.048 A 
ATOM     59  CAS 37M d   1       7.796 -19.359  59.788  0.00  0.00    -0.074 A 
ATOM     60  H   37M d   1       8.035 -18.132  61.540  0.00  0.00     0.087 H 
ATOM     61  H   37M d   1       6.719 -19.413  59.900  0.00  0.00     0.084 H 
BRANCH  55  62
ATOM     62  OBT 37M d   1      11.941 -19.106  59.473  0.00  0.00    -0.353 OA
BRANCH  62  63
ATOM     63  CAB 37M d   1      12.693 -20.006  60.311  0.00  0.00     0.010 C 
ATOM     64  H   37M d   1      13.769 -19.825  60.171  0.00  0.00     0.066 H 
ATOM     65  H   37M d   1      12.458 -21.045  60.037  0.00  0.00     0.066 H 
ATOM     66  H   37M d   1      12.426 -19.835  61.364  0.00  0.00     0.066 H 
ENDBRANCH  62  63
ENDBRANCH  55  62
BRANCH  57  67
ATOM     67  OBS 37M d   1      10.716 -17.868  61.499  0.00  0.00    -0.353 OA
BRANCH  67  68
ATOM     68  CAA 37M d   1      10.593 -18.301  62.892  0.00  0.00     0.010 C 
ATOM     69  H   37M d   1      11.255 -17.691  63.525  0.00  0.00     0.066 H 
ATOM     70  H   37M d   1      10.881 -19.360  62.974  0.00  0.00     0.066 H 
ATOM     71  H   37M d   1       9.552 -18.177  63.224  0.00  0.00     0.066 H 
ENDBRANCH  67  68
ENDBRANCH  57  67
ENDBRANCH  50  53
ENDBRANCH  47  50
ENDBRANCH   1  47
BRANCH   1  72
ATOM     72  OBY 37M d   1       7.595 -19.009  54.446  0.00  0.00    -0.310 OA
BRANCH  72  73
ATOM     73  C   37M d   1       7.541 -17.639  54.367  0.00  0.00     0.282 C 
ATOM     74  O   37M d   1       7.286 -16.908  55.324  0.00  0.00    -0.263 OA
BRANCH  73  75
ATOM     75  CA  37M d   1       7.856 -17.078  53.111  0.00  0.00     0.098 C 
ATOM     76  CB  37M d   1       7.115 -15.750  52.906  0.00  0.00    -0.037 C 
ATOM     77  CBI 37M d   1       5.633 -16.023  52.668  0.00  0.00    -0.061 C 
ATOM     78  H   37M d   1       7.535 -15.227  52.035  0.00  0.00     0.036 H 
ATOM     79  H   37M d   1       7.232 -15.123  53.802  0.00  0.00     0.036 H 
ATOM     80  CBJ 37M d   1       5.468 -16.791  51.371  0.00  0.00    -0.050 C 
ATOM     81  H   37M d   1       5.089 -15.069  52.602  0.00  0.00     0.033 H 
ATOM     82  H   37M d   1       5.230 -16.618  53.501  0.00  0.00     0.033 H 
ATOM     83  CBQ 37M d   1       6.209 -18.130  51.437  0.00  0.00    -0.001 C 
ATOM     84  H   37M d   1       5.876 -16.193  50.543  0.00  0.00     0.035 H 
ATOM     85  H   37M d   1       4.398 -16.979  51.196  0.00  0.00     0.035 H 
ATOM     86  N   37M d   1       7.599 -18.010  51.974  0.00  0.00    -0.338 N 
ATOM     87  H   37M d   1       6.262 -18.550  50.422  0.00  0.00     0.064 H 
ATOM     88  H   37M d   1       5.641 -18.812  52.087  0.00  0.00     0.064 H 
ATOM     89  CCD 37M d   1       8.642 -18.716  51.475  0.00  0.00     0.229 C 
ATOM     90  OAI 37M d   1       9.785 -18.624  51.922  0.00  0.00    -0.273 OA
ATOM     91  H   37M d   1       8.934 -16.860  53.114  0.00  0.00     0.088 H 
BRANCH  89  92
ATOM     92  CDA 37M d   1       8.366 -19.678  50.304  0.00  0.00     0.053 C 
ATOM     93  H   37M d   1       7.535 -19.276  49.707  0.00  0.00     0.062 H 
BRANCH  92  94
ATOM     94  CCX 37M d   1       9.620 -19.789  49.385  0.00  0.00    -0.035 C 
ATOM     95  CBN 37M d   1       9.438 -20.834  48.259  0.00  0.00    -0.058 C 
ATOM     96  CBH 37M d   1      10.672 -20.847  47.358  0.00  0.00    -0.050 C 
ATOM     97  H   37M d   1       8.552 -20.575  47.661  0.00  0.00     0.034 H 
ATOM     98  H   37M d   1       9.301 -21.830  48.705  0.00  0.00     0.034 H 
ATOM     99  CBG 37M d   1      10.880 -19.475  46.709  0.00  0.00    -0.106 C 
ATOM    100  H   37M d   1      10.537 -21.603  46.570  0.00  0.00     0.038 H 
ATOM    101  H   37M d   1      11.557 -21.100  47.961  0.00  0.00     0.038 H 
ATOM    102  CAM 37M d   1      10.586 -18.410  47.574  0.00  0.00    -0.106 C 
ATOM    103  H   37M d   1      11.220 -19.340  45.683  0.00  0.00     0.076 H 
ATOM    104  CAN 37M d   1       9.973 -18.547  48.826  0.00  0.00    -0.046 C 
ATOM    105  H   37M d   1      10.853 -17.406  47.249  0.00  0.00     0.076 H 
ATOM    106  H   37M d   1      10.655 -18.075  49.548  0.00  0.00     0.039 H 
ATOM    107  H   37M d   1       9.040 -17.967  48.769  0.00  0.00     0.039 H 
ATOM    108  H   37M d   1      10.457 -20.122  50.016  0.00  0.00     0.042 H 
ENDBRANCH  92  94
BRANCH  92 109
ATOM    109  CCI 37M d   1       7.987 -20.934  50.804  0.00  0.00    -0.039 A 
ATOM    110  CBE 37M d   1       8.844 -21.678  51.626  0.00  0.00    -0.041 A 
ATOM    111  CCM 37M d   1       8.448 -22.926  52.111  0.00  0.00     0.104 A 
ATOM    112  H   37M d   1       9.819 -21.283  51.887  0.00  0.00     0.088 H 
ATOM    113  CCQ 37M d   1       7.190 -23.423  51.764  0.00  0.00     0.135 A 
ATOM    114  CCL 37M d   1       6.332 -22.695  50.935  0.00  0.00     0.104 A 
ATOM    115  CBD 37M d   1       6.732 -21.444  50.464  0.00  0.00    -0.041 A 
ATOM    116  H   37M d   1       6.067 -20.866  49.832  0.00  0.00     0.088 H 
BRANCH 111 117
ATOM    117  OBV 37M d   1       9.240 -23.710  52.911  0.00  0.00    -0.353 OA
BRANCH 117 118
ATOM    118  CAD 37M d   1       9.636 -23.084  54.141  0.00  0.00     0.010 C 
ATOM    119  H   37M d   1      10.265 -23.777  54.719  0.00  0.00     0.066 H 
ATOM    120  H   37M d   1       8.741 -22.826  54.726  0.00  0.00     0.066 H 
ATOM    121  H   37M d   1      10.206 -22.169  53.920  0.00  0.00     0.066 H 
ENDBRANCH 117 118
ENDBRANCH 111 117
BRANCH 113 122
ATOM    122  OBW 37M d   1       6.804 -24.652  52.225  0.00  0.00    -0.351 OA
BRANCH 122 123
ATOM    123  CAE 37M d   1       6.155 -24.608  53.500  0.00  0.00     0.011 C 
ATOM    124  H   37M d   1       5.875 -25.627  53.804  0.00  0.00     0.067 H 
ATOM    125  H   37M d   1       5.251 -23.985  53.430  0.00  0.00     0.067 H 
ATOM    126  H   37M d   1       6.840 -24.178  54.245  0.00  0.00     0.067 H 
ENDBRANCH 122 123
ENDBRANCH 113 122
BRANCH 114 127
ATOM    127  OBU 37M d   1       5.114 -23.244  50.640  0.00  0.00    -0.353 OA
BRANCH 127 128
ATOM    128  CAC 37M d   1       4.984 -23.598  49.254  0.00  0.00     0.010 C 
ATOM    129  H   37M d   1       3.989 -24.032  49.078  0.00  0.00     0.066 H 
ATOM    130  H   37M d   1       5.757 -24.334  48.989  0.00  0.00     0.066 H 
ATOM    131  H   37M d   1       5.106 -22.698  48.633  0.00  0.00     0.066 H 
ENDBRANCH 127 128
ENDBRANCH 114 127
ENDBRANCH  92 109
ENDBRANCH  89  92
ENDBRANCH  73  75
ENDBRANCH  72  73
ENDBRANCH   1  72
TORSDOF 26
