REMARK  6 active torsions:
REMARK  status: ('A' for Active; 'I' for Inactive)
REMARK    1  A    between atoms: N1_1  and  C9_28 
REMARK       I    between atoms: C8_29  and  N1_1 
REMARK    2  A    between atoms: N3_4  and  C13_21 
REMARK       I    between atoms: C12_22  and  N3_4 
REMARK    3  A    between atoms: C10_24  and  C12_22 
REMARK    4  A    between atoms: C8_29  and  C1_30 
REMARK    5  A    between atoms: C3_31  and  O1_32 
REMARK    6  A    between atoms: O1_32  and  C7_33 
ROOT
ATOM      1  C10 386 d   1       9.227 -12.857   4.863  0.00  0.00     0.134 A 
ATOM      2  C11 386 d   1       9.628 -13.280   3.581  0.00  0.00    -0.008 A 
ATOM      3  S   386 d   1      10.786 -14.406   3.769  0.00  0.00    -0.061 SA
ATOM      4  N2  386 d   1       9.881 -13.454   5.856  0.00  0.00    -0.218 NA
ATOM      5  C9  386 d   1      10.779 -14.337   5.401  0.00  0.00     0.174 A 
ATOM      6  H   386 d   1       9.233 -12.918   2.633  0.00  0.00     0.099 H 
ENDROOT
BRANCH   1   7
ATOM      7  C12 386 d   1       8.221 -11.844   5.249  0.00  0.00     0.289 C 
ATOM      8  N3  386 d   1       7.600 -11.104   4.271  0.00  0.00    -0.152 N 
ATOM      9  H   386 d   1       7.741 -11.349   3.312  0.00  0.00     0.187 HD
ATOM     10  O3  386 d   1       7.992 -11.619   6.436  0.00  0.00    -0.265 OA
BRANCH   8  11
ATOM     11  C13 386 d   1       6.784 -10.028   4.578  0.00  0.00     0.708 A 
ATOM     12  N4  386 d   1       6.303  -9.205   3.630  0.00  0.00    -0.062 NA
ATOM     13  C14 386 d   1       5.592  -8.309   4.284  0.00  0.00     0.106 A 
ATOM     14  C17 386 d   1       4.895  -7.240   3.756  0.00  0.00    -0.017 A 
ATOM     15  C20 386 d   1       5.676  -8.598   5.623  0.00  0.00     0.081 A 
ATOM     16  C15 386 d   1       4.252  -6.480   4.702  0.00  0.00     0.114 A 
ATOM     17  H   386 d   1       4.859  -7.021   2.695  0.00  0.00     0.091 H 
ATOM     18  O4  386 d   1       3.497  -5.387   4.495  0.00  0.00    -0.256 OA
ATOM     19  C16 386 d   1       4.322  -6.784   6.037  0.00  0.00     0.114 A 
ATOM     20  C19 386 d   1       2.971  -5.088   5.803  0.00  0.00     0.498 C 
ATOM     21  F5  386 d   1       1.656  -5.415   5.902  0.00  0.00    -0.147 F 
ATOM     22  F4  386 d   1       3.214  -3.792   6.119  0.00  0.00    -0.147 F 
ATOM     23  O5  386 d   1       3.633  -5.902   6.762  0.00  0.00    -0.256 OA
ATOM     24  C18 386 d   1       5.035  -7.841   6.562  0.00  0.00    -0.019 A 
ATOM     25  H   386 d   1       5.082  -8.052   7.624  0.00  0.00     0.091 H 
ATOM     26  N5  386 d   1       6.412  -9.690   5.823  0.00  0.00    -0.187 N 
ATOM     27  H   386 d   1       6.639 -10.159   6.712  0.00  0.00     0.184 HD
ENDBRANCH   8  11
ENDBRANCH   1   7
BRANCH   5  28
ATOM     28  N1  386 d   1      11.470 -14.989   6.430  0.00  0.00    -0.301 N 
ATOM     29  C8  386 d   1      12.352 -16.041   6.328  0.00  0.00     0.260 C 
ATOM     30  O2  386 d   1      12.706 -16.492   5.244  0.00  0.00    -0.267 OA
ATOM     31  H   386 d   1      11.302 -14.648   7.355  0.00  0.00     0.171 HD
BRANCH  29  32
ATOM     32  C1  386 d   1      12.830 -16.546   7.656  0.00  0.00     0.066 A 
ATOM     33  C2  386 d   1      11.931 -16.558   8.741  0.00  0.00    -0.065 A 
ATOM     34  C4  386 d   1      12.342 -16.992   9.997  0.00  0.00    -0.082 A 
ATOM     35  H   386 d   1      10.909 -16.226   8.595  0.00  0.00     0.085 H 
ATOM     36  C6  386 d   1      13.655 -17.418  10.196  0.00  0.00    -0.080 A 
ATOM     37  H   386 d   1      11.640 -16.999  10.823  0.00  0.00     0.083 H 
ATOM     38  C5  386 d   1      14.555 -17.406   9.142  0.00  0.00    -0.049 A 
ATOM     39  H   386 d   1      13.972 -17.759  11.175  0.00  0.00     0.083 H 
ATOM     40  C3  386 d   1      14.158 -16.965   7.883  0.00  0.00     0.094 A 
ATOM     41  H   386 d   1      15.574 -17.742   9.299  0.00  0.00     0.087 H 
BRANCH  40  42
ATOM     42  O1  386 d   1      15.091 -16.977   6.887  0.00  0.00    -0.254 OA
BRANCH  42  43
ATOM     43  C7  386 d   1      15.757 -15.779   6.540  0.00  0.00     0.530 C 
ATOM     44  F3  386 d   1      16.175 -15.798   5.222  0.00  0.00    -0.144 F 
ATOM     45  F2  386 d   1      14.857 -14.802   6.704  0.00  0.00    -0.144 F 
ATOM     46  F1  386 d   1      16.735 -15.520   7.450  0.00  0.00    -0.144 F 
ENDBRANCH  42  43
ENDBRANCH  40  42
ENDBRANCH  29  32
ENDBRANCH   5  28
TORSDOF 6
