REMARK  7 active torsions:
REMARK  status: ('A' for Active; 'I' for Inactive)
REMARK    1  A    between atoms: C2_2  and  C4_5 
REMARK       I    between atoms: C4_5  and  N5_20 
REMARK    2  A    between atoms: C5_7  and  C6_8 
REMARK       I    between atoms: N2_25  and  C5_7 
REMARK    3  A    between atoms: C14_13  and  C20_10 
REMARK    4  A    between atoms: N5_20  and  C19_16 
REMARK    5  A    between atoms: C3_22  and  N2_25 
REMARK    6  A    between atoms: C7_30  and  O3_31 
REMARK    7  A    between atoms: O3_31  and  C12_32 
ROOT
ATOM      1  N1  37J d   1       9.322 -13.293   6.254  0.00  0.00    -0.218 NA
ATOM      2  C2  37J d   1       8.769 -12.699   5.199  0.00  0.00     0.134 A 
ATOM      3  C3  37J d   1      10.178 -14.232   5.857  0.00  0.00     0.174 A 
ATOM      4  S   37J d   1      10.331 -14.320   4.243  0.00  0.00    -0.061 SA
ATOM      5  C1  37J d   1       9.226 -13.164   3.980  0.00  0.00    -0.008 A 
ATOM      6  H   37J d   1       8.898 -12.811   3.003  0.00  0.00     0.099 H 
ENDROOT
BRANCH   2   7
ATOM      7  C4  37J d   1       7.784 -11.622   5.462  0.00  0.00     0.289 C 
ATOM      8  N5  37J d   1       7.232 -10.865   4.441  0.00  0.00    -0.152 N 
ATOM      9  H   37J d   1       7.443 -11.131   3.501  0.00  0.00     0.187 HD
ATOM     10  O1  37J d   1       7.501 -11.399   6.622  0.00  0.00    -0.265 OA
BRANCH   8  11
ATOM     11  C19 37J d   1       6.410  -9.767   4.628  0.00  0.00     0.708 A 
ATOM     12  N3  37J d   1       5.929  -9.302   5.797  0.00  0.00    -0.062 NA
ATOM     13  C16 37J d   1       5.268  -8.207   5.462  0.00  0.00     0.103 A 
ATOM     14  C15 37J d   1       4.539  -7.330   6.251  0.00  0.00    -0.038 A 
ATOM     15  C17 37J d   1       5.373  -8.021   4.121  0.00  0.00     0.078 A 
ATOM     16  C14 37J d   1       3.962  -6.241   5.613  0.00  0.00     0.050 A 
ATOM     17  H   37J d   1       4.425  -7.488   7.317  0.00  0.00     0.088 H 
ATOM     18  C13 37J d   1       4.077  -6.068   4.231  0.00  0.00    -0.066 A 
ATOM     19  C18 37J d   1       4.783  -6.989   3.472  0.00  0.00    -0.053 A 
ATOM     20  H   37J d   1       3.614  -5.213   3.752  0.00  0.00     0.084 H 
ATOM     21  H   37J d   1       4.860  -6.886   2.396  0.00  0.00     0.087 H 
ATOM     22  N4  37J d   1       6.085  -9.016   3.576  0.00  0.00    -0.187 N 
ATOM     23  H   37J d   1       6.323  -9.165   2.585  0.00  0.00     0.184 HD
BRANCH  16  24
ATOM     24  C20 37J d   1       3.139  -5.225   6.400  0.00  0.00     0.417 C 
ATOM     25  F6  37J d   1       1.875  -5.669   6.577  0.00  0.00    -0.166 F 
ATOM     26  F4  37J d   1       3.634  -5.041   7.620  0.00  0.00    -0.166 F 
ATOM     27  F5  37J d   1       3.091  -4.037   5.778  0.00  0.00    -0.166 F 
ENDBRANCH  16  24
ENDBRANCH   8  11
ENDBRANCH   2   7
BRANCH   3  28
ATOM     28  N2  37J d   1      10.868 -14.952   6.828  0.00  0.00    -0.301 N 
ATOM     29  C5  37J d   1      11.867 -15.833   6.576  0.00  0.00     0.260 C 
ATOM     30  O2  37J d   1      12.062 -16.075   5.426  0.00  0.00    -0.267 OA
ATOM     31  H   37J d   1      10.607 -14.809   7.783  0.00  0.00     0.171 HD
BRANCH  29  32
ATOM     32  C6  37J d   1      12.645 -16.349   7.732  0.00  0.00     0.066 A 
ATOM     33  C11 37J d   1      11.996 -16.607   8.935  0.00  0.00    -0.065 A 
ATOM     34  C10 37J d   1      12.703 -17.039  10.031  0.00  0.00    -0.082 A 
ATOM     35  H   37J d   1      10.924 -16.466   9.008  0.00  0.00     0.085 H 
ATOM     36  C9  37J d   1      14.077 -17.235   9.937  0.00  0.00    -0.080 A 
ATOM     37  H   37J d   1      12.191 -17.227  10.968  0.00  0.00     0.083 H 
ATOM     38  C8  37J d   1      14.746 -16.961   8.756  0.00  0.00    -0.049 A 
ATOM     39  H   37J d   1      14.628 -17.605  10.794  0.00  0.00     0.083 H 
ATOM     40  C7  37J d   1      14.025 -16.509   7.655  0.00  0.00     0.094 A 
ATOM     41  H   37J d   1      15.819 -17.097   8.690  0.00  0.00     0.087 H 
BRANCH  40  42
ATOM     42  O3  37J d   1      14.596 -16.229   6.461  0.00  0.00    -0.254 OA
BRANCH  42  43
ATOM     43  C12 37J d   1      15.927 -15.893   6.214  0.00  0.00     0.530 C 
ATOM     44  F1  37J d   1      16.230 -14.872   7.008  0.00  0.00    -0.144 F 
ATOM     45  F2  37J d   1      15.983 -15.558   4.899  0.00  0.00    -0.144 F 
ATOM     46  F3  37J d   1      16.763 -16.911   6.486  0.00  0.00    -0.144 F 
ENDBRANCH  42  43
ENDBRANCH  40  42
ENDBRANCH  29  32
ENDBRANCH   3  28
TORSDOF 7
