REMARK  3 active torsions:
REMARK  status: ('A' for Active; 'I' for Inactive)
REMARK    1  A    between atoms: C04_6  and  N01_3 
REMARK    2  A    between atoms: C02_4  and  C12_12 
REMARK    3  A    between atoms: C03_5  and  C13_13 
ROOT
ATOM      1  C10 377 d   1    -125.220 -42.253 -68.814  0.00  0.00    -0.055 C 
ATOM      2  C11 377 d   1    -124.470 -44.504 -69.483  0.00  0.00    -0.031 C 
ATOM      3  C02 377 d   1    -127.179 -43.870 -70.110  0.00  0.00    -0.041 C 
ATOM      4  C03 377 d   1    -126.340 -42.887 -68.043  0.00  0.00    -0.041 C 
ATOM      5  C04 377 d   1    -125.636 -45.114 -68.749  0.00  0.00     0.125 C 
ATOM      6  C05 377 d   1    -124.859 -43.145 -69.970  0.00  0.00    -0.051 C 
ATOM      7  C06 377 d   1    -127.530 -43.030 -68.927  0.00  0.00    -0.051 C 
ATOM      8  C07 377 d   1    -126.824 -45.248 -69.668  0.00  0.00    -0.027 C 
ATOM      9  C08 377 d   1    -125.969 -44.254 -67.554  0.00  0.00    -0.027 C 
ATOM     10  C09 377 d   1    -126.034 -43.291 -70.878  0.00  0.00    -0.055 C 
ATOM     11  H   377 d   1    -124.346 -42.126 -68.159  0.00  0.00     0.034 H 
ATOM     12  H   377 d   1    -125.541 -41.271 -69.192  0.00  0.00     0.034 H 
ATOM     13  H   377 d   1    -124.200 -45.139 -70.339  0.00  0.00     0.037 H 
ATOM     14  H   377 d   1    -123.609 -44.420 -68.803  0.00  0.00     0.037 H 
ATOM     15  H   377 d   1    -124.019 -42.699 -70.522  0.00  0.00     0.040 H 
ATOM     16  H   377 d   1    -128.346 -43.510 -68.367  0.00  0.00     0.035 H 
ATOM     17  H   377 d   1    -127.854 -42.036 -69.268  0.00  0.00     0.035 H 
ATOM     18  H   377 d   1    -126.563 -45.870 -70.537  0.00  0.00     0.037 H 
ATOM     19  H   377 d   1    -127.669 -45.704 -69.131  0.00  0.00     0.037 H 
ATOM     20  H   377 d   1    -126.814 -44.694 -67.004  0.00  0.00     0.037 H 
ATOM     21  H   377 d   1    -125.095 -44.186 -66.890  0.00  0.00     0.037 H 
ATOM     22  H   377 d   1    -126.318 -42.305 -71.274  0.00  0.00     0.034 H 
ATOM     23  H   377 d   1    -125.774 -43.960 -71.712  0.00  0.00     0.034 H 
ENDROOT
BRANCH   3  24
ATOM     24  C12 377 d   1    -128.372 -43.864 -70.975  0.00  0.00    -0.069 C 
ATOM     25  H   377 d   1    -129.226 -44.287 -70.425  0.00  0.00     0.028 H 
ATOM     26  H   377 d   1    -128.177 -44.469 -71.873  0.00  0.00     0.028 H 
ATOM     27  H   377 d   1    -128.604 -42.831 -71.273  0.00  0.00     0.028 H 
ENDBRANCH   3  24
BRANCH   4  28
ATOM     28  C13 377 d   1    -126.699 -41.988 -66.914  0.00  0.00    -0.069 C 
ATOM     29  H   377 d   1    -126.965 -40.995 -67.306  0.00  0.00     0.028 H 
ATOM     30  H   377 d   1    -125.841 -41.895 -66.232  0.00  0.00     0.028 H 
ATOM     31  H   377 d   1    -127.556 -42.409 -66.368  0.00  0.00     0.028 H 
ENDBRANCH   4  28
BRANCH   5  32
ATOM     32  N01 377 d   1    -125.257 -46.430 -68.296  0.00  0.00    -0.070 N 
ATOM     33  H   377 d   1    -126.029 -46.851 -67.802  0.00  0.00     0.275 HD
ATOM     34  H   377 d   1    -124.463 -46.357 -67.679  0.00  0.00     0.275 HD
ATOM     35  H   377 d   1    -125.014 -47.002 -69.090  0.00  0.00     0.275 HD
ENDBRANCH   5  32
TORSDOF 3
