REMARK WARNING: 32 MAX_TORS EXCEEDED!!!
REMARK  45 active torsions:
REMARK  status: ('A' for Active; 'I' for Inactive)
REMARK    1  A    between atoms: N_1  and  CA_2 
REMARK    2  A    between atoms: CA_2  and  C_3 
REMARK    3  A    between atoms: CA_2  and  CB_5 
REMARK       I    between atoms: C_3  and  N_6 
REMARK    4  A    between atoms: N_6  and  CA_7 
REMARK    5  A    between atoms: CA_7  and  C_8 
REMARK    6  A    between atoms: CA_7  and  CB_10 
REMARK       I    between atoms: C_8  and  N_12 
REMARK    7  A    between atoms: CB_10  and  SG_11 
REMARK    8  A    between atoms: CA_13  and  C_14 
REMARK       I    between atoms: C_14  and  N_19 
REMARK    9  A    between atoms: CA_20  and  C_21 
REMARK       I    between atoms: C_21  and  N_26 
REMARK   10  A    between atoms: N_26  and  CA_27 
REMARK   11  A    between atoms: CA_27  and  C_28 
REMARK   12  A    between atoms: CA_27  and  CB_30 
REMARK       I    between atoms: C_28  and  N_32 
REMARK   13  A    between atoms: CB_30  and  SG_31 
REMARK   14  A    between atoms: N_32  and  CA_33 
REMARK   15  A    between atoms: CA_33  and  C_34 
REMARK   16  A    between atoms: CA_33  and  CB_36 
REMARK       I    between atoms: C_34  and  N_40 
REMARK   17  A    between atoms: CB_36  and  CG_37 
REMARK   18  A    between atoms: CG_37  and  CD1_38 
REMARK   19  A    between atoms: CG_37  and  CD2_39 
REMARK   20  A    between atoms: N_40  and  CA_41 
REMARK   21  A    between atoms: CA_41  and  C_42 
REMARK   22  A    between atoms: CA_41  and  CB_44 
REMARK       I    between atoms: C_42  and  N_54 
REMARK   23  A    between atoms: CB_44  and  CG_45 
REMARK   24  A    between atoms: N_54  and  CA_55 
REMARK   25  A    between atoms: CA_55  and  C_56 
REMARK   26  A    between atoms: CA_55  and  CB_58 
REMARK       I    between atoms: C_56  and  N_63 
REMARK   27  A    between atoms: CB_58  and  CG_59 
REMARK   28  A    between atoms: CG_59  and  CD_60 
REMARK       I    between atoms: CD_60  and  NE2_62 
REMARK   29  A    between atoms: N_63  and  CA_64 
REMARK   30  A    between atoms: CA_64  and  C_65 
REMARK   31  A    between atoms: CA_64  and  CB_67 
REMARK       I    between atoms: C_65  and  N_70 
REMARK   32  A    between atoms: CB_67  and  CG1_68 
REMARK   33  A    between atoms: CB_67  and  CG2_69 
REMARK   34  A    between atoms: N_70  and  CA_71 
REMARK   35  A    between atoms: CA_71  and  C_72 
REMARK   36  A    between atoms: CA_71  and  CB_74 
REMARK       I    between atoms: C_72  and  N_78 
REMARK   37  A    between atoms: CB_74  and  CG_75 
REMARK   38  A    between atoms: CG_75  and  CD1_76 
REMARK   39  A    between atoms: CG_75  and  CD2_77 
REMARK   40  A    between atoms: N_78  and  CA_79 
REMARK   41  A    between atoms: CA_79  and  C_80 
REMARK   42  A    between atoms: CA_79  and  CB_82 
REMARK       I    between atoms: C_80  and  N_84 
REMARK   43  A    between atoms: CB_82  and  SG_83 
REMARK   44  A    between atoms: N_84  and  CA_85 
REMARK   45  A    between atoms: CA_85  and  C_86 
ROOT
ATOM      1  CA  TRP d   1      -9.990  78.779 229.015  0.00  0.00     0.093 C 
ATOM      2  H44 TRP d   1     -10.171  79.862 228.948  0.00  0.00     0.088 H 
ENDROOT
BRANCH   1   3
ATOM      3  N   TRP d   1      -8.699  78.619 229.701  0.00  0.00    -0.346 N 
ATOM      4  C   LEU d   1      -8.182  79.606 230.427  0.00  0.00     0.241 C 
ATOM      5  O   LEU d   1      -8.806  80.651 230.641  0.00  0.00    -0.271 OA
ATOM      6  H43 TRP d   1      -8.202  77.755 229.620  0.00  0.00     0.163 HD
BRANCH   4   7
ATOM      7  CA  LEU d   1      -6.779  79.400 231.046  0.00  0.00     0.089 C 
ATOM      8  H33 LEU d   1      -6.789  79.900 232.025  0.00  0.00     0.087 H 
BRANCH   7   9
ATOM      9  N   LEU d   1      -6.424  78.001 231.290  0.00  0.00    -0.346 N 
ATOM     10  C   CYS d   1      -7.093  77.213 232.129  0.00  0.00     0.241 C 
ATOM     11  O   CYS d   1      -8.166  77.540 232.636  0.00  0.00    -0.271 OA
ATOM     12  H32 LEU d   1      -5.640  77.618 230.802  0.00  0.00     0.163 HD
BRANCH  10  13
ATOM     13  CA  CYS d   1      -6.491  75.807 232.366  0.00  0.00     0.097 C 
ATOM     14  H28 CYS d   1      -5.415  75.917 232.567  0.00  0.00     0.088 H 
BRANCH  13  15
ATOM     15  N   CYS d   1      -7.112  75.164 233.519  0.00  0.00    -0.345 N 
ATOM     16  C   PRO d   1      -6.446  74.357 234.351  0.00  0.00     0.241 C 
ATOM     17  O   PRO d   1      -5.316  73.905 234.128  0.00  0.00    -0.271 OA
ATOM     18  H27 CYS d   1      -8.081  75.335 233.695  0.00  0.00     0.163 HD
BRANCH  16  19
ATOM     19  CA  PRO d   1      -7.182  73.924 235.613  0.00  0.00     0.091 C 
ATOM     20  N   PRO d   1      -6.868  72.542 235.901  0.00  0.00    -0.337 N 
ATOM     21  C   PRO d   1      -7.430  71.657 235.092  0.00  0.00     0.243 C 
ATOM     22  CD  PRO d   1      -5.932  72.400 237.030  0.00  0.00    -0.001 C 
ATOM     23  O   PRO d   1      -8.161  71.975 234.141  0.00  0.00    -0.271 OA
ATOM     24  CG  PRO d   1      -5.555  73.820 237.361  0.00  0.00    -0.048 C 
ATOM     25  H25 PRO d   1      -5.047  71.818 236.735  0.00  0.00     0.064 H 
ATOM     26  H26 PRO d   1      -6.422  71.914 237.887  0.00  0.00     0.064 H 
ATOM     27  CB  PRO d   1      -6.676  74.658 236.854  0.00  0.00    -0.036 C 
ATOM     28  H23 PRO d   1      -5.443  73.945 238.448  0.00  0.00     0.035 H 
ATOM     29  H24 PRO d   1      -4.614  74.094 236.862  0.00  0.00     0.035 H 
ATOM     30  H21 PRO d   1      -7.472  74.738 237.609  0.00  0.00     0.036 H 
ATOM     31  H22 PRO d   1      -6.319  75.664 236.590  0.00  0.00     0.036 H 
ATOM     32  H20 PRO d   1      -8.264  74.073 235.481  0.00  0.00     0.087 H 
BRANCH  21  33
ATOM     33  CA  PRO d   1      -7.130  70.231 235.385  0.00  0.00     0.092 C 
ATOM     34  N   PRO d   1      -7.883  69.329 234.537  0.00  0.00    -0.337 N 
ATOM     35  C   CYS d   1      -9.190  69.095 234.751  0.00  0.00     0.244 C 
ATOM     36  CD  PRO d   1      -7.024  68.762 233.502  0.00  0.00    -0.001 C 
ATOM     37  O   CYS d   1      -9.854  69.760 235.541  0.00  0.00    -0.271 OA
ATOM     38  CG  PRO d   1      -5.706  68.713 234.201  0.00  0.00    -0.048 C 
ATOM     39  H18 PRO d   1      -6.984  69.410 232.614  0.00  0.00     0.064 H 
ATOM     40  H19 PRO d   1      -7.360  67.757 233.208  0.00  0.00     0.064 H 
ATOM     41  CB  PRO d   1      -5.670  69.961 235.003  0.00  0.00    -0.036 C 
ATOM     42  H16 PRO d   1      -5.643  67.829 234.853  0.00  0.00     0.035 H 
ATOM     43  H17 PRO d   1      -4.880  68.693 233.475  0.00  0.00     0.035 H 
ATOM     44  H14 PRO d   1      -5.054  69.824 235.904  0.00  0.00     0.036 H 
ATOM     45  H15 PRO d   1      -5.267  70.792 234.406  0.00  0.00     0.036 H 
ATOM     46  H13 PRO d   1      -7.318  70.018 236.448  0.00  0.00     0.087 H 
BRANCH  35  47
ATOM     47  CA  CYS d   1      -9.855  67.994 233.937  0.00  0.00     0.097 C 
ATOM     48  H9  CYS d   1      -9.379  67.960 232.946  0.00  0.00     0.088 H 
BRANCH  47  49
ATOM     49  N   CYS d   1      -9.749  66.654 234.541  0.00  0.00    -0.345 N 
ATOM     50  C   ALA d   1      -9.348  65.577 233.856  0.00  0.00     0.248 C 
ATOM     51  O   ALA d   1      -9.184  65.566 232.623  0.00  0.00    -0.271 OA
ATOM     52  H8  CYS d   1      -9.988  66.545 235.506  0.00  0.00     0.163 HD
BRANCH  50  53
ATOM     53  CA  ALA d   1      -9.055  64.330 234.679  0.00  0.00     0.172 C 
ATOM     54  H4  ALA d   1      -8.843  63.513 233.974  0.00  0.00     0.098 H 
BRANCH  53  55
ATOM     55  N   ALA d   1      -7.844  64.490 235.554  0.00  0.00    -0.067 N 
ATOM     56  H1  ALA d   1      -7.692  63.641 236.077  0.00  0.00     0.275 HD
ATOM     57  H2  ALA d   1      -7.990  65.256 236.193  0.00  0.00     0.275 HD
ATOM     58  H3  ALA d   1      -7.037  64.680 234.980  0.00  0.00     0.275 HD
ENDBRANCH  53  55
BRANCH  53  59
ATOM     59  CB  ALA d   1     -10.280  63.928 235.498  0.00  0.00    -0.042 C 
ATOM     60  H5  ALA d   1     -11.148  63.819 234.831  0.00  0.00     0.030 H 
ATOM     61  H6  ALA d   1     -10.490  64.704 236.249  0.00  0.00     0.030 H 
ATOM     62  H7  ALA d   1     -10.085  62.971 236.005  0.00  0.00     0.030 H 
ENDBRANCH  53  59
ENDBRANCH  50  53
ENDBRANCH  47  49
BRANCH  47  63
ATOM     63  CB  CYS d   1     -11.295  68.355 233.782  0.00  0.00     0.001 C 
ATOM     64  H10 CYS d   1     -11.746  68.453 234.780  0.00  0.00     0.052 H 
ATOM     65  H11 CYS d   1     -11.804  67.554 233.226  0.00  0.00     0.052 H 
BRANCH  63  66
ATOM     66  SG  CYS d   1     -11.507  69.891 232.902  0.00  0.00    -0.180 SA
ATOM     67  H12 CYS d   1     -11.049  70.633 233.408  0.00  0.00     0.101 HD
ENDBRANCH  63  66
ENDBRANCH  47  63
ENDBRANCH  35  47
ENDBRANCH  21  33
ENDBRANCH  16  19
ENDBRANCH  13  15
BRANCH  13  68
ATOM     68  CB  CYS d   1      -6.667  74.950 231.118  0.00  0.00     0.001 C 
ATOM     69  H29 CYS d   1      -6.264  73.948 231.325  0.00  0.00     0.052 H 
ATOM     70  H30 CYS d   1      -6.099  75.412 230.297  0.00  0.00     0.052 H 
BRANCH  68  71
ATOM     71  SG  CYS d   1      -8.391  74.775 230.593  0.00  0.00    -0.180 SA
ATOM     72  H31 CYS d   1      -8.433  74.199 229.767  0.00  0.00     0.101 HD
ENDBRANCH  68  71
ENDBRANCH  13  68
ENDBRANCH  10  13
ENDBRANCH   7   9
BRANCH   7  73
ATOM     73  CB  LEU d   1      -5.700  80.086 230.185  0.00  0.00    -0.035 C 
ATOM     74  H34 LEU d   1      -5.913  81.165 230.201  0.00  0.00     0.037 H 
ATOM     75  H35 LEU d   1      -5.815  79.704 229.160  0.00  0.00     0.037 H 
BRANCH  73  76
ATOM     76  CG  LEU d   1      -4.207  79.912 230.570  0.00  0.00    -0.059 C 
ATOM     77  H36 LEU d   1      -4.003  78.831 230.584  0.00  0.00     0.038 H 
BRANCH  76  78
ATOM     78  CD1 LEU d   1      -3.312  80.549 229.513  0.00  0.00    -0.073 C 
ATOM     79  H37 LEU d   1      -2.258  80.418 229.798  0.00  0.00     0.028 H 
ATOM     80  H38 LEU d   1      -3.541  81.622 229.437  0.00  0.00     0.028 H 
ATOM     81  H39 LEU d   1      -3.491  80.066 228.541  0.00  0.00     0.028 H 
ENDBRANCH  76  78
BRANCH  76  82
ATOM     82  CD2 LEU d   1      -3.832  80.457 231.936  0.00  0.00    -0.073 C 
ATOM     83  H40 LEU d   1      -4.475  80.000 232.702  0.00  0.00     0.028 H 
ATOM     84  H41 LEU d   1      -3.969  81.548 231.946  0.00  0.00     0.028 H 
ATOM     85  H42 LEU d   1      -2.780  80.218 232.150  0.00  0.00     0.028 H 
ENDBRANCH  76  82
ENDBRANCH  73  76
ENDBRANCH   7  73
ENDBRANCH   4   7
ENDBRANCH   1   3
BRANCH   1  86
ATOM     86  C   TRP d   1     -11.214  78.185 229.756  0.00  0.00     0.241 C 
ATOM     87  O   TRP d   1     -12.368  78.381 229.330  0.00  0.00    -0.271 OA
ATOM     88  N   GLN d   1     -10.981  77.494 230.866  0.00  0.00    -0.346 N 
ATOM     89  H53 GLN d   1     -10.090  77.551 231.316  0.00  0.00     0.163 HD
BRANCH  88  90
ATOM     90  CA  GLN d   1     -12.041  76.645 231.428  0.00  0.00     0.090 C 
ATOM     91  H54 GLN d   1     -12.277  75.879 230.675  0.00  0.00     0.087 H 
BRANCH  90  92
ATOM     92  C   GLN d   1     -13.347  77.401 231.721  0.00  0.00     0.241 C 
ATOM     93  O   GLN d   1     -14.444  76.865 231.600  0.00  0.00    -0.271 OA
ATOM     94  N   VAL d   1     -13.211  78.663 232.075  0.00  0.00    -0.346 N 
ATOM     95  H61 VAL d   1     -12.291  79.041 232.180  0.00  0.00     0.163 HD
BRANCH  94  96
ATOM     96  CA  VAL d   1     -14.360  79.524 232.318  0.00  0.00     0.092 C 
ATOM     97  H62 VAL d   1     -14.867  79.126 233.209  0.00  0.00     0.088 H 
BRANCH  96  98
ATOM     98  C   VAL d   1     -15.389  79.498 231.183  0.00  0.00     0.241 C 
ATOM     99  O   VAL d   1     -16.563  79.692 231.444  0.00  0.00    -0.271 OA
ATOM    100  N   LEU d   1     -14.966  79.245 229.947  0.00  0.00    -0.346 N 
ATOM    101  H70 LEU d   1     -13.995  79.067 229.784  0.00  0.00     0.163 HD
BRANCH 100 102
ATOM    102  CA  LEU d   1     -15.910  79.223 228.814  0.00  0.00     0.089 C 
ATOM    103  H71 LEU d   1     -16.677  79.985 229.015  0.00  0.00     0.087 H 
BRANCH 102 104
ATOM    104  C   LEU d   1     -16.614  77.908 228.576  0.00  0.00     0.241 C 
ATOM    105  O   LEU d   1     -17.459  77.819 227.700  0.00  0.00    -0.271 OA
ATOM    106  N   CYS d   1     -16.234  76.869 229.300  0.00  0.00    -0.345 N 
ATOM    107  H81 CYS d   1     -15.500  76.974 229.971  0.00  0.00     0.163 HD
BRANCH 106 108
ATOM    108  CA  CYS d   1     -16.877  75.569 229.127  0.00  0.00     0.097 C 
ATOM    109  H82 CYS d   1     -17.693  75.685 228.399  0.00  0.00     0.088 H 
BRANCH 108 110
ATOM    110  C   CYS d   1     -17.480  75.058 230.424  0.00  0.00     0.241 C 
ATOM    111  O   CYS d   1     -17.749  73.881 230.553  0.00  0.00    -0.271 OA
ATOM    112  N   GLY d   1     -17.676  75.949 231.393  0.00  0.00    -0.349 N 
ATOM    113  H86 GLY d   1     -17.221  76.838 231.335  0.00  0.00     0.163 HD
BRANCH 112 114
ATOM    114  CA  GLY d   1     -18.544  75.664 232.549  0.00  0.00     0.075 C 
ATOM    115  H87 GLY d   1     -18.978  74.664 232.399  0.00  0.00     0.080 H 
ATOM    116  H88 GLY d   1     -19.347  76.415 232.554  0.00  0.00     0.080 H 
BRANCH 114 117
ATOM    117  C   GLY d   1     -17.893  75.680 233.926  0.00  0.00     0.191 C 
ATOM    118  O   GLY d   1     -18.584  75.552 234.946  0.00  0.00    -0.647 OA
ATOM    119  OXT GLY d   1     -16.676  75.813 234.077  0.00  0.00    -0.647 OA
ENDBRANCH 114 117
ENDBRANCH 112 114
ENDBRANCH 108 110
BRANCH 108 120
ATOM    120  CB  CYS d   1     -15.866  74.572 228.560  0.00  0.00     0.001 C 
ATOM    121  H83 CYS d   1     -15.455  75.003 227.635  0.00  0.00     0.052 H 
ATOM    122  H84 CYS d   1     -16.409  73.645 228.322  0.00  0.00     0.052 H 
BRANCH 120 123
ATOM    123  SG  CYS d   1     -14.456  74.128 229.640  0.00  0.00    -0.180 SA
ATOM    124  H85 CYS d   1     -13.862  73.469 229.161  0.00  0.00     0.101 HD
ENDBRANCH 120 123
ENDBRANCH 108 120
ENDBRANCH 106 108
ENDBRANCH 102 104
BRANCH 102 125
ATOM    125  CB  LEU d   1     -15.193  79.574 227.522  0.00  0.00    -0.035 C 
ATOM    126  H72 LEU d   1     -15.862  79.357 226.676  0.00  0.00     0.037 H 
ATOM    127  H73 LEU d   1     -14.287  78.955 227.441  0.00  0.00     0.037 H 
BRANCH 125 128
ATOM    128  CG  LEU d   1     -14.793  81.030 227.464  0.00  0.00    -0.059 C 
ATOM    129  H74 LEU d   1     -14.299  81.304 228.408  0.00  0.00     0.038 H 
BRANCH 128 130
ATOM    130  CD1 LEU d   1     -13.805  81.214 226.326  0.00  0.00    -0.073 C 
ATOM    131  H75 LEU d   1     -13.503  82.270 226.270  0.00  0.00     0.028 H 
ATOM    132  H76 LEU d   1     -14.278  80.917 225.378  0.00  0.00     0.028 H 
ATOM    133  H77 LEU d   1     -12.918  80.588 226.505  0.00  0.00     0.028 H 
ENDBRANCH 128 130
BRANCH 128 134
ATOM    134  CD2 LEU d   1     -16.025  81.909 227.296  0.00  0.00    -0.073 C 
ATOM    135  H78 LEU d   1     -16.711  81.744 228.140  0.00  0.00     0.028 H 
ATOM    136  H79 LEU d   1     -16.533  81.652 226.355  0.00  0.00     0.028 H 
ATOM    137  H80 LEU d   1     -15.721  82.966 227.272  0.00  0.00     0.028 H 
ENDBRANCH 128 134
ENDBRANCH 125 128
ENDBRANCH 102 125
ENDBRANCH 100 102
ENDBRANCH  96  98
BRANCH  96 138
ATOM    138  CB  VAL d   1     -13.916  80.981 232.661  0.00  0.00    -0.033 C 
ATOM    139  H63 VAL d   1     -13.304  80.936 233.574  0.00  0.00     0.042 H 
BRANCH 138 140
ATOM    140  CG1 VAL d   1     -13.063  81.600 231.555  0.00  0.00    -0.071 C 
ATOM    141  H64 VAL d   1     -12.776  82.622 231.842  0.00  0.00     0.028 H 
ATOM    142  H65 VAL d   1     -13.641  81.630 230.620  0.00  0.00     0.028 H 
ATOM    143  H66 VAL d   1     -12.158  80.993 231.407  0.00  0.00     0.028 H 
ENDBRANCH 138 140
BRANCH 138 144
ATOM    144  CG2 VAL d   1     -15.107  81.860 232.941  0.00  0.00    -0.071 C 
ATOM    145  H67 VAL d   1     -15.716  81.409 233.738  0.00  0.00     0.028 H 
ATOM    146  H68 VAL d   1     -15.712  81.959 232.028  0.00  0.00     0.028 H 
ATOM    147  H69 VAL d   1     -14.762  82.854 233.262  0.00  0.00     0.028 H 
ENDBRANCH 138 144
ENDBRANCH  96 138
ENDBRANCH  94  96
ENDBRANCH  90  92
BRANCH  90 148
ATOM    148  CB  GLN d   1     -11.527  75.930 232.665  0.00  0.00    -0.030 C 
ATOM    149  H55 GLN d   1     -10.599  75.401 232.402  0.00  0.00     0.037 H 
ATOM    150  H56 GLN d   1     -12.286  75.202 232.988  0.00  0.00     0.037 H 
BRANCH 148 151
ATOM    151  CG  GLN d   1     -11.235  76.871 233.826  0.00  0.00     0.011 C 
ATOM    152  H57 GLN d   1     -12.148  76.969 234.432  0.00  0.00     0.047 H 
ATOM    153  H58 GLN d   1     -10.960  77.854 233.416  0.00  0.00     0.047 H 
BRANCH 151 154
ATOM    154  CD  GLN d   1     -10.114  76.398 234.725  0.00  0.00     0.215 C 
ATOM    155  OE1 GLN d   1      -9.552  75.330 234.503  0.00  0.00    -0.274 OA
ATOM    156  NE2 GLN d   1      -9.753  77.207 235.724  0.00  0.00    -0.370 N 
ATOM    157  H59 GLN d   1      -9.017  76.937 236.345  0.00  0.00     0.159 HD
ATOM    158  H60 GLN d   1     -10.219  78.083 235.851  0.00  0.00     0.159 HD
ENDBRANCH 151 154
ENDBRANCH 148 151
ENDBRANCH  90 148
ENDBRANCH  88  90
ENDBRANCH   1  86
BRANCH   1 159
ATOM    159  CB  TRP d   1      -9.897  78.245 227.572  0.00  0.00    -0.012 C 
ATOM    160  H45 TRP d   1     -10.719  78.675 226.981  0.00  0.00     0.044 H 
ATOM    161  H46 TRP d   1      -9.993  77.149 227.592  0.00  0.00     0.044 H 
BRANCH 159 162
ATOM    162  CG  TRP d   1      -8.609  78.600 226.928  0.00  0.00    -0.028 A 
ATOM    163  CD1 TRP d   1      -8.285  79.789 226.351  0.00  0.00    -0.015 A 
ATOM    164  NE1 TRP d   1      -6.972  79.767 225.915  0.00  0.00    -0.365 N 
ATOM    165  H47 TRP d   1      -8.962  80.636 226.247  0.00  0.00     0.112 H 
ATOM    166  CE2 TRP d   1      -6.432  78.545 226.201  0.00  0.00     0.042 A 
ATOM    167  H48 TRP d   1      -6.482  80.545 225.451  0.00  0.00     0.165 HD
ATOM    168  CD2 TRP d   1      -7.429  77.783 226.842  0.00  0.00    -0.002 A 
ATOM    169  CZ2 TRP d   1      -5.165  78.054 225.956  0.00  0.00    -0.056 A 
ATOM    170  CE3 TRP d   1      -7.119  76.488 227.253  0.00  0.00    -0.070 A 
ATOM    171  CZ3 TRP d   1      -5.850  75.995 227.003  0.00  0.00    -0.082 A 
ATOM    172  H49 TRP d   1      -7.858  75.878 227.759  0.00  0.00     0.084 H 
ATOM    173  CH2 TRP d   1      -4.887  76.779 226.362  0.00  0.00    -0.081 A 
ATOM    174  H51 TRP d   1      -5.599  74.986 227.309  0.00  0.00     0.083 H 
ATOM    175  H52 TRP d   1      -3.900  76.368 226.183  0.00  0.00     0.083 H 
ATOM    176  H50 TRP d   1      -4.416  78.659 225.458  0.00  0.00     0.086 H 
ENDBRANCH 159 162
ENDBRANCH   1 159
TORSDOF 45
