REMARK  7 active torsions:
REMARK  status: ('A' for Active; 'I' for Inactive)
REMARK    1  A    between atoms: C_28  and  C1_1 
REMARK    2  A    between atoms: C17_10  and  C18_9 
REMARK    3  A    between atoms: C17_10  and  C19_11 
REMARK    4  A    between atoms: N1_17  and  C17_10 
REMARK    5  A    between atoms: C19_11  and  C20_12 
REMARK    6  A    between atoms: C16_18  and  N1_17 
REMARK    7  A    between atoms: C15_19  and  C16_18 
REMARK       I    between atoms: N_27  and  C_28 
ROOT
ATOM      1  C7  3A7 d   1       3.549  17.109 -10.073  0.00  0.00     0.002 C 
ATOM      2  C15 3A7 d   1       1.868  15.234 -10.282  0.00  0.00     0.038 C 
ATOM      3  C14 3A7 d   1       3.023  14.274 -10.642  0.00  0.00    -0.041 C 
ATOM      4  C13 3A7 d   1       4.381  14.709 -10.141  0.00  0.00    -0.047 C 
ATOM      5  C12 3A7 d   1       5.454  13.800 -10.722  0.00  0.00    -0.061 C 
ATOM      6  C11 3A7 d   1       6.829  14.159 -10.188  0.00  0.00    -0.065 C 
ATOM      7  C10 3A7 d   1       7.147  15.640 -10.435  0.00  0.00    -0.065 C 
ATOM      8  C9  3A7 d   1       6.026  16.577  -9.977  0.00  0.00    -0.060 C 
ATOM      9  C8  3A7 d   1       4.653  16.153 -10.539  0.00  0.00    -0.035 C 
ATOM     10  N   3A7 d   1       2.244  16.644 -10.600  0.00  0.00    -0.341 N 
ATOM     11  C   3A7 d   1       1.430  17.384 -11.357  0.00  0.00     0.254 C 
ATOM     12  O   3A7 d   1       0.554  16.899 -12.050  0.00  0.00    -0.267 OA
ATOM     13  H5  3A7 d   1       3.757  18.122 -10.449  0.00  0.00     0.065 H 
ATOM     14  H6  3A7 d   1       3.517  17.125  -8.974  0.00  0.00     0.065 H 
ATOM     15  H18 3A7 d   1       0.983  14.949 -10.870  0.00  0.00     0.075 H 
ATOM     16  H19 3A7 d   1       3.072  14.191 -11.738  0.00  0.00     0.036 H 
ATOM     17  H20 3A7 d   1       2.797  13.288 -10.210  0.00  0.00     0.036 H 
ATOM     18  H21 3A7 d   1       4.400  14.632  -9.044  0.00  0.00     0.040 H 
ATOM     19  H22 3A7 d   1       5.457  13.903 -11.817  0.00  0.00     0.033 H 
ATOM     20  H23 3A7 d   1       5.226  12.758 -10.453  0.00  0.00     0.033 H 
ATOM     21  H24 3A7 d   1       7.584  13.540 -10.694  0.00  0.00     0.033 H 
ATOM     22  H25 3A7 d   1       6.858  13.961  -9.106  0.00  0.00     0.033 H 
ATOM     23  H26 3A7 d   1       7.310  15.789 -11.513  0.00  0.00     0.033 H 
ATOM     24  H27 3A7 d   1       8.065  15.898  -9.887  0.00  0.00     0.033 H 
ATOM     25  H28 3A7 d   1       6.252  17.597 -10.323  0.00  0.00     0.033 H 
ATOM     26  H29 3A7 d   1       5.979  16.564  -8.878  0.00  0.00     0.033 H 
ATOM     27  H30 3A7 d   1       4.697  16.203 -11.637  0.00  0.00     0.043 H 
ENDROOT
BRANCH   2  28
ATOM     28  C16 3A7 d   1       1.517  15.190  -8.807  0.00  0.00     0.101 C 
ATOM     29  H16 3A7 d   1       2.454  15.286  -8.239  0.00  0.00     0.079 H 
ATOM     30  H17 3A7 d   1       0.869  16.053  -8.593  0.00  0.00     0.079 H 
BRANCH  28  31
ATOM     31  N1  3A7 d   1       0.825  13.983  -8.325  0.00  0.00    -0.062 N 
ATOM     32  H14 3A7 d   1       0.562  13.415  -9.115  0.00  0.00     0.278 HD
ATOM     33  H15 3A7 d   1       1.448  13.461  -7.729  0.00  0.00     0.278 HD
BRANCH  31  34
ATOM     34  C17 3A7 d   1      -0.410  14.351  -7.548  0.00  0.00     0.156 C 
ATOM     35  H8  3A7 d   1      -1.102  14.848  -8.244  0.00  0.00     0.096 H 
BRANCH  34  36
ATOM     36  C18 3A7 d   1      -0.198  15.336  -6.365  0.00  0.00     0.118 C 
ATOM     37  O1  3A7 d   1      -1.014  15.485  -5.438  0.00  0.00    -0.305 OA
ATOM     38  H7  3A7 d   1       0.715  15.929  -6.346  0.00  0.00     0.146 H 
ENDBRANCH  34  36
BRANCH  34  39
ATOM     39  C19 3A7 d   1      -1.044  13.035  -7.102  0.00  0.00     0.009 C 
ATOM     40  H9  3A7 d   1      -1.523  13.207  -6.127  0.00  0.00     0.046 H 
ATOM     41  H10 3A7 d   1      -0.237  12.296  -6.989  0.00  0.00     0.046 H 
BRANCH  39  42
ATOM     42  C20 3A7 d   1      -2.092  12.439  -8.035  0.00  0.00     0.053 A 
ATOM     43  N3  3A7 d   1      -2.576  11.188  -7.904  0.00  0.00    -0.247 NA
ATOM     44  C22 3A7 d   1      -3.533  10.982  -8.823  0.00  0.00     0.064 A 
ATOM     45  N2  3A7 d   1      -3.639  12.103  -9.577  0.00  0.00    -0.359 N 
ATOM     46  H11 3A7 d   1      -4.121  10.073  -8.942  0.00  0.00     0.143 H 
ATOM     47  C21 3A7 d   1      -2.764  13.025  -9.111  0.00  0.00     0.002 A 
ATOM     48  H12 3A7 d   1      -4.279  12.232 -10.373  0.00  0.00     0.166 HD
ATOM     49  H13 3A7 d   1      -2.613  14.031  -9.500  0.00  0.00     0.114 H 
ENDBRANCH  39  42
ENDBRANCH  34  39
ENDBRANCH  31  34
ENDBRANCH  28  31
ENDBRANCH   2  28
BRANCH  11  50
ATOM     50  C1  3A7 d   1       1.627  18.858 -11.462  0.00  0.00     0.032 A 
ATOM     51  C2  3A7 d   1       1.845  19.387 -12.742  0.00  0.00    -0.066 A 
ATOM     52  C3  3A7 d   1       2.039  20.754 -12.901  0.00  0.00    -0.065 A 
ATOM     53  H1  3A7 d   1       1.862  18.732 -13.605  0.00  0.00     0.085 H 
ATOM     54  C4  3A7 d   1       2.027  21.595 -11.777  0.00  0.00     0.011 A 
ATOM     55  H2  3A7 d   1       2.199  21.169 -13.889  0.00  0.00     0.085 H 
ATOM     56  C5  3A7 d   1       1.816  21.051 -10.493  0.00  0.00    -0.065 A 
ATOM     57 BR   3A7 d   1       2.299  23.469 -12.019  0.00  0.00    -0.051 Br
ATOM     58  C6  3A7 d   1       1.618  19.678 -10.335  0.00  0.00    -0.066 A 
ATOM     59  H3  3A7 d   1       1.808  21.701  -9.626  0.00  0.00     0.085 H 
ATOM     60  H4  3A7 d   1       1.460  19.256  -9.349  0.00  0.00     0.085 H 
ENDBRANCH  11  50
TORSDOF 7
