REMARK  8 active torsions:
REMARK  status: ('A' for Active; 'I' for Inactive)
REMARK    1  A    between atoms: C_28  and  C1_1 
REMARK    2  A    between atoms: C4_5  and  C5_6 
REMARK    3  A    between atoms: C23_9  and  C24_8 
REMARK    4  A    between atoms: C23_9  and  C25_10 
REMARK    5  A    between atoms: N1_16  and  C23_9 
REMARK    6  A    between atoms: C25_10  and  C26_11 
REMARK    7  A    between atoms: C22_17  and  N1_16 
REMARK    8  A    between atoms: C21_18  and  C22_17 
REMARK       I    between atoms: N_27  and  C_28 
ROOT
ATOM      1  C21 3BL d   1     -24.663 -41.866   2.872  0.00  0.00     0.038 C 
ATOM      2  C20 3BL d   1     -24.759 -41.223   4.247  0.00  0.00    -0.041 C 
ATOM      3  C19 3BL d   1     -25.281 -42.193   5.273  0.00  0.00    -0.047 C 
ATOM      4  C18 3BL d   1     -25.399 -41.545   6.624  0.00  0.00    -0.061 C 
ATOM      5  C17 3BL d   1     -26.004 -42.488   7.637  0.00  0.00    -0.065 C 
ATOM      6  C16 3BL d   1     -27.323 -43.098   7.180  0.00  0.00    -0.065 C 
ATOM      7  C15 3BL d   1     -27.184 -43.692   5.807  0.00  0.00    -0.060 C 
ATOM      8  C14 3BL d   1     -26.610 -42.713   4.815  0.00  0.00    -0.035 C 
ATOM      9  C13 3BL d   1     -26.352 -43.482   3.555  0.00  0.00     0.002 C 
ATOM     10  N   3BL d   1     -25.917 -42.539   2.571  0.00  0.00    -0.341 N 
ATOM     11  C   3BL d   1     -26.531 -42.309   1.448  0.00  0.00     0.254 C 
ATOM     12  O   3BL d   1     -26.290 -41.358   0.778  0.00  0.00    -0.267 OA
ATOM     13  H15 3BL d   1     -24.432 -41.097   2.120  0.00  0.00     0.075 H 
ATOM     14  H16 3BL d   1     -25.439 -40.360   4.192  0.00  0.00     0.036 H 
ATOM     15  H17 3BL d   1     -23.759 -40.882   4.553  0.00  0.00     0.036 H 
ATOM     16  H18 3BL d   1     -24.578 -43.035   5.353  0.00  0.00     0.040 H 
ATOM     17  H19 3BL d   1     -26.038 -40.654   6.539  0.00  0.00     0.033 H 
ATOM     18  H20 3BL d   1     -24.397 -41.247   6.966  0.00  0.00     0.033 H 
ATOM     19  H21 3BL d   1     -26.181 -41.932   8.569  0.00  0.00     0.033 H 
ATOM     20  H22 3BL d   1     -25.290 -43.303   7.826  0.00  0.00     0.033 H 
ATOM     21  H23 3BL d   1     -28.095 -42.315   7.158  0.00  0.00     0.033 H 
ATOM     22  H24 3BL d   1     -27.620 -43.887   7.887  0.00  0.00     0.033 H 
ATOM     23  H25 3BL d   1     -28.177 -44.009   5.457  0.00  0.00     0.033 H 
ATOM     24  H26 3BL d   1     -26.520 -44.567   5.866  0.00  0.00     0.033 H 
ATOM     25  H27 3BL d   1     -27.311 -41.883   4.644  0.00  0.00     0.043 H 
ATOM     26  H28 3BL d   1     -27.274 -43.979   3.220  0.00  0.00     0.065 H 
ATOM     27  H29 3BL d   1     -25.570 -44.237   3.726  0.00  0.00     0.065 H 
ENDROOT
BRANCH   1  28
ATOM     28  C22 3BL d   1     -23.633 -42.984   2.829  0.00  0.00     0.101 C 
ATOM     29  H13 3BL d   1     -23.771 -43.645   3.697  0.00  0.00     0.079 H 
ATOM     30  H14 3BL d   1     -23.758 -43.564   1.903  0.00  0.00     0.079 H 
BRANCH  28  31
ATOM     31  N1  3BL d   1     -22.287 -42.400   2.865  0.00  0.00    -0.062 N 
ATOM     32  H11 3BL d   1     -22.369 -41.403   2.746  0.00  0.00     0.278 HD
ATOM     33  H12 3BL d   1     -21.878 -42.598   3.765  0.00  0.00     0.278 HD
BRANCH  31  34
ATOM     34  C23 3BL d   1     -21.389 -42.920   1.821  0.00  0.00     0.156 C 
ATOM     35  H5  3BL d   1     -21.798 -42.706   0.823  0.00  0.00     0.096 H 
BRANCH  34  36
ATOM     36  C24 3BL d   1     -21.169 -44.405   2.000  0.00  0.00     0.118 C 
ATOM     37  O1  3BL d   1     -20.833 -45.094   1.062  0.00  0.00    -0.305 OA
ATOM     38  H4  3BL d   1     -21.314 -44.859   2.979  0.00  0.00     0.146 H 
ENDBRANCH  34  36
BRANCH  34  39
ATOM     39  C25 3BL d   1     -20.034 -42.266   2.013  0.00  0.00     0.009 C 
ATOM     40  H6  3BL d   1     -19.268 -43.008   1.743  0.00  0.00     0.046 H 
ATOM     41  H7  3BL d   1     -19.938 -42.012   3.079  0.00  0.00     0.046 H 
BRANCH  39  42
ATOM     42  C26 3BL d   1     -19.754 -41.034   1.235  0.00  0.00     0.053 A 
ATOM     43  N3  3BL d   1     -18.694 -40.266   1.417  0.00  0.00    -0.247 NA
ATOM     44  C28 3BL d   1     -18.744 -39.273   0.551  0.00  0.00     0.064 A 
ATOM     45  N2  3BL d   1     -19.839 -39.395  -0.174  0.00  0.00    -0.359 N 
ATOM     46  H8  3BL d   1     -18.003 -38.482   0.451  0.00  0.00     0.143 H 
ATOM     47  C27 3BL d   1     -20.483 -40.486   0.224  0.00  0.00     0.002 A 
ATOM     48  H9  3BL d   1     -20.143 -38.754  -0.921  0.00  0.00     0.166 HD
ATOM     49  H10 3BL d   1     -21.418 -40.870  -0.182  0.00  0.00     0.114 H 
ENDBRANCH  39  42
ENDBRANCH  34  39
ENDBRANCH  31  34
ENDBRANCH  28  31
ENDBRANCH   1  28
BRANCH  11  50
ATOM     50  C1  3BL d   1     -27.537 -43.313   0.966  0.00  0.00     0.032 A 
ATOM     51  C2  3BL d   1     -27.339 -44.664   1.152  0.00  0.00    -0.067 A 
ATOM     52  C3  3BL d   1     -28.249 -45.593   0.696  0.00  0.00    -0.071 A 
ATOM     53  H1  3BL d   1     -26.448 -45.003   1.668  0.00  0.00     0.085 H 
ATOM     54  C4  3BL d   1     -29.366 -45.149   0.046  0.00  0.00    -0.026 A 
ATOM     55  H2  3BL d   1     -28.082 -46.653   0.850  0.00  0.00     0.084 H 
ATOM     56  C11 3BL d   1     -29.566 -43.817  -0.146  0.00  0.00    -0.071 A 
ATOM     57  C12 3BL d   1     -28.655 -42.892   0.312  0.00  0.00    -0.067 A 
ATOM     58  H31 3BL d   1     -30.455 -43.480  -0.667  0.00  0.00     0.084 H 
ATOM     59  H30 3BL d   1     -28.827 -41.834   0.153  0.00  0.00     0.085 H 
BRANCH  54  60
ATOM     60  C5  3BL d   1     -30.374 -46.072  -0.486  0.00  0.00    -0.026 A 
ATOM     61  C6  3BL d   1     -31.033 -45.696  -1.628  0.00  0.00    -0.072 A 
ATOM     62  C7  3BL d   1     -31.980 -46.516  -2.172  0.00  0.00    -0.082 A 
ATOM     63  H3  3BL d   1     -30.802 -44.748  -2.099  0.00  0.00     0.084 H 
ATOM     64  C8  3BL d   1     -32.258 -47.716  -1.574  0.00  0.00    -0.083 A 
ATOM     65  H35 3BL d   1     -32.508 -46.219  -3.071  0.00  0.00     0.083 H 
ATOM     66  C9  3BL d   1     -31.589 -48.096  -0.439  0.00  0.00    -0.082 A 
ATOM     67  H34 3BL d   1     -33.011 -48.369  -2.000  0.00  0.00     0.083 H 
ATOM     68  C10 3BL d   1     -30.638 -47.269   0.113  0.00  0.00    -0.072 A 
ATOM     69  H33 3BL d   1     -31.810 -49.051   0.025  0.00  0.00     0.083 H 
ATOM     70  H32 3BL d   1     -30.106 -47.564   1.010  0.00  0.00     0.084 H 
ENDBRANCH  54  60
ENDBRANCH  11  50
TORSDOF 8
