REMARK  4 active torsions:
REMARK  status: ('A' for Active; 'I' for Inactive)
REMARK    1  A    between atoms: CAA_1  and  CAB_2 
REMARK    2  A    between atoms: CAI_11  and  CAL_12 
REMARK    3  A    between atoms: CAO_17  and  OAR_18 
REMARK    4  A    between atoms: OAR_18  and  CAS_19 
ROOT
ATOM      1  CAB 38B d   1      15.344  39.813  75.155  0.00  0.00     0.105 A 
ATOM      2  NAC 38B d   1      15.480  39.349  73.900  0.00  0.00    -0.209 NA
ATOM      3  NAF 38B d   1      15.054  38.965  76.230  0.00  0.00    -0.311 N 
ATOM      4  CAG 38B d   1      14.824  37.569  76.071  0.00  0.00     0.264 A 
ATOM      5  OAK 38B d   1      14.592  36.824  77.052  0.00  0.00    -0.267 OA
ATOM      6  CAH 38B d   1      14.927  37.086  74.749  0.00  0.00     0.119 A 
ATOM      7  CAD 38B d   1      15.253  38.023  73.701  0.00  0.00     0.214 A 
ATOM      8  OAE 38B d   1      15.257  37.346  72.556  0.00  0.00    -0.192 OA
ATOM      9  NAJ 38B d   1      14.970  35.928  72.840  0.00  0.00    -0.124 NA
ATOM     10  CAI 38B d   1      14.792  35.792  74.163  0.00  0.00     0.117 A 
ATOM     11  H   38B d   1      15.006  39.356  77.149  0.00  0.00     0.170 HD
ENDROOT
BRANCH  10  12
ATOM     12  CAL 38B d   1      14.467  34.635  74.847  0.00  0.00     0.029 A 
ATOM     13  CAM 38B d   1      15.342  34.199  75.853  0.00  0.00    -0.068 A 
ATOM     14  CAN 38B d   1      15.037  33.054  76.579  0.00  0.00    -0.082 A 
ATOM     15  H   38B d   1      16.250  34.752  76.063  0.00  0.00     0.085 H 
ATOM     16  CAQ 38B d   1      13.860  32.355  76.315  0.00  0.00    -0.080 A 
ATOM     17  H   38B d   1      15.714  32.705  77.350  0.00  0.00     0.083 H 
ATOM     18  CAP 38B d   1      12.972  32.773  75.303  0.00  0.00    -0.050 A 
ATOM     19  H   38B d   1      13.623  31.473  76.899  0.00  0.00     0.083 H 
ATOM     20  CAO 38B d   1      13.267  33.925  74.560  0.00  0.00     0.080 A 
ATOM     21  H   38B d   1      12.069  32.209  75.101  0.00  0.00     0.087 H 
BRANCH  20  22
ATOM     22  OAR 38B d   1      12.381  34.350  73.594  0.00  0.00    -0.355 OA
BRANCH  22  23
ATOM     23  CAS 38B d   1      10.945  34.092  73.838  0.00  0.00     0.010 C 
ATOM     24  H   38B d   1      10.354  34.480  72.995  0.00  0.00     0.066 H 
ATOM     25  H   38B d   1      10.634  34.596  74.765  0.00  0.00     0.066 H 
ATOM     26  H   38B d   1      10.778  33.009  73.935  0.00  0.00     0.066 H 
ENDBRANCH  22  23
ENDBRANCH  20  22
ENDBRANCH  10  12
BRANCH   1  27
ATOM     27  CAA 38B d   1      15.611  41.298  75.435  0.00  0.00    -0.021 C 
ATOM     28  H   38B d   1      15.821  41.818  74.488  0.00  0.00     0.037 H 
ATOM     29  H   38B d   1      16.477  41.395  76.106  0.00  0.00     0.037 H 
ATOM     30  H   38B d   1      14.726  41.746  75.911  0.00  0.00     0.037 H 
ENDBRANCH   1  27
TORSDOF 4
