REMARK  13 active torsions:
REMARK  status: ('A' for Active; 'I' for Inactive)
REMARK    1  A    between atoms: CBF_1  and  OBE_2 
REMARK    2  A    between atoms: OBE_2  and  CAZ_3 
REMARK    3  A    between atoms: CBA_5  and  OBD_6 
REMARK    4  A    between atoms: CAX_9  and  CAV_10 
REMARK    5  A    between atoms: CAG_18  and  CAB_19 
REMARK    6  A    between atoms: CAF_24  and  CAH_25 
REMARK    7  A    between atoms: CAH_25  and  OAI_26 
REMARK    8  A    between atoms: CAH_25  and  NAJ_27 
REMARK    9  A    between atoms: NAJ_27  and  CAK_28 
REMARK   10  A    between atoms: CAK_28  and  CAL_29 
REMARK   11  A    between atoms: CAL_29  and  NAM_30 
REMARK   12  A    between atoms: NAM_30  and  CAO_31 
REMARK   13  A    between atoms: NAM_30  and  CAN_32 
ROOT
ATOM      1  CAB 38G d   1      58.948  87.565  14.823  0.00  0.00    -0.005 A 
ATOM      2  CAA 38G d   1      60.049  87.728  15.677  0.00  0.00    -0.060 A 
ATOM      3  CAC 38G d   1      58.088  86.497  15.076  0.00  0.00    -0.071 A 
ATOM      4  CAD 38G d   1      58.337  85.617  16.138  0.00  0.00    -0.081 A 
ATOM      5  CAE 38G d   1      59.445  85.791  16.966  0.00  0.00    -0.073 A 
ATOM      6  CAF 38G d   1      60.298  86.867  16.742  0.00  0.00    -0.002 A 
ATOM      7  H   38G d   1      60.730  88.553  15.501  0.00  0.00     0.086 H 
ATOM      8  H   38G d   1      57.219  86.346  14.446  0.00  0.00     0.084 H 
ATOM      9  H   38G d   1      57.659  84.790  16.318  0.00  0.00     0.083 H 
ATOM     10  H   38G d   1      59.640  85.096  17.775  0.00  0.00     0.084 H 
ENDROOT
BRANCH   1  11
ATOM     11  CAG 38G d   1      58.693  88.406  13.792  0.00  0.00     0.086 A 
ATOM     12  NAS 38G d   1      59.430  89.451  13.398  0.00  0.00    -0.215 N 
ATOM     13  NAW 38G d   1      60.528  89.891  13.898  0.00  0.00    -0.165 NA
ATOM     14  CAR 38G d   1      58.796  90.002  12.344  0.00  0.00     0.129 A 
ATOM     15  CAV 38G d   1      61.170  90.904  13.310  0.00  0.00     0.088 C 
ATOM     16  CAU 38G d   1      60.533  91.562  12.258  0.00  0.00    -0.049 C 
ATOM     17  CAT 38G d   1      59.333  91.063  11.755  0.00  0.00    -0.036 C 
ATOM     18  H   38G d   1      60.970  92.459  11.833  0.00  0.00     0.087 H 
ATOM     19  H   38G d   1      58.850  91.530  10.904  0.00  0.00     0.089 H 
ATOM     20  NAQ 38G d   1      57.670  89.324  12.098  0.00  0.00    -0.348 N 
ATOM     21  CAP 38G d   1      57.610  88.326  13.000  0.00  0.00     0.007 A 
ATOM     22  H1  38G d   1      56.981  89.526  11.360  0.00  0.00     0.167 HD
ATOM     23  H   38G d   1      56.819  87.581  13.075  0.00  0.00     0.115 H 
BRANCH  15  24
ATOM     24  CAX 38G d   1      62.318  91.480  13.854  0.00  0.00    -0.003 A 
ATOM     25  CAY 38G d   1      62.758  91.077  15.110  0.00  0.00    -0.036 A 
ATOM     26  CAZ 38G d   1      63.889  91.698  15.635  0.00  0.00     0.102 A 
ATOM     27  H   38G d   1      62.237  90.304  15.663  0.00  0.00     0.089 H 
ATOM     28  CBA 38G d   1      64.563  92.689  14.910  0.00  0.00     0.099 A 
ATOM     29  CBB 38G d   1      64.149  93.083  13.640  0.00  0.00    -0.047 A 
ATOM     30  CBC 38G d   1      63.019  92.454  13.128  0.00  0.00    -0.068 A 
ATOM     31  H   38G d   1      64.681  93.842  13.078  0.00  0.00     0.087 H 
ATOM     32  H   38G d   1      62.670  92.725  12.138  0.00  0.00     0.085 H 
BRANCH  26  33
ATOM     33  OBE 38G d   1      64.403  91.385  16.866  0.00  0.00    -0.353 OA
BRANCH  33  34
ATOM     34  CBF 38G d   1      63.686  90.367  17.566  0.00  0.00     0.010 C 
ATOM     35  H   38G d   1      64.167  90.182  18.538  0.00  0.00     0.066 H 
ATOM     36  H   38G d   1      63.691  89.441  16.973  0.00  0.00     0.066 H 
ATOM     37  H   38G d   1      62.648  90.694  17.727  0.00  0.00     0.066 H 
ENDBRANCH  33  34
ENDBRANCH  26  33
BRANCH  28  38
ATOM     38  OBD 38G d   1      65.664  93.223  15.493  0.00  0.00    -0.358 OA
ATOM     39  H   38G d   1      66.039  93.880  14.918  0.00  0.00     0.217 HD
ENDBRANCH  28  38
ENDBRANCH  15  24
ENDBRANCH   1  11
BRANCH   6  40
ATOM     40  CAH 38G d   1      61.448  87.047  17.527  0.00  0.00     0.216 C 
ATOM     41  H   38G d   1      62.316  87.087  16.853  0.00  0.00     0.137 H 
BRANCH  40  42
ATOM     42  OAI 38G d   1      61.397  88.278  18.261  0.00  0.00    -0.366 OA
ATOM     43  H   38G d   1      62.209  88.394  18.740  0.00  0.00     0.212 HD
ENDBRANCH  40  42
BRANCH  40  44
ATOM     44  NAJ 38G d   1      61.631  85.912  18.447  0.00  0.00    -0.043 N 
ATOM     45  H   38G d   1      61.565  85.053  17.923  0.00  0.00     0.280 HD
ATOM     46  H   38G d   1      60.904  85.937  19.144  0.00  0.00     0.280 HD
BRANCH  44  47
ATOM     47  CAK 38G d   1      62.938  85.959  19.121  0.00  0.00     0.107 C 
ATOM     48  H   38G d   1      63.027  85.106  19.810  0.00  0.00     0.078 H 
ATOM     49  H   38G d   1      63.027  86.898  19.686  0.00  0.00     0.078 H 
BRANCH  47  50
ATOM     50  CAL 38G d   1      64.057  85.886  18.063  0.00  0.00     0.105 C 
ATOM     51  H   38G d   1      63.978  86.758  17.397  0.00  0.00     0.078 H 
ATOM     52  H   38G d   1      63.935  84.964  17.476  0.00  0.00     0.078 H 
BRANCH  50  53
ATOM     53  NAM 38G d   1      65.388  85.882  18.692  0.00  0.00    -0.077 N 
ATOM     54  H   38G d   1      66.104  85.860  17.983  0.00  0.00     0.279 HD
BRANCH  53  55
ATOM     55  CAO 38G d   1      65.504  84.700  19.563  0.00  0.00     0.066 C 
ATOM     56  H   38G d   1      66.497  84.690  20.037  0.00  0.00     0.068 H 
ATOM     57  H   38G d   1      65.375  83.788  18.962  0.00  0.00     0.068 H 
ATOM     58  H   38G d   1      64.727  84.740  20.340  0.00  0.00     0.068 H 
ENDBRANCH  53  55
BRANCH  53  59
ATOM     59  CAN 38G d   1      65.534  87.090  19.519  0.00  0.00     0.066 C 
ATOM     60  H   38G d   1      65.450  87.983  18.882  0.00  0.00     0.068 H 
ATOM     61  H   38G d   1      66.518  87.082  20.010  0.00  0.00     0.068 H 
ATOM     62  H   38G d   1      64.743  87.109  20.283  0.00  0.00     0.068 H 
ENDBRANCH  53  59
ENDBRANCH  50  53
ENDBRANCH  47  50
ENDBRANCH  44  47
ENDBRANCH  40  44
ENDBRANCH   6  40
TORSDOF 13
