REMARK  2 active torsions:
REMARK  status: ('A' for Active; 'I' for Inactive)
REMARK    1  A    between atoms: C05_5  and  C_10 
REMARK    2  A    between atoms: C07_9  and  O_7 
ROOT
ATOM      1  C05 3AQ d   1      -4.980 -23.240  20.941  0.00  0.00     0.038 C 
ATOM      2  C06 3AQ d   1      -5.317 -21.846  21.319  0.00  0.00     0.063 C 
ATOM      3  N   3AQ d   1      -5.472 -20.758  21.618  0.00  0.00    -0.197 NA
ATOM      4  H5  3AQ d   1      -5.851 -23.678  20.432  0.00  0.00     0.062 H 
ATOM      5  H6  3AQ d   1      -4.771 -23.804  21.862  0.00  0.00     0.062 H 
ENDROOT
BRANCH   1   6
ATOM      6  C   3AQ d   1      -3.782 -23.372  20.024  0.00  0.00    -0.045 A 
ATOM      7  C01 3AQ d   1      -2.726 -22.459  19.939  0.00  0.00    -0.073 A 
ATOM      8  C04 3AQ d   1      -1.670 -22.723  19.074  0.00  0.00    -0.051 A 
ATOM      9  H1  3AQ d   1      -2.731 -21.557  20.540  0.00  0.00     0.084 H 
ATOM     10  C07 3AQ d   1      -1.649 -23.889  18.278  0.00  0.00     0.065 A 
ATOM     11  H4  3AQ d   1      -0.847 -22.020  19.009  0.00  0.00     0.087 H 
ATOM     12  C02 3AQ d   1      -2.697 -24.791  18.365  0.00  0.00    -0.051 A 
ATOM     13  C03 3AQ d   1      -3.744 -24.530  19.239  0.00  0.00    -0.073 A 
ATOM     14  H2  3AQ d   1      -2.700 -25.689  17.758  0.00  0.00     0.087 H 
ATOM     15  H3  3AQ d   1      -4.556 -25.244  19.316  0.00  0.00     0.084 H 
BRANCH  10  16
ATOM     16  O   3AQ d   1      -0.622 -24.192  17.391  0.00  0.00    -0.361 OA
ATOM     17  H7  3AQ d   1      -0.809 -25.018  16.962  0.00  0.00     0.217 HD
ENDBRANCH  10  16
ENDBRANCH   1   6
TORSDOF 2
