REMARK  8 active torsions:
REMARK  status: ('A' for Active; 'I' for Inactive)
REMARK    1  A    between atoms: C01_1  and  C02_2 
REMARK    2  A    between atoms: C02_2  and  C03_3 
REMARK    3  A    between atoms: C02_2  and  C04_4 
REMARK    4  A    between atoms: C02_2  and  N05_5 
REMARK    5  A    between atoms: N05_5  and  C06_6 
REMARK    6  A    between atoms: C09_9  and  C11_11 
REMARK    7  A    between atoms: C17_17  and  C18_18 
REMARK    8  A    between atoms: C22_22  and  C24_24 
ROOT
ATOM      1  C11 38W d   1     -21.291  34.096  -0.770  0.00  0.00     0.020 A 
ATOM      2  C12 38W d   1     -21.408  34.521  -2.109  0.00  0.00    -0.067 A 
ATOM      3  C13 38W d   1     -21.830  35.811  -2.399  0.00  0.00    -0.055 A 
ATOM      4  C14 38W d   1     -22.128  36.706  -1.331  0.00  0.00     0.043 A 
ATOM      5  N15 38W d   1     -22.558  38.018  -1.369  0.00  0.00    -0.364 N 
ATOM      6  C16 38W d   1     -22.727  38.460  -0.091  0.00  0.00    -0.008 A 
ATOM      7  C17 38W d   1     -22.376  37.444   0.810  0.00  0.00     0.040 A 
ATOM      8  C27 38W d   1     -22.011  36.312  -0.006  0.00  0.00     0.007 A 
ATOM      9  C28 38W d   1     -21.570  34.980   0.282  0.00  0.00    -0.056 A 
ATOM     10  H11 38W d   1     -21.167  33.838  -2.915  0.00  0.00     0.085 H 
ATOM     11  H12 38W d   1     -21.932  36.135  -3.429  0.00  0.00     0.087 H 
ATOM     12  H13 38W d   1     -22.724  38.571  -2.222  0.00  0.00     0.165 HD
ATOM     13  H14 38W d   1     -23.081  39.451   0.188  0.00  0.00     0.112 H 
ATOM     14  H22 38W d   1     -21.452  34.656   1.310  0.00  0.00     0.086 H 
ENDROOT
BRANCH   1  15
ATOM     15  C09 38W d   1     -20.845  32.798  -0.508  0.00  0.00     0.204 A 
ATOM     16  N08 38W d   1     -20.453  31.917  -1.451  0.00  0.00    -0.119 NA
ATOM     17  N07 38W d   1     -20.056  30.791  -0.821  0.00  0.00    -0.103 NA
ATOM     18  C06 38W d   1     -20.183  30.976   0.500  0.00  0.00     0.268 A 
ATOM     19  O10 38W d   1     -20.666  32.224   0.722  0.00  0.00    -0.255 OA
BRANCH  18  20
ATOM     20  N05 38W d   1     -19.854  30.000   1.478  0.00  0.00    -0.345 N 
ATOM     21  H10 38W d   1     -19.526  29.073   1.173  0.00  0.00     0.164 HD
BRANCH  20  22
ATOM     22  C02 38W d   1     -19.969  30.277   2.889  0.00  0.00     0.022 C 
BRANCH  22  23
ATOM     23  C01 38W d   1     -19.436  29.035   3.656  0.00  0.00    -0.054 C 
ATOM     24  H1  38W d   1     -19.510  29.213   4.739  0.00  0.00     0.030 H 
ATOM     25  H2  38W d   1     -18.385  28.859   3.384  0.00  0.00     0.030 H 
ATOM     26  H3  38W d   1     -20.036  28.153   3.388  0.00  0.00     0.030 H 
ENDBRANCH  22  23
BRANCH  22  27
ATOM     27  C03 38W d   1     -21.451  30.539   3.210  0.00  0.00    -0.054 C 
ATOM     28  H4  38W d   1     -21.796  31.422   2.653  0.00  0.00     0.030 H 
ATOM     29  H5  38W d   1     -21.566  30.718   4.289  0.00  0.00     0.030 H 
ATOM     30  H6  38W d   1     -22.050  29.664   2.918  0.00  0.00     0.030 H 
ENDBRANCH  22  27
BRANCH  22  31
ATOM     31  C04 38W d   1     -19.140  31.510   3.284  0.00  0.00    -0.054 C 
ATOM     32  H7  38W d   1     -18.079  31.327   3.056  0.00  0.00     0.030 H 
ATOM     33  H8  38W d   1     -19.256  31.700   4.361  0.00  0.00     0.030 H 
ATOM     34  H9  38W d   1     -19.491  32.385   2.717  0.00  0.00     0.030 H 
ENDBRANCH  22  31
ENDBRANCH  20  22
ENDBRANCH  18  20
ENDBRANCH   1  15
BRANCH   7  35
ATOM     35  C18 38W d   1     -22.489  37.524   2.205  0.00  0.00     0.161 A 
ATOM     36  N19 38W d   1     -22.988  38.645   2.817  0.00  0.00    -0.241 NA
ATOM     37  C20 38W d   1     -23.156  38.701   4.177  0.00  0.00     0.006 A 
ATOM     38  C21 38W d   1     -22.862  37.572   4.952  0.00  0.00    -0.042 A 
ATOM     39  H15 38W d   1     -23.513  39.610   4.647  0.00  0.00     0.114 H 
ATOM     40  C22 38W d   1     -22.387  36.425   4.293  0.00  0.00     0.042 A 
ATOM     41  H16 38W d   1     -22.997  37.583   6.027  0.00  0.00     0.088 H 
ATOM     42  N23 38W d   1     -22.226  36.429   2.947  0.00  0.00    -0.233 NA
BRANCH  40  43
ATOM     43  C24 38W d   1     -21.991  35.151   5.014  0.00  0.00    -0.012 A 
ATOM     44  C25 38W d   1     -22.415  33.693   4.962  0.00  0.00    -0.056 A 
ATOM     45  C26 38W d   1     -21.113  34.122   4.323  0.00  0.00    -0.056 A 
ATOM     46  H18 38W d   1     -23.263  33.389   4.331  0.00  0.00     0.034 H 
ATOM     47  H19 38W d   1     -22.403  33.084   5.878  0.00  0.00     0.034 H 
ATOM     48  H20 38W d   1     -20.155  33.825   4.775  0.00  0.00     0.034 H 
ATOM     49  H21 38W d   1     -21.015  34.130   3.227  0.00  0.00     0.034 H 
ATOM     50  H17 38W d   1     -21.702  35.488   6.021  0.00  0.00     0.049 H 
ENDBRANCH  40  43
ENDBRANCH   7  35
TORSDOF 8
