REMARK  1 active torsions:
REMARK  status: ('A' for Active; 'I' for Inactive)
REMARK    1  A    between atoms: C08_9  and  C01_1 
ROOT
ATOM      1  C02 3AV d   1       3.242 -24.681 -21.146  0.00  0.00     0.088 A 
ATOM      2  C03 3AV d   1       3.516 -24.983 -22.475  0.00  0.00    -0.049 A 
ATOM      3  C04 3AV d   1       1.648 -24.687 -19.399  0.00  0.00     0.220 A 
ATOM      4  C05 3AV d   1       3.942 -23.788 -19.020  0.00  0.00    -0.066 A 
ATOM      5  C06 3AV d   1       5.476 -23.854 -20.944  0.00  0.00    -0.065 A 
ATOM      6  C07 3AV d   1       2.685 -24.071 -18.541  0.00  0.00    -0.023 A 
ATOM      7  O01 3AV d   1       1.967 -24.980 -20.689  0.00  0.00    -0.285 OA
ATOM      8  C08 3AV d   1       5.743 -24.171 -22.279  0.00  0.00    -0.061 A 
ATOM      9  C09 3AV d   1       4.229 -24.101 -20.355  0.00  0.00    -0.002 A 
ATOM     10  C   3AV d   1       4.752 -24.739 -23.048  0.00  0.00    -0.075 A 
ATOM     11  O   3AV d   1       0.393 -24.969 -18.963  0.00  0.00    -0.164 OA
ATOM     12  H4  3AV d   1       2.735 -25.425 -23.083  0.00  0.00     0.087 H 
ATOM     13  H5  3AV d   1       4.695 -23.332 -18.378  0.00  0.00     0.085 H 
ATOM     14  H6  3AV d   1       6.259 -23.403 -20.345  0.00  0.00     0.085 H 
ATOM     15  H7  3AV d   1       2.446 -23.836 -17.505  0.00  0.00     0.091 H 
ATOM     16  H8  3AV d   1       4.937 -24.991 -24.086  0.00  0.00     0.084 H 
ENDROOT
BRANCH   8  17
ATOM     17  C01 3AV d   1       7.068 -23.915 -22.915  0.00  0.00    -0.051 C 
ATOM     18  H1  3AV d   1       7.747 -23.462 -22.178  0.00  0.00     0.033 H 
ATOM     19  H2  3AV d   1       6.940 -23.229 -23.765  0.00  0.00     0.033 H 
ATOM     20  H3  3AV d   1       7.494 -24.865 -23.271  0.00  0.00     0.033 H 
ENDBRANCH   8  17
TORSDOF 1
