REMARK  2 active torsions:
REMARK  status: ('A' for Active; 'I' for Inactive)
REMARK    1  A    between atoms: C02_4  and  C04_6 
REMARK    2  A    between atoms: C_10  and  N_11 
ROOT
ATOM      1  C01 3B0 d   1      -3.980 -20.286 -36.949  0.00  0.00    -0.038 A 
ATOM      2  C02 3B0 d   1      -1.696 -19.639 -36.603  0.00  0.00     0.065 A 
ATOM      3  C03 3B0 d   1      -2.984 -19.814 -36.100  0.00  0.00    -0.063 A 
ATOM      4  C05 3B0 d   1      -1.440 -19.954 -37.938  0.00  0.00     0.019 A 
ATOM      5  N01 3B0 d   1      -2.386 -20.413 -38.779  0.00  0.00    -0.243 NA
ATOM      6  C   3B0 d   1      -3.624 -20.564 -38.267  0.00  0.00     0.120 A 
ATOM      7  H1  3B0 d   1      -4.995 -20.432 -36.598  0.00  0.00     0.089 H 
ATOM      8  H2  3B0 d   1      -3.206 -19.586 -35.064  0.00  0.00     0.085 H 
ATOM      9  H3  3B0 d   1      -0.432 -19.823 -38.316  0.00  0.00     0.116 H 
ENDROOT
BRANCH   2  10
ATOM     10  C04 3B0 d   1      -0.598 -19.135 -35.724  0.00  0.00     0.418 C 
ATOM     11  F01 3B0 d   1      -0.999 -18.082 -35.021  0.00  0.00    -0.166 F 
ATOM     12  F02 3B0 d   1       0.462 -18.858 -36.508  0.00  0.00    -0.166 F 
ATOM     13  F   3B0 d   1      -0.344 -20.055 -34.807  0.00  0.00    -0.166 F 
ENDBRANCH   2  10
BRANCH   6  14
ATOM     14  N   3B0 d   1      -4.636 -21.048 -39.149  0.00  0.00    -0.384 N 
ATOM     15  H4  3B0 d   1      -4.405 -21.263 -40.130  0.00  0.00     0.157 HD
ATOM     16  H5  3B0 d   1      -5.598 -21.183 -38.805  0.00  0.00     0.157 HD
ENDBRANCH   6  14
TORSDOF 2
