REMARK  2 active torsions:
REMARK  status: ('A' for Active; 'I' for Inactive)
REMARK    1  A    between atoms: C02_3  and  C03_7 
REMARK    2  A    between atoms: C05_9  and  C07_12 
ROOT
ATOM      1  C01 3AE d   1       0.437  21.014  42.882  0.00  0.00    -0.066 A 
ATOM      2  C02 3AE d   1       1.377  21.460  43.810  0.00  0.00     0.040 A 
ATOM      3  C04 3AE d   1       3.099  20.919  42.222  0.00  0.00    -0.067 A 
ATOM      4  C05 3AE d   1       2.153  20.469  41.292  0.00  0.00     0.048 A 
ATOM      5  C06 3AE d   1       2.731  21.415  43.481  0.00  0.00    -0.066 A 
ATOM      6  C   3AE d   1       0.819  20.521  41.644  0.00  0.00    -0.067 A 
ATOM      7  H1  3AE d   1      -0.617  21.054  43.134  0.00  0.00     0.085 H 
ATOM      8  H2  3AE d   1       4.150  20.883  41.960  0.00  0.00     0.084 H 
ATOM      9  H3  3AE d   1       3.483  21.756  44.183  0.00  0.00     0.085 H 
ATOM     10  H4  3AE d   1       0.065  20.174  40.947  0.00  0.00     0.084 H 
ENDROOT
BRANCH   4  11
ATOM     11  C07 3AE d   1       2.514  19.944  39.924  0.00  0.00     0.417 C 
ATOM     12  F01 3AE d   1       2.838  20.942  39.113  0.00  0.00    -0.166 F 
ATOM     13  F02 3AE d   1       3.524  19.086  39.945  0.00  0.00    -0.166 F 
ATOM     14  F   3AE d   1       1.488  19.312  39.370  0.00  0.00    -0.166 F 
ENDBRANCH   4  11
BRANCH   2  15
ATOM     15  C03 3AE d   1       0.868  21.964  45.130  0.00  0.00     0.209 C 
ATOM     16  O01 3AE d   1      -0.230  21.577  45.606  0.00  0.00    -0.644 OA
ATOM     17  O   3AE d   1       1.527  22.804  45.775  0.00  0.00    -0.644 OA
ENDBRANCH   2  15
TORSDOF 2
