REMARK  2 active torsions:
REMARK  status: ('A' for Active; 'I' for Inactive)
REMARK    1  A    between atoms: C09_12  and  C04_6 
REMARK    2  A    between atoms: C09_12  and  N_8 
ROOT
ATOM      1  N01 3B1 d   1      -3.521 -20.228  20.420  0.00  0.00    -0.099 N 
ATOM      2  C08 3B1 d   1      -3.979 -21.328  20.203  0.00  0.00     0.018 C 
ATOM      3  C09 3B1 d   1      -4.672 -22.589  19.917  0.00  0.00     0.198 C 
ATOM      4  H12 3B1 d   1      -5.744 -22.385  19.777  0.00  0.00     0.114 H 
ENDROOT
BRANCH   3   5
ATOM      5  C04 3B1 d   1      -4.221 -23.346  18.657  0.00  0.00    -0.015 A 
ATOM      6  C01 3B1 d   1      -4.306 -24.749  18.545  0.00  0.00    -0.074 A 
ATOM      7  C10 3B1 d   1      -3.924 -25.416  17.389  0.00  0.00    -0.082 A 
ATOM      8  H2  3B1 d   1      -4.680 -25.323  19.385  0.00  0.00     0.084 H 
ATOM      9  C02 3B1 d   1      -3.457 -24.659  16.295  0.00  0.00    -0.083 A 
ATOM     10  H1  3B1 d   1      -3.983 -26.497  17.329  0.00  0.00     0.083 H 
ATOM     11  C06 3B1 d   1      -3.388 -23.254  16.385  0.00  0.00    -0.082 A 
ATOM     12  H3  3B1 d   1      -3.151 -25.158  15.383  0.00  0.00     0.083 H 
ATOM     13  C11 3B1 d   1      -3.771 -22.592  17.548  0.00  0.00    -0.074 A 
ATOM     14  H9  3B1 d   1      -3.032 -22.681  15.537  0.00  0.00     0.083 H 
ATOM     15  H13 3B1 d   1      -3.725 -21.510  17.603  0.00  0.00     0.084 H 
ENDBRANCH   3   5
BRANCH   3  16
ATOM     16  N   3B1 d   1      -4.482 -23.271  21.191  0.00  0.00    -0.047 N 
ATOM     17  C05 3B1 d   1      -5.333 -22.761  22.252  0.00  0.00     0.105 C 
ATOM     18  C03 3B1 d   1      -6.623 -23.527  22.414  0.00  0.00     0.042 C 
ATOM     19  H6  3B1 d   1      -4.776 -22.813  23.199  0.00  0.00     0.079 H 
ATOM     20  H7  3B1 d   1      -5.577 -21.712  22.028  0.00  0.00     0.079 H 
ATOM     21  O   3B1 d   1      -6.480 -24.897  22.481  0.00  0.00    -0.388 OA
ATOM     22  H4  3B1 d   1      -7.270 -23.293  21.556  0.00  0.00     0.076 H 
ATOM     23  H5  3B1 d   1      -7.107 -23.188  23.342  0.00  0.00     0.076 H 
ATOM     24  C07 3B1 d   1      -5.682 -25.371  21.445  0.00  0.00     0.042 C 
ATOM     25  C   3B1 d   1      -4.325 -24.658  21.507  0.00  0.00     0.105 C 
ATOM     26  H10 3B1 d   1      -6.166 -25.163  20.479  0.00  0.00     0.076 H 
ATOM     27  H11 3B1 d   1      -5.536 -26.456  21.556  0.00  0.00     0.076 H 
ATOM     28  H14 3B1 d   1      -3.909 -24.755  22.521  0.00  0.00     0.079 H 
ATOM     29  H15 3B1 d   1      -3.638 -25.120  20.783  0.00  0.00     0.079 H 
ATOM     30  H8  3B1 d   1      -3.564 -22.924  21.420  0.00  0.00     0.282 HD
ENDBRANCH   3  16
TORSDOF 2
