REMARK  5 active torsions:
REMARK  status: ('A' for Active; 'I' for Inactive)
REMARK    1  A    between atoms: C21_2  and  C20_4 
REMARK    2  A    between atoms: C20_4  and  C12_5 
REMARK    3  A    between atoms: C20_4  and  N1_16 
REMARK    4  A    between atoms: C12_5  and  C13_6 
REMARK       I    between atoms: N1_16  and  C1_17 
REMARK    5  A    between atoms: C1_17  and  C2_19 
ROOT
ATOM      1  C20 39X d   1      14.886   1.520   0.808  0.00  0.00     0.103 C 
ATOM      2  H   39X d   1      14.943   1.299   1.884  0.00  0.00     0.090 H 
ENDROOT
BRANCH   1   3
ATOM      3  C21 39X d   1      15.271   0.261   0.019  0.00  0.00     0.197 C 
ATOM      4  O3  39X d   1      16.195  -0.442   0.493  0.00  0.00    -0.646 OA
ATOM      5  O2  39X d   1      14.649   0.045  -1.056  0.00  0.00    -0.646 OA
ENDBRANCH   1   3
BRANCH   1   6
ATOM      6  C12 39X d   1      15.907   2.612   0.472  0.00  0.00     0.018 C 
ATOM      7  H   39X d   1      15.977   2.685  -0.623  0.00  0.00     0.048 H 
ATOM      8  H   39X d   1      16.880   2.304   0.882  0.00  0.00     0.048 H 
BRANCH   6   9
ATOM      9  C13 39X d   1      15.595   3.963   1.002  0.00  0.00     0.107 A 
ATOM     10  N3  39X d   1      14.758   4.818   0.445  0.00  0.00    -0.233 NA
ATOM     11  C15 39X d   1      14.749   5.925   1.298  0.00  0.00     0.085 A 
ATOM     12  C19 39X d   1      14.016   7.112   1.248  0.00  0.00    -0.050 A 
ATOM     13  C14 39X d   1      15.624   5.695   2.359  0.00  0.00     0.065 A 
ATOM     14  C18 39X d   1      14.188   8.063   2.245  0.00  0.00    -0.043 A 
ATOM     15  H   39X d   1      13.318   7.290   0.438  0.00  0.00     0.087 H 
ATOM     16  C17 39X d   1      15.087   7.803   3.259  0.00  0.00     0.118 A 
ATOM     17  H   39X d   1      13.627   8.991   2.227  0.00  0.00     0.088 H 
ATOM     18  F1  39X d   1      15.217   8.715   4.262  0.00  0.00    -0.206 F 
ATOM     19  C16 39X d   1      15.823   6.639   3.352  0.00  0.00    -0.018 A 
ATOM     20  H   39X d   1      16.523   6.472   4.163  0.00  0.00     0.091 H 
ATOM     21  N2  39X d   1      16.124   4.425   2.154  0.00  0.00    -0.342 N 
ATOM     22  H   39X d   1      16.781   3.922   2.768  0.00  0.00     0.167 HD
ENDBRANCH   6   9
ENDBRANCH   1   6
BRANCH   1  23
ATOM     23  N1  39X d   1      13.522   1.939   0.501  0.00  0.00    -0.342 N 
ATOM     24  C1  39X d   1      12.739   2.501   1.434  0.00  0.00     0.252 C 
ATOM     25  O1  39X d   1      13.102   2.604   2.606  0.00  0.00    -0.268 OA
ATOM     26  H   39X d   1      13.164   1.804  -0.423  0.00  0.00     0.163 HD
BRANCH  24  27
ATOM     27  C2  39X d   1      11.434   3.085   0.975  0.00  0.00     0.032 A 
ATOM     28  C7  39X d   1      10.823   4.030   1.804  0.00  0.00    -0.067 A 
ATOM     29  C6  39X d   1       9.664   4.646   1.432  0.00  0.00    -0.071 A 
ATOM     30  H   39X d   1      11.277   4.277   2.757  0.00  0.00     0.085 H 
ATOM     31  C5  39X d   1       9.056   4.367   0.189  0.00  0.00    -0.026 A 
ATOM     32  H   39X d   1       9.202   5.362   2.102  0.00  0.00     0.084 H 
ATOM     33  C11 39X d   1       7.897   5.044  -0.266  0.00  0.00    -0.072 A 
ATOM     34  C4  39X d   1       9.656   3.402  -0.656  0.00  0.00    -0.025 A 
ATOM     35  C10 39X d   1       7.369   4.771  -1.491  0.00  0.00    -0.082 A 
ATOM     36  H   39X d   1       7.426   5.787   0.368  0.00  0.00     0.084 H 
ATOM     37  C9  39X d   1       7.950   3.822  -2.315  0.00  0.00    -0.082 A 
ATOM     38  H   39X d   1       6.485   5.302  -1.825  0.00  0.00     0.083 H 
ATOM     39  C8  39X d   1       9.067   3.144  -1.916  0.00  0.00    -0.072 A 
ATOM     40  H   39X d   1       7.514   3.615  -3.286  0.00  0.00     0.083 H 
ATOM     41  H   39X d   1       9.506   2.401  -2.572  0.00  0.00     0.084 H 
ATOM     42  C3  39X d   1      10.846   2.766  -0.229  0.00  0.00    -0.057 A 
ATOM     43  H   39X d   1      11.303   2.014  -0.861  0.00  0.00     0.086 H 
ENDBRANCH  24  27
ENDBRANCH   1  23
TORSDOF 5
