REMARK  3 active torsions:
REMARK  status: ('A' for Active; 'I' for Inactive)
REMARK    1  A    between atoms: C09_10  and  C13_1 
REMARK    2  A    between atoms: C05_6  and  N11_12 
REMARK    3  A    between atoms: C09_10  and  C14_14 
ROOT
ATOM      1  C01 39U d   1      24.622 -45.367 148.664  0.00  0.00     0.100 A 
ATOM      2  C02 39U d   1      25.070 -46.428 147.903  0.00  0.00     0.060 A 
ATOM      3  N03 39U d   1      24.074 -46.954 147.065  0.00  0.00    -0.228 NA
ATOM      4  S04 39U d   1      22.944 -45.004 148.353  0.00  0.00    -0.045 SA
ATOM      5  C05 39U d   1      22.913 -46.317 147.192  0.00  0.00     0.165 A 
ATOM      6  C06 39U d   1      25.270 -44.501 149.662  0.00  0.00     0.260 C 
ATOM      7  N07 39U d   1      26.276 -44.992 150.396  0.00  0.00    -0.356 N 
ATOM      8  C08 39U d   1      26.444 -47.051 147.859  0.00  0.00    -0.015 C 
ATOM      9  C09 39U d   1      27.488 -46.721 148.978  0.00  0.00    -0.026 C 
ATOM     10  O10 39U d   1      24.888 -43.344 149.828  0.00  0.00    -0.267 OA
ATOM     11  C12 39U d   1      26.863 -46.332 150.347  0.00  0.00     0.002 C 
ATOM     12  H   39U d   1      26.677 -44.364 151.062  0.00  0.00     0.162 HD
ATOM     13  H   39U d   1      26.898 -46.752 146.903  0.00  0.00     0.043 H 
ATOM     14  H   39U d   1      26.299 -48.141 147.871  0.00  0.00     0.043 H 
ATOM     15  H   39U d   1      26.073 -47.060 150.582  0.00  0.00     0.065 H 
ATOM     16  H   39U d   1      27.652 -46.388 151.111  0.00  0.00     0.065 H 
ENDROOT
BRANCH   9  17
ATOM     17  C13 39U d   1      28.412 -45.584 148.480  0.00  0.00    -0.068 C 
ATOM     18  H   39U d   1      28.851 -45.866 147.511  0.00  0.00     0.028 H 
ATOM     19  H   39U d   1      29.216 -45.418 149.212  0.00  0.00     0.028 H 
ATOM     20  H   39U d   1      27.826 -44.660 148.362  0.00  0.00     0.028 H 
ENDBRANCH   9  17
BRANCH   9  21
ATOM     21  C14 39U d   1      28.367 -47.967 149.215  0.00  0.00    -0.068 C 
ATOM     22  H   39U d   1      28.829 -48.275 148.266  0.00  0.00     0.028 H 
ATOM     23  H   39U d   1      27.744 -48.787 149.603  0.00  0.00     0.028 H 
ATOM     24  H   39U d   1      29.154 -47.727 149.945  0.00  0.00     0.028 H 
ENDBRANCH   9  21
BRANCH   5  25
ATOM     25  N11 39U d   1      21.780 -46.649 146.481  0.00  0.00    -0.378 N 
ATOM     26  H   39U d   1      21.804 -47.428 145.808  0.00  0.00     0.158 HD
ATOM     27  H   39U d   1      20.909 -46.118 146.623  0.00  0.00     0.158 HD
ENDBRANCH   5  25
TORSDOF 3
