REMARK WARNING: 32 MAX_TORS EXCEEDED!!!
REMARK  61 active torsions:
REMARK  status: ('A' for Active; 'I' for Inactive)
REMARK    1  A    between atoms: N_1  and  CA_2 
REMARK    2  A    between atoms: CA_2  and  C_3 
REMARK    3  A    between atoms: CA_2  and  CB_5 
REMARK       I    between atoms: C_3  and  N_6 
REMARK    4  A    between atoms: N_6  and  CA_7 
REMARK    5  A    between atoms: CA_7  and  C_8 
REMARK    6  A    between atoms: CA_7  and  CB_10 
REMARK       I    between atoms: C_8  and  N_17 
REMARK    7  A    between atoms: CB_10  and  CG_11 
REMARK    8  A    between atoms: CG_11  and  CD_12 
REMARK    9  A    between atoms: CD_12  and  NE_13 
REMARK       I    between atoms: NE_13  and  CZ_14 
REMARK       I    between atoms: CZ_14  and  NH1_15 
REMARK       I    between atoms: CZ_14  and  NH2_16 
REMARK   10  A    between atoms: N_17  and  CA_18 
REMARK   11  A    between atoms: CA_18  and  C_19 
REMARK   12  A    between atoms: CA_18  and  CB_21 
REMARK       I    between atoms: C_19  and  N_29 
REMARK   13  A    between atoms: CB_21  and  CG_22 
REMARK   14  A    between atoms: CZ_27  and  OH_28 
REMARK   15  A    between atoms: N_29  and  CA_30 
REMARK   16  A    between atoms: CA_30  and  C_31 
REMARK       I    between atoms: C_31  and  N_33 
REMARK   17  A    between atoms: N_33  and  CA_34 
REMARK   18  A    between atoms: CA_34  and  C_35 
REMARK   19  A    between atoms: CA_34  and  CB_37 
REMARK       I    between atoms: C_35  and  N_40 
REMARK   20  A    between atoms: CB_37  and  CG1_38 
REMARK   21  A    between atoms: CB_37  and  CG2_39 
REMARK   22  A    between atoms: N_40  and  CA_41 
REMARK   23  A    between atoms: CA_41  and  C_42 
REMARK   24  A    between atoms: CA_41  and  CB_44 
REMARK       I    between atoms: C_42  and  N_46 
REMARK   25  A    between atoms: CB_44  and  OG_45 
REMARK   26  A    between atoms: N_46  and  CA_47 
REMARK   27  A    between atoms: CA_47  and  C_48 
REMARK   28  A    between atoms: CA_47  and  CB_50 
REMARK       I    between atoms: C_48  and  N_54 
REMARK   29  A    between atoms: CB_50  and  CG_51 
REMARK       I    between atoms: CG_51  and  ND2_53 
REMARK   30  A    between atoms: N_54  and  CA_55 
REMARK   31  A    between atoms: CA_55  and  C_56 
REMARK   32  A    between atoms: CA_55  and  CB_58 
REMARK       I    between atoms: C_56  and  N_61 
REMARK   33  A    between atoms: CB_58  and  OG1_59 
REMARK   34  A    between atoms: CB_58  and  CG2_60 
REMARK   35  A    between atoms: N_61  and  CA_62 
REMARK   36  A    between atoms: CA_62  and  C_63 
REMARK   37  A    between atoms: CA_62  and  CB_65 
REMARK       I    between atoms: C_63  and  N_67 
REMARK   38  A    between atoms: CB_65  and  OG_66 
REMARK   39  A    between atoms: N_67  and  CA_68 
REMARK   40  A    between atoms: CA_68  and  C_69 
REMARK   41  A    between atoms: CA_68  and  CB_71 
REMARK       I    between atoms: C_69  and  N_75 
REMARK   42  A    between atoms: CB_71  and  CG1_72 
REMARK   43  A    between atoms: CB_71  and  CG2_73 
REMARK   44  A    between atoms: CG1_72  and  CD1_74 
REMARK   45  A    between atoms: N_75  and  CA_76 
REMARK   46  A    between atoms: CA_76  and  C_77 
REMARK   47  A    between atoms: CA_76  and  CB_79 
REMARK       I    between atoms: C_77  and  N_83 
REMARK   48  A    between atoms: CB_79  and  CG_80 
REMARK       I    between atoms: CG_80  and  ND2_82 
REMARK   49  A    between atoms: N_83  and  CA_84 
REMARK   50  A    between atoms: CA_84  and  C_85 
REMARK   51  A    between atoms: CA_84  and  CB_87 
REMARK       I    between atoms: C_85  and  N_94 
REMARK   52  A    between atoms: CB_87  and  CG_88 
REMARK   53  A    between atoms: CG_88  and  CD_89 
REMARK   54  A    between atoms: CD_89  and  NE_90 
REMARK       I    between atoms: NE_90  and  CZ_91 
REMARK       I    between atoms: CZ_91  and  NH1_92 
REMARK   55  A    between atoms: N_94  and  CA_95 
REMARK   56  A    between atoms: CA_95  and  C_96 
REMARK   57  A    between atoms: CA_95  and  CB_98 
REMARK   58  A    between atoms: CB_98  and  CG_99 
REMARK   59  A    between atoms: CG_99  and  CD_100 
REMARK   60  A    between atoms: CD_100  and  CE_101 
REMARK   61  A    between atoms: CE_101  and  NZ_102 
ROOT
ATOM      1  C   ASN d   1    -133.608  90.997 140.296  0.00  0.00     0.241 C 
ATOM      2  O   ASN d   1    -133.148  91.568 141.286  0.00  0.00    -0.271 OA
ATOM      3  N   THR d   1    -134.783  90.379 140.305  0.00  0.00    -0.344 N 
ATOM      4  H   THR d   1    -135.147  89.992 139.458  0.00  0.00     0.163 HD
ENDROOT
BRANCH   1   5
ATOM      5  CA  ASN d   1    -132.841  90.982 138.981  0.00  0.00     0.097 C 
ATOM      6  H   ASN d   1    -131.767  91.027 139.214  0.00  0.00     0.088 H 
BRANCH   5   7
ATOM      7  N   ASN d   1    -133.083  89.764 138.217  0.00  0.00    -0.345 N 
ATOM      8  C   SER d   1    -132.458  88.629 138.509  0.00  0.00     0.243 C 
ATOM      9  O   SER d   1    -131.656  88.526 139.437  0.00  0.00    -0.271 OA
ATOM     10  H   ASN d   1    -133.733  89.784 137.457  0.00  0.00     0.163 HD
BRANCH   8  11
ATOM     11  CA  SER d   1    -132.776  87.434 137.614  0.00  0.00     0.109 C 
ATOM     12  H   SER d   1    -133.125  87.814 136.643  0.00  0.00     0.090 H 
BRANCH  11  13
ATOM     13  N   SER d   1    -131.588  86.617 137.383  0.00  0.00    -0.344 N 
ATOM     14  C   VAL d   1    -130.489  87.127 136.832  0.00  0.00     0.241 C 
ATOM     15  O   VAL d   1    -130.398  88.305 136.484  0.00  0.00    -0.271 OA
ATOM     16  H   SER d   1    -131.600  85.652 137.645  0.00  0.00     0.163 HD
BRANCH  14  17
ATOM     17  CA  VAL d   1    -129.312  86.177 136.640  0.00  0.00     0.092 C 
ATOM     18  H   VAL d   1    -129.660  85.146 136.800  0.00  0.00     0.088 H 
BRANCH  17  19
ATOM     19  N   VAL d   1    -128.790  86.279 135.279  0.00  0.00    -0.346 N 
ATOM     20  C   GLY d   1    -128.810  85.251 134.438  0.00  0.00     0.236 C 
ATOM     21  O   GLY d   1    -129.253  84.146 134.745  0.00  0.00    -0.272 OA
ATOM     22  H   VAL d   1    -128.406  87.150 134.971  0.00  0.00     0.163 HD
BRANCH  20  23
ATOM     23  CA  GLY d   1    -128.242  85.500 133.053  0.00  0.00     0.069 C 
ATOM     24  H   GLY d   1    -129.067  85.507 132.325  0.00  0.00     0.078 H 
ATOM     25  H   GLY d   1    -127.737  86.477 133.045  0.00  0.00     0.078 H 
BRANCH  23  26
ATOM     26  N   GLY d   1    -127.288  84.474 132.673  0.00  0.00    -0.351 N 
ATOM     27  C   TYR d   1    -126.151  84.765 132.045  0.00  0.00     0.241 C 
ATOM     28  O   TYR d   1    -125.855  85.908 131.694  0.00  0.00    -0.271 OA
ATOM     29  H   GLY d   1    -127.491  83.519 132.890  0.00  0.00     0.163 HD
BRANCH  27  30
ATOM     30  CA  TYR d   1    -125.207  83.592 131.770  0.00  0.00     0.093 C 
ATOM     31  H   TYR d   1    -125.805  82.756 131.378  0.00  0.00     0.088 H 
BRANCH  30  32
ATOM     32  N   TYR d   1    -124.193  83.931 130.775  0.00  0.00    -0.346 N 
ATOM     33  C   ARG d   1    -123.975  83.173 129.703  0.00  0.00     0.241 C 
ATOM     34  O   ARG d   1    -124.634  82.164 129.450  0.00  0.00    -0.271 OA
ATOM     35  H   TYR d   1    -123.646  84.758 130.903  0.00  0.00     0.163 HD
BRANCH  33  36
ATOM     36  CA  ARG d   1    -122.848  83.630 128.775  0.00  0.00     0.089 C 
ATOM     37  H   ARG d   1    -122.244  84.372 129.318  0.00  0.00     0.087 H 
BRANCH  36  38
ATOM     38  N   ARG d   1    -121.964  82.533 128.386  0.00  0.00    -0.346 N 
ATOM     39  C   ALA d   1    -120.697  82.479 128.791  0.00  0.00     0.248 C 
ATOM     40  O   ALA d   1    -120.201  83.313 129.551  0.00  0.00    -0.271 OA
ATOM     41  H   ARG d   1    -122.320  81.805 127.801  0.00  0.00     0.163 HD
BRANCH  39  42
ATOM     42  CA  ALA d   1    -119.866  81.310 128.268  0.00  0.00     0.172 C 
ATOM     43  H   ALA d   1    -118.859  81.383 128.703  0.00  0.00     0.098 H 
BRANCH  42  44
ATOM     44  N   ALA d   1    -120.443  80.033 128.668  0.00  0.00    -0.067 N 
ATOM     45  H   ALA d   1    -119.875  79.281 128.310  0.00  0.00     0.275 HD
ATOM     46  H   ALA d   1    -121.377  79.955 128.297  0.00  0.00     0.275 HD
ATOM     47  H   ALA d   1    -120.476  79.980 129.674  0.00  0.00     0.275 HD
ENDBRANCH  42  44
BRANCH  42  48
ATOM     48  CB  ALA d   1    -119.739  81.384 126.750  0.00  0.00    -0.042 C 
ATOM     49  H   ALA d   1    -119.302  82.353 126.465  0.00  0.00     0.030 H 
ATOM     50  H   ALA d   1    -120.734  81.282 126.293  0.00  0.00     0.030 H 
ATOM     51  H   ALA d   1    -119.088  80.571 126.396  0.00  0.00     0.030 H 
ENDBRANCH  42  48
ENDBRANCH  39  42
ENDBRANCH  36  38
BRANCH  36  52
ATOM     52  CB  ARG d   1    -123.435  84.304 127.532  0.00  0.00    -0.036 C 
ATOM     53  H   ARG d   1    -124.061  83.570 127.004  0.00  0.00     0.036 H 
ATOM     54  H   ARG d   1    -122.604  84.613 126.881  0.00  0.00     0.036 H 
BRANCH  52  55
ATOM     55  CG  ARG d   1    -124.285  85.528 127.836  0.00  0.00    -0.048 C 
ATOM     56  H   ARG d   1    -123.750  86.168 128.554  0.00  0.00     0.035 H 
ATOM     57  H   ARG d   1    -125.240  85.203 128.275  0.00  0.00     0.035 H 
BRANCH  55  58
ATOM     58  CD  ARG d   1    -124.565  86.323 126.577  0.00  0.00     0.009 C 
ATOM     59  H   ARG d   1    -124.971  85.646 125.811  0.00  0.00     0.064 H 
ATOM     60  H   ARG d   1    -123.623  86.761 126.216  0.00  0.00     0.064 H 
BRANCH  58  61
ATOM     61  NE  ARG d   1    -125.524  87.396 126.814  0.00  0.00    -0.227 N 
ATOM     62  CZ  ARG d   1    -126.578  87.634 126.041  0.00  0.00     0.665 C 
ATOM     63  NH1 ARG d   1    -126.807  86.876 124.976  0.00  0.00    -0.235 N 
ATOM     64  NH2 ARG d   1    -127.402  88.630 126.330  0.00  0.00    -0.235 N 
ATOM     65  H   ARG d   1    -127.625  87.062 124.378  0.00  0.00     0.174 HD
ATOM     66  H   ARG d   1    -126.167  86.102 124.748  0.00  0.00     0.174 HD
ATOM     67  H   ARG d   1    -127.227  89.220 127.156  0.00  0.00     0.174 HD
ATOM     68  H   ARG d   1    -128.218  88.814 125.729  0.00  0.00     0.174 HD
ATOM     69  H   ARG d   1    -125.375  88.006 127.630  0.00  0.00     0.177 HD
ENDBRANCH  58  61
ENDBRANCH  55  58
ENDBRANCH  52  55
ENDBRANCH  36  52
ENDBRANCH  33  36
ENDBRANCH  30  32
BRANCH  30  70
ATOM     70  CB  TYR d   1    -124.538  83.143 133.072  0.00  0.00    -0.014 C 
ATOM     71  H   TYR d   1    -125.325  82.862 133.787  0.00  0.00     0.043 H 
ATOM     72  H   TYR d   1    -123.962  83.989 133.475  0.00  0.00     0.043 H 
BRANCH  70  73
ATOM     73  CG  TYR d   1    -123.602  81.964 132.907  0.00  0.00    -0.056 A 
ATOM     74  CD1 TYR d   1    -124.003  80.824 132.221  0.00  0.00    -0.074 A 
ATOM     75  CE1 TYR d   1    -123.152  79.745 132.064  0.00  0.00    -0.051 A 
ATOM     76  H   TYR d   1    -125.001  80.779 131.801  0.00  0.00     0.084 H 
ATOM     77  CZ  TYR d   1    -121.878  79.799 132.590  0.00  0.00     0.065 A 
ATOM     78  H   TYR d   1    -123.484  78.862 131.530  0.00  0.00     0.087 H 
ATOM     79  CE2 TYR d   1    -121.453  80.921 133.271  0.00  0.00    -0.051 A 
ATOM     80  CD2 TYR d   1    -122.313  81.996 133.425  0.00  0.00    -0.074 A 
ATOM     81  H   TYR d   1    -120.451  80.961 133.683  0.00  0.00     0.087 H 
ATOM     82  H   TYR d   1    -121.975  82.877 133.958  0.00  0.00     0.084 H 
BRANCH  77  83
ATOM     83  OH  TYR d   1    -121.030  78.726 132.433  0.00  0.00    -0.361 OA
ATOM     84  H   TYR d   1    -121.474  78.042 131.945  0.00  0.00     0.217 HD
ENDBRANCH  77  83
ENDBRANCH  70  73
ENDBRANCH  30  70
ENDBRANCH  27  30
ENDBRANCH  23  26
ENDBRANCH  20  23
ENDBRANCH  17  19
BRANCH  17  85
ATOM     85  CB  VAL d   1    -128.224  86.496 137.689  0.00  0.00    -0.033 C 
ATOM     86  H   VAL d   1    -127.821  87.496 137.473  0.00  0.00     0.042 H 
BRANCH  85  87
ATOM     87  CG1 VAL d   1    -128.814  86.515 139.087  0.00  0.00    -0.071 C 
ATOM     88  H   VAL d   1    -128.023  86.744 139.816  0.00  0.00     0.028 H 
ATOM     89  H   VAL d   1    -129.249  85.531 139.315  0.00  0.00     0.028 H 
ATOM     90  H   VAL d   1    -129.598  87.284 139.144  0.00  0.00     0.028 H 
ENDBRANCH  85  87
BRANCH  85  91
ATOM     91  CG2 VAL d   1    -127.085  85.495 137.599  0.00  0.00    -0.071 C 
ATOM     92  H   VAL d   1    -126.674  85.499 136.579  0.00  0.00     0.028 H 
ATOM     93  H   VAL d   1    -127.461  84.490 137.839  0.00  0.00     0.028 H 
ATOM     94  H   VAL d   1    -126.296  85.772 138.314  0.00  0.00     0.028 H 
ENDBRANCH  85  91
ENDBRANCH  17  85
ENDBRANCH  14  17
ENDBRANCH  11  13
BRANCH  11  95
ATOM     95  CB  SER d   1    -133.896  86.596 138.235  0.00  0.00     0.044 C 
ATOM     96  H   SER d   1    -134.127  85.753 137.566  0.00  0.00     0.077 H 
ATOM     97  H   SER d   1    -134.791  87.225 138.354  0.00  0.00     0.077 H 
BRANCH  95  98
ATOM     98  OG  SER d   1    -133.515  86.090 139.501  0.00  0.00    -0.398 OA
ATOM     99  H   SER d   1    -132.745  85.543 139.403  0.00  0.00     0.209 HD
ENDBRANCH  95  98
ENDBRANCH  11  95
ENDBRANCH   8  11
ENDBRANCH   5   7
BRANCH   5 100
ATOM    100  CB  ASN d   1    -133.204  92.214 138.150  0.00  0.00     0.036 C 
ATOM    101  H   ASN d   1    -132.355  92.460 137.495  0.00  0.00     0.051 H 
ATOM    102  H   ASN d   1    -133.396  93.055 138.833  0.00  0.00     0.051 H 
BRANCH 100 103
ATOM    103  CG  ASN d   1    -134.436  91.997 137.288  0.00  0.00     0.217 C 
ATOM    104  OD1 ASN d   1    -135.181  91.035 137.480  0.00  0.00    -0.274 OA
ATOM    105  ND2 ASN d   1    -134.654  92.892 136.330  0.00  0.00    -0.370 N 
ATOM    106  H   ASN d   1    -135.450  92.800 135.732  0.00  0.00     0.159 HD
ATOM    107  H   ASN d   1    -134.022  93.657 136.208  0.00  0.00     0.159 HD
ENDBRANCH 100 103
ENDBRANCH   5 100
ENDBRANCH   1   5
BRANCH   3 108
ATOM    108  CA  THR d   1    -135.543  90.261 141.538  0.00  0.00     0.113 C 
ATOM    109  H   THR d   1    -135.150  90.994 142.258  0.00  0.00     0.091 H 
BRANCH 108 110
ATOM    110  C   THR d   1    -135.335  88.863 142.112  0.00  0.00     0.243 C 
ATOM    111  O   THR d   1    -135.262  87.876 141.378  0.00  0.00    -0.271 OA
ATOM    112  N   SER d   1    -135.194  88.790 143.430  0.00  0.00    -0.344 N 
ATOM    113  H   SER d   1    -135.275  89.622 143.979  0.00  0.00     0.163 HD
BRANCH 112 114
ATOM    114  CA  SER d   1    -134.924  87.524 144.091  0.00  0.00     0.109 C 
ATOM    115  H   SER d   1    -135.168  86.709 143.394  0.00  0.00     0.090 H 
BRANCH 114 116
ATOM    116  C   SER d   1    -135.798  87.378 145.327  0.00  0.00     0.243 C 
ATOM    117  O   SER d   1    -136.453  88.327 145.751  0.00  0.00    -0.271 OA
ATOM    118  N   ILE d   1    -135.804  86.183 145.902  0.00  0.00    -0.346 N 
ATOM    119  H   ILE d   1    -135.198  85.469 145.551  0.00  0.00     0.163 HD
BRANCH 118 120
ATOM    120  CA  ILE d   1    -136.671  85.886 147.032  0.00  0.00     0.092 C 
ATOM    121  H   ILE d   1    -137.284  86.775 147.241  0.00  0.00     0.088 H 
BRANCH 120 122
ATOM    122  C   ILE d   1    -135.851  85.562 148.276  0.00  0.00     0.241 C 
ATOM    123  O   ILE d   1    -135.036  84.641 148.268  0.00  0.00    -0.271 OA
ATOM    124  N   ASN d   1    -136.060  86.327 149.343  0.00  0.00    -0.346 N 
ATOM    125  H   ASN d   1    -136.706  87.088 149.285  0.00  0.00     0.163 HD
BRANCH 124 126
ATOM    126  CA  ASN d   1    -135.360  86.072 150.599  0.00  0.00     0.097 C 
ATOM    127  H   ASN d   1    -134.673  85.229 150.431  0.00  0.00     0.088 H 
BRANCH 126 128
ATOM    128  C   ASN d   1    -136.298  85.691 151.739  0.00  0.00     0.241 C 
ATOM    129  O   ASN d   1    -137.417  86.195 151.834  0.00  0.00    -0.271 OA
ATOM    130  N   ARG d   1    -135.832  84.788 152.597  0.00  0.00    -0.346 N 
ATOM    131  H   ARG d   1    -135.004  84.278 152.365  0.00  0.00     0.163 HD
BRANCH 130 132
ATOM    132  CA  ARG d   1    -136.496  84.522 153.866  0.00  0.00     0.089 C 
ATOM    133  H   ARG d   1    -137.389  85.161 153.934  0.00  0.00     0.087 H 
BRANCH 132 134
ATOM    134  C   ARG d   1    -135.550  84.878 155.009  0.00  0.00     0.241 C 
ATOM    135  O   ARG d   1    -134.396  84.447 155.029  0.00  0.00    -0.271 OA
ATOM    136  N   LYS d   1    -136.043  85.675 155.952  0.00  0.00    -0.345 N 
ATOM    137  H   LYS d   1    -136.996  85.972 155.887  0.00  0.00     0.163 HD
BRANCH 136 138
ATOM    138  CA  LYS d   1    -135.236  86.129 157.079  0.00  0.00     0.096 C 
ATOM    139  H   LYS d   1    -134.202  85.793 156.915  0.00  0.00     0.089 H 
BRANCH 138 140
ATOM    140  C   LYS d   1    -135.722  85.542 158.399  0.00  0.00     0.196 C 
ATOM    141  O   LYS d   1    -136.924  85.386 158.614  0.00  0.00    -0.646 OA
ATOM    142  O1  LYS d   1    -134.884  85.213 159.280  0.00  0.00    -0.646 OA
ENDBRANCH 138 140
BRANCH 138 143
ATOM    143  CB  LYS d   1    -135.242  87.657 157.158  0.00  0.00    -0.037 C 
ATOM    144  H   LYS d   1    -135.177  87.947 158.217  0.00  0.00     0.036 H 
ATOM    145  H   LYS d   1    -136.191  88.020 156.736  0.00  0.00     0.036 H 
BRANCH 143 146
ATOM    146  CG  LYS d   1    -134.102  88.329 156.411  0.00  0.00    -0.061 C 
ATOM    147  H   LYS d   1    -134.201  88.113 155.337  0.00  0.00     0.033 H 
ATOM    148  H   LYS d   1    -133.147  87.927 156.779  0.00  0.00     0.033 H 
BRANCH 146 149
ATOM    149  CD  LYS d   1    -134.117  89.838 156.616  0.00  0.00    -0.043 C 
ATOM    150  H   LYS d   1    -133.086  90.217 156.559  0.00  0.00     0.035 H 
ATOM    151  H   LYS d   1    -134.535  90.060 157.609  0.00  0.00     0.035 H 
BRANCH 149 152
ATOM    152  CE  LYS d   1    -134.957  90.533 155.561  0.00  0.00     0.080 C 
ATOM    153  H   LYS d   1    -135.048  91.598 155.820  0.00  0.00     0.075 H 
ATOM    154  H   LYS d   1    -135.957  90.074 155.539  0.00  0.00     0.075 H 
BRANCH 152 155
ATOM    155  NZ  LYS d   1    -134.338  90.412 154.212  0.00  0.00    -0.079 N 
ATOM    156  H   LYS d   1    -134.917  90.882 153.534  0.00  0.00     0.274 HD
ATOM    157  H   LYS d   1    -134.256  89.438 153.966  0.00  0.00     0.274 HD
ATOM    158  H   LYS d   1    -133.423  90.834 154.223  0.00  0.00     0.274 HD
ENDBRANCH 152 155
ENDBRANCH 149 152
ENDBRANCH 146 149
ENDBRANCH 143 146
ENDBRANCH 138 143
ENDBRANCH 136 138
ENDBRANCH 132 134
BRANCH 132 159
ATOM    159  CB  ARG d   1    -136.942  83.061 153.975  0.00  0.00    -0.036 C 
ATOM    160  H   ARG d   1    -136.049  82.419 153.945  0.00  0.00     0.036 H 
ATOM    161  H   ARG d   1    -137.590  82.828 153.117  0.00  0.00     0.036 H 
BRANCH 159 162
ATOM    162  CG  ARG d   1    -137.711  82.764 155.259  0.00  0.00    -0.048 C 
ATOM    163  H   ARG d   1    -138.543  83.478 155.345  0.00  0.00     0.035 H 
ATOM    164  H   ARG d   1    -137.031  82.889 156.114  0.00  0.00     0.035 H 
BRANCH 162 165
ATOM    165  CD  ARG d   1    -138.277  81.350 155.288  0.00  0.00     0.009 C 
ATOM    166  H   ARG d   1    -138.904  81.238 156.185  0.00  0.00     0.064 H 
ATOM    167  H   ARG d   1    -137.442  80.635 155.333  0.00  0.00     0.064 H 
BRANCH 165 168
ATOM    168  NE  ARG d   1    -139.086  81.054 154.108  0.00  0.00    -0.227 N 
ATOM    169  CZ  ARG d   1    -140.327  81.494 153.918  0.00  0.00     0.665 C 
ATOM    170  NH1 ARG d   1    -140.912  82.265 154.826  0.00  0.00    -0.235 N 
ATOM    171  NH2 ARG d   1    -140.981  81.169 152.811  0.00  0.00    -0.235 N 
ATOM    172  H   ARG d   1    -141.873  82.602 154.673  0.00  0.00     0.174 HD
ATOM    173  H   ARG d   1    -140.405  82.526 155.684  0.00  0.00     0.174 HD
ATOM    174  H   ARG d   1    -140.531  80.571 152.104  0.00  0.00     0.174 HD
ATOM    175  H   ARG d   1    -141.939  81.515 152.659  0.00  0.00     0.174 HD
ATOM    176  H   ARG d   1    -138.667  80.465 153.374  0.00  0.00     0.177 HD
ENDBRANCH 165 168
ENDBRANCH 162 165
ENDBRANCH 159 162
ENDBRANCH 132 159
ENDBRANCH 130 132
ENDBRANCH 126 128
BRANCH 126 177
ATOM    177  CB  ASN d   1    -134.531  87.294 151.014  0.00  0.00     0.036 C 
ATOM    178  H   ASN d   1    -134.245  87.183 152.070  0.00  0.00     0.051 H 
ATOM    179  H   ASN d   1    -135.149  88.196 150.894  0.00  0.00     0.051 H 
BRANCH 177 180
ATOM    180  CG  ASN d   1    -133.269  87.456 150.183  0.00  0.00     0.217 C 
ATOM    181  OD1 ASN d   1    -133.206  88.292 149.279  0.00  0.00    -0.274 OA
ATOM    182  ND2 ASN d   1    -132.256  86.654 150.486  0.00  0.00    -0.370 N 
ATOM    183  H   ASN d   1    -131.400  86.715 149.973  0.00  0.00     0.159 HD
ATOM    184  H   ASN d   1    -132.349  85.989 151.227  0.00  0.00     0.159 HD
ENDBRANCH 177 180
ENDBRANCH 126 177
ENDBRANCH 124 126
ENDBRANCH 120 122
BRANCH 120 185
ATOM    185  CB  ILE d   1    -137.611  84.711 146.699  0.00  0.00    -0.030 C 
ATOM    186  H   ILE d   1    -136.994  83.845 146.418  0.00  0.00     0.043 H 
BRANCH 185 187
ATOM    187  CG1 ILE d   1    -138.502  85.073 145.506  0.00  0.00    -0.063 C 
ATOM    188  H   ILE d   1    -137.859  85.447 144.696  0.00  0.00     0.033 H 
ATOM    189  H   ILE d   1    -139.194  85.868 145.821  0.00  0.00     0.033 H 
BRANCH 187 190
ATOM    190  CD1 ILE d   1    -139.323  83.910 144.967  0.00  0.00    -0.076 C 
ATOM    191  H   ILE d   1    -139.931  84.253 144.117  0.00  0.00     0.027 H 
ATOM    192  H   ILE d   1    -139.983  83.529 145.760  0.00  0.00     0.027 H 
ATOM    193  H   ILE d   1    -138.648  83.108 144.635  0.00  0.00     0.027 H 
ENDBRANCH 187 190
ENDBRANCH 185 187
BRANCH 185 194
ATOM    194  CG2 ILE d   1    -138.446  84.322 147.908  0.00  0.00    -0.071 C 
ATOM    195  H   ILE d   1    -137.781  84.068 148.747  0.00  0.00     0.028 H 
ATOM    196  H   ILE d   1    -139.070  83.451 147.658  0.00  0.00     0.028 H 
ATOM    197  H   ILE d   1    -139.092  85.165 148.195  0.00  0.00     0.028 H 
ENDBRANCH 185 194
ENDBRANCH 120 185
ENDBRANCH 118 120
ENDBRANCH 114 116
BRANCH 114 198
ATOM    198  CB  SER d   1    -133.443  87.412 144.464  0.00  0.00     0.044 C 
ATOM    199  H   SER d   1    -132.832  87.697 143.595  0.00  0.00     0.077 H 
ATOM    200  H   SER d   1    -133.221  86.371 144.743  0.00  0.00     0.077 H 
BRANCH 198 201
ATOM    201  OG  SER d   1    -133.123  88.260 145.551  0.00  0.00    -0.398 OA
ATOM    202  H   SER d   1    -132.201  88.170 145.760  0.00  0.00     0.209 HD
ENDBRANCH 198 201
ENDBRANCH 114 198
ENDBRANCH 112 114
ENDBRANCH 108 110
BRANCH 108 203
ATOM    203  CB  THR d   1    -137.055  90.568 141.323  0.00  0.00     0.060 C 
ATOM    204  H   THR d   1    -137.140  91.498 140.741  0.00  0.00     0.086 H 
BRANCH 203 205
ATOM    205  OG1 THR d   1    -137.696  90.760 142.592  0.00  0.00    -0.393 OA
ATOM    206  H   THR d   1    -138.617  90.947 142.455  0.00  0.00     0.210 HD
ENDBRANCH 203 205
BRANCH 203 207
ATOM    207  CG2 THR d   1    -137.753  89.456 140.551  0.00  0.00    -0.050 C 
ATOM    208  H   THR d   1    -138.815  89.711 140.421  0.00  0.00     0.031 H 
ATOM    209  H   THR d   1    -137.668  88.512 141.110  0.00  0.00     0.031 H 
ATOM    210  H   THR d   1    -137.280  89.342 139.565  0.00  0.00     0.031 H 
ENDBRANCH 203 207
ENDBRANCH 108 203
ENDBRANCH   3 108
TORSDOF 61
