REMARK WARNING: 32 MAX_TORS EXCEEDED!!!
REMARK  39 active torsions:
REMARK  status: ('A' for Active; 'I' for Inactive)
REMARK    1  A    between atoms: N_1  and  CA_2 
REMARK    2  A    between atoms: CA_2  and  C_3 
REMARK    3  A    between atoms: CA_2  and  CB_5 
REMARK       I    between atoms: C_3  and  N_9 
REMARK    4  A    between atoms: CB_5  and  CG_6 
REMARK    5  A    between atoms: CG_6  and  SD_7 
REMARK    6  A    between atoms: SD_7  and  CE_8 
REMARK    7  A    between atoms: N_9  and  CA_10 
REMARK    8  A    between atoms: CA_10  and  C_11 
REMARK    9  A    between atoms: CA_10  and  CB_13 
REMARK       I    between atoms: C_11  and  N_20 
REMARK   10  A    between atoms: CB_13  and  CG_14 
REMARK   11  A    between atoms: CG_14  and  CD_15 
REMARK   12  A    between atoms: CD_15  and  NE_16 
REMARK       I    between atoms: NE_16  and  CZ_17 
REMARK       I    between atoms: CZ_17  and  NH1_18 
REMARK   13  A    between atoms: N_20  and  CA_21 
REMARK   14  A    between atoms: CA_21  and  C_22 
REMARK   15  A    between atoms: CA_21  and  CB_24 
REMARK       I    between atoms: C_22  and  N_32 
REMARK   16  A    between atoms: CB_24  and  CG_25 
REMARK   17  A    between atoms: CZ_30  and  OH_31 
REMARK   18  A    between atoms: N_32  and  CA_33 
REMARK   19  A    between atoms: CA_33  and  C_34 
REMARK       I    between atoms: C_34  and  N_36 
REMARK   20  A    between atoms: N_36  and  CA_37 
REMARK   21  A    between atoms: CA_37  and  C_38 
REMARK   22  A    between atoms: CA_37  and  CB_40 
REMARK       I    between atoms: C_38  and  N_45 
REMARK   23  A    between atoms: CB_40  and  CG_41 
REMARK   24  A    between atoms: CG_41  and  CD_42 
REMARK       I    between atoms: CD_42  and  NE2_44 
REMARK   25  A    between atoms: N_45  and  CA_46 
REMARK   26  A    between atoms: CA_46  and  C_47 
REMARK   27  A    between atoms: CA_46  and  CB_49 
REMARK       I    between atoms: C_47  and  N_51 
REMARK   28  A    between atoms: CB_49  and  OG_50 
REMARK   29  A    between atoms: CA_52  and  C_53 
REMARK       I    between atoms: C_53  and  N_58 
REMARK   30  A    between atoms: N_58  and  CA_59 
REMARK   31  A    between atoms: CA_59  and  C_60 
REMARK   32  A    between atoms: CA_59  and  CB_62 
REMARK       I    between atoms: C_60  and  N_66 
REMARK   33  A    between atoms: CB_62  and  CG_63 
REMARK       I    between atoms: CG_63  and  ND2_65 
REMARK   34  A    between atoms: N_66  and  CA_67 
REMARK   35  A    between atoms: CA_67  and  C_68 
REMARK   36  A    between atoms: CA_67  and  CB_70 
REMARK   37  A    between atoms: CB_70  and  CG_71 
REMARK   38  A    between atoms: CG_71  and  SD_72 
REMARK   39  A    between atoms: SD_72  and  CE_73 
ROOT
ATOM      1  C   GLY d   1     256.360 -93.529 -34.170  0.00  0.00     0.236 C 
ATOM      2  O   GLY d   1     256.729 -92.399 -34.489  0.00  0.00    -0.272 OA
ATOM      3  N   GLN d   1     257.213 -94.506 -33.862  0.00  0.00    -0.346 N 
ATOM      4  H   GLN d   1     256.861 -95.425 -33.685  0.00  0.00     0.163 HD
ENDROOT
BRANCH   3   5
ATOM      5  CA  GLN d   1     258.654 -94.263 -33.777  0.00  0.00     0.090 C 
ATOM      6  H   GLN d   1     258.862 -93.315 -34.294  0.00  0.00     0.087 H 
BRANCH   5   7
ATOM      7  C   GLN d   1     259.496 -95.353 -34.442  0.00  0.00     0.241 C 
ATOM      8  O   GLN d   1     259.006 -96.437 -34.740  0.00  0.00    -0.271 OA
ATOM      9  N   SER d   1     260.775 -95.053 -34.655  0.00  0.00    -0.344 N 
ATOM     10  H   SER d   1     261.114 -94.158 -34.364  0.00  0.00     0.163 HD
BRANCH   9  11
ATOM     11  CA  SER d   1     261.703 -95.980 -35.298  0.00  0.00     0.109 C 
ATOM     12  H   SER d   1     261.356 -97.008 -35.117  0.00  0.00     0.090 H 
BRANCH  11  13
ATOM     13  C   SER d   1     263.100 -95.823 -34.699  0.00  0.00     0.245 C 
ATOM     14  O   SER d   1     263.387 -94.812 -34.067  0.00  0.00    -0.271 OA
ATOM     15  N   PRO d   1     263.960 -96.844 -34.854  0.00  0.00    -0.337 N 
ATOM     16  CA  PRO d   1     265.371 -96.692 -34.483  0.00  0.00     0.091 C 
ATOM     17  CD  PRO d   1     263.573 -98.264 -34.943  0.00  0.00    -0.001 C 
ATOM     18  CB  PRO d   1     265.663 -97.989 -33.731  0.00  0.00    -0.036 C 
ATOM     19  H   PRO d   1     265.501 -95.820 -33.826  0.00  0.00     0.087 H 
ATOM     20  CG  PRO d   1     264.792 -99.000 -34.416  0.00  0.00    -0.048 C 
ATOM     21  H   PRO d   1     265.394 -97.895 -32.668  0.00  0.00     0.036 H 
ATOM     22  H   PRO d   1     266.725 -98.263 -33.818  0.00  0.00     0.036 H 
ATOM     23  H   PRO d   1     264.483 -99.776 -33.701  0.00  0.00     0.035 H 
ATOM     24  H   PRO d   1     265.339 -99.466 -35.249  0.00  0.00     0.035 H 
ATOM     25  H   PRO d   1     263.362 -98.549 -35.984  0.00  0.00     0.064 H 
ATOM     26  H   PRO d   1     262.690 -98.470 -34.320  0.00  0.00     0.064 H 
BRANCH  16  27
ATOM     27  C   PRO d   1     266.305 -96.545 -35.688  0.00  0.00     0.241 C 
ATOM     28  O   PRO d   1     266.182 -97.294 -36.658  0.00  0.00    -0.271 OA
ATOM     29  N   ASN d   1     267.230 -95.590 -35.621  0.00  0.00    -0.346 N 
ATOM     30  H   ASN d   1     267.243 -94.980 -34.829  0.00  0.00     0.163 HD
BRANCH  29  31
ATOM     31  CA  ASN d   1     268.228 -95.409 -36.675  0.00  0.00     0.097 C 
ATOM     32  H   ASN d   1     268.146 -96.253 -37.376  0.00  0.00     0.088 H 
BRANCH  31  33
ATOM     33  C   ASN d   1     269.641 -95.412 -36.087  0.00  0.00     0.241 C 
ATOM     34  O   ASN d   1     270.034 -96.379 -35.434  0.00  0.00    -0.271 OA
ATOM     35  N   MET d   1     270.379 -94.324 -36.315  0.00  0.00    -0.345 N 
ATOM     36  H   MET d   1     269.950 -93.569 -36.811  0.00  0.00     0.163 HD
BRANCH  35  37
ATOM     37  CA  MET d   1     271.777 -94.153 -35.891  0.00  0.00     0.097 C 
ATOM     38  H   MET d   1     272.230 -93.404 -36.557  0.00  0.00     0.089 H 
BRANCH  37  39
ATOM     39  C   MET d   1     272.612 -95.426 -35.998  0.00  0.00     0.196 C 
ATOM     40  O   MET d   1     273.815 -95.416 -35.736  0.00  0.00    -0.646 OA
ATOM     41  O1  MET d   1     272.063 -96.501 -36.359  0.00  0.00    -0.646 OA
ENDBRANCH  37  39
BRANCH  37  42
ATOM     42  CB  MET d   1     271.846 -93.617 -34.454  0.00  0.00    -0.029 C 
ATOM     43  H   MET d   1     271.174 -92.749 -34.384  0.00  0.00     0.037 H 
ATOM     44  H   MET d   1     272.880 -93.297 -34.261  0.00  0.00     0.037 H 
BRANCH  42  45
ATOM     45  CG  MET d   1     271.450 -94.607 -33.363  0.00  0.00    -0.021 C 
ATOM     46  H   MET d   1     272.069 -95.510 -33.469  0.00  0.00     0.049 H 
ATOM     47  H   MET d   1     270.391 -94.871 -33.498  0.00  0.00     0.049 H 
BRANCH  45  48
ATOM     48  SD  MET d   1     271.669 -93.954 -31.696  0.00  0.00    -0.173 SA
BRANCH  48  49
ATOM     49  CE  MET d   1     273.387 -94.346 -31.376  0.00  0.00    -0.035 C 
ATOM     50  H   MET d   1     273.662 -93.996 -30.370  0.00  0.00     0.041 H 
ATOM     51  H   MET d   1     274.022 -93.848 -32.123  0.00  0.00     0.041 H 
ATOM     52  H   MET d   1     273.532 -95.435 -31.438  0.00  0.00     0.041 H 
ENDBRANCH  48  49
ENDBRANCH  45  48
ENDBRANCH  42  45
ENDBRANCH  37  42
ENDBRANCH  35  37
ENDBRANCH  31  33
BRANCH  31  53
ATOM     53  CB  ASN d   1     267.962 -94.114 -37.451  0.00  0.00     0.036 C 
ATOM     54  H   ASN d   1     268.299 -93.263 -36.840  0.00  0.00     0.051 H 
ATOM     55  H   ASN d   1     266.880 -94.029 -37.632  0.00  0.00     0.051 H 
BRANCH  53  56
ATOM     56  CG  ASN d   1     268.683 -94.066 -38.789  0.00  0.00     0.217 C 
ATOM     57  OD1 ASN d   1     269.765 -94.633 -38.951  0.00  0.00    -0.274 OA
ATOM     58  ND2 ASN d   1     268.085 -93.375 -39.754  0.00  0.00    -0.370 N 
ATOM     59  H   ASN d   1     268.510 -93.306 -40.657  0.00  0.00     0.159 HD
ATOM     60  H   ASN d   1     267.210 -92.924 -39.577  0.00  0.00     0.159 HD
ENDBRANCH  53  56
ENDBRANCH  31  53
ENDBRANCH  29  31
ENDBRANCH  16  27
ENDBRANCH  11  13
BRANCH  11  61
ATOM     61  CB  SER d   1     261.735 -95.735 -36.810  0.00  0.00     0.044 C 
ATOM     62  H   SER d   1     262.042 -94.695 -36.996  0.00  0.00     0.077 H 
ATOM     63  H   SER d   1     260.727 -95.898 -37.219  0.00  0.00     0.077 H 
BRANCH  61  64
ATOM     64  OG  SER d   1     262.641 -96.605 -37.464  0.00  0.00    -0.398 OA
ATOM     65  H   SER d   1     262.634 -96.425 -38.397  0.00  0.00     0.209 HD
ENDBRANCH  61  64
ENDBRANCH  11  61
ENDBRANCH   9  11
ENDBRANCH   5   7
BRANCH   5  66
ATOM     66  CB  GLN d   1     259.081 -94.120 -32.312  0.00  0.00    -0.030 C 
ATOM     67  H   GLN d   1     260.123 -93.768 -32.289  0.00  0.00     0.037 H 
ATOM     68  H   GLN d   1     259.018 -95.110 -31.836  0.00  0.00     0.037 H 
BRANCH  66  69
ATOM     69  CG  GLN d   1     258.233 -93.150 -31.509  0.00  0.00     0.011 C 
ATOM     70  H   GLN d   1     257.438 -93.716 -31.002  0.00  0.00     0.047 H 
ATOM     71  H   GLN d   1     257.782 -92.422 -32.200  0.00  0.00     0.047 H 
BRANCH  69  72
ATOM     72  CD  GLN d   1     259.030 -92.397 -30.467  0.00  0.00     0.215 C 
ATOM     73  OE1 GLN d   1     260.185 -92.722 -30.196  0.00  0.00    -0.274 OA
ATOM     74  NE2 GLN d   1     258.417 -91.376 -29.879  0.00  0.00    -0.370 N 
ATOM     75  H   GLN d   1     258.894 -90.841 -29.182  0.00  0.00     0.159 HD
ATOM     76  H   GLN d   1     257.478 -91.143 -30.133  0.00  0.00     0.159 HD
ENDBRANCH  69  72
ENDBRANCH  66  69
ENDBRANCH   5  66
ENDBRANCH   3   5
BRANCH   1  77
ATOM     77  CA  GLY d   1     254.879 -93.860 -34.107  0.00  0.00     0.069 C 
ATOM     78  H   GLY d   1     254.555 -94.239 -35.088  0.00  0.00     0.078 H 
ATOM     79  H   GLY d   1     254.718 -94.635 -33.343  0.00  0.00     0.078 H 
BRANCH  77  80
ATOM     80  N   GLY d   1     254.086 -92.690 -33.767  0.00  0.00    -0.351 N 
ATOM     81  C   TYR d   1     253.034 -92.752 -32.955  0.00  0.00     0.241 C 
ATOM     82  O   TYR d   1     252.638 -93.802 -32.448  0.00  0.00    -0.271 OA
ATOM     83  H   GLY d   1     254.341 -91.806 -34.158  0.00  0.00     0.163 HD
BRANCH  81  84
ATOM     84  CA  TYR d   1     252.323 -91.428 -32.674  0.00  0.00     0.093 C 
ATOM     85  H   TYR d   1     252.143 -90.930 -33.638  0.00  0.00     0.088 H 
BRANCH  84  86
ATOM     86  N   TYR d   1     251.030 -91.609 -32.015  0.00  0.00    -0.346 N 
ATOM     87  C   ARG d   1     249.946 -90.947 -32.412  0.00  0.00     0.241 C 
ATOM     88  O   ARG d   1     249.944 -90.192 -33.385  0.00  0.00    -0.271 OA
ATOM     89  H   TYR d   1     250.959 -92.246 -31.247  0.00  0.00     0.163 HD
BRANCH  87  90
ATOM     90  CA  ARG d   1     248.675 -91.164 -31.593  0.00  0.00     0.089 C 
ATOM     91  H   ARG d   1     248.960 -91.604 -30.626  0.00  0.00     0.087 H 
BRANCH  90  92
ATOM     92  N   ARG d   1     247.990 -89.902 -31.340  0.00  0.00    -0.346 N 
ATOM     93  C   MET d   1     247.735 -89.479 -30.107  0.00  0.00     0.249 C 
ATOM     94  O   MET d   1     248.116 -90.078 -29.101  0.00  0.00    -0.271 OA
ATOM     95  H   ARG d   1     247.704 -89.340 -32.116  0.00  0.00     0.163 HD
BRANCH  93  96
ATOM     96  CA  MET d   1     246.944 -88.180 -29.991  0.00  0.00     0.176 C 
ATOM     97  H   MET d   1     246.981 -87.846 -28.944  0.00  0.00     0.099 H 
BRANCH  96  98
ATOM     98  N   MET d   1     247.527 -87.135 -30.824  0.00  0.00    -0.066 N 
ATOM     99  H   MET d   1     246.987 -86.289 -30.729  0.00  0.00     0.275 HD
ATOM    100  H   MET d   1     247.521 -87.431 -31.788  0.00  0.00     0.275 HD
ATOM    101  H   MET d   1     248.476 -86.962 -30.531  0.00  0.00     0.275 HD
ENDBRANCH  96  98
BRANCH  96 102
ATOM    102  CB  MET d   1     245.478 -88.413 -30.373  0.00  0.00    -0.022 C 
ATOM    103  H   MET d   1     245.430 -88.598 -31.456  0.00  0.00     0.037 H 
ATOM    104  H   MET d   1     244.910 -87.502 -30.131  0.00  0.00     0.037 H 
BRANCH 102 105
ATOM    105  CG  MET d   1     244.822 -89.587 -29.659  0.00  0.00    -0.021 C 
ATOM    106  H   MET d   1     244.886 -89.419 -28.574  0.00  0.00     0.049 H 
ATOM    107  H   MET d   1     245.367 -90.506 -29.920  0.00  0.00     0.049 H 
BRANCH 105 108
ATOM    108  SD  MET d   1     243.081 -89.798 -30.111  0.00  0.00    -0.173 SA
BRANCH 108 109
ATOM    109  CE  MET d   1     242.349 -88.349 -29.322  0.00  0.00    -0.035 C 
ATOM    110  H   MET d   1     241.266 -88.336 -29.512  0.00  0.00     0.041 H 
ATOM    111  H   MET d   1     242.804 -87.437 -29.736  0.00  0.00     0.041 H 
ATOM    112  H   MET d   1     242.531 -88.391 -28.238  0.00  0.00     0.041 H 
ENDBRANCH 108 109
ENDBRANCH 105 108
ENDBRANCH 102 105
ENDBRANCH  96 102
ENDBRANCH  93  96
ENDBRANCH  90  92
BRANCH  90 113
ATOM    113  CB  ARG d   1     247.731 -92.132 -32.307  0.00  0.00    -0.036 C 
ATOM    114  H   ARG d   1     247.486 -91.706 -33.291  0.00  0.00     0.036 H 
ATOM    115  H   ARG d   1     246.814 -92.219 -31.707  0.00  0.00     0.036 H 
BRANCH 113 116
ATOM    116  CG  ARG d   1     248.286 -93.524 -32.522  0.00  0.00    -0.048 C 
ATOM    117  H   ARG d   1     248.610 -93.938 -31.556  0.00  0.00     0.035 H 
ATOM    118  H   ARG d   1     249.146 -93.470 -33.205  0.00  0.00     0.035 H 
BRANCH 116 119
ATOM    119  CD  ARG d   1     247.226 -94.427 -33.123  0.00  0.00     0.009 C 
ATOM    120  H   ARG d   1     246.711 -93.883 -33.928  0.00  0.00     0.064 H 
ATOM    121  H   ARG d   1     246.502 -94.695 -32.340  0.00  0.00     0.064 H 
BRANCH 119 122
ATOM    122  NE  ARG d   1     247.797 -95.650 -33.673  0.00  0.00    -0.227 N 
ATOM    123  CZ  ARG d   1     247.386 -96.220 -34.800  0.00  0.00     0.665 C 
ATOM    124  NH1 ARG d   1     246.400 -95.676 -35.500  0.00  0.00    -0.235 N 
ATOM    125  NH2 ARG d   1     247.963 -97.333 -35.228  0.00  0.00    -0.235 N 
ATOM    126  H   ARG d   1     246.083 -96.120 -36.374  0.00  0.00     0.174 HD
ATOM    127  H   ARG d   1     245.951 -94.810 -35.170  0.00  0.00     0.174 HD
ATOM    128  H   ARG d   1     248.729 -97.757 -34.686  0.00  0.00     0.174 HD
ATOM    129  H   ARG d   1     247.645 -97.774 -36.103  0.00  0.00     0.174 HD
ATOM    130  H   ARG d   1     248.566 -96.100 -33.156  0.00  0.00     0.177 HD
ENDBRANCH 119 122
ENDBRANCH 116 119
ENDBRANCH 113 116
ENDBRANCH  90 113
ENDBRANCH  87  90
ENDBRANCH  84  86
BRANCH  84 131
ATOM    131  CB  TYR d   1     253.225 -90.527 -31.825  0.00  0.00    -0.014 C 
ATOM    132  H   TYR d   1     254.204 -90.452 -32.321  0.00  0.00     0.043 H 
ATOM    133  H   TYR d   1     253.350 -90.995 -30.837  0.00  0.00     0.043 H 
BRANCH 131 134
ATOM    134  CG  TYR d   1     252.685 -89.128 -31.624  0.00  0.00    -0.056 A 
ATOM    135  CD1 TYR d   1     252.698 -88.205 -32.661  0.00  0.00    -0.074 A 
ATOM    136  CE1 TYR d   1     252.206 -86.925 -32.484  0.00  0.00    -0.051 A 
ATOM    137  H   TYR d   1     253.101 -88.493 -33.626  0.00  0.00     0.084 H 
ATOM    138  CZ  TYR d   1     251.697 -86.552 -31.259  0.00  0.00     0.065 A 
ATOM    139  H   TYR d   1     252.221 -86.218 -33.306  0.00  0.00     0.087 H 
ATOM    140  CE2 TYR d   1     251.675 -87.449 -30.212  0.00  0.00    -0.051 A 
ATOM    141  CD2 TYR d   1     252.168 -88.729 -30.398  0.00  0.00    -0.074 A 
ATOM    142  H   TYR d   1     251.274 -87.154 -29.249  0.00  0.00     0.087 H 
ATOM    143  H   TYR d   1     252.150 -89.432 -29.573  0.00  0.00     0.084 H 
BRANCH 138 144
ATOM    144  OH  TYR d   1     251.208 -85.277 -31.083  0.00  0.00    -0.361 OA
ATOM    145  H   TYR d   1     251.296 -84.790 -31.894  0.00  0.00     0.217 HD
ENDBRANCH 138 144
ENDBRANCH 131 134
ENDBRANCH  84 131
ENDBRANCH  81  84
ENDBRANCH  77  80
ENDBRANCH   1  77
TORSDOF 39
