REMARK WARNING: 32 MAX_TORS EXCEEDED!!!
REMARK  61 active torsions:
REMARK  status: ('A' for Active; 'I' for Inactive)
REMARK    1  A    between atoms: N_1  and  CA_2 
REMARK    2  A    between atoms: CA_2  and  C_3 
REMARK    3  A    between atoms: CA_2  and  CB_5 
REMARK       I    between atoms: C_3  and  N_6 
REMARK    4  A    between atoms: N_6  and  CA_7 
REMARK    5  A    between atoms: CA_7  and  C_8 
REMARK    6  A    between atoms: CA_7  and  CB_10 
REMARK       I    between atoms: C_8  and  N_17 
REMARK    7  A    between atoms: CB_10  and  CG_11 
REMARK    8  A    between atoms: CG_11  and  CD_12 
REMARK    9  A    between atoms: CD_12  and  NE_13 
REMARK       I    between atoms: NE_13  and  CZ_14 
REMARK       I    between atoms: CZ_14  and  NH1_15 
REMARK       I    between atoms: CZ_14  and  NH2_16 
REMARK   10  A    between atoms: N_17  and  CA_18 
REMARK   11  A    between atoms: CA_18  and  C_19 
REMARK   12  A    between atoms: CA_18  and  CB_21 
REMARK       I    between atoms: C_19  and  N_29 
REMARK   13  A    between atoms: CB_21  and  CG_22 
REMARK   14  A    between atoms: CZ_27  and  OH_28 
REMARK   15  A    between atoms: N_29  and  CA_30 
REMARK   16  A    between atoms: CA_30  and  C_31 
REMARK       I    between atoms: C_31  and  N_33 
REMARK   17  A    between atoms: N_33  and  CA_34 
REMARK   18  A    between atoms: CA_34  and  C_35 
REMARK   19  A    between atoms: CA_34  and  CB_37 
REMARK       I    between atoms: C_35  and  N_40 
REMARK   20  A    between atoms: CB_37  and  CG1_38 
REMARK   21  A    between atoms: CB_37  and  CG2_39 
REMARK   22  A    between atoms: N_40  and  CA_41 
REMARK   23  A    between atoms: CA_41  and  C_42 
REMARK   24  A    between atoms: CA_41  and  CB_44 
REMARK       I    between atoms: C_42  and  N_46 
REMARK   25  A    between atoms: CB_44  and  OG_45 
REMARK   26  A    between atoms: N_46  and  CA_47 
REMARK   27  A    between atoms: CA_47  and  C_48 
REMARK   28  A    between atoms: CA_47  and  CB_50 
REMARK       I    between atoms: C_48  and  N_54 
REMARK   29  A    between atoms: CB_50  and  CG_51 
REMARK       I    between atoms: CG_51  and  ND2_53 
REMARK   30  A    between atoms: N_54  and  CA_55 
REMARK   31  A    between atoms: CA_55  and  C_56 
REMARK   32  A    between atoms: CA_55  and  CB_58 
REMARK       I    between atoms: C_56  and  N_61 
REMARK   33  A    between atoms: CB_58  and  OG1_59 
REMARK   34  A    between atoms: CB_58  and  CG2_60 
REMARK   35  A    between atoms: N_61  and  CA_62 
REMARK   36  A    between atoms: CA_62  and  C_63 
REMARK   37  A    between atoms: CA_62  and  CB_65 
REMARK       I    between atoms: C_63  and  N_67 
REMARK   38  A    between atoms: CB_65  and  OG_66 
REMARK   39  A    between atoms: N_67  and  CA_68 
REMARK   40  A    between atoms: CA_68  and  C_69 
REMARK   41  A    between atoms: CA_68  and  CB_71 
REMARK       I    between atoms: C_69  and  N_75 
REMARK   42  A    between atoms: CB_71  and  CG1_72 
REMARK   43  A    between atoms: CB_71  and  CG2_73 
REMARK   44  A    between atoms: CG1_72  and  CD1_74 
REMARK   45  A    between atoms: N_75  and  CA_76 
REMARK   46  A    between atoms: CA_76  and  C_77 
REMARK   47  A    between atoms: CA_76  and  CB_79 
REMARK       I    between atoms: C_77  and  N_83 
REMARK   48  A    between atoms: CB_79  and  CG_80 
REMARK       I    between atoms: CG_80  and  ND2_82 
REMARK   49  A    between atoms: N_83  and  CA_84 
REMARK   50  A    between atoms: CA_84  and  C_85 
REMARK   51  A    between atoms: CA_84  and  CB_87 
REMARK       I    between atoms: C_85  and  N_94 
REMARK   52  A    between atoms: CB_87  and  CG_88 
REMARK   53  A    between atoms: CG_88  and  CD_89 
REMARK   54  A    between atoms: CD_89  and  NE_90 
REMARK       I    between atoms: NE_90  and  CZ_91 
REMARK       I    between atoms: CZ_91  and  NH1_92 
REMARK   55  A    between atoms: N_94  and  CA_95 
REMARK   56  A    between atoms: CA_95  and  C_96 
REMARK   57  A    between atoms: CA_95  and  CB_98 
REMARK   58  A    between atoms: CB_98  and  CG_99 
REMARK   59  A    between atoms: CG_99  and  CD_100 
REMARK   60  A    between atoms: CD_100  and  CE_101 
REMARK   61  A    between atoms: CE_101  and  NZ_102 
ROOT
ATOM      1  C   ASN d   1     -42.383  83.739-137.492  0.00  0.00     0.241 C 
ATOM      2  O   ASN d   1     -41.201  84.083-137.453  0.00  0.00    -0.271 OA
ATOM      3  N   THR d   1     -43.110  83.493-136.406  0.00  0.00    -0.344 N 
ATOM      4  H   THR d   1     -44.085  83.301-136.515  0.00  0.00     0.163 HD
ENDROOT
BRANCH   1   5
ATOM      5  CA  ASN d   1     -43.104  83.558-138.824  0.00  0.00     0.097 C 
ATOM      6  H   ASN d   1     -42.359  83.281-139.584  0.00  0.00     0.088 H 
BRANCH   5   7
ATOM      7  N   ASN d   1     -44.086  82.485-138.734  0.00  0.00    -0.345 N 
ATOM      8  C   SER d   1     -43.687  81.223-138.630  0.00  0.00     0.243 C 
ATOM      9  O   SER d   1     -42.504  80.892-138.683  0.00  0.00    -0.271 OA
ATOM     10  H   ASN d   1     -45.062  82.700-138.751  0.00  0.00     0.163 HD
BRANCH   8  11
ATOM     11  CA  SER d   1     -44.768  80.174-138.428  0.00  0.00     0.109 C 
ATOM     12  H   SER d   1     -45.741  80.624-138.674  0.00  0.00     0.090 H 
BRANCH  11  13
ATOM     13  N   SER d   1     -44.568  79.018-139.295  0.00  0.00    -0.344 N 
ATOM     14  C   VAL d   1     -44.625  79.116-140.620  0.00  0.00     0.241 C 
ATOM     15  O   VAL d   1     -44.849  80.177-141.209  0.00  0.00    -0.271 OA
ATOM     16  H   SER d   1     -44.383  78.127-138.881  0.00  0.00     0.163 HD
BRANCH  14  17
ATOM     17  CA  VAL d   1     -44.407  77.821-141.401  0.00  0.00     0.092 C 
ATOM     18  H   VAL d   1     -44.421  76.978-140.695  0.00  0.00     0.088 H 
BRANCH  17  19
ATOM     19  N   VAL d   1     -45.486  77.631-142.363  0.00  0.00    -0.346 N 
ATOM     20  C   GLY d   1     -46.252  76.544-142.354  0.00  0.00     0.236 C 
ATOM     21  O   GLY d   1     -46.091  75.613-141.560  0.00  0.00    -0.272 OA
ATOM     22  H   VAL d   1     -45.655  78.338-143.049  0.00  0.00     0.163 HD
BRANCH  20  23
ATOM     23  CA  GLY d   1     -47.351  76.490-143.397  0.00  0.00     0.069 C 
ATOM     24  H   GLY d   1     -48.306  76.773-142.931  0.00  0.00     0.078 H 
ATOM     25  H   GLY d   1     -47.115  77.195-144.208  0.00  0.00     0.078 H 
BRANCH  23  26
ATOM     26  N   GLY d   1     -47.465  75.153-143.945  0.00  0.00    -0.351 N 
ATOM     27  C   TYR d   1     -47.528  74.928-145.255  0.00  0.00     0.241 C 
ATOM     28  O   TYR d   1     -47.563  75.827-146.102  0.00  0.00    -0.271 OA
ATOM     29  H   GLY d   1     -47.497  74.374-143.318  0.00  0.00     0.163 HD
BRANCH  27  30
ATOM     30  CA  TYR d   1     -47.539  73.464-145.668  0.00  0.00     0.093 C 
ATOM     31  H   TYR d   1     -48.223  72.921-144.999  0.00  0.00     0.088 H 
BRANCH  30  32
ATOM     32  N   TYR d   1     -48.011  73.287-147.035  0.00  0.00    -0.346 N 
ATOM     33  C   ARG d   1     -48.933  72.380-147.348  0.00  0.00     0.241 C 
ATOM     34  O   ARG d   1     -49.485  71.661-146.511  0.00  0.00    -0.271 OA
ATOM     35  H   TYR d   1     -47.631  73.864-147.758  0.00  0.00     0.163 HD
BRANCH  33  36
ATOM     36  CA  ARG d   1     -49.276  72.267-148.833  0.00  0.00     0.089 C 
ATOM     37  H   ARG d   1     -48.496  72.796-149.401  0.00  0.00     0.087 H 
BRANCH  36  38
ATOM     38  N   ARG d   1     -49.299  70.881-149.287  0.00  0.00    -0.346 N 
ATOM     39  C   ALA d   1     -48.655  70.514-150.391  0.00  0.00     0.248 C 
ATOM     40  O   ALA d   1     -48.012  71.306-151.083  0.00  0.00    -0.271 OA
ATOM     41  H   ARG d   1     -49.806  70.198-148.761  0.00  0.00     0.163 HD
BRANCH  39  42
ATOM     42  CA  ALA d   1     -48.743  69.041-150.772  0.00  0.00     0.172 C 
ATOM     43  H   ALA d   1     -48.103  68.875-151.651  0.00  0.00     0.098 H 
BRANCH  42  44
ATOM     44  N   ALA d   1     -48.262  68.189-149.691  0.00  0.00    -0.067 N 
ATOM     45  H   ALA d   1     -48.331  67.222-149.969  0.00  0.00     0.275 HD
ATOM     46  H   ALA d   1     -48.822  68.343-148.867  0.00  0.00     0.275 HD
ATOM     47  H   ALA d   1     -47.300  68.413-149.489  0.00  0.00     0.275 HD
ENDBRANCH  42  44
BRANCH  42  48
ATOM     48  CB  ALA d   1     -50.168  68.672-151.144  0.00  0.00    -0.042 C 
ATOM     49  H   ALA d   1     -50.514  69.324-151.960  0.00  0.00     0.030 H 
ATOM     50  H   ALA d   1     -50.821  68.802-150.268  0.00  0.00     0.030 H 
ATOM     51  H   ALA d   1     -50.201  67.623-151.474  0.00  0.00     0.030 H 
ENDBRANCH  42  48
ENDBRANCH  39  42
ENDBRANCH  36  38
BRANCH  36  52
ATOM     52  CB  ARG d   1     -50.617  72.939-149.122  0.00  0.00    -0.036 C 
ATOM     53  H   ARG d   1     -51.388  72.451-148.508  0.00  0.00     0.036 H 
ATOM     54  H   ARG d   1     -50.853  72.798-150.187  0.00  0.00     0.036 H 
BRANCH  52  55
ATOM     55  CG  ARG d   1     -50.637  74.425-148.822  0.00  0.00    -0.048 C 
ATOM     56  H   ARG d   1     -49.651  74.853-149.058  0.00  0.00     0.035 H 
ATOM     57  H   ARG d   1     -50.855  74.573-147.754  0.00  0.00     0.035 H 
BRANCH  55  58
ATOM     58  CD  ARG d   1     -51.694  75.133-149.646  0.00  0.00     0.009 C 
ATOM     59  H   ARG d   1     -52.595  74.504-149.690  0.00  0.00     0.064 H 
ATOM     60  H   ARG d   1     -51.308  75.293-150.664  0.00  0.00     0.064 H 
BRANCH  58  61
ATOM     61  NE  ARG d   1     -52.042  76.422-149.062  0.00  0.00    -0.227 N 
ATOM     62  CZ  ARG d   1     -53.015  76.594-148.174  0.00  0.00     0.665 C 
ATOM     63  NH1 ARG d   1     -53.742  75.558-147.771  0.00  0.00    -0.235 N 
ATOM     64  NH2 ARG d   1     -53.264  77.801-147.689  0.00  0.00    -0.235 N 
ATOM     65  H   ARG d   1     -54.496  75.695-147.082  0.00  0.00     0.174 HD
ATOM     66  H   ARG d   1     -53.552  74.618-148.147  0.00  0.00     0.174 HD
ATOM     67  H   ARG d   1     -52.702  78.607-147.999  0.00  0.00     0.174 HD
ATOM     68  H   ARG d   1     -54.019  77.934-147.002  0.00  0.00     0.174 HD
ATOM     69  H   ARG d   1     -51.502  77.249-149.355  0.00  0.00     0.177 HD
ENDBRANCH  58  61
ENDBRANCH  55  58
ENDBRANCH  52  55
ENDBRANCH  36  52
ENDBRANCH  33  36
ENDBRANCH  30  32
BRANCH  30  70
ATOM     70  CB  TYR d   1     -46.133  72.884-145.503  0.00  0.00    -0.014 C 
ATOM     71  H   TYR d   1     -45.899  72.849-144.429  0.00  0.00     0.043 H 
ATOM     72  H   TYR d   1     -45.423  73.552-146.012  0.00  0.00     0.043 H 
BRANCH  70  73
ATOM     73  CG  TYR d   1     -45.964  71.496-146.069  0.00  0.00    -0.056 A 
ATOM     74  CD1 TYR d   1     -46.426  70.385-145.380  0.00  0.00    -0.074 A 
ATOM     75  CE1 TYR d   1     -46.270  69.114-145.891  0.00  0.00    -0.051 A 
ATOM     76  H   TYR d   1     -46.918  70.518-144.423  0.00  0.00     0.084 H 
ATOM     77  CZ  TYR d   1     -45.642  68.942-147.104  0.00  0.00     0.065 A 
ATOM     78  H   TYR d   1     -46.639  68.256-145.341  0.00  0.00     0.087 H 
ATOM     79  CE2 TYR d   1     -45.172  70.029-147.808  0.00  0.00    -0.051 A 
ATOM     80  CD2 TYR d   1     -45.333  71.297-147.289  0.00  0.00    -0.074 A 
ATOM     81  H   TYR d   1     -44.679  69.889-148.763  0.00  0.00     0.087 H 
ATOM     82  H   TYR d   1     -44.961  72.151-147.843  0.00  0.00     0.084 H 
BRANCH  77  83
ATOM     83  OH  TYR d   1     -45.485  67.678-147.618  0.00  0.00    -0.361 OA
ATOM     84  H   TYR d   1     -45.859  67.044-147.017  0.00  0.00     0.217 HD
ENDBRANCH  77  83
ENDBRANCH  70  73
ENDBRANCH  30  70
ENDBRANCH  27  30
ENDBRANCH  23  26
ENDBRANCH  20  23
ENDBRANCH  17  19
BRANCH  17  85
ATOM     85  CB  VAL d   1     -43.029  77.851-142.093  0.00  0.00    -0.033 C 
ATOM     86  H   VAL d   1     -43.020  78.682-142.814  0.00  0.00     0.042 H 
BRANCH  85  87
ATOM     87  CG1 VAL d   1     -41.923  78.089-141.073  0.00  0.00    -0.071 C 
ATOM     88  H   VAL d   1     -40.950  78.107-141.585  0.00  0.00     0.028 H 
ATOM     89  H   VAL d   1     -41.931  77.279-140.328  0.00  0.00     0.028 H 
ATOM     90  H   VAL d   1     -42.090  79.052-140.569  0.00  0.00     0.028 H 
ENDBRANCH  85  87
BRANCH  85  91
ATOM     91  CG2 VAL d   1     -42.788  76.553-142.852  0.00  0.00    -0.071 C 
ATOM     92  H   VAL d   1     -43.596  76.400-143.582  0.00  0.00     0.028 H 
ATOM     93  H   VAL d   1     -42.770  75.712-142.143  0.00  0.00     0.028 H 
ATOM     94  H   VAL d   1     -41.824  76.610-143.379  0.00  0.00     0.028 H 
ENDBRANCH  85  91
ENDBRANCH  17  85
ENDBRANCH  14  17
ENDBRANCH  11  13
BRANCH  11  95
ATOM     95  CB  SER d   1     -44.783  79.743-136.963  0.00  0.00     0.044 C 
ATOM     96  H   SER d   1     -45.361  78.812-136.869  0.00  0.00     0.077 H 
ATOM     97  H   SER d   1     -45.258  80.532-136.361  0.00  0.00     0.077 H 
BRANCH  95  98
ATOM     98  OG  SER d   1     -43.468  79.523-136.482  0.00  0.00    -0.398 OA
ATOM     99  H   SER d   1     -42.966  80.326-136.558  0.00  0.00     0.209 HD
ENDBRANCH  95  98
ENDBRANCH  11  95
ENDBRANCH   8  11
ENDBRANCH   5   7
BRANCH   5 100
ATOM    100  CB  ASN d   1     -43.771  84.859-139.261  0.00  0.00     0.036 C 
ATOM    101  H   ASN d   1     -43.817  84.879-140.360  0.00  0.00     0.051 H 
ATOM    102  H   ASN d   1     -43.164  85.704-138.904  0.00  0.00     0.051 H 
BRANCH 100 103
ATOM    103  CG  ASN d   1     -45.178  85.006-138.713  0.00  0.00     0.217 C 
ATOM    104  OD1 ASN d   1     -45.436  84.727-137.541  0.00  0.00    -0.274 OA
ATOM    105  ND2 ASN d   1     -46.099  85.441-139.564  0.00  0.00    -0.370 N 
ATOM    106  H   ASN d   1     -47.045  85.558-139.261  0.00  0.00     0.159 HD
ATOM    107  H   ASN d   1     -45.847  85.652-140.509  0.00  0.00     0.159 HD
ENDBRANCH 100 103
ENDBRANCH   5 100
ENDBRANCH   1   5
BRANCH   3 108
ATOM    108  CA  THR d   1     -42.543  83.492-135.062  0.00  0.00     0.113 C 
ATOM    109  H   THR d   1     -41.961  84.416-134.930  0.00  0.00     0.091 H 
BRANCH 108 110
ATOM    110  C   THR d   1     -41.613  82.294-134.877  0.00  0.00     0.243 C 
ATOM    111  O   THR d   1     -41.904  81.196-135.354  0.00  0.00    -0.271 OA
ATOM    112  N   SER d   1     -40.488  82.510-134.201  0.00  0.00    -0.344 N 
ATOM    113  H   SER d   1     -40.257  83.442-133.921  0.00  0.00     0.163 HD
BRANCH 112 114
ATOM    114  CA  SER d   1     -39.584  81.418-133.860  0.00  0.00     0.109 C 
ATOM    115  H   SER d   1     -40.183  80.506-133.722  0.00  0.00     0.090 H 
BRANCH 114 116
ATOM    116  C   SER d   1     -38.851  81.713-132.559  0.00  0.00     0.243 C 
ATOM    117  O   SER d   1     -38.821  82.854-132.096  0.00  0.00    -0.271 OA
ATOM    118  N   ILE d   1     -38.260  80.674-131.979  0.00  0.00    -0.346 N 
ATOM    119  H   ILE d   1     -38.316  79.777-132.417  0.00  0.00     0.163 HD
BRANCH 118 120
ATOM    120  CA  ILE d   1     -37.532  80.805-130.723  0.00  0.00     0.092 C 
ATOM    121  H   ILE d   1     -37.560  81.862-130.419  0.00  0.00     0.088 H 
BRANCH 120 122
ATOM    122  C   ILE d   1     -36.069  80.388-130.888  0.00  0.00     0.241 C 
ATOM    123  O   ILE d   1     -35.776  79.301-131.393  0.00  0.00    -0.271 OA
ATOM    124  N   ASN d   1     -35.155  81.254-130.459  0.00  0.00    -0.346 N 
ATOM    125  H   ASN d   1     -35.454  82.083-129.986  0.00  0.00     0.163 HD
BRANCH 124 126
ATOM    126  CA  ASN d   1     -33.729  81.026-130.660  0.00  0.00     0.097 C 
ATOM    127  H   ASN d   1     -33.616  80.068-131.189  0.00  0.00     0.088 H 
BRANCH 126 128
ATOM    128  C   ASN d   1     -32.939  80.939-129.361  0.00  0.00     0.241 C 
ATOM    129  O   ASN d   1     -33.073  81.795-128.485  0.00  0.00    -0.271 OA
ATOM    130  N   ARG d   1     -32.112  79.904-129.250  0.00  0.00    -0.346 N 
ATOM    131  H   ARG d   1     -32.147  79.179-129.938  0.00  0.00     0.163 HD
BRANCH 130 132
ATOM    132  CA  ARG d   1     -31.155  79.795-128.154  0.00  0.00     0.089 C 
ATOM    133  H   ARG d   1     -31.311  80.644-127.473  0.00  0.00     0.087 H 
BRANCH 132 134
ATOM    134  C   ARG d   1     -29.728  79.853-128.684  0.00  0.00     0.241 C 
ATOM    135  O   ARG d   1     -29.379  79.130-129.617  0.00  0.00    -0.271 OA
ATOM    136  N   LYS d   1     -28.909  80.714-128.087  0.00  0.00    -0.345 N 
ATOM    137  H   LYS d   1     -29.266  81.296-127.356  0.00  0.00     0.163 HD
BRANCH 136 138
ATOM    138  CA  LYS d   1     -27.505  80.834-128.467  0.00  0.00     0.096 C 
ATOM    139  H   LYS d   1     -27.206  79.905-128.974  0.00  0.00     0.089 H 
BRANCH 138 140
ATOM    140  C   LYS d   1     -26.624  81.019-127.242  0.00  0.00     0.196 C 
ATOM    141  O   LYS d   1     -27.078  81.469-126.195  0.00  0.00    -0.646 OA
ATOM    142  O1  LYS d   1     -25.405  80.704-127.303  0.00  0.00    -0.646 OA
ENDBRANCH 138 140
BRANCH 138 143
ATOM    143  CB  LYS d   1     -27.295  82.001-129.434  0.00  0.00    -0.037 C 
ATOM    144  H   LYS d   1     -26.218  82.216-129.487  0.00  0.00     0.036 H 
ATOM    145  H   LYS d   1     -27.825  82.879-129.036  0.00  0.00     0.036 H 
BRANCH 143 146
ATOM    146  CG  LYS d   1     -27.797  81.740-130.841  0.00  0.00    -0.061 C 
ATOM    147  H   LYS d   1     -28.896  81.774-130.839  0.00  0.00     0.033 H 
ATOM    148  H   LYS d   1     -27.462  80.742-131.160  0.00  0.00     0.033 H 
BRANCH 146 149
ATOM    149  CD  LYS d   1     -27.273  82.775-131.827  0.00  0.00    -0.043 C 
ATOM    150  H   LYS d   1     -26.499  83.380-131.331  0.00  0.00     0.035 H 
ATOM    151  H   LYS d   1     -28.104  83.425-132.136  0.00  0.00     0.035 H 
BRANCH 149 152
ATOM    152  CE  LYS d   1     -26.669  82.119-133.069  0.00  0.00     0.080 C 
ATOM    153  H   LYS d   1     -27.462  81.582-133.610  0.00  0.00     0.075 H 
ATOM    154  H   LYS d   1     -25.892  81.407-132.754  0.00  0.00     0.075 H 
BRANCH 152 155
ATOM    155  NZ  LYS d   1     -26.058  83.130-133.983  0.00  0.00    -0.079 N 
ATOM    156  H   LYS d   1     -25.671  82.664-134.789  0.00  0.00     0.274 HD
ATOM    157  H   LYS d   1     -25.326  83.624-133.497  0.00  0.00     0.274 HD
ATOM    158  H   LYS d   1     -26.765  83.784-134.281  0.00  0.00     0.274 HD
ENDBRANCH 152 155
ENDBRANCH 149 152
ENDBRANCH 146 149
ENDBRANCH 143 146
ENDBRANCH 138 143
ENDBRANCH 136 138
ENDBRANCH 132 134
BRANCH 132 159
ATOM    159  CB  ARG d   1     -31.363  78.499-127.368  0.00  0.00    -0.036 C 
ATOM    160  H   ARG d   1     -30.410  78.232-126.888  0.00  0.00     0.036 H 
ATOM    161  H   ARG d   1     -31.650  77.709-128.078  0.00  0.00     0.036 H 
BRANCH 159 162
ATOM    162  CG  ARG d   1     -32.429  78.578-126.292  0.00  0.00    -0.048 C 
ATOM    163  H   ARG d   1     -32.457  77.624-125.746  0.00  0.00     0.035 H 
ATOM    164  H   ARG d   1     -33.404  78.757-126.768  0.00  0.00     0.035 H 
BRANCH 162 165
ATOM    165  CD  ARG d   1     -32.146  79.700-125.310  0.00  0.00     0.009 C 
ATOM    166  H   ARG d   1     -31.086  79.982-125.389  0.00  0.00     0.064 H 
ATOM    167  H   ARG d   1     -32.355  79.341-124.291  0.00  0.00     0.064 H 
BRANCH 165 168
ATOM    168  NE  ARG d   1     -32.967  80.879-125.571  0.00  0.00    -0.227 N 
ATOM    169  CZ  ARG d   1     -32.680  82.099-125.128  0.00  0.00     0.665 C 
ATOM    170  NH1 ARG d   1     -31.584  82.303-124.410  0.00  0.00    -0.235 N 
ATOM    171  NH2 ARG d   1     -33.482  83.116-125.410  0.00  0.00    -0.235 N 
ATOM    172  H   ARG d   1     -31.362  83.248-124.067  0.00  0.00     0.174 HD
ATOM    173  H   ARG d   1     -30.955  81.516-124.195  0.00  0.00     0.174 HD
ATOM    174  H   ARG d   1     -34.334  82.961-125.968  0.00  0.00     0.174 HD
ATOM    175  H   ARG d   1     -33.253  84.061-125.072  0.00  0.00     0.174 HD
ATOM    176  H   ARG d   1     -33.822  80.758-126.133  0.00  0.00     0.177 HD
ENDBRANCH 165 168
ENDBRANCH 162 165
ENDBRANCH 159 162
ENDBRANCH 132 159
ENDBRANCH 130 132
ENDBRANCH 126 128
BRANCH 126 177
ATOM    177  CB  ASN d   1     -33.134  82.137-131.530  0.00  0.00     0.036 C 
ATOM    178  H   ASN d   1     -32.170  82.444-131.098  0.00  0.00     0.051 H 
ATOM    179  H   ASN d   1     -33.825  82.993-131.529  0.00  0.00     0.051 H 
BRANCH 177 180
ATOM    180  CG  ASN d   1     -32.906  81.701-132.962  0.00  0.00     0.217 C 
ATOM    181  OD1 ASN d   1     -33.809  81.767-133.794  0.00  0.00    -0.274 OA
ATOM    182  ND2 ASN d   1     -31.687  81.260-133.259  0.00  0.00    -0.370 N 
ATOM    183  H   ASN d   1     -31.477  80.958-134.189  0.00  0.00     0.159 HD
ATOM    184  H   ASN d   1     -30.980  81.230-132.552  0.00  0.00     0.159 HD
ENDBRANCH 177 180
ENDBRANCH 126 177
ENDBRANCH 124 126
ENDBRANCH 120 122
BRANCH 120 185
ATOM    185  CB  ILE d   1     -38.188  79.965-129.619  0.00  0.00    -0.030 C 
ATOM    186  H   ILE d   1     -38.137  78.905-129.910  0.00  0.00     0.043 H 
BRANCH 185 187
ATOM    187  CG1 ILE d   1     -39.659  80.354-129.468  0.00  0.00    -0.063 C 
ATOM    188  H   ILE d   1     -40.121  80.352-130.466  0.00  0.00     0.033 H 
ATOM    189  H   ILE d   1     -39.707  81.368-129.044  0.00  0.00     0.033 H 
BRANCH 187 190
ATOM    190  CD1 ILE d   1     -40.452  79.427-128.575  0.00  0.00    -0.076 C 
ATOM    191  H   ILE d   1     -41.494  79.774-128.519  0.00  0.00     0.027 H 
ATOM    192  H   ILE d   1     -40.012  79.424-127.567  0.00  0.00     0.027 H 
ATOM    193  H   ILE d   1     -40.427  78.408-128.989  0.00  0.00     0.027 H 
ENDBRANCH 187 190
ENDBRANCH 185 187
BRANCH 185 194
ATOM    194  CG2 ILE d   1     -37.444  80.136-128.309  0.00  0.00    -0.071 C 
ATOM    195  H   ILE d   1     -36.391  79.850-128.446  0.00  0.00     0.028 H 
ATOM    196  H   ILE d   1     -37.901  79.495-127.541  0.00  0.00     0.028 H 
ATOM    197  H   ILE d   1     -37.500  81.187-127.990  0.00  0.00     0.028 H 
ENDBRANCH 185 194
ENDBRANCH 120 185
ENDBRANCH 118 120
ENDBRANCH 114 116
BRANCH 114 198
ATOM    198  CB  SER d   1     -38.579  81.167-134.985  0.00  0.00     0.044 C 
ATOM    199  H   SER d   1     -39.119  81.103-135.941  0.00  0.00     0.077 H 
ATOM    200  H   SER d   1     -38.057  80.218-134.795  0.00  0.00     0.077 H 
BRANCH 198 201
ATOM    201  OG  SER d   1     -37.626  82.210-135.062  0.00  0.00    -0.398 OA
ATOM    202  H   SER d   1     -37.016  82.029-135.767  0.00  0.00     0.209 HD
ENDBRANCH 198 201
ENDBRANCH 114 198
ENDBRANCH 112 114
ENDBRANCH 108 110
BRANCH 108 203
ATOM    203  CB  THR d   1     -43.655  83.452-133.989  0.00  0.00     0.060 C 
ATOM    204  H   THR d   1     -44.287  82.569-134.165  0.00  0.00     0.086 H 
BRANCH 203 205
ATOM    205  OG1 THR d   1     -44.455  84.634-134.091  0.00  0.00    -0.393 OA
ATOM    206  H   THR d   1     -45.139  84.610-133.432  0.00  0.00     0.210 HD
ENDBRANCH 203 205
BRANCH 203 207
ATOM    207  CG2 THR d   1     -43.070  83.368-132.589  0.00  0.00    -0.050 C 
ATOM    208  H   THR d   1     -43.886  83.341-131.852  0.00  0.00     0.031 H 
ATOM    209  H   THR d   1     -42.436  84.248-132.403  0.00  0.00     0.031 H 
ATOM    210  H   THR d   1     -42.464  82.454-132.499  0.00  0.00     0.031 H 
ENDBRANCH 203 207
ENDBRANCH 108 203
ENDBRANCH   3 108
TORSDOF 61
