REMARK  13 active torsions:
REMARK  status: ('A' for Active; 'I' for Inactive)
REMARK    1  A    between atoms: C3_3  and  O11_46 
REMARK    2  A    between atoms: C8_7  and  C15_10 
REMARK    3  A    between atoms: O11_46  and  C12_8 
REMARK    4  A    between atoms: C23_14  and  O14_9 
REMARK    5  A    between atoms: O14_9  and  C10_45 
REMARK    6  A    between atoms: C18_11  and  C20_52 
REMARK    7  A    between atoms: C20_52  and  C21_13 
REMARK    8  A    between atoms: N31_36  and  C32_16 
REMARK    9  A    between atoms: S47_24  and  C48_26 
REMARK   10  A    between atoms: N45_30  and  S47_24 
REMARK   11  A    between atoms: C48_26  and  C51_29 
REMARK       I    between atoms: C44_31  and  N45_30 
REMARK   12  A    between atoms: C41_33  and  C44_31 
REMARK   13  A    between atoms: C20_52  and  C22_53 
ROOT
ATOM      1  C23 39W d   1      53.814  24.634 -18.054  0.00  0.00     0.063 C 
ATOM      2  C24 39W d   1      52.299  24.515 -18.013  0.00  0.00    -0.011 C 
ATOM      3  C33 39W d   1      48.352  21.691 -17.967  0.00  0.00    -0.003 C 
ATOM      4  C34 39W d   1      48.311  20.451 -18.870  0.00  0.00    -0.050 C 
ATOM      5  C35 39W d   1      49.323  19.332 -18.580  0.00  0.00    -0.061 C 
ATOM      6  C36 39W d   1      49.784  18.834 -19.965  0.00  0.00    -0.050 C 
ATOM      7  C37 39W d   1      50.633  17.579 -19.952  0.00  0.00    -0.106 C 
ATOM      8  C38 39W d   1      51.957  17.548 -20.200  0.00  0.00    -0.100 C 
ATOM      9  C41 39W d   1      54.153  19.140 -19.745  0.00  0.00     0.124 A 
ATOM     10  C43 39W d   1      54.162  18.871 -21.191  0.00  0.00    -0.023 A 
ATOM     11  C42 39W d   1      52.830  18.774 -20.494  0.00  0.00    -0.002 A 
ATOM     12  N31 39W d   1      49.668  22.158 -17.473  0.00  0.00    -0.355 N 
ATOM     13  C28 39W d   1      50.755  22.594 -18.247  0.00  0.00     0.242 C 
ATOM     14  O30 39W d   1      50.676  22.584 -19.476  0.00  0.00    -0.271 OA
ATOM     15  C25 39W d   1      52.075  23.061 -17.622  0.00  0.00     0.096 C 
ATOM     16  N40 39W d   1      54.198  20.528 -19.310  0.00  0.00    -0.324 N 
ATOM     17  C29 39W d   1      53.132  21.065 -18.644  0.00  0.00     0.320 C 
ATOM     18  O39 39W d   1      52.177  20.377 -18.372  0.00  0.00    -0.247 OA
ATOM     19  N27 39W d   1      53.165  22.375 -18.279  0.00  0.00    -0.318 N 
ATOM     20  C26 39W d   1      54.276  23.284 -18.576  0.00  0.00     0.025 C 
ATOM     21  H10 39W d   1      54.214  24.818 -17.046  0.00  0.00     0.086 H 
ATOM     22  H11 39W d   1      51.859  24.731 -18.998  0.00  0.00     0.040 H 
ATOM     23  H12 39W d   1      51.870  25.196 -17.263  0.00  0.00     0.040 H 
ATOM     24  H16 39W d   1      47.732  21.472 -17.085  0.00  0.00     0.064 H 
ATOM     25  H17 39W d   1      47.904  22.521 -18.533  0.00  0.00     0.064 H 
ATOM     26  H18 39W d   1      48.480  20.789 -19.903  0.00  0.00     0.035 H 
ATOM     27  H19 39W d   1      47.304  20.015 -18.787  0.00  0.00     0.035 H 
ATOM     28  H20 39W d   1      48.846  18.517 -18.016  0.00  0.00     0.033 H 
ATOM     29  H21 39W d   1      50.177  19.723 -18.007  0.00  0.00     0.033 H 
ATOM     30  H22 39W d   1      50.370  19.636 -20.437  0.00  0.00     0.038 H 
ATOM     31  H23 39W d   1      48.887  18.631 -20.569  0.00  0.00     0.038 H 
ATOM     32  H24 39W d   1      50.138  16.636 -19.726  0.00  0.00     0.076 H 
ATOM     33  H25 39W d   1      52.446  16.575 -20.191  0.00  0.00     0.077 H 
ATOM     34  H34 39W d   1      54.643  17.956 -21.568  0.00  0.00     0.038 H 
ATOM     35  H35 39W d   1      54.346  19.697 -21.893  0.00  0.00     0.038 H 
ATOM     36  H36 39W d   1      52.119  19.588 -20.697  0.00  0.00     0.050 H 
ATOM     37  H37 39W d   1      52.079  22.911 -16.532  0.00  0.00     0.088 H 
ATOM     38  H38 39W d   1      55.006  21.087 -19.498  0.00  0.00     0.165 HD
ATOM     39  H39 39W d   1      55.192  22.960 -18.060  0.00  0.00     0.068 H 
ATOM     40  H40 39W d   1      54.462  23.329 -19.659  0.00  0.00     0.068 H 
ENDROOT
BRANCH   1  41
ATOM     41  O14 39W d   1      54.230  25.679 -18.920  0.00  0.00    -0.343 OA
BRANCH  41  42
ATOM     42  C10 39W d   1      55.306  26.496 -18.720  0.00  0.00     0.084 A 
ATOM     43  C4  39W d   1      55.610  27.390 -19.723  0.00  0.00     0.029 A 
ATOM     44  C2  39W d   1      56.693  28.259 -19.588  0.00  0.00     0.112 A 
ATOM     45  C6  39W d   1      54.829  27.416 -20.868  0.00  0.00    -0.065 A 
ATOM     46  C1  39W d   1      56.989  29.158 -20.608  0.00  0.00     0.179 A 
ATOM     47  N7  39W d   1      57.451  28.227 -18.431  0.00  0.00    -0.242 NA
ATOM     48  C3  39W d   1      56.198  29.177 -21.752  0.00  0.00     0.109 A 
ATOM     49  F13 39W d   1      58.015  29.989 -20.484  0.00  0.00    -0.201 F 
ATOM     50  C5  39W d   1      55.128  28.307 -21.876  0.00  0.00    -0.047 A 
ATOM     51  H1  39W d   1      54.520  28.327 -22.773  0.00  0.00     0.087 H 
ATOM     52  C8  39W d   1      57.147  27.317 -17.441  0.00  0.00     0.096 A 
ATOM     53  C9  39W d   1      56.081  26.461 -17.570  0.00  0.00    -0.019 A 
ATOM     54  H41 39W d   1      55.846  25.761 -16.776  0.00  0.00     0.091 H 
ATOM     55  H2  39W d   1      53.988  26.739 -20.970  0.00  0.00     0.085 H 
BRANCH  48  56
ATOM     56  O11 39W d   1      56.396  30.045 -22.790  0.00  0.00    -0.353 OA
BRANCH  56  57
ATOM     57  C12 39W d   1      57.637  30.432 -23.377  0.00  0.00     0.011 C 
ATOM     58  H3  39W d   1      57.450  31.146 -24.193  0.00  0.00     0.066 H 
ATOM     59  H4  39W d   1      58.146  29.543 -23.777  0.00  0.00     0.066 H 
ATOM     60  H5  39W d   1      58.272  30.906 -22.614  0.00  0.00     0.066 H 
ENDBRANCH  56  57
ENDBRANCH  48  56
BRANCH  52  61
ATOM     61  C15 39W d   1      57.939  27.304 -16.228  0.00  0.00     0.126 C 
ATOM     62  S17 39W d   1      59.190  28.243 -15.958  0.00  0.00    -0.078 SA
ATOM     63  C19 39W d   1      59.442  27.855 -14.441  0.00  0.00    -0.019 C 
ATOM     64  C18 39W d   1      58.447  26.963 -14.086  0.00  0.00     0.046 C 
ATOM     65  H6  39W d   1      60.244  28.221 -13.802  0.00  0.00     0.098 H 
ATOM     66  N16 39W d   1      57.684  26.569 -15.141  0.00  0.00    -0.243 NA
BRANCH  64  67
ATOM     67  C20 39W d   1      58.441  26.251 -12.738  0.00  0.00    -0.018 C 
ATOM     68  H42 39W d   1      59.400  25.719 -12.646  0.00  0.00     0.048 H 
BRANCH  67  69
ATOM     69  C21 39W d   1      57.330  25.203 -12.610  0.00  0.00    -0.068 C 
ATOM     70  H7  39W d   1      57.384  24.731 -11.618  0.00  0.00     0.028 H 
ATOM     71  H8  39W d   1      57.458  24.436 -13.389  0.00  0.00     0.028 H 
ATOM     72  H9  39W d   1      56.351  25.690 -12.732  0.00  0.00     0.028 H 
ENDBRANCH  67  69
BRANCH  67  73
ATOM     73  C22 39W d   1      58.363  27.279 -11.594  0.00  0.00    -0.068 C 
ATOM     74  H43 39W d   1      59.170  28.018 -11.710  0.00  0.00     0.028 H 
ATOM     75  H44 39W d   1      58.474  26.763 -10.629  0.00  0.00     0.028 H 
ATOM     76  H45 39W d   1      57.390  27.791 -11.626  0.00  0.00     0.028 H 
ENDBRANCH  67  73
ENDBRANCH  64  67
ENDBRANCH  52  61
ENDBRANCH  41  42
ENDBRANCH   1  41
BRANCH  12  77
ATOM     77  C32 39W d   1      49.695  22.137 -16.000  0.00  0.00    -0.016 C 
ATOM     78  H13 39W d   1      48.734  21.758 -15.621  0.00  0.00     0.056 H 
ATOM     79  H14 39W d   1      49.862  23.156 -15.622  0.00  0.00     0.056 H 
ATOM     80  H15 39W d   1      50.509  21.481 -15.658  0.00  0.00     0.056 H 
ENDBRANCH  12  77
BRANCH   9  81
ATOM     81  C44 39W d   1      54.839  18.156 -18.829  0.00  0.00     0.260 C 
ATOM     82  N45 39W d   1      55.405  18.472 -17.627  0.00  0.00    -0.252 N 
ATOM     83  H33 39W d   1      55.357  19.413 -17.292  0.00  0.00     0.181 HD
ATOM     84  O46 39W d   1      54.943  17.022 -19.210  0.00  0.00    -0.270 OA
BRANCH  82  85
ATOM     85  S47 39W d   1      56.157  17.338 -16.730  0.00  0.00     0.241 S 
ATOM     86  O50 39W d   1      55.212  16.450 -16.101  0.00  0.00    -0.205 OA
ATOM     87  O49 39W d   1      57.003  16.534 -17.582  0.00  0.00    -0.205 OA
BRANCH  85  88
ATOM     88  C48 39W d   1      57.172  18.158 -15.475  0.00  0.00     0.079 A 
ATOM     89  C53 39W d   1      58.252  17.237 -14.913  0.00  0.00    -0.042 A 
ATOM     90  C52 39W d   1      58.581  18.515 -15.772  0.00  0.00    -0.042 A 
ATOM     91  H26 39W d   1      58.400  16.230 -15.331  0.00  0.00     0.035 H 
ATOM     92  H27 39W d   1      58.465  17.220 -13.834  0.00  0.00     0.035 H 
ATOM     93  H28 39W d   1      59.038  19.395 -15.296  0.00  0.00     0.035 H 
ATOM     94  H29 39W d   1      58.973  18.405 -16.794  0.00  0.00     0.035 H 
BRANCH  88  95
ATOM     95  C51 39W d   1      56.404  18.844 -14.343  0.00  0.00    -0.054 C 
ATOM     96  H30 39W d   1      57.117  19.306 -13.644  0.00  0.00     0.029 H 
ATOM     97  H31 39W d   1      55.796  18.099 -13.809  0.00  0.00     0.029 H 
ATOM     98  H32 39W d   1      55.748  19.620 -14.763  0.00  0.00     0.029 H 
ENDBRANCH  88  95
ENDBRANCH  85  88
ENDBRANCH  82  85
ENDBRANCH   9  81
TORSDOF 13
