REMARK  17 active torsions:
REMARK  status: ('A' for Active; 'I' for Inactive)
REMARK    1  A    between atoms: CT_2  and  CA_4 
REMARK    2  A    between atoms: CA_4  and  CB_5 
REMARK    3  A    between atoms: CA_4  and  N_9 
REMARK    4  A    between atoms: CB_5  and  CG_6 
REMARK    5  A    between atoms: CG_6  and  CD_7 
REMARK       I    between atoms: CD_7  and  N2_32 
REMARK       I    between atoms: N_9  and  C_10 
REMARK    6  A    between atoms: C_10  and  C11_12 
REMARK    7  A    between atoms: C14_15  and  N10_18 
REMARK    8  A    between atoms: N10_18  and  C9_19 
REMARK    9  A    between atoms: C9_19  and  C6_20 
REMARK   10  A    between atoms: N5_21  and  C1_42 
REMARK   11  A    between atoms: C2_27  and  NA2_28 
REMARK   12  A    between atoms: C4_30  and  O4_31 
REMARK   13  A    between atoms: N2_32  and  C3_33 
REMARK   14  A    between atoms: C3_33  and  C5_34 
REMARK   15  A    between atoms: C3_33  and  C8_37 
REMARK   16  A    between atoms: C8_37  and  C10_38 
REMARK   17  A    between atoms: C10_38  and  C17_39 
ROOT
ATOM      1  C11 TLL d   1      69.629  13.888 167.657  0.00  0.00     0.032 A 
ATOM      2  C16 TLL d   1      70.164  13.259 166.380  0.00  0.00    -0.066 A 
ATOM      3  C15 TLL d   1      71.164  13.886 165.704  0.00  0.00    -0.057 A 
ATOM      4  C14 TLL d   1      71.703  15.204 166.229  0.00  0.00     0.028 A 
ATOM      5  C13 TLL d   1      71.221  15.771 167.367  0.00  0.00    -0.057 A 
ATOM      6  C12 TLL d   1      70.114  15.068 168.117  0.00  0.00    -0.066 A 
ATOM      7  H   TLL d   1      69.754  12.325 166.014  0.00  0.00     0.085 H 
ATOM      8  H   TLL d   1      71.572  13.449 164.800  0.00  0.00     0.086 H 
ATOM      9  H   TLL d   1      71.624  16.710 167.729  0.00  0.00     0.086 H 
ATOM     10  H   TLL d   1      69.708  15.506 169.022  0.00  0.00     0.085 H 
ENDROOT
BRANCH   1  11
ATOM     11  C   TLL d   1      68.491  13.207 168.420  0.00  0.00     0.252 C 
ATOM     12  N   TLL d   1      67.721  12.189 167.743  0.00  0.00    -0.342 N 
ATOM     13  H   TLL d   1      67.955  11.927 166.807  0.00  0.00     0.163 HD
ATOM     14  O   TLL d   1      68.234  13.533 169.563  0.00  0.00    -0.268 OA
BRANCH  12  15
ATOM     15  CA  TLL d   1      66.629  11.558 168.407  0.00  0.00     0.097 C 
ATOM     16  H   TLL d   1      66.228  12.226 169.183  0.00  0.00     0.089 H 
BRANCH  15  17
ATOM     17  CT  TLL d   1      67.087  10.285 169.055  0.00  0.00     0.196 C 
ATOM     18  O2  TLL d   1      68.284   9.916 168.945  0.00  0.00    -0.646 OA
ATOM     19  O1  TLL d   1      66.263   9.598 169.716  0.00  0.00    -0.646 OA
ENDBRANCH  15  17
BRANCH  15  20
ATOM     20  CB  TLL d   1      65.557  11.308 167.349  0.00  0.00    -0.029 C 
ATOM     21  H   TLL d   1      64.658  10.892 167.827  0.00  0.00     0.037 H 
ATOM     22  H   TLL d   1      65.937  10.597 166.601  0.00  0.00     0.037 H 
BRANCH  20  23
ATOM     23  CG  TLL d   1      65.203  12.652 166.656  0.00  0.00     0.011 C 
ATOM     24  H   TLL d   1      66.093  13.042 166.139  0.00  0.00     0.047 H 
ATOM     25  H   TLL d   1      64.871  13.377 167.414  0.00  0.00     0.047 H 
BRANCH  23  26
ATOM     26  CD  TLL d   1      64.069  12.429 165.628  0.00  0.00     0.218 C 
ATOM     27  OE2 TLL d   1      63.325  11.484 165.728  0.00  0.00    -0.274 OA
ATOM     28  N2  TLL d   1      63.900  13.321 164.515  0.00  0.00    -0.347 N 
ATOM     29  H   TLL d   1      64.518  14.098 164.397  0.00  0.00     0.163 HD
BRANCH  28  30
ATOM     30  C3  TLL d   1      62.846  13.094 163.576  0.00  0.00     0.096 C 
ATOM     31  H   TLL d   1      62.055  12.510 164.069  0.00  0.00     0.089 H 
BRANCH  30  32
ATOM     32  C5  TLL d   1      63.303  12.310 162.353  0.00  0.00     0.196 C 
ATOM     33  O6  TLL d   1      62.647  12.405 161.273  0.00  0.00    -0.646 OA
ATOM     34  O7  TLL d   1      64.316  11.544 162.372  0.00  0.00    -0.646 OA
ENDBRANCH  30  32
BRANCH  30  35
ATOM     35  C8  TLL d   1      62.284  14.473 163.206  0.00  0.00    -0.028 C 
ATOM     36  H   TLL d   1      61.840  14.437 162.200  0.00  0.00     0.037 H 
ATOM     37  H   TLL d   1      63.090  15.221 163.225  0.00  0.00     0.037 H 
BRANCH  35  38
ATOM     38  C10 TLL d   1      61.199  14.845 164.245  0.00  0.00     0.018 C 
ATOM     39  H   TLL d   1      60.921  15.902 164.119  0.00  0.00     0.049 H 
ATOM     40  H   TLL d   1      61.597  14.689 165.259  0.00  0.00     0.049 H 
BRANCH  38  41
ATOM     41  C17 TLL d   1      59.951  13.962 164.045  0.00  0.00     0.172 C 
ATOM     42  O18 TLL d   1      59.142  13.808 164.998  0.00  0.00    -0.648 OA
ATOM     43  O19 TLL d   1      59.737  13.376 162.938  0.00  0.00    -0.648 OA
ENDBRANCH  38  41
ENDBRANCH  35  38
ENDBRANCH  30  35
ENDBRANCH  28  30
ENDBRANCH  23  26
ENDBRANCH  20  23
ENDBRANCH  15  20
ENDBRANCH  12  15
ENDBRANCH   1  11
BRANCH   4  44
ATOM     44  N10 TLL d   1      72.744  15.860 165.511  0.00  0.00    -0.388 N 
ATOM     45  H   TLL d   1      73.448  16.418 166.015  0.00  0.00     0.159 HD
BRANCH  44  46
ATOM     46  C9  TLL d   1      72.807  15.739 164.073  0.00  0.00     0.021 C 
ATOM     47  H   TLL d   1      72.934  14.678 163.810  0.00  0.00     0.067 H 
ATOM     48  H   TLL d   1      73.669  16.314 163.705  0.00  0.00     0.067 H 
BRANCH  46  49
ATOM     49  C6  TLL d   1      71.540  16.265 163.402  0.00  0.00     0.134 C 
ATOM     50  N5  TLL d   1      71.630  16.196 161.975  0.00  0.00    -0.052 N 
ATOM     51  C4A TLL d   1      72.630  16.989 161.326  0.00  0.00     0.202 A 
ATOM     52  H   TLL d   1      72.230  15.387 162.017  0.00  0.00     0.281 HD
ATOM     53  C8A TLL d   1      72.935  18.153 161.840  0.00  0.00     0.154 A 
ATOM     54  C4  TLL d   1      73.339  16.555 160.015  0.00  0.00     0.151 A 
ATOM     55  H   TLL d   1      73.413  16.495 161.919  0.00  0.00     0.104 H 
ATOM     56  N8  TLL d   1      72.304  18.569 163.034  0.00  0.00    -0.374 N 
ATOM     57  N1  TLL d   1      73.860  18.899 161.190  0.00  0.00    -0.050 NA
ATOM     58  C7  TLL d   1      71.338  17.725 163.660  0.00  0.00     0.022 C 
ATOM     59  H   TLL d   1      72.541  19.480 163.452  0.00  0.00     0.160 HD
ATOM     60  H   TLL d   1      71.385  17.893 164.746  0.00  0.00     0.067 H 
ATOM     61  H   TLL d   1      70.342  18.006 163.288  0.00  0.00     0.067 H 
ATOM     62  C2  TLL d   1      74.563  18.657 160.045  0.00  0.00     0.697 A 
ATOM     63  N3  TLL d   1      74.347  17.499 159.429  0.00  0.00    -0.196 N 
ATOM     64  H   TLL d   1      74.860  17.256 158.570  0.00  0.00     0.180 HD
ATOM     65  H   TLL d   1      72.545  17.018 159.411  0.00  0.00     0.122 H 
ATOM     66  H   TLL d   1      70.678  15.686 163.764  0.00  0.00     0.089 H 
BRANCH  50  67
ATOM     67  C1  TLL d   1      70.676  15.501 161.177  0.00  0.00     0.068 C 
ATOM     68  H   TLL d   1      69.987  14.945 161.830  0.00  0.00     0.068 H 
ATOM     69  H   TLL d   1      71.198  14.797 160.512  0.00  0.00     0.068 H 
ATOM     70  H   TLL d   1      70.107  16.223 160.573  0.00  0.00     0.068 H 
ENDBRANCH  50  67
BRANCH  62  71
ATOM     71  NA2 TLL d   1      75.507  19.596 159.529  0.00  0.00    -0.233 N 
ATOM     72  H   TLL d   1      75.664  20.489 160.017  0.00  0.00     0.174 HD
ATOM     73  H   TLL d   1      76.031  19.380 158.669  0.00  0.00     0.174 HD
ENDBRANCH  62  71
BRANCH  54  74
ATOM     74  O4  TLL d   1      73.046  15.321 159.448  0.00  0.00    -0.374 OA
ATOM     75  H   TLL d   1      72.385  14.882 159.971  0.00  0.00     0.212 HD
ENDBRANCH  54  74
ENDBRANCH  46  49
ENDBRANCH  44  46
ENDBRANCH   4  44
TORSDOF 17
