REMARK WARNING: 32 MAX_TORS EXCEEDED!!!
REMARK  41 active torsions:
REMARK  status: ('A' for Active; 'I' for Inactive)
REMARK    1  A    between atoms: CA_2  and  C_3 
REMARK       I    between atoms: C_3  and  N_8 
REMARK    2  A    between atoms: N_8  and  CA_9 
REMARK    3  A    between atoms: CA_9  and  C_10 
REMARK    4  A    between atoms: CA_9  and  CB_12 
REMARK       I    between atoms: C_10  and  N_15 
REMARK    5  A    between atoms: CB_12  and  CG1_13 
REMARK    6  A    between atoms: CB_12  and  CG2_14 
REMARK    7  A    between atoms: N_15  and  CA_16 
REMARK    8  A    between atoms: CA_16  and  C_17 
REMARK    9  A    between atoms: CA_16  and  CB_19 
REMARK       I    between atoms: C_17  and  N_23 
REMARK   10  A    between atoms: CB_19  and  CG_20 
REMARK   11  A    between atoms: CG_20  and  CD1_21 
REMARK   12  A    between atoms: CG_20  and  CD2_22 
REMARK   13  A    between atoms: N_23  and  CA_24 
REMARK   14  A    between atoms: CA_24  and  C_25 
REMARK   15  A    between atoms: CA_24  and  CB_27 
REMARK       I    between atoms: C_25  and  N_34 
REMARK   16  A    between atoms: CB_27  and  CG_28 
REMARK   17  A    between atoms: CA_35  and  C_36 
REMARK       I    between atoms: C_36  and  N_41 
REMARK   18  A    between atoms: N_41  and  CA_42 
REMARK   19  A    between atoms: CA_42  and  C_43 
REMARK       I    between atoms: C_43  and  N_45 
REMARK   20  A    between atoms: N_45  and  CA_46 
REMARK   21  A    between atoms: CA_46  and  C_47 
REMARK   22  A    between atoms: CA_46  and  CB_49 
REMARK       I    between atoms: C_47  and  N_54 
REMARK   23  A    between atoms: CB_49  and  CG_50 
REMARK   24  A    between atoms: CG_50  and  CD_51 
REMARK       I    between atoms: CD_51  and  NE2_53 
REMARK   25  A    between atoms: CA_55  and  C_56 
REMARK       I    between atoms: C_56  and  N_61 
REMARK   26  A    between atoms: N_61  and  CA_62 
REMARK   27  A    between atoms: CA_62  and  C_63 
REMARK   28  A    between atoms: CA_62  and  CB_65 
REMARK       I    between atoms: C_63  and  N_72 
REMARK   29  A    between atoms: CB_65  and  CG_66 
REMARK   30  A    between atoms: N_72  and  CA_73 
REMARK   31  A    between atoms: CA_73  and  C_74 
REMARK       I    between atoms: C_74  and  N_76 
REMARK   32  A    between atoms: N_76  and  CA_77 
REMARK   33  A    between atoms: CA_77  and  C_78 
REMARK   34  A    between atoms: CA_77  and  CB_80 
REMARK       I    between atoms: C_78  and  N_85 
REMARK   35  A    between atoms: CB_80  and  CG_81 
REMARK   36  A    between atoms: CG_81  and  CD_82 
REMARK       I    between atoms: CD_82  and  NE2_84 
REMARK   37  A    between atoms: CA_86  and  C_87 
REMARK       I    between atoms: C_87  and  N_92 
REMARK   38  A    between atoms: CA_93  and  C_94 
REMARK       I    between atoms: C_94  and  N_99 
REMARK   39  A    between atoms: N_99  and  CA_100 
REMARK   40  A    between atoms: CA_100  and  C_101 
REMARK   41  A    between atoms: CA_100  and  CB_103 
ROOT
ATOM      1  CA  GLN d   1     -33.718  -1.653   2.209  0.00  0.00     0.090 C 
ATOM      2  H   GLN d   1     -33.532  -2.717   2.417  0.00  0.00     0.087 H 
ENDROOT
BRANCH   1   3
ATOM      3  N   GLN d   1     -34.128  -0.990   3.445  0.00  0.00    -0.346 N 
ATOM      4  C   GLY d   1     -34.050  -1.584   4.638  0.00  0.00     0.236 C 
ATOM      5  O   GLY d   1     -33.628  -2.734   4.794  0.00  0.00    -0.272 OA
ATOM      6  H   GLN d   1     -34.480  -0.056   3.395  0.00  0.00     0.163 HD
BRANCH   4   7
ATOM      7  CA  GLY d   1     -34.510  -0.781   5.842  0.00  0.00     0.069 C 
ATOM      8  H   GLY d   1     -35.269  -1.372   6.376  0.00  0.00     0.078 H 
ATOM      9  H   GLY d   1     -33.641  -0.621   6.497  0.00  0.00     0.078 H 
BRANCH   7  10
ATOM     10  N   GLY d   1     -35.089   0.524   5.531  0.00  0.00    -0.351 N 
ATOM     11  C   PRO d   1     -36.343   0.663   5.109  0.00  0.00     0.241 C 
ATOM     12  O   PRO d   1     -37.087  -0.288   4.868  0.00  0.00    -0.271 OA
ATOM     13  H   GLY d   1     -34.523   1.341   5.639  0.00  0.00     0.163 HD
BRANCH  11  14
ATOM     14  CA  PRO d   1     -36.836   2.093   4.914  0.00  0.00     0.091 C 
ATOM     15  N   PRO d   1     -37.543   2.303   3.649  0.00  0.00    -0.337 N 
ATOM     16  C   PHE d   1     -36.942   2.057   2.468  0.00  0.00     0.243 C 
ATOM     17  CD  PRO d   1     -38.895   2.854   3.862  0.00  0.00    -0.001 C 
ATOM     18  O   PHE d   1     -35.791   1.628   2.381  0.00  0.00    -0.271 OA
ATOM     19  CG  PRO d   1     -38.853   3.336   5.279  0.00  0.00    -0.048 C 
ATOM     20  H   PRO d   1     -39.662   2.076   3.733  0.00  0.00     0.064 H 
ATOM     21  H   PRO d   1     -39.095   3.685   3.169  0.00  0.00     0.064 H 
ATOM     22  CB  PRO d   1     -37.891   2.439   5.971  0.00  0.00    -0.036 C 
ATOM     23  H   PRO d   1     -38.506   4.379   5.321  0.00  0.00     0.035 H 
ATOM     24  H   PRO d   1     -39.849   3.262   5.740  0.00  0.00     0.035 H 
ATOM     25  H   PRO d   1     -37.428   2.955   6.825  0.00  0.00     0.036 H 
ATOM     26  H   PRO d   1     -38.397   1.528   6.324  0.00  0.00     0.036 H 
ATOM     27  H   PRO d   1     -35.976   2.775   4.983  0.00  0.00     0.087 H 
BRANCH  16  28
ATOM     28  CA  PHE d   1     -37.750   2.318   1.207  0.00  0.00     0.093 C 
ATOM     29  H   PHE d   1     -38.389   3.199   1.367  0.00  0.00     0.088 H 
BRANCH  28  30
ATOM     30  N   PHE d   1     -36.857   2.578   0.091  0.00  0.00    -0.346 N 
ATOM     31  C   LEU d   1     -36.882   3.712  -0.607  0.00  0.00     0.241 C 
ATOM     32  O   LEU d   1     -37.609   4.669  -0.333  0.00  0.00    -0.271 OA
ATOM     33  H   PHE d   1     -36.194   1.874  -0.165  0.00  0.00     0.163 HD
BRANCH  31  34
ATOM     34  CA  LEU d   1     -35.921   3.776  -1.782  0.00  0.00     0.089 C 
ATOM     35  H   LEU d   1     -35.710   2.752  -2.124  0.00  0.00     0.087 H 
BRANCH  34  36
ATOM     36  N   LEU d   1     -36.497   4.530  -2.889  0.00  0.00    -0.346 N 
ATOM     37  C   VAL d   1     -36.691   4.002  -4.095  0.00  0.00     0.241 C 
ATOM     38  O   VAL d   1     -36.413   2.836  -4.373  0.00  0.00    -0.271 OA
ATOM     39  H   LEU d   1     -36.757   5.483  -2.736  0.00  0.00     0.163 HD
BRANCH  37  40
ATOM     40  CA  VAL d   1     -37.294   4.928  -5.150  0.00  0.00     0.092 C 
ATOM     41  H   VAL d   1     -37.730   4.310  -5.949  0.00  0.00     0.088 H 
BRANCH  40  42
ATOM     42  N   VAL d   1     -38.362   5.730  -4.558  0.00  0.00    -0.346 N 
ATOM     43  C   PRO d   1     -39.625   5.312  -4.523  0.00  0.00     0.249 C 
ATOM     44  O   PRO d   1     -40.013   4.281  -5.076  0.00  0.00    -0.271 OA
ATOM     45  H   VAL d   1     -38.137   6.622  -4.166  0.00  0.00     0.163 HD
BRANCH  43  46
ATOM     46  CA  PRO d   1     -40.614   6.190  -3.757  0.00  0.00     0.178 C 
ATOM     47  N   PRO d   1     -42.004   5.834  -4.005  0.00  0.00    -0.062 N 
ATOM     48  CD  PRO d   1     -42.837   6.006  -2.801  0.00  0.00     0.083 C 
ATOM     49  H   PRO d   1     -42.047   4.870  -4.296  0.00  0.00     0.278 HD
ATOM     50  H   PRO d   1     -42.366   6.423  -4.739  0.00  0.00     0.278 HD
ATOM     51  CG  PRO d   1     -41.836   6.231  -1.697  0.00  0.00    -0.040 C 
ATOM     52  H   PRO d   1     -43.437   5.104  -2.608  0.00  0.00     0.075 H 
ATOM     53  H   PRO d   1     -43.504   6.874  -2.907  0.00  0.00     0.075 H 
ATOM     54  CB  PRO d   1     -40.473   5.964  -2.250  0.00  0.00    -0.028 C 
ATOM     55  H   PRO d   1     -41.898   7.270  -1.342  0.00  0.00     0.035 H 
ATOM     56  H   PRO d   1     -42.041   5.546  -0.862  0.00  0.00     0.035 H 
ATOM     57  H   PRO d   1     -39.737   6.660  -1.821  0.00  0.00     0.036 H 
ATOM     58  H   PRO d   1     -40.165   4.929  -2.040  0.00  0.00     0.036 H 
ATOM     59  H   PRO d   1     -40.434   7.243  -4.017  0.00  0.00     0.099 H 
ENDBRANCH  43  46
ENDBRANCH  40  42
BRANCH  40  60
ATOM     60  CB  VAL d   1     -36.195   5.816  -5.772  0.00  0.00    -0.033 C 
ATOM     61  H   VAL d   1     -35.836   6.515  -5.003  0.00  0.00     0.042 H 
BRANCH  60  62
ATOM     62  CG1 VAL d   1     -35.015   4.974  -6.244  0.00  0.00    -0.071 C 
ATOM     63  H   VAL d   1     -34.248   5.630  -6.682  0.00  0.00     0.028 H 
ATOM     64  H   VAL d   1     -35.358   4.254  -7.002  0.00  0.00     0.028 H 
ATOM     65  H   VAL d   1     -34.587   4.430  -5.389  0.00  0.00     0.028 H 
ENDBRANCH  60  62
BRANCH  60  66
ATOM     66  CG2 VAL d   1     -36.771   6.623  -6.929  0.00  0.00    -0.071 C 
ATOM     67  H   VAL d   1     -37.620   7.223  -6.570  0.00  0.00     0.028 H 
ATOM     68  H   VAL d   1     -37.114   5.938  -7.719  0.00  0.00     0.028 H 
ATOM     69  H   VAL d   1     -35.995   7.290  -7.333  0.00  0.00     0.028 H 
ENDBRANCH  60  66
ENDBRANCH  40  60
ENDBRANCH  37  40
ENDBRANCH  34  36
BRANCH  34  70
ATOM     70  CB  LEU d   1     -34.616   4.430  -1.332  0.00  0.00    -0.035 C 
ATOM     71  H   LEU d   1     -34.269   3.917  -0.423  0.00  0.00     0.037 H 
ATOM     72  H   LEU d   1     -34.821   5.486  -1.101  0.00  0.00     0.037 H 
BRANCH  70  73
ATOM     73  CG  LEU d   1     -33.497   4.376  -2.368  0.00  0.00    -0.059 C 
ATOM     74  H   LEU d   1     -33.882   4.785  -3.314  0.00  0.00     0.038 H 
BRANCH  73  75
ATOM     75  CD1 LEU d   1     -32.318   5.231  -1.931  0.00  0.00    -0.073 C 
ATOM     76  H   LEU d   1     -31.525   5.178  -2.691  0.00  0.00     0.028 H 
ATOM     77  H   LEU d   1     -31.931   4.859  -0.971  0.00  0.00     0.028 H 
ATOM     78  H   LEU d   1     -32.645   6.275  -1.815  0.00  0.00     0.028 H 
ENDBRANCH  73  75
BRANCH  73  79
ATOM     79  CD2 LEU d   1     -33.079   2.931  -2.611  0.00  0.00    -0.073 C 
ATOM     80  H   LEU d   1     -33.955   2.344  -2.925  0.00  0.00     0.028 H 
ATOM     81  H   LEU d   1     -32.667   2.507  -1.683  0.00  0.00     0.028 H 
ATOM     82  H   LEU d   1     -32.314   2.898  -3.401  0.00  0.00     0.028 H 
ENDBRANCH  73  79
ENDBRANCH  70  73
ENDBRANCH  34  70
ENDBRANCH  31  34
ENDBRANCH  28  30
BRANCH  28  83
ATOM     83  CB  PHE d   1     -38.634   1.110   0.899  0.00  0.00    -0.014 C 
ATOM     84  H   PHE d   1     -39.313   0.950   1.750  0.00  0.00     0.043 H 
ATOM     85  H   PHE d   1     -37.988   0.229   0.774  0.00  0.00     0.043 H 
BRANCH  83  86
ATOM     86  CG  PHE d   1     -39.459   1.273  -0.342  0.00  0.00    -0.056 A 
ATOM     87  CD1 PHE d   1     -38.922   0.986  -1.591  0.00  0.00    -0.077 A 
ATOM     88  CE1 PHE d   1     -39.679   1.141  -2.740  0.00  0.00    -0.082 A 
ATOM     89  H   PHE d   1     -37.899   0.637  -1.667  0.00  0.00     0.084 H 
ATOM     90  CZ  PHE d   1     -40.985   1.591  -2.650  0.00  0.00    -0.083 A 
ATOM     91  H   PHE d   1     -39.250   0.910  -3.708  0.00  0.00     0.083 H 
ATOM     92  CE2 PHE d   1     -41.532   1.885  -1.411  0.00  0.00    -0.082 A 
ATOM     93  H   PHE d   1     -41.580   1.713  -3.548  0.00  0.00     0.083 H 
ATOM     94  CD2 PHE d   1     -40.771   1.727  -0.265  0.00  0.00    -0.077 A 
ATOM     95  H   PHE d   1     -42.554   2.238  -1.339  0.00  0.00     0.083 H 
ATOM     96  H   PHE d   1     -41.202   1.960   0.702  0.00  0.00     0.084 H 
ENDBRANCH  83  86
ENDBRANCH  28  83
ENDBRANCH  16  28
ENDBRANCH  11  14
ENDBRANCH   7  10
ENDBRANCH   4   7
ENDBRANCH   1   3
BRANCH   1  97
ATOM     97  C   GLN d   1     -32.432  -1.010   1.690  0.00  0.00     0.243 C 
ATOM     98  O   GLN d   1     -32.266   0.200   1.795  0.00  0.00    -0.271 OA
ATOM     99  N   PRO d   1     -31.518  -1.814   1.117  0.00  0.00    -0.337 N 
ATOM    100  CA  PRO d   1     -30.247  -1.239   0.661  0.00  0.00     0.091 C 
ATOM    101  CD  PRO d   1     -31.583  -3.266   0.881  0.00  0.00    -0.001 C 
ATOM    102  CB  PRO d   1     -29.472  -2.453   0.126  0.00  0.00    -0.036 C 
ATOM    103  H   PRO d   1     -29.720  -0.785   1.513  0.00  0.00     0.087 H 
ATOM    104  CG  PRO d   1     -30.152  -3.650   0.691  0.00  0.00    -0.048 C 
ATOM    105  H   PRO d   1     -28.424  -2.415   0.459  0.00  0.00     0.036 H 
ATOM    106  H   PRO d   1     -29.507  -2.476  -0.973  0.00  0.00     0.036 H 
ATOM    107  H   PRO d   1     -29.700  -3.926   1.655  0.00  0.00     0.035 H 
ATOM    108  H   PRO d   1     -30.074  -4.497  -0.006  0.00  0.00     0.035 H 
ATOM    109  H   PRO d   1     -32.174  -3.493  -0.019  0.00  0.00     0.064 H 
ATOM    110  H   PRO d   1     -32.019  -3.786   1.747  0.00  0.00     0.064 H 
BRANCH 100 111
ATOM    111  C   PRO d   1     -30.379  -0.188  -0.446  0.00  0.00     0.241 C 
ATOM    112  O   PRO d   1     -31.362  -0.172  -1.197  0.00  0.00    -0.271 OA
ATOM    113  N   PHE d   1     -29.370   0.671  -0.541  0.00  0.00    -0.346 N 
ATOM    114  H   PHE d   1     -28.685   0.702   0.187  0.00  0.00     0.163 HD
BRANCH 113 115
ATOM    115  CA  PHE d   1     -29.237   1.569  -1.679  0.00  0.00     0.093 C 
ATOM    116  H   PHE d   1     -30.156   2.163  -1.786  0.00  0.00     0.088 H 
BRANCH 115 117
ATOM    117  C   PHE d   1     -29.050   0.698  -2.921  0.00  0.00     0.241 C 
ATOM    118  O   PHE d   1     -28.297  -0.277  -2.890  0.00  0.00    -0.271 OA
ATOM    119  N   GLY d   1     -29.776   1.021  -3.989  0.00  0.00    -0.351 N 
ATOM    120  H   GLY d   1     -30.373   1.822  -3.943  0.00  0.00     0.163 HD
BRANCH 119 121
ATOM    121  CA  GLY d   1     -29.731   0.245  -5.226  0.00  0.00     0.069 C 
ATOM    122  H   GLY d   1     -28.704  -0.127  -5.358  0.00  0.00     0.078 H 
ATOM    123  H   GLY d   1     -29.987   0.916  -6.059  0.00  0.00     0.078 H 
BRANCH 121 124
ATOM    124  C   GLY d   1     -30.675  -0.948  -5.274  0.00  0.00     0.236 C 
ATOM    125  O   GLY d   1     -30.737  -1.636  -6.287  0.00  0.00    -0.272 OA
ATOM    126  N   GLN d   1     -31.414  -1.193  -4.190  0.00  0.00    -0.346 N 
ATOM    127  H   GLN d   1     -31.325  -0.585  -3.401  0.00  0.00     0.163 HD
BRANCH 126 128
ATOM    128  CA  GLN d   1     -32.351  -2.318  -4.109  0.00  0.00     0.090 C 
ATOM    129  H   GLN d   1     -31.787  -3.257  -4.211  0.00  0.00     0.087 H 
BRANCH 128 130
ATOM    130  C   GLN d   1     -33.389  -2.242  -5.229  0.00  0.00     0.243 C 
ATOM    131  O   GLN d   1     -34.105  -1.249  -5.330  0.00  0.00    -0.271 OA
ATOM    132  N   PRO d   1     -33.471  -3.282  -6.082  0.00  0.00    -0.337 N 
ATOM    133  CA  PRO d   1     -34.536  -3.253  -7.092  0.00  0.00     0.092 C 
ATOM    134  CD  PRO d   1     -32.563  -4.430  -6.257  0.00  0.00    -0.001 C 
ATOM    135  CB  PRO d   1     -34.243  -4.479  -7.971  0.00  0.00    -0.036 C 
ATOM    136  H   PRO d   1     -34.475  -2.329  -7.686  0.00  0.00     0.087 H 
ATOM    137  CG  PRO d   1     -33.319  -5.336  -7.178  0.00  0.00    -0.048 C 
ATOM    138  H   PRO d   1     -33.765  -4.170  -8.912  0.00  0.00     0.036 H 
ATOM    139  H   PRO d   1     -35.173  -5.022  -8.193  0.00  0.00     0.036 H 
ATOM    140  H   PRO d   1     -32.622  -5.861  -7.848  0.00  0.00     0.035 H 
ATOM    141  H   PRO d   1     -33.893  -6.072  -6.596  0.00  0.00     0.035 H 
ATOM    142  H   PRO d   1     -32.364  -4.925  -5.295  0.00  0.00     0.064 H 
ATOM    143  H   PRO d   1     -31.612  -4.114  -6.710  0.00  0.00     0.064 H 
BRANCH 133 144
ATOM    144  C   PRO d   1     -35.930  -3.344  -6.457  0.00  0.00     0.243 C 
ATOM    145  O   PRO d   1     -36.090  -4.022  -5.442  0.00  0.00    -0.271 OA
ATOM    146  N   PRO d   1     -36.927  -2.646  -7.035  0.00  0.00    -0.337 N 
ATOM    147  CA  PRO d   1     -38.293  -2.687  -6.513  0.00  0.00     0.091 C 
ATOM    148  CD  PRO d   1     -36.816  -1.723  -8.181  0.00  0.00    -0.001 C 
ATOM    149  CB  PRO d   1     -38.872  -1.357  -6.988  0.00  0.00    -0.036 C 
ATOM    150  H   PRO d   1     -38.288  -2.749  -5.415  0.00  0.00     0.087 H 
ATOM    151  CG  PRO d   1     -38.194  -1.123  -8.298  0.00  0.00    -0.048 C 
ATOM    152  H   PRO d   1     -38.639  -0.551  -6.276  0.00  0.00     0.036 H 
ATOM    153  H   PRO d   1     -39.962  -1.428  -7.118  0.00  0.00     0.036 H 
ATOM    154  H   PRO d   1     -38.123  -0.044  -8.501  0.00  0.00     0.035 H 
ATOM    155  H   PRO d   1     -38.754  -1.613  -9.108  0.00  0.00     0.035 H 
ATOM    156  H   PRO d   1     -36.547  -2.268  -9.098  0.00  0.00     0.064 H 
ATOM    157  H   PRO d   1     -36.065  -0.944  -7.984  0.00  0.00     0.064 H 
BRANCH 147 158
ATOM    158  C   PRO d   1     -39.107  -3.852  -7.079  0.00  0.00     0.241 C 
ATOM    159  O   PRO d   1     -38.621  -4.583  -7.944  0.00  0.00    -0.271 OA
ATOM    160  N   LEU d   1     -40.333  -4.013  -6.582  0.00  0.00    -0.345 N 
ATOM    161  H   LEU d   1     -40.628  -3.414  -5.838  0.00  0.00     0.163 HD
BRANCH 160 162
ATOM    162  CA  LEU d   1     -41.270  -5.029  -7.077  0.00  0.00     0.093 C 
ATOM    163  H   LEU d   1     -42.163  -5.001  -6.436  0.00  0.00     0.089 H 
BRANCH 162 164
ATOM    164  C   LEU d   1     -40.690  -6.444  -7.008  0.00  0.00     0.196 C 
ATOM    165  O   LEU d   1     -41.217  -7.376  -7.620  0.00  0.00    -0.646 OA
ATOM    166  O1  LEU d   1     -39.659  -6.660  -6.316  0.00  0.00    -0.646 OA
ENDBRANCH 162 164
BRANCH 162 167
ATOM    167  CB  LEU d   1     -41.700  -4.704  -8.511  0.00  0.00    -0.048 C 
ATOM    168  H   LEU d   1     -42.401  -5.473  -8.867  0.00  0.00     0.030 H 
ATOM    169  H   LEU d   1     -40.815  -4.684  -9.164  0.00  0.00     0.030 H 
ATOM    170  H   LEU d   1     -42.193  -3.721  -8.532  0.00  0.00     0.030 H 
ENDBRANCH 162 167
ENDBRANCH 160 162
ENDBRANCH 147 158
ENDBRANCH 133 144
ENDBRANCH 128 130
BRANCH 128 171
ATOM    171  CB  GLN d   1     -33.063  -2.307  -2.747  0.00  0.00    -0.030 C 
ATOM    172  H   GLN d   1     -33.499  -1.308  -2.603  0.00  0.00     0.037 H 
ATOM    173  H   GLN d   1     -32.307  -2.493  -1.970  0.00  0.00     0.037 H 
BRANCH 171 174
ATOM    174  CG  GLN d   1     -34.177  -3.333  -2.571  0.00  0.00     0.011 C 
ATOM    175  H   GLN d   1     -34.871  -3.246  -3.420  0.00  0.00     0.047 H 
ATOM    176  H   GLN d   1     -34.712  -3.112  -1.636  0.00  0.00     0.047 H 
BRANCH 174 177
ATOM    177  CD  GLN d   1     -33.666  -4.757  -2.510  0.00  0.00     0.215 C 
ATOM    178  OE1 GLN d   1     -32.674  -5.045  -1.843  0.00  0.00    -0.274 OA
ATOM    179  NE2 GLN d   1     -34.352  -5.661  -3.198  0.00  0.00    -0.370 N 
ATOM    180  H   GLN d   1     -34.061  -6.618  -3.195  0.00  0.00     0.159 HD
ATOM    181  H   GLN d   1     -35.160  -5.385  -3.720  0.00  0.00     0.159 HD
ENDBRANCH 174 177
ENDBRANCH 171 174
ENDBRANCH 128 171
ENDBRANCH 126 128
ENDBRANCH 121 124
ENDBRANCH 119 121
ENDBRANCH 115 117
BRANCH 115 182
ATOM    182  CB  PHE d   1     -28.054   2.527  -1.486  0.00  0.00    -0.014 C 
ATOM    183  H   PHE d   1     -27.930   3.115  -2.407  0.00  0.00     0.043 H 
ATOM    184  H   PHE d   1     -27.148   1.929  -1.308  0.00  0.00     0.043 H 
BRANCH 182 185
ATOM    185  CG  PHE d   1     -28.227   3.482  -0.332  0.00  0.00    -0.056 A 
ATOM    186  CD1 PHE d   1     -28.844   4.710  -0.518  0.00  0.00    -0.077 A 
ATOM    187  CE1 PHE d   1     -29.015   5.587   0.539  0.00  0.00    -0.082 A 
ATOM    188  H   PHE d   1     -29.197   4.987  -1.505  0.00  0.00     0.084 H 
ATOM    189  CZ  PHE d   1     -28.566   5.244   1.804  0.00  0.00    -0.083 A 
ATOM    190  H   PHE d   1     -29.500   6.543   0.377  0.00  0.00     0.083 H 
ATOM    191  CE2 PHE d   1     -27.953   4.021   2.005  0.00  0.00    -0.082 A 
ATOM    192  H   PHE d   1     -28.695   5.931   2.632  0.00  0.00     0.083 H 
ATOM    193  CD2 PHE d   1     -27.787   3.148   0.941  0.00  0.00    -0.077 A 
ATOM    194  H   PHE d   1     -27.603   3.745   2.993  0.00  0.00     0.083 H 
ATOM    195  H   PHE d   1     -27.306   2.190   1.106  0.00  0.00     0.084 H 
ENDBRANCH 182 185
ENDBRANCH 115 182
ENDBRANCH 113 115
ENDBRANCH 100 111
ENDBRANCH   1  97
BRANCH   1 196
ATOM    196  CB  GLN d   1     -34.815  -1.537   1.146  0.00  0.00    -0.030 C 
ATOM    197  H   GLN d   1     -34.477  -2.073   0.247  0.00  0.00     0.037 H 
ATOM    198  H   GLN d   1     -34.949  -0.471   0.909  0.00  0.00     0.037 H 
BRANCH 196 199
ATOM    199  CG  GLN d   1     -36.171  -2.105   1.554  0.00  0.00     0.011 C 
ATOM    200  H   GLN d   1     -36.891  -1.900   0.748  0.00  0.00     0.047 H 
ATOM    201  H   GLN d   1     -36.497  -1.599   2.475  0.00  0.00     0.047 H 
BRANCH 199 202
ATOM    202  CD  GLN d   1     -36.150  -3.603   1.810  0.00  0.00     0.215 C 
ATOM    203  OE1 GLN d   1     -35.266  -4.319   1.335  0.00  0.00    -0.274 OA
ATOM    204  NE2 GLN d   1     -37.134  -4.085   2.561  0.00  0.00    -0.370 N 
ATOM    205  H   GLN d   1     -37.174  -5.063   2.765  0.00  0.00     0.159 HD
ATOM    206  H   GLN d   1     -37.834  -3.470   2.923  0.00  0.00     0.159 HD
ENDBRANCH 199 202
ENDBRANCH 196 199
ENDBRANCH   1 196
TORSDOF 41
