REMARK WARNING: 32 MAX_TORS EXCEEDED!!!
REMARK  39 active torsions:
REMARK  status: ('A' for Active; 'I' for Inactive)
REMARK    1  A    between atoms: CA_2  and  C_3 
REMARK       I    between atoms: C_3  and  N_8 
REMARK    2  A    between atoms: N_8  and  CA_9 
REMARK    3  A    between atoms: CA_9  and  C_10 
REMARK    4  A    between atoms: CA_9  and  CB_12 
REMARK       I    between atoms: C_10  and  N_15 
REMARK    5  A    between atoms: CB_12  and  CG1_13 
REMARK    6  A    between atoms: CB_12  and  CG2_14 
REMARK    7  A    between atoms: N_15  and  CA_16 
REMARK    8  A    between atoms: CA_16  and  C_17 
REMARK    9  A    between atoms: CA_16  and  CB_19 
REMARK       I    between atoms: C_17  and  N_23 
REMARK   10  A    between atoms: CB_19  and  CG_20 
REMARK   11  A    between atoms: CG_20  and  CD1_21 
REMARK   12  A    between atoms: CG_20  and  CD2_22 
REMARK   13  A    between atoms: N_23  and  CA_24 
REMARK   14  A    between atoms: CA_24  and  C_25 
REMARK   15  A    between atoms: CA_24  and  CB_27 
REMARK       I    between atoms: C_25  and  N_34 
REMARK   16  A    between atoms: CB_27  and  CG_28 
REMARK   17  A    between atoms: CA_35  and  C_36 
REMARK       I    between atoms: C_36  and  N_41 
REMARK   18  A    between atoms: N_41  and  CA_42 
REMARK   19  A    between atoms: CA_42  and  C_43 
REMARK       I    between atoms: C_43  and  N_45 
REMARK   20  A    between atoms: N_45  and  CA_46 
REMARK   21  A    between atoms: CA_46  and  C_47 
REMARK   22  A    between atoms: CA_46  and  CB_49 
REMARK       I    between atoms: C_47  and  N_50 
REMARK   23  A    between atoms: CA_51  and  C_52 
REMARK       I    between atoms: C_52  and  N_57 
REMARK   24  A    between atoms: N_57  and  CA_58 
REMARK   25  A    between atoms: CA_58  and  C_59 
REMARK   26  A    between atoms: CA_58  and  CB_61 
REMARK       I    between atoms: C_59  and  N_68 
REMARK   27  A    between atoms: CB_61  and  CG_62 
REMARK   28  A    between atoms: N_68  and  CA_69 
REMARK   29  A    between atoms: CA_69  and  C_70 
REMARK       I    between atoms: C_70  and  N_72 
REMARK   30  A    between atoms: N_72  and  CA_73 
REMARK   31  A    between atoms: CA_73  and  C_74 
REMARK   32  A    between atoms: CA_73  and  CB_76 
REMARK       I    between atoms: C_74  and  N_81 
REMARK   33  A    between atoms: CB_76  and  CG_77 
REMARK   34  A    between atoms: CG_77  and  CD_78 
REMARK       I    between atoms: CD_78  and  NE2_80 
REMARK   35  A    between atoms: CA_82  and  C_83 
REMARK       I    between atoms: C_83  and  N_88 
REMARK   36  A    between atoms: CA_89  and  C_90 
REMARK       I    between atoms: C_90  and  N_95 
REMARK   37  A    between atoms: N_95  and  CA_96 
REMARK   38  A    between atoms: CA_96  and  C_97 
REMARK   39  A    between atoms: CA_96  and  CB_99 
ROOT
ATOM      1  CA  GLN d   1      -1.493  64.765  -5.170  0.00  0.00     0.086 C 
ATOM      2  H   GLN d   1      -0.741  65.171  -4.478  0.00  0.00     0.086 H 
ENDROOT
BRANCH   1   3
ATOM      3  N   GLN d   1      -0.808  63.935  -6.166  0.00  0.00    -0.347 N 
ATOM      4  C   GLY d   1       0.186  63.109  -5.840  0.00  0.00     0.236 C 
ATOM      5  O   GLY d   1       0.582  62.961  -4.683  0.00  0.00    -0.272 OA
ATOM      6  H   GLN d   1      -1.096  63.990  -7.122  0.00  0.00     0.163 HD
BRANCH   4   7
ATOM      7  CA  GLY d   1       0.839  62.335  -6.973  0.00  0.00     0.069 C 
ATOM      8  H   GLY d   1       1.694  62.920  -7.343  0.00  0.00     0.078 H 
ATOM      9  H   GLY d   1       1.198  61.375  -6.573  0.00  0.00     0.078 H 
BRANCH   7  10
ATOM     10  N   GLY d   1      -0.052  62.059  -8.101  0.00  0.00    -0.351 N 
ATOM     11  C   PRO d   1       0.021  62.729  -9.250  0.00  0.00     0.241 C 
ATOM     12  O   PRO d   1       0.831  63.630  -9.463  0.00  0.00    -0.271 OA
ATOM     13  H   GLY d   1      -0.741  61.341  -8.005  0.00  0.00     0.163 HD
BRANCH  11  14
ATOM     14  CA  PRO d   1      -0.980  62.342 -10.331  0.00  0.00     0.091 C 
ATOM     15  N   PRO d   1      -1.621  63.512 -10.934  0.00  0.00    -0.337 N 
ATOM     16  C   PHE d   1      -2.414  64.299 -10.181  0.00  0.00     0.243 C 
ATOM     17  CD  PRO d   1      -1.221  63.690 -12.340  0.00  0.00    -0.001 C 
ATOM     18  O   PHE d   1      -2.571  64.120  -8.971  0.00  0.00    -0.271 OA
ATOM     19  CG  PRO d   1      -0.797  62.315 -12.744  0.00  0.00    -0.048 C 
ATOM     20  H   PRO d   1      -0.388  64.403 -12.427  0.00  0.00     0.064 H 
ATOM     21  H   PRO d   1      -2.067  64.039 -12.951  0.00  0.00     0.064 H 
ATOM     22  CB  PRO d   1      -0.259  61.673 -11.510  0.00  0.00    -0.036 C 
ATOM     23  H   PRO d   1      -1.657  61.747 -13.127  0.00  0.00     0.035 H 
ATOM     24  H   PRO d   1      -0.018  62.367 -13.519  0.00  0.00     0.035 H 
ATOM     25  H   PRO d   1      -0.466  60.593 -11.521  0.00  0.00     0.036 H 
ATOM     26  H   PRO d   1       0.826  61.837 -11.437  0.00  0.00     0.036 H 
ATOM     27  H   PRO d   1      -1.735  61.668  -9.900  0.00  0.00     0.087 H 
BRANCH  16  28
ATOM     28  CA  PHE d   1      -3.122  65.462 -10.876  0.00  0.00     0.093 C 
ATOM     29  H   PHE d   1      -3.363  65.171 -11.909  0.00  0.00     0.088 H 
BRANCH  28  30
ATOM     30  N   PHE d   1      -4.363  65.770 -10.170  0.00  0.00    -0.346 N 
ATOM     31  C   LEU d   1      -5.486  65.088 -10.390  0.00  0.00     0.241 C 
ATOM     32  O   LEU d   1      -5.600  64.245 -11.282  0.00  0.00    -0.271 OA
ATOM     33  H   PHE d   1      -4.370  66.514  -9.502  0.00  0.00     0.163 HD
BRANCH  31  34
ATOM     34  CA  LEU d   1      -6.663  65.406  -9.471  0.00  0.00     0.089 C 
ATOM     35  H   LEU d   1      -6.327  66.117  -8.702  0.00  0.00     0.087 H 
BRANCH  34  36
ATOM     36  N   LEU d   1      -7.762  66.011 -10.217  0.00  0.00    -0.346 N 
ATOM     37  C   VAL d   1      -8.296  67.187  -9.889  0.00  0.00     0.241 C 
ATOM     38  O   VAL d   1      -7.877  67.889  -8.969  0.00  0.00    -0.271 OA
ATOM     39  H   LEU d   1      -8.130  65.522 -11.008  0.00  0.00     0.163 HD
BRANCH  37  40
ATOM     40  CA  VAL d   1      -9.489  67.639 -10.728  0.00  0.00     0.092 C 
ATOM     41  H   VAL d   1      -9.623  68.723 -10.597  0.00  0.00     0.088 H 
BRANCH  40  42
ATOM     42  N   VAL d   1      -9.246  67.376 -12.147  0.00  0.00    -0.346 N 
ATOM     43  C   PRO d   1      -8.467  68.159 -12.887  0.00  0.00     0.249 C 
ATOM     44  O   PRO d   1      -7.891  69.156 -12.445  0.00  0.00    -0.271 OA
ATOM     45  H   VAL d   1      -9.680  66.582 -12.573  0.00  0.00     0.163 HD
BRANCH  43  46
ATOM     46  CA  PRO d   1      -8.305  67.759 -14.355  0.00  0.00     0.178 C 
ATOM     47  N   PRO d   1      -7.622  68.774 -15.155  0.00  0.00    -0.062 N 
ATOM     48  CD  PRO d   1      -6.213  68.424 -15.411  0.00  0.00     0.083 C 
ATOM     49  H   PRO d   1      -7.654  69.652 -14.662  0.00  0.00     0.278 HD
ATOM     50  H   PRO d   1      -8.099  68.867 -16.038  0.00  0.00     0.278 HD
ATOM     51  CG  PRO d   1      -6.023  67.129 -14.669  0.00  0.00    -0.040 C 
ATOM     52  H   PRO d   1      -5.539  69.201 -15.021  0.00  0.00     0.075 H 
ATOM     53  H   PRO d   1      -6.032  68.289 -16.488  0.00  0.00     0.075 H 
ATOM     54  CB  PRO d   1      -7.382  66.544 -14.481  0.00  0.00    -0.028 C 
ATOM     55  H   PRO d   1      -5.393  66.444 -15.255  0.00  0.00     0.035 H 
ATOM     56  H   PRO d   1      -5.552  67.316 -13.693  0.00  0.00     0.035 H 
ATOM     57  H   PRO d   1      -7.664  65.929 -15.348  0.00  0.00     0.036 H 
ATOM     58  H   PRO d   1      -7.419  65.931 -13.569  0.00  0.00     0.036 H 
ATOM     59  H   PRO d   1      -9.298  67.543 -14.777  0.00  0.00     0.099 H 
ENDBRANCH  43  46
ENDBRANCH  40  42
BRANCH  40  60
ATOM     60  CB  VAL d   1     -10.763  66.921 -10.222  0.00  0.00    -0.033 C 
ATOM     61  H   VAL d   1     -10.623  65.838 -10.351  0.00  0.00     0.042 H 
BRANCH  60  62
ATOM     62  CG1 VAL d   1     -10.989  67.202  -8.739  0.00  0.00    -0.071 C 
ATOM     63  H   VAL d   1     -11.898  66.683  -8.402  0.00  0.00     0.028 H 
ATOM     64  H   VAL d   1     -11.107  68.285  -8.585  0.00  0.00     0.028 H 
ATOM     65  H   VAL d   1     -10.125  66.841  -8.162  0.00  0.00     0.028 H 
ENDBRANCH  60  62
BRANCH  60  66
ATOM     66  CG2 VAL d   1     -11.978  67.347 -11.038  0.00  0.00    -0.071 C 
ATOM     67  H   VAL d   1     -11.797  67.137 -12.102  0.00  0.00     0.028 H 
ATOM     68  H   VAL d   1     -12.152  68.424 -10.901  0.00  0.00     0.028 H 
ATOM     69  H   VAL d   1     -12.862  66.787 -10.699  0.00  0.00     0.028 H 
ENDBRANCH  60  66
ENDBRANCH  40  60
ENDBRANCH  37  40
ENDBRANCH  34  36
BRANCH  34  70
ATOM     70  CB  LEU d   1      -7.142  64.123  -8.785  0.00  0.00    -0.035 C 
ATOM     71  H   LEU d   1      -6.269  63.645  -8.317  0.00  0.00     0.037 H 
ATOM     72  H   LEU d   1      -7.551  63.459  -9.561  0.00  0.00     0.037 H 
BRANCH  70  73
ATOM     73  CG  LEU d   1      -8.214  64.300  -7.706  0.00  0.00    -0.059 C 
ATOM     74  H   LEU d   1      -8.980  64.986  -8.098  0.00  0.00     0.038 H 
BRANCH  73  75
ATOM     75  CD1 LEU d   1      -8.890  62.979  -7.376  0.00  0.00    -0.073 C 
ATOM     76  H   LEU d   1      -9.652  63.141  -6.600  0.00  0.00     0.028 H 
ATOM     77  H   LEU d   1      -8.139  62.264  -7.008  0.00  0.00     0.028 H 
ATOM     78  H   LEU d   1      -9.368  62.576  -8.281  0.00  0.00     0.028 H 
ENDBRANCH  73  75
BRANCH  73  79
ATOM     79  CD2 LEU d   1      -7.620  64.921  -6.451  0.00  0.00    -0.073 C 
ATOM     80  H   LEU d   1      -7.136  65.875  -6.708  0.00  0.00     0.028 H 
ATOM     81  H   LEU d   1      -6.875  64.236  -6.020  0.00  0.00     0.028 H 
ATOM     82  H   LEU d   1      -8.420  65.102  -5.718  0.00  0.00     0.028 H 
ENDBRANCH  73  79
ENDBRANCH  70  73
ENDBRANCH  34  70
ENDBRANCH  31  34
ENDBRANCH  28  30
BRANCH  28  83
ATOM     83  CB  PHE d   1      -2.199  66.678 -10.909  0.00  0.00    -0.014 C 
ATOM     84  H   PHE d   1      -1.242  66.375 -11.359  0.00  0.00     0.043 H 
ATOM     85  H   PHE d   1      -2.028  67.011  -9.875  0.00  0.00     0.043 H 
BRANCH  83  86
ATOM     86  CG  PHE d   1      -2.745  67.834 -11.694  0.00  0.00    -0.056 A 
ATOM     87  CD1 PHE d   1      -3.502  68.818 -11.070  0.00  0.00    -0.077 A 
ATOM     88  CE1 PHE d   1      -4.005  69.888 -11.791  0.00  0.00    -0.082 A 
ATOM     89  H   PHE d   1      -3.701  68.747 -10.007  0.00  0.00     0.084 H 
ATOM     90  CZ  PHE d   1      -3.752  69.985 -13.149  0.00  0.00    -0.083 A 
ATOM     91  H   PHE d   1      -4.596  70.648 -11.293  0.00  0.00     0.083 H 
ATOM     92  CE2 PHE d   1      -2.997  69.011 -13.783  0.00  0.00    -0.082 A 
ATOM     93  H   PHE d   1      -4.144  70.822 -13.716  0.00  0.00     0.083 H 
ATOM     94  CD2 PHE d   1      -2.498  67.943 -13.056  0.00  0.00    -0.077 A 
ATOM     95  H   PHE d   1      -2.797  69.085 -14.846  0.00  0.00     0.083 H 
ATOM     96  H   PHE d   1      -1.908  67.183 -13.556  0.00  0.00     0.084 H 
ENDBRANCH  83  86
ENDBRANCH  28  83
ENDBRANCH  16  28
ENDBRANCH  11  14
ENDBRANCH   7  10
ENDBRANCH   4   7
ENDBRANCH   1   3
BRANCH   1  97
ATOM     97  C   GLN d   1      -2.509  63.950  -4.366  0.00  0.00     0.243 C 
ATOM     98  O   GLN d   1      -3.226  63.131  -4.939  0.00  0.00    -0.271 OA
ATOM     99  N   PRO d   1      -2.587  64.178  -3.038  0.00  0.00    -0.337 N 
ATOM    100  CA  PRO d   1      -3.587  63.474  -2.226  0.00  0.00     0.091 C 
ATOM    101  CD  PRO d   1      -1.722  65.043  -2.215  0.00  0.00    -0.001 C 
ATOM    102  CB  PRO d   1      -3.359  64.031  -0.815  0.00  0.00    -0.036 C 
ATOM    103  H   PRO d   1      -3.403  62.390  -2.255  0.00  0.00     0.087 H 
ATOM    104  CG  PRO d   1      -1.971  64.560  -0.820  0.00  0.00    -0.048 C 
ATOM    105  H   PRO d   1      -3.464  63.234  -0.065  0.00  0.00     0.036 H 
ATOM    106  H   PRO d   1      -4.077  64.836  -0.598  0.00  0.00     0.036 H 
ATOM    107  H   PRO d   1      -1.258  63.765  -0.557  0.00  0.00     0.035 H 
ATOM    108  H   PRO d   1      -1.875  65.390  -0.105  0.00  0.00     0.035 H 
ATOM    109  H   PRO d   1      -2.007  66.100  -2.322  0.00  0.00     0.064 H 
ATOM    110  H   PRO d   1      -0.665  64.919  -2.491  0.00  0.00     0.064 H 
BRANCH 100 111
ATOM    111  C   PRO d   1      -5.030  63.744  -2.661  0.00  0.00     0.241 C 
ATOM    112  O   PRO d   1      -5.316  64.769  -3.284  0.00  0.00    -0.271 OA
ATOM    113  N   PHE d   1      -5.924  62.816  -2.332  0.00  0.00    -0.346 N 
ATOM    114  H   PHE d   1      -5.612  61.978  -1.884  0.00  0.00     0.163 HD
BRANCH 113 115
ATOM    115  CA  PHE d   1      -7.348  62.985  -2.606  0.00  0.00     0.093 C 
ATOM    116  H   PHE d   1      -7.482  63.152  -3.685  0.00  0.00     0.088 H 
BRANCH 115 117
ATOM    117  C   PHE d   1      -7.883  64.197  -1.847  0.00  0.00     0.241 C 
ATOM    118  O   PHE d   1      -7.578  64.384  -0.670  0.00  0.00    -0.271 OA
ATOM    119  N   GLY d   1      -8.665  65.025  -2.533  0.00  0.00    -0.351 N 
ATOM    120  H   GLY d   1      -8.843  64.835  -3.498  0.00  0.00     0.163 HD
BRANCH 119 121
ATOM    121  CA  GLY d   1      -9.272  66.204  -1.919  0.00  0.00     0.069 C 
ATOM    122  H   GLY d   1      -9.694  65.899  -0.950  0.00  0.00     0.078 H 
ATOM    123  H   GLY d   1     -10.081  66.549  -2.579  0.00  0.00     0.078 H 
BRANCH 121 124
ATOM    124  C   GLY d   1      -8.341  67.379  -1.672  0.00  0.00     0.236 C 
ATOM    125  O   GLY d   1      -8.736  68.347  -1.020  0.00  0.00    -0.272 OA
ATOM    126  N   GLN d   1      -7.113  67.313  -2.187  0.00  0.00    -0.346 N 
ATOM    127  H   GLN d   1      -6.840  66.505  -2.709  0.00  0.00     0.163 HD
BRANCH 126 128
ATOM    128  CA  GLN d   1      -6.162  68.403  -1.999  0.00  0.00     0.090 C 
ATOM    129  H   GLN d   1      -6.202  68.730  -0.950  0.00  0.00     0.087 H 
BRANCH 128 130
ATOM    130  C   GLN d   1      -6.549  69.569  -2.901  0.00  0.00     0.243 C 
ATOM    131  O   GLN d   1      -6.795  69.370  -4.091  0.00  0.00    -0.271 OA
ATOM    132  N   PRO d   1      -6.603  70.791  -2.344  0.00  0.00    -0.337 N 
ATOM    133  CA  PRO d   1      -6.974  71.931  -3.179  0.00  0.00     0.092 C 
ATOM    134  CD  PRO d   1      -6.363  71.183  -0.942  0.00  0.00    -0.001 C 
ATOM    135  CB  PRO d   1      -7.173  73.062  -2.164  0.00  0.00    -0.036 C 
ATOM    136  H   PRO d   1      -7.908  71.724  -3.722  0.00  0.00     0.087 H 
ATOM    137  CG  PRO d   1      -6.332  72.680  -0.996  0.00  0.00    -0.048 C 
ATOM    138  H   PRO d   1      -8.231  73.138  -1.871  0.00  0.00     0.036 H 
ATOM    139  H   PRO d   1      -6.839  74.022  -2.584  0.00  0.00     0.036 H 
ATOM    140  H   PRO d   1      -6.747  73.105  -0.070  0.00  0.00     0.035 H 
ATOM    141  H   PRO d   1      -5.301  73.037  -1.134  0.00  0.00     0.035 H 
ATOM    142  H   PRO d   1      -5.404  70.783  -0.581  0.00  0.00     0.064 H 
ATOM    143  H   PRO d   1      -7.176  70.830  -0.291  0.00  0.00     0.064 H 
BRANCH 133 144
ATOM    144  C   PRO d   1      -5.878  72.291  -4.187  0.00  0.00     0.243 C 
ATOM    145  O   PRO d   1      -4.704  72.010  -3.936  0.00  0.00    -0.271 OA
ATOM    146  N   PRO d   1      -6.259  72.895  -5.328  0.00  0.00    -0.337 N 
ATOM    147  CA  PRO d   1      -5.278  73.396  -6.289  0.00  0.00     0.091 C 
ATOM    148  CD  PRO d   1      -7.640  73.064  -5.821  0.00  0.00    -0.001 C 
ATOM    149  CB  PRO d   1      -6.040  73.337  -7.613  0.00  0.00    -0.036 C 
ATOM    150  H   PRO d   1      -4.391  72.746  -6.314  0.00  0.00     0.087 H 
ATOM    151  CG  PRO d   1      -7.464  73.563  -7.231  0.00  0.00    -0.048 C 
ATOM    152  H   PRO d   1      -5.916  72.354  -8.090  0.00  0.00     0.036 H 
ATOM    153  H   PRO d   1      -5.691  74.124  -8.298  0.00  0.00     0.036 H 
ATOM    154  H   PRO d   1      -8.128  73.009  -7.911  0.00  0.00     0.035 H 
ATOM    155  H   PRO d   1      -7.700  74.636  -7.282  0.00  0.00     0.035 H 
ATOM    156  H   PRO d   1      -8.186  73.799  -5.211  0.00  0.00     0.064 H 
ATOM    157  H   PRO d   1      -8.179  72.105  -5.810  0.00  0.00     0.064 H 
BRANCH 147 158
ATOM    158  C   PRO d   1      -4.841  74.832  -5.979  0.00  0.00     0.241 C 
ATOM    159  O   PRO d   1      -5.439  75.492  -5.124  0.00  0.00    -0.271 OA
ATOM    160  N   LEU d   1      -3.804  75.296  -6.675  0.00  0.00    -0.345 N 
ATOM    161  H   LEU d   1      -3.363  74.688  -7.335  0.00  0.00     0.163 HD
BRANCH 160 162
ATOM    162  CA  LEU d   1      -3.278  76.659  -6.519  0.00  0.00     0.093 C 
ATOM    163  H   LEU d   1      -2.418  76.766  -7.197  0.00  0.00     0.089 H 
BRANCH 162 164
ATOM    164  C   LEU d   1      -2.790  76.930  -5.097  0.00  0.00     0.196 C 
ATOM    165  O   LEU d   1      -1.799  76.354  -4.650  0.00  0.00    -0.646 OA
ATOM    166  O1  LEU d   1      -3.410  77.754  -4.373  0.00  0.00    -0.646 OA
ENDBRANCH 162 164
BRANCH 162 167
ATOM    167  CB  LEU d   1      -4.333  77.698  -6.919  0.00  0.00    -0.048 C 
ATOM    168  H   LEU d   1      -3.918  78.709  -6.794  0.00  0.00     0.030 H 
ATOM    169  H   LEU d   1      -5.220  77.585  -6.279  0.00  0.00     0.030 H 
ATOM    170  H   LEU d   1      -4.617  77.546  -7.971  0.00  0.00     0.030 H 
ENDBRANCH 162 167
ENDBRANCH 160 162
ENDBRANCH 147 158
ENDBRANCH 133 144
ENDBRANCH 128 130
BRANCH 128 171
ATOM    171  CB  GLN d   1      -4.734  67.961  -2.321  0.00  0.00    -0.030 C 
ATOM    172  H   GLN d   1      -4.630  67.880  -3.413  0.00  0.00     0.037 H 
ATOM    173  H   GLN d   1      -4.560  66.977  -1.862  0.00  0.00     0.037 H 
BRANCH 171 174
ATOM    174  CG  GLN d   1      -3.680  68.931  -1.804  0.00  0.00     0.011 C 
ATOM    175  H   GLN d   1      -3.528  68.742  -0.731  0.00  0.00     0.047 H 
ATOM    176  H   GLN d   1      -4.050  69.957  -1.947  0.00  0.00     0.047 H 
BRANCH 174 177
ATOM    177  CD  GLN d   1      -2.346  68.799  -2.509  0.00  0.00     0.215 C 
ATOM    178  OE1 GLN d   1      -2.275  68.816  -3.738  0.00  0.00    -0.274 OA
ATOM    179  NE2 GLN d   1      -1.275  68.681  -1.732  0.00  0.00    -0.370 N 
ATOM    180  H   GLN d   1      -0.367  68.591  -2.142  0.00  0.00     0.159 HD
ATOM    181  H   GLN d   1      -1.376  68.683  -0.737  0.00  0.00     0.159 HD
ENDBRANCH 174 177
ENDBRANCH 171 174
ENDBRANCH 128 171
ENDBRANCH 126 128
ENDBRANCH 121 124
ENDBRANCH 119 121
ENDBRANCH 115 117
BRANCH 115 182
ATOM    182  CB  PHE d   1      -8.133  61.733  -2.201  0.00  0.00    -0.014 C 
ATOM    183  H   PHE d   1      -9.203  61.988  -2.177  0.00  0.00     0.043 H 
ATOM    184  H   PHE d   1      -7.805  61.430  -1.196  0.00  0.00     0.043 H 
BRANCH 182 185
ATOM    185  CG  PHE d   1      -7.947  60.567  -3.130  0.00  0.00    -0.056 A 
ATOM    186  CD1 PHE d   1      -8.752  60.424  -4.253  0.00  0.00    -0.077 A 
ATOM    187  CE1 PHE d   1      -8.589  59.346  -5.109  0.00  0.00    -0.082 A 
ATOM    188  H   PHE d   1      -9.516  61.164  -4.462  0.00  0.00     0.084 H 
ATOM    189  CZ  PHE d   1      -7.618  58.395  -4.844  0.00  0.00    -0.083 A 
ATOM    190  H   PHE d   1      -9.221  59.248  -5.984  0.00  0.00     0.083 H 
ATOM    191  CE2 PHE d   1      -6.811  58.525  -3.726  0.00  0.00    -0.082 A 
ATOM    192  H   PHE d   1      -7.490  57.550  -5.511  0.00  0.00     0.083 H 
ATOM    193  CD2 PHE d   1      -6.980  59.603  -2.875  0.00  0.00    -0.077 A 
ATOM    194  H   PHE d   1      -6.048  57.783  -3.518  0.00  0.00     0.083 H 
ATOM    195  H   PHE d   1      -6.350  59.696  -1.998  0.00  0.00     0.084 H 
ENDBRANCH 182 185
ENDBRANCH 115 182
ENDBRANCH 113 115
ENDBRANCH 100 111
ENDBRANCH   1  97
BRANCH   1 196
ATOM    196  CB  GLN d   1      -2.214  65.927  -5.857  0.00  0.00    -0.049 C 
ATOM    197  H   GLN d   1      -2.723  66.541  -5.100  0.00  0.00     0.030 H 
ATOM    198  H   GLN d   1      -2.955  65.531  -6.567  0.00  0.00     0.030 H 
ATOM    199  H   GLN d   1      -1.482  66.544  -6.398  0.00  0.00     0.030 H 
ENDBRANCH   1 196
TORSDOF 39
