REMARK  31 active torsions:
REMARK  status: ('A' for Active; 'I' for Inactive)
REMARK    1  A    between atoms: N_1  and  CA_2 
REMARK    2  A    between atoms: CA_2  and  C_3 
REMARK    3  A    between atoms: CA_2  and  CB_5 
REMARK       I    between atoms: C_3  and  N_7 
REMARK    4  A    between atoms: CB_5  and  OG_6 
REMARK    5  A    between atoms: CA_8  and  C_9 
REMARK       I    between atoms: C_9  and  N_14 
REMARK    6  A    between atoms: N_14  and  CA_15 
REMARK    7  A    between atoms: CA_15  and  C_16 
REMARK    8  A    between atoms: CA_15  and  CB_18 
REMARK       I    between atoms: C_16  and  N_20 
REMARK    9  A    between atoms: CB_18  and  OG_19 
REMARK   10  A    between atoms: N_20  and  CA_21 
REMARK   11  A    between atoms: CA_21  and  C_22 
REMARK       I    between atoms: C_22  and  N_24 
REMARK   12  A    between atoms: N_24  and  CA_25 
REMARK   13  A    between atoms: CA_25  and  C_26 
REMARK   14  A    between atoms: CA_25  and  CB_28 
REMARK       I    between atoms: C_26  and  N_31 
REMARK   15  A    between atoms: CB_28  and  CG1_29 
REMARK   16  A    between atoms: CB_28  and  CG2_30 
REMARK   17  A    between atoms: N_31  and  CA_32 
REMARK   18  A    between atoms: CA_32  and  C_33 
REMARK   19  A    between atoms: CA_32  and  CB_35 
REMARK       I    between atoms: C_33  and  N_42 
REMARK   20  A    between atoms: CB_35  and  CG_36 
REMARK   21  A    between atoms: N_42  and  CA_43 
REMARK   22  A    between atoms: CA_43  and  C_44 
REMARK   23  A    between atoms: CA_43  and  CB_46 
REMARK       I    between atoms: C_44  and  N_49 
REMARK   24  A    between atoms: CB_46  and  OG1_47 
REMARK   25  A    between atoms: CB_46  and  CG2_48 
REMARK   26  A    between atoms: N_49  and  CA_50 
REMARK   27  A    between atoms: CA_50  and  C_51 
REMARK   28  A    between atoms: CA_50  and  CB_53 
REMARK       I    between atoms: C_51  and  N_60 
REMARK   29  A    between atoms: CB_53  and  CG_54 
REMARK   30  A    between atoms: N_60  and  CA_61 
REMARK   31  A    between atoms: CA_61  and  C_62 
ROOT
ATOM      1  C   VAL d   1     -16.700  75.421   0.240  0.00  0.00     0.241 C 
ATOM      2  O   VAL d   1     -17.335  76.323  -0.305  0.00  0.00    -0.271 OA
ATOM      3  N   PHE d   1     -16.409  75.435   1.541  0.00  0.00    -0.346 N 
ATOM      4  H   PHE d   1     -15.868  74.688   1.928  0.00  0.00     0.163 HD
ENDROOT
BRANCH   3   5
ATOM      5  CA  PHE d   1     -16.862  76.518   2.416  0.00  0.00     0.093 C 
ATOM      6  H   PHE d   1     -17.845  76.857   2.058  0.00  0.00     0.088 H 
BRANCH   5   7
ATOM      7  C   PHE d   1     -15.899  77.702   2.345  0.00  0.00     0.241 C 
ATOM      8  O   PHE d   1     -15.032  77.874   3.200  0.00  0.00    -0.271 OA
ATOM      9  N   THR d   1     -16.076  78.515   1.309  0.00  0.00    -0.344 N 
ATOM     10  H   THR d   1     -16.826  78.326   0.675  0.00  0.00     0.163 HD
BRANCH   9  11
ATOM     11  CA  THR d   1     -15.220  79.675   1.055  0.00  0.00     0.113 C 
ATOM     12  H   THR d   1     -14.208  79.308   0.831  0.00  0.00     0.091 H 
BRANCH  11  13
ATOM     13  C   THR d   1     -15.135  80.603   2.261  0.00  0.00     0.243 C 
ATOM     14  O   THR d   1     -14.055  81.095   2.594  0.00  0.00    -0.271 OA
ATOM     15  N   PHE d   1     -16.278  80.838   2.902  0.00  0.00    -0.346 N 
ATOM     16  H   PHE d   1     -17.114  80.404   2.566  0.00  0.00     0.163 HD
BRANCH  15  17
ATOM     17  CA  PHE d   1     -16.362  81.700   4.072  0.00  0.00     0.093 C 
ATOM     18  H   PHE d   1     -15.432  82.283   4.145  0.00  0.00     0.088 H 
BRANCH  17  19
ATOM     19  C   PHE d   1     -16.518  80.874   5.346  0.00  0.00     0.241 C 
ATOM     20  O   PHE d   1     -17.234  79.872   5.362  0.00  0.00    -0.271 OA
ATOM     21  N   GLY d   1     -15.846  81.302   6.414  0.00  0.00    -0.349 N 
ATOM     22  H   GLY d   1     -15.262  82.109   6.326  0.00  0.00     0.163 HD
BRANCH  21  23
ATOM     23  CA  GLY d   1     -15.935  80.630   7.711  0.00  0.00     0.075 C 
ATOM     24  H   GLY d   1     -16.986  80.365   7.896  0.00  0.00     0.080 H 
ATOM     25  H   GLY d   1     -15.589  81.326   8.490  0.00  0.00     0.080 H 
BRANCH  23  26
ATOM     26  C   GLY d   1     -15.099  79.367   7.787  0.00  0.00     0.191 C 
ATOM     27  O   GLY d   1     -14.123  79.214   7.056  0.00  0.00    -0.647 OA
ATOM     28  O1  GLY d   1     -15.409  78.464   8.609  0.00  0.00    -0.647 OA
ENDBRANCH  23  26
ENDBRANCH  21  23
ENDBRANCH  17  19
BRANCH  17  29
ATOM     29  CB  PHE d   1     -17.537  82.666   3.922  0.00  0.00    -0.014 C 
ATOM     30  H   PHE d   1     -17.549  83.337   4.794  0.00  0.00     0.043 H 
ATOM     31  H   PHE d   1     -18.467  82.080   3.898  0.00  0.00     0.043 H 
BRANCH  29  32
ATOM     32  CG  PHE d   1     -17.474  83.506   2.679  0.00  0.00    -0.056 A 
ATOM     33  CD1 PHE d   1     -16.802  84.719   2.682  0.00  0.00    -0.077 A 
ATOM     34  CE1 PHE d   1     -16.742  85.496   1.536  0.00  0.00    -0.082 A 
ATOM     35  H   PHE d   1     -16.319  85.063   3.590  0.00  0.00     0.084 H 
ATOM     36  CZ  PHE d   1     -17.353  85.059   0.373  0.00  0.00    -0.083 A 
ATOM     37  H   PHE d   1     -16.217  86.445   1.550  0.00  0.00     0.083 H 
ATOM     38  CE2 PHE d   1     -18.025  83.851   0.357  0.00  0.00    -0.082 A 
ATOM     39  H   PHE d   1     -17.304  85.664  -0.525  0.00  0.00     0.083 H 
ATOM     40  CD2 PHE d   1     -18.083  83.082   1.505  0.00  0.00    -0.077 A 
ATOM     41  H   PHE d   1     -18.505  83.508  -0.552  0.00  0.00     0.083 H 
ATOM     42  H   PHE d   1     -18.611  82.135   1.488  0.00  0.00     0.084 H 
ENDBRANCH  29  32
ENDBRANCH  17  29
ENDBRANCH  15  17
ENDBRANCH  11  13
BRANCH  11  43
ATOM     43  CB  THR d   1     -15.734  80.472  -0.160  0.00  0.00     0.060 C 
ATOM     44  H   THR d   1     -16.714  80.906   0.089  0.00  0.00     0.086 H 
BRANCH  43  45
ATOM     45  OG1 THR d   1     -15.885  79.585  -1.276  0.00  0.00    -0.393 OA
ATOM     46  H   THR d   1     -16.202  80.073  -2.027  0.00  0.00     0.210 HD
ENDBRANCH  43  45
BRANCH  43  47
ATOM     47  CG2 THR d   1     -14.771  81.611  -0.526  0.00  0.00    -0.050 C 
ATOM     48  H   THR d   1     -15.165  82.159  -1.394  0.00  0.00     0.031 H 
ATOM     49  H   THR d   1     -13.785  81.192  -0.774  0.00  0.00     0.031 H 
ATOM     50  H   THR d   1     -14.674  82.298   0.328  0.00  0.00     0.031 H 
ENDBRANCH  43  47
ENDBRANCH  11  43
ENDBRANCH   9  11
ENDBRANCH   5   7
BRANCH   5  51
ATOM     51  CB  PHE d   1     -17.029  76.025   3.856  0.00  0.00    -0.014 C 
ATOM     52  H   PHE d   1     -17.144  76.900   4.513  0.00  0.00     0.043 H 
ATOM     53  H   PHE d   1     -16.124  75.469   4.141  0.00  0.00     0.043 H 
BRANCH  51  54
ATOM     54  CG  PHE d   1     -18.220  75.126   4.048  0.00  0.00    -0.056 A 
ATOM     55  CD1 PHE d   1     -19.397  75.615   4.598  0.00  0.00    -0.077 A 
ATOM     56  CE1 PHE d   1     -20.498  74.789   4.771  0.00  0.00    -0.082 A 
ATOM     57  H   PHE d   1     -19.456  76.656   4.896  0.00  0.00     0.084 H 
ATOM     58  CZ  PHE d   1     -20.432  73.462   4.390  0.00  0.00    -0.083 A 
ATOM     59  H   PHE d   1     -21.410  75.184   5.205  0.00  0.00     0.083 H 
ATOM     60  CE2 PHE d   1     -19.265  72.963   3.836  0.00  0.00    -0.082 A 
ATOM     61  H   PHE d   1     -21.291  72.814   4.524  0.00  0.00     0.083 H 
ATOM     62  CD2 PHE d   1     -18.168  73.793   3.669  0.00  0.00    -0.077 A 
ATOM     63  H   PHE d   1     -19.210  71.924   3.533  0.00  0.00     0.083 H 
ATOM     64  H   PHE d   1     -17.257  73.395   3.236  0.00  0.00     0.084 H 
ENDBRANCH  51  54
ENDBRANCH   5  51
ENDBRANCH   3   5
BRANCH   1  65
ATOM     65  CA  VAL d   1     -16.183  74.231  -0.584  0.00  0.00     0.092 C 
ATOM     66  H   VAL d   1     -15.339  74.599  -1.186  0.00  0.00     0.088 H 
BRANCH  65  67
ATOM     67  N   VAL d   1     -15.674  73.122   0.230  0.00  0.00    -0.346 N 
ATOM     68  C   GLY d   1     -14.401  72.737   0.181  0.00  0.00     0.236 C 
ATOM     69  O   GLY d   1     -13.528  73.380  -0.400  0.00  0.00    -0.272 OA
ATOM     70  H   VAL d   1     -16.303  72.641   0.841  0.00  0.00     0.163 HD
BRANCH  68  71
ATOM     71  CA  GLY d   1     -14.058  71.454   0.915  0.00  0.00     0.069 C 
ATOM     72  H   GLY d   1     -14.138  71.632   1.998  0.00  0.00     0.078 H 
ATOM     73  H   GLY d   1     -14.773  70.672   0.618  0.00  0.00     0.078 H 
BRANCH  71  74
ATOM     74  N   GLY d   1     -12.697  70.994   0.609  0.00  0.00    -0.350 N 
ATOM     75  C   SER d   1     -11.649  71.380   1.335  0.00  0.00     0.242 C 
ATOM     76  O   SER d   1     -11.759  72.120   2.311  0.00  0.00    -0.271 OA
ATOM     77  H   GLY d   1     -12.554  70.376  -0.164  0.00  0.00     0.163 HD
BRANCH  75  78
ATOM     78  CA  SER d   1     -10.257  70.885   0.911  0.00  0.00     0.109 C 
ATOM     79  H   SER d   1      -9.788  70.430   1.796  0.00  0.00     0.090 H 
BRANCH  78  80
ATOM     80  N   SER d   1     -10.246  69.873  -0.153  0.00  0.00    -0.344 N 
ATOM     81  C   PRO d   1     -10.481  68.586   0.088  0.00  0.00     0.241 C 
ATOM     82  O   PRO d   1     -10.816  68.155   1.192  0.00  0.00    -0.271 OA
ATOM     83  H   SER d   1     -10.055  70.161  -1.091  0.00  0.00     0.163 HD
BRANCH  81  84
ATOM     84  CA  PRO d   1     -10.310  67.627  -1.092  0.00  0.00     0.091 C 
ATOM     85  N   PRO d   1      -9.919  66.277  -0.669  0.00  0.00    -0.337 N 
ATOM     86  C   SER d   1      -8.721  66.070  -0.091  0.00  0.00     0.253 C 
ATOM     87  CD  PRO d   1     -10.983  65.285  -0.915  0.00  0.00    -0.001 C 
ATOM     88  O   SER d   1      -7.910  66.980   0.101  0.00  0.00    -0.271 OA
ATOM     89  CG  PRO d   1     -12.178  66.122  -1.279  0.00  0.00    -0.048 C 
ATOM     90  H   PRO d   1     -11.182  64.691  -0.011  0.00  0.00     0.064 H 
ATOM     91  H   PRO d   1     -10.709  64.613  -1.742  0.00  0.00     0.064 H 
ATOM     92  CB  PRO d   1     -11.642  67.403  -1.819  0.00  0.00    -0.036 C 
ATOM     93  H   PRO d   1     -12.783  65.611  -2.042  0.00  0.00     0.035 H 
ATOM     94  H   PRO d   1     -12.795  66.312  -0.389  0.00  0.00     0.035 H 
ATOM     95  H   PRO d   1     -11.480  67.325  -2.904  0.00  0.00     0.036 H 
ATOM     96  H   PRO d   1     -12.338  68.229  -1.611  0.00  0.00     0.036 H 
ATOM     97  H   PRO d   1      -9.559  68.043  -1.780  0.00  0.00     0.087 H 
BRANCH  86  98
ATOM     98  CA  SER d   1      -8.389  64.638   0.341  0.00  0.00     0.196 C 
ATOM     99  H   SER d   1      -8.883  63.941  -0.352  0.00  0.00     0.102 H 
BRANCH  98 100
ATOM    100  N   SER d   1      -6.918  64.396   0.288  0.00  0.00    -0.064 N 
ATOM    101  H   SER d   1      -6.723  63.450   0.576  0.00  0.00     0.275 HD
ATOM    102  H   SER d   1      -6.449  65.039   0.907  0.00  0.00     0.275 HD
ATOM    103  H   SER d   1      -6.588  64.536  -0.654  0.00  0.00     0.275 HD
ENDBRANCH  98 100
BRANCH  98 104
ATOM    104  CB  SER d   1      -8.918  64.380   1.755  0.00  0.00     0.051 C 
ATOM    105  H   SER d   1      -8.643  63.360   2.060  0.00  0.00     0.077 H 
ATOM    106  H   SER d   1     -10.014  64.480   1.752  0.00  0.00     0.077 H 
BRANCH 104 107
ATOM    107  OG  SER d   1      -8.372  65.303   2.682  0.00  0.00    -0.398 OA
ATOM    108  H   SER d   1      -8.716  65.121   3.549  0.00  0.00     0.209 HD
ENDBRANCH 104 107
ENDBRANCH  98 104
ENDBRANCH  86  98
ENDBRANCH  81  84
ENDBRANCH  78  80
BRANCH  78 109
ATOM    109  CB  SER d   1      -9.416  72.091   0.483  0.00  0.00     0.044 C 
ATOM    110  H   SER d   1      -8.396  71.753   0.248  0.00  0.00     0.077 H 
ATOM    111  H   SER d   1      -9.381  72.817   1.309  0.00  0.00     0.077 H 
BRANCH 109 112
ATOM    112  OG  SER d   1      -9.973  72.716  -0.661  0.00  0.00    -0.398 OA
ATOM    113  H   SER d   1      -9.436  73.460  -0.907  0.00  0.00     0.209 HD
ENDBRANCH 109 112
ENDBRANCH  78 109
ENDBRANCH  75  78
ENDBRANCH  71  74
ENDBRANCH  68  71
ENDBRANCH  65  67
BRANCH  65 114
ATOM    114  CB  VAL d   1     -17.280  73.739  -1.565  0.00  0.00    -0.033 C 
ATOM    115  H   VAL d   1     -17.532  74.572  -2.238  0.00  0.00     0.042 H 
BRANCH 114 116
ATOM    116  CG1 VAL d   1     -16.747  72.591  -2.412  0.00  0.00    -0.071 C 
ATOM    117  H   VAL d   1     -17.532  72.250  -3.103  0.00  0.00     0.028 H 
ATOM    118  H   VAL d   1     -16.449  71.759  -1.757  0.00  0.00     0.028 H 
ATOM    119  H   VAL d   1     -15.875  72.934  -2.988  0.00  0.00     0.028 H 
ENDBRANCH 114 116
BRANCH 114 120
ATOM    120  CG2 VAL d   1     -18.557  73.333  -0.827  0.00  0.00    -0.071 C 
ATOM    121  H   VAL d   1     -18.918  74.180  -0.225  0.00  0.00     0.028 H 
ATOM    122  H   VAL d   1     -18.343  72.479  -0.167  0.00  0.00     0.028 H 
ATOM    123  H   VAL d   1     -19.328  73.048  -1.558  0.00  0.00     0.028 H 
ENDBRANCH 114 120
ENDBRANCH  65 114
ENDBRANCH   1  65
TORSDOF 31
