REMARK  31 active torsions:
REMARK  status: ('A' for Active; 'I' for Inactive)
REMARK    1  A    between atoms: N_1  and  CA_2 
REMARK    2  A    between atoms: CA_2  and  C_3 
REMARK    3  A    between atoms: CA_2  and  CB_5 
REMARK       I    between atoms: C_3  and  N_7 
REMARK    4  A    between atoms: CB_5  and  OG_6 
REMARK    5  A    between atoms: CA_8  and  C_9 
REMARK       I    between atoms: C_9  and  N_14 
REMARK    6  A    between atoms: N_14  and  CA_15 
REMARK    7  A    between atoms: CA_15  and  C_16 
REMARK    8  A    between atoms: CA_15  and  CB_18 
REMARK       I    between atoms: C_16  and  N_20 
REMARK    9  A    between atoms: CB_18  and  OG_19 
REMARK   10  A    between atoms: N_20  and  CA_21 
REMARK   11  A    between atoms: CA_21  and  C_22 
REMARK       I    between atoms: C_22  and  N_24 
REMARK   12  A    between atoms: N_24  and  CA_25 
REMARK   13  A    between atoms: CA_25  and  C_26 
REMARK   14  A    between atoms: CA_25  and  CB_28 
REMARK       I    between atoms: C_26  and  N_31 
REMARK   15  A    between atoms: CB_28  and  CG1_29 
REMARK   16  A    between atoms: CB_28  and  CG2_30 
REMARK   17  A    between atoms: N_31  and  CA_32 
REMARK   18  A    between atoms: CA_32  and  C_33 
REMARK   19  A    between atoms: CA_32  and  CB_35 
REMARK       I    between atoms: C_33  and  N_42 
REMARK   20  A    between atoms: CB_35  and  CG_36 
REMARK   21  A    between atoms: N_42  and  CA_43 
REMARK   22  A    between atoms: CA_43  and  C_44 
REMARK   23  A    between atoms: CA_43  and  CB_46 
REMARK       I    between atoms: C_44  and  N_49 
REMARK   24  A    between atoms: CB_46  and  OG1_47 
REMARK   25  A    between atoms: CB_46  and  CG2_48 
REMARK   26  A    between atoms: N_49  and  CA_50 
REMARK   27  A    between atoms: CA_50  and  C_51 
REMARK   28  A    between atoms: CA_50  and  CB_53 
REMARK       I    between atoms: C_51  and  N_60 
REMARK   29  A    between atoms: CB_53  and  CG_54 
REMARK   30  A    between atoms: N_60  and  CA_61 
REMARK   31  A    between atoms: CA_61  and  C_62 
ROOT
ATOM      1  C   VAL d   1     -46.509 -43.068  -6.748  0.00  0.00     0.241 C 
ATOM      2  O   VAL d   1     -46.601 -42.226  -5.852  0.00  0.00    -0.271 OA
ATOM      3  N   PHE d   1     -45.467 -43.890  -6.859  0.00  0.00    -0.346 N 
ATOM      4  H   PHE d   1     -45.447 -44.552  -7.609  0.00  0.00     0.163 HD
ENDROOT
BRANCH   3   5
ATOM      5  CA  PHE d   1     -44.353 -43.851  -5.915  0.00  0.00     0.093 C 
ATOM      6  H   PHE d   1     -44.746 -43.600  -4.919  0.00  0.00     0.088 H 
BRANCH   5   7
ATOM      7  C   PHE d   1     -43.357 -42.770  -6.331  0.00  0.00     0.241 C 
ATOM      8  O   PHE d   1     -42.446 -43.021  -7.121  0.00  0.00    -0.271 OA
ATOM      9  N   THR d   1     -43.549 -41.566  -5.794  0.00  0.00    -0.344 N 
ATOM     10  H   THR d   1     -44.297 -41.444  -5.142  0.00  0.00     0.163 HD
BRANCH   9  11
ATOM     11  CA  THR d   1     -42.708 -40.415  -6.121  0.00  0.00     0.113 C 
ATOM     12  H   THR d   1     -42.773 -40.246  -7.206  0.00  0.00     0.091 H 
BRANCH  11  13
ATOM     13  C   THR d   1     -41.244 -40.657  -5.757  0.00  0.00     0.243 C 
ATOM     14  O   THR d   1     -40.345 -40.331  -6.534  0.00  0.00    -0.271 OA
ATOM     15  N   PHE d   1     -41.018 -41.228  -4.575  0.00  0.00    -0.346 N 
ATOM     16  H   PHE d   1     -41.801 -41.475  -4.005  0.00  0.00     0.163 HD
BRANCH  15  17
ATOM     17  CA  PHE d   1     -39.673 -41.508  -4.077  0.00  0.00     0.093 C 
ATOM     18  H   PHE d   1     -38.942 -41.002  -4.725  0.00  0.00     0.088 H 
BRANCH  17  19
ATOM     19  C   PHE d   1     -39.398 -43.009  -4.101  0.00  0.00     0.241 C 
ATOM     20  O   PHE d   1     -40.235 -43.805  -3.674  0.00  0.00    -0.271 OA
ATOM     21  N   GLY d   1     -38.223 -43.387  -4.600  0.00  0.00    -0.349 N 
ATOM     22  H   GLY d   1     -37.590 -42.688  -4.932  0.00  0.00     0.163 HD
BRANCH  21  23
ATOM     23  CA  GLY d   1     -37.830 -44.793  -4.678  0.00  0.00     0.075 C 
ATOM     24  H   GLY d   1     -38.060 -45.277  -3.717  0.00  0.00     0.080 H 
ATOM     25  H   GLY d   1     -36.747 -44.846  -4.865  0.00  0.00     0.080 H 
BRANCH  23  26
ATOM     26  C   GLY d   1     -38.552 -45.540  -5.784  0.00  0.00     0.191 C 
ATOM     27  O   GLY d   1     -38.098 -45.567  -6.929  0.00  0.00    -0.647 OA
ATOM     28  O1  GLY d   1     -39.630 -46.140  -5.528  0.00  0.00    -0.647 OA
ENDBRANCH  23  26
ENDBRANCH  21  23
ENDBRANCH  17  19
BRANCH  17  29
ATOM     29  CB  PHE d   1     -39.521 -40.980  -2.650  0.00  0.00    -0.014 C 
ATOM     30  H   PHE d   1     -38.480 -41.138  -2.330  0.00  0.00     0.043 H 
ATOM     31  H   PHE d   1     -40.196 -41.550  -1.995  0.00  0.00     0.043 H 
BRANCH  29  32
ATOM     32  CG  PHE d   1     -39.844 -39.520  -2.508  0.00  0.00    -0.056 A 
ATOM     33  CD1 PHE d   1     -38.849 -38.561  -2.616  0.00  0.00    -0.077 A 
ATOM     34  CE1 PHE d   1     -39.145 -37.214  -2.485  0.00  0.00    -0.082 A 
ATOM     35  H   PHE d   1     -37.827 -38.869  -2.805  0.00  0.00     0.084 H 
ATOM     36  CZ  PHE d   1     -40.448 -36.814  -2.245  0.00  0.00    -0.083 A 
ATOM     37  H   PHE d   1     -38.357 -36.474  -2.570  0.00  0.00     0.083 H 
ATOM     38  CE2 PHE d   1     -41.450 -37.761  -2.136  0.00  0.00    -0.082 A 
ATOM     39  H   PHE d   1     -40.683 -35.761  -2.143  0.00  0.00     0.083 H 
ATOM     40  CD2 PHE d   1     -41.146 -39.105  -2.267  0.00  0.00    -0.077 A 
ATOM     41  H   PHE d   1     -42.472 -37.451  -1.948  0.00  0.00     0.083 H 
ATOM     42  H   PHE d   1     -41.935 -39.843  -2.180  0.00  0.00     0.084 H 
ENDBRANCH  29  32
ENDBRANCH  17  29
ENDBRANCH  15  17
ENDBRANCH  11  13
BRANCH  11  43
ATOM     43  CB  THR d   1     -43.194 -39.142  -5.395  0.00  0.00     0.060 C 
ATOM     44  H   THR d   1     -42.996 -39.252  -4.319  0.00  0.00     0.086 H 
BRANCH  43  45
ATOM     45  OG1 THR d   1     -44.603 -38.976  -5.598  0.00  0.00    -0.393 OA
ATOM     46  H   THR d   1     -44.896 -38.192  -5.149  0.00  0.00     0.210 HD
ENDBRANCH  43  45
BRANCH  43  47
ATOM     47  CG2 THR d   1     -42.460 -37.906  -5.907  0.00  0.00    -0.050 C 
ATOM     48  H   THR d   1     -42.825 -37.016  -5.374  0.00  0.00     0.031 H 
ATOM     49  H   THR d   1     -42.646 -37.790  -6.985  0.00  0.00     0.031 H 
ATOM     50  H   THR d   1     -41.380 -38.022  -5.731  0.00  0.00     0.031 H 
ENDBRANCH  43  47
ENDBRANCH  11  43
ENDBRANCH   9  11
ENDBRANCH   5   7
BRANCH   5  51
ATOM     51  CB  PHE d   1     -43.667 -45.218  -5.834  0.00  0.00    -0.014 C 
ATOM     52  H   PHE d   1     -42.742 -45.108  -5.249  0.00  0.00     0.043 H 
ATOM     53  H   PHE d   1     -43.418 -45.543  -6.855  0.00  0.00     0.043 H 
BRANCH  51  54
ATOM     54  CG  PHE d   1     -44.512 -46.280  -5.191  0.00  0.00    -0.056 A 
ATOM     55  CD1 PHE d   1     -44.375 -46.572  -3.840  0.00  0.00    -0.077 A 
ATOM     56  CE1 PHE d   1     -45.154 -47.550  -3.243  0.00  0.00    -0.082 A 
ATOM     57  H   PHE d   1     -43.650 -46.028  -3.245  0.00  0.00     0.084 H 
ATOM     58  CZ  PHE d   1     -46.085 -48.246  -3.995  0.00  0.00    -0.083 A 
ATOM     59  H   PHE d   1     -45.035 -47.770  -2.188  0.00  0.00     0.083 H 
ATOM     60  CE2 PHE d   1     -46.233 -47.964  -5.342  0.00  0.00    -0.082 A 
ATOM     61  H   PHE d   1     -46.697 -49.010  -3.530  0.00  0.00     0.083 H 
ATOM     62  CD2 PHE d   1     -45.450 -46.985  -5.934  0.00  0.00    -0.077 A 
ATOM     63  H   PHE d   1     -46.960 -48.508  -5.934  0.00  0.00     0.083 H 
ATOM     64  H   PHE d   1     -45.571 -46.767  -6.989  0.00  0.00     0.084 H 
ENDBRANCH  51  54
ENDBRANCH   5  51
ENDBRANCH   3   5
BRANCH   1  65
ATOM     65  CA  VAL d   1     -47.611 -43.195  -7.808  0.00  0.00     0.092 C 
ATOM     66  H   VAL d   1     -47.537 -42.319  -8.469  0.00  0.00     0.088 H 
BRANCH  65  67
ATOM     67  N   VAL d   1     -47.472 -44.387  -8.655  0.00  0.00    -0.346 N 
ATOM     68  C   GLY d   1     -47.368 -44.310  -9.980  0.00  0.00     0.236 C 
ATOM     69  O   GLY d   1     -47.346 -43.241 -10.596  0.00  0.00    -0.272 OA
ATOM     70  H   VAL d   1     -47.455 -45.288  -8.221  0.00  0.00     0.163 HD
BRANCH  68  71
ATOM     71  CA  GLY d   1     -47.273 -45.632 -10.720  0.00  0.00     0.069 C 
ATOM     72  H   GLY d   1     -46.337 -46.133 -10.431  0.00  0.00     0.078 H 
ATOM     73  H   GLY d   1     -48.129 -46.260 -10.433  0.00  0.00     0.078 H 
BRANCH  71  74
ATOM     74  N   GLY d   1     -47.284 -45.457 -12.174  0.00  0.00    -0.350 N 
ATOM     75  C   SER d   1     -46.160 -45.380 -12.886  0.00  0.00     0.242 C 
ATOM     76  O   SER d   1     -45.041 -45.449 -12.374  0.00  0.00    -0.271 OA
ATOM     77  H   GLY d   1     -48.163 -45.393 -12.648  0.00  0.00     0.163 HD
BRANCH  75  78
ATOM     78  CA  SER d   1     -46.296 -45.191 -14.402  0.00  0.00     0.109 C 
ATOM     79  H   SER d   1     -45.773 -46.027 -14.890  0.00  0.00     0.090 H 
BRANCH  78  80
ATOM     80  N   SER d   1     -47.679 -45.195 -14.884  0.00  0.00    -0.344 N 
ATOM     81  C   PRO d   1     -48.319 -46.314 -15.218  0.00  0.00     0.241 C 
ATOM     82  O   PRO d   1     -47.833 -47.439 -15.090  0.00  0.00    -0.271 OA
ATOM     83  H   SER d   1     -48.162 -44.323 -14.966  0.00  0.00     0.163 HD
BRANCH  81  84
ATOM     84  CA  PRO d   1     -49.733 -46.143 -15.780  0.00  0.00     0.091 C 
ATOM     85  N   PRO d   1     -50.153 -47.266 -16.621  0.00  0.00    -0.337 N 
ATOM     86  C   SER d   1     -49.658 -47.422 -17.864  0.00  0.00     0.253 C 
ATOM     87  CD  PRO d   1     -51.171 -48.103 -15.957  0.00  0.00    -0.001 C 
ATOM     88  O   SER d   1     -48.855 -46.632 -18.365  0.00  0.00    -0.271 OA
ATOM     89  CG  PRO d   1     -51.237 -47.549 -14.564  0.00  0.00    -0.048 C 
ATOM     90  H   PRO d   1     -50.863 -49.159 -15.944  0.00  0.00     0.064 H 
ATOM     91  H   PRO d   1     -52.144 -48.011 -16.462  0.00  0.00     0.064 H 
ATOM     92  CB  PRO d   1     -50.771 -46.140 -14.653  0.00  0.00    -0.036 C 
ATOM     93  H   PRO d   1     -52.270 -47.586 -14.188  0.00  0.00     0.035 H 
ATOM     94  H   PRO d   1     -50.582 -48.125 -13.894  0.00  0.00     0.035 H 
ATOM     95  H   PRO d   1     -51.608 -45.470 -14.898  0.00  0.00     0.036 H 
ATOM     96  H   PRO d   1     -50.313 -45.823 -13.705  0.00  0.00     0.036 H 
ATOM     97  H   PRO d   1     -49.776 -45.203 -16.350  0.00  0.00     0.087 H 
BRANCH  86  98
ATOM     98  CA  SER d   1     -50.130 -48.642 -18.658  0.00  0.00     0.196 C 
ATOM     99  H   SER d   1     -51.184 -48.835 -18.411  0.00  0.00     0.102 H 
BRANCH  98 100
ATOM    100  N   SER d   1     -50.024 -48.388 -20.125  0.00  0.00    -0.064 N 
ATOM    101  H   SER d   1     -50.339 -49.201 -20.630  0.00  0.00     0.275 HD
ATOM    102  H   SER d   1     -49.064 -48.195 -20.364  0.00  0.00     0.275 HD
ATOM    103  H   SER d   1     -50.598 -47.597 -20.371  0.00  0.00     0.275 HD
ENDBRANCH  98 100
BRANCH  98 104
ATOM    104  CB  SER d   1     -49.304 -49.871 -18.271  0.00  0.00     0.051 C 
ATOM    105  H   SER d   1     -49.662 -50.739 -18.844  0.00  0.00     0.077 H 
ATOM    106  H   SER d   1     -49.430 -50.064 -17.195  0.00  0.00     0.077 H 
BRANCH 104 107
ATOM    107  OG  SER d   1     -47.928 -49.670 -18.547  0.00  0.00    -0.398 OA
ATOM    108  H   SER d   1     -47.440 -50.446 -18.298  0.00  0.00     0.209 HD
ENDBRANCH 104 107
ENDBRANCH  98 104
ENDBRANCH  86  98
ENDBRANCH  81  84
ENDBRANCH  78  80
BRANCH  78 109
ATOM    109  CB  SER d   1     -45.610 -43.884 -14.811  0.00  0.00     0.044 C 
ATOM    110  H   SER d   1     -45.611 -43.805 -15.908  0.00  0.00     0.077 H 
ATOM    111  H   SER d   1     -44.573 -43.892 -14.445  0.00  0.00     0.077 H 
BRANCH 109 112
ATOM    112  OG  SER d   1     -46.285 -42.764 -14.266  0.00  0.00    -0.398 OA
ATOM    113  H   SER d   1     -45.842 -41.968 -14.533  0.00  0.00     0.209 HD
ENDBRANCH 109 112
ENDBRANCH  78 109
ENDBRANCH  75  78
ENDBRANCH  71  74
ENDBRANCH  68  71
ENDBRANCH  65  67
BRANCH  65 114
ATOM    114  CB  VAL d   1     -48.994 -43.152  -7.114  0.00  0.00    -0.033 C 
ATOM    115  H   VAL d   1     -49.090 -42.180  -6.609  0.00  0.00     0.042 H 
BRANCH 114 116
ATOM    116  CG1 VAL d   1     -50.109 -43.259  -8.145  0.00  0.00    -0.071 C 
ATOM    117  H   VAL d   1     -51.084 -43.227  -7.636  0.00  0.00     0.028 H 
ATOM    118  H   VAL d   1     -50.012 -44.208  -8.692  0.00  0.00     0.028 H 
ATOM    119  H   VAL d   1     -50.037 -42.419  -8.852  0.00  0.00     0.028 H 
ENDBRANCH 114 116
BRANCH 114 120
ATOM    120  CG2 VAL d   1     -49.122 -44.243  -6.055  0.00  0.00    -0.071 C 
ATOM    121  H   VAL d   1     -48.306 -44.142  -5.324  0.00  0.00     0.028 H 
ATOM    122  H   VAL d   1     -49.063 -45.230  -6.537  0.00  0.00     0.028 H 
ATOM    123  H   VAL d   1     -50.089 -44.143  -5.540  0.00  0.00     0.028 H 
ENDBRANCH 114 120
ENDBRANCH  65 114
ENDBRANCH   1  65
TORSDOF 31
