REMARK  9 active torsions:
REMARK  status: ('A' for Active; 'I' for Inactive)
REMARK       I    between atoms: C23_2  and  N4_3 
REMARK    1  A    between atoms: C23_2  and  C25_22 
REMARK    2  A    between atoms: N4_3  and  C5_4 
REMARK    3  A    between atoms: C5_4  and  C13_5 
REMARK    4  A    between atoms: C5_4  and  C6_15 
REMARK       I    between atoms: C13_5  and  N15_6 
REMARK    5  A    between atoms: N15_6  and  C17_7 
REMARK    6  A    between atoms: N15_6  and  C16_13 
REMARK    7  A    between atoms: C6_15  and  C7_16 
REMARK    8  A    between atoms: C25_22  and  C1_23 
REMARK    9  A    between atoms: C2_31  and  C32_32 
ROOT
ATOM      1  C5  1B0 d   1     -13.299 -26.191   1.191  0.00  0.00     0.093 C 
ATOM      2  H   1B0 d   1     -13.276 -27.282   1.051  0.00  0.00     0.088 H 
ENDROOT
BRANCH   1   3
ATOM      3  N4  1B0 d   1     -13.986 -25.546   0.082  0.00  0.00    -0.347 N 
ATOM      4  C23 1B0 d   1     -14.920 -26.158  -0.639  0.00  0.00     0.222 C 
ATOM      5  O24 1B0 d   1     -15.273 -27.307  -0.443  0.00  0.00    -0.273 OA
ATOM      6  H   1B0 d   1     -13.745 -24.603  -0.147  0.00  0.00     0.163 HD
BRANCH   4   7
ATOM      7  C25 1B0 d   1     -15.559 -25.331  -1.726  0.00  0.00     0.036 C 
ATOM      8  H   1B0 d   1     -15.084 -24.339  -1.724  0.00  0.00     0.054 H 
ATOM      9  H   1B0 d   1     -16.628 -25.226  -1.491  0.00  0.00     0.054 H 
BRANCH   7  10
ATOM     10  C1  1B0 d   1     -15.440 -25.904  -3.117  0.00  0.00    -0.015 A 
ATOM     11  C26 1B0 d   1     -16.391 -26.789  -3.827  0.00  0.00    -0.001 A 
ATOM     12  C31 1B0 d   1     -17.589 -27.352  -3.399  0.00  0.00    -0.070 A 
ATOM     13  C27 1B0 d   1     -15.876 -27.031  -5.096  0.00  0.00     0.043 A 
ATOM     14  C30 1B0 d   1     -18.291 -28.175  -4.274  0.00  0.00    -0.082 A 
ATOM     15  H   1B0 d   1     -17.968 -27.153  -2.403  0.00  0.00     0.084 H 
ATOM     16  C29 1B0 d   1     -17.792 -28.426  -5.554  0.00  0.00    -0.081 A 
ATOM     17  H   1B0 d   1     -19.228 -28.622  -3.961  0.00  0.00     0.083 H 
ATOM     18  C28 1B0 d   1     -16.585 -27.859  -5.965  0.00  0.00    -0.056 A 
ATOM     19  H   1B0 d   1     -18.346 -29.065  -6.232  0.00  0.00     0.083 H 
ATOM     20  H   1B0 d   1     -16.200 -28.062  -6.958  0.00  0.00     0.086 H 
ATOM     21  N3  1B0 d   1     -14.701 -26.362  -5.239  0.00  0.00    -0.359 N 
ATOM     22  C2  1B0 d   1     -14.374 -25.668  -4.118  0.00  0.00     0.013 A 
ATOM     23  H   1B0 d   1     -14.128 -26.379  -6.095  0.00  0.00     0.166 HD
BRANCH  22  24
ATOM     24  C32 1B0 d   1     -13.147 -24.818  -3.937  0.00  0.00    -0.037 C 
ATOM     25  H   1B0 d   1     -13.150 -24.380  -2.928  0.00  0.00     0.035 H 
ATOM     26  H   1B0 d   1     -13.145 -24.013  -4.686  0.00  0.00     0.035 H 
ATOM     27  H   1B0 d   1     -12.248 -25.439  -4.064  0.00  0.00     0.035 H 
ENDBRANCH  22  24
ENDBRANCH   7  10
ENDBRANCH   4   7
ENDBRANCH   1   3
BRANCH   1  28
ATOM     28  C13 1B0 d   1     -14.023 -25.836   2.462  0.00  0.00     0.247 C 
ATOM     29  N15 1B0 d   1     -14.166 -26.720   3.458  0.00  0.00    -0.321 N 
ATOM     30  O14 1B0 d   1     -14.458 -24.701   2.560  0.00  0.00    -0.271 OA
BRANCH  29  31
ATOM     31  C17 1B0 d   1     -13.660 -28.018   3.318  0.00  0.00     0.036 A 
ATOM     32  C22 1B0 d   1     -12.420 -28.354   3.851  0.00  0.00    -0.057 A 
ATOM     33  C21 1B0 d   1     -11.935 -29.650   3.700  0.00  0.00    -0.081 A 
ATOM     34  H   1B0 d   1     -11.835 -27.611   4.381  0.00  0.00     0.086 H 
ATOM     35  C20 1B0 d   1     -12.686 -30.606   3.017  0.00  0.00    -0.083 A 
ATOM     36  H   1B0 d   1     -10.970 -29.917   4.115  0.00  0.00     0.083 H 
ATOM     37  C19 1B0 d   1     -13.930 -30.266   2.483  0.00  0.00    -0.081 A 
ATOM     38  H   1B0 d   1     -12.304 -31.614   2.901  0.00  0.00     0.083 H 
ATOM     39  C18 1B0 d   1     -14.417 -28.975   2.637  0.00  0.00    -0.057 A 
ATOM     40  H   1B0 d   1     -14.514 -31.008   1.950  0.00  0.00     0.083 H 
ATOM     41  H   1B0 d   1     -15.385 -28.709   2.229  0.00  0.00     0.086 H 
ENDBRANCH  29  31
BRANCH  29  42
ATOM     42  C16 1B0 d   1     -14.844 -26.422   4.714  0.00  0.00    -0.011 C 
ATOM     43  H   1B0 d   1     -15.194 -25.379   4.703  0.00  0.00     0.057 H 
ATOM     44  H   1B0 d   1     -14.145 -26.566   5.551  0.00  0.00     0.057 H 
ATOM     45  H   1B0 d   1     -15.705 -27.096   4.835  0.00  0.00     0.057 H 
ENDBRANCH  29  42
ENDBRANCH   1  28
BRANCH   1  46
ATOM     46  C6  1B0 d   1     -11.877 -25.630   1.269  0.00  0.00    -0.014 C 
ATOM     47  H   1B0 d   1     -11.448 -25.883   2.250  0.00  0.00     0.043 H 
ATOM     48  H   1B0 d   1     -11.919 -24.537   1.158  0.00  0.00     0.043 H 
BRANCH  46  49
ATOM     49  C7  1B0 d   1     -10.987 -26.199   0.184  0.00  0.00    -0.056 A 
ATOM     50  C12 1B0 d   1     -10.352 -27.421   0.370  0.00  0.00    -0.077 A 
ATOM     51  C11 1B0 d   1      -9.547 -27.944  -0.640  0.00  0.00    -0.082 A 
ATOM     52  H   1B0 d   1     -10.482 -27.966   1.298  0.00  0.00     0.084 H 
ATOM     53  C10 1B0 d   1      -9.368 -27.240  -1.827  0.00  0.00    -0.083 A 
ATOM     54  H   1B0 d   1      -9.059 -28.902  -0.501  0.00  0.00     0.083 H 
ATOM     55  C9  1B0 d   1     -10.002 -26.020  -2.014  0.00  0.00    -0.082 A 
ATOM     56  H   1B0 d   1      -8.733 -27.645  -2.606  0.00  0.00     0.083 H 
ATOM     57  C8  1B0 d   1     -10.811 -25.502  -1.010  0.00  0.00    -0.077 A 
ATOM     58  H   1B0 d   1      -9.867 -25.473  -2.940  0.00  0.00     0.083 H 
ATOM     59  H   1B0 d   1     -11.308 -24.550  -1.156  0.00  0.00     0.084 H 
ENDBRANCH  46  49
ENDBRANCH   1  46
TORSDOF 9
