REMARK  14 active torsions:
REMARK  status: ('A' for Active; 'I' for Inactive)
REMARK    1  A    between atoms: C8_2  and  C9_3 
REMARK       I    between atoms: N_11  and  C8_2 
REMARK    2  A    between atoms: C10_4  and  C11_5 
REMARK    3  A    between atoms: C11_5  and  C12_6 
REMARK    4  A    between atoms: C12_6  and  C13_7 
REMARK    5  A    between atoms: C12_6  and  C14_8 
REMARK    6  A    between atoms: C14_8  and  C15_9 
REMARK    7  A    between atoms: C_10  and  CA_15 
REMARK       I    between atoms: N_23  and  C_10 
REMARK    8  A    between atoms: CA_15  and  N_11 
REMARK    9  A    between atoms: CA_15  and  CB_16 
REMARK   10  A    between atoms: CB_16  and  CG_17 
REMARK   11  A    between atoms: CA_24  and  N_23 
REMARK   12  A    between atoms: CB_27  and  CG2_29 
REMARK   13  A    between atoms: C34_42  and  C35_43 
REMARK   14  A    between atoms: CA_47  and  CB_50 
ROOT
ATOM      1  CA  THR d   1     -76.685  16.877  58.608  0.00  0.00     0.114 C 
ATOM      2  C   THR d   1     -77.837  17.837  58.928  0.00  0.00     0.246 C 
ATOM      3  O   THR d   1     -78.244  18.636  58.085  0.00  0.00    -0.271 OA
ATOM      4  CB  THR d   1     -75.281  17.493  58.620  0.00  0.00     0.072 C 
ATOM      5  OG1 THR d   1     -74.189  16.516  58.659  0.00  0.00    -0.312 OA
ATOM      6  H   THR d   1     -76.694  16.096  59.382  0.00  0.00     0.091 H 
ATOM      7  H   THR d   1     -75.184  18.030  57.665  0.00  0.00     0.087 H 
ATOM      8  N   PRO d   1     -78.417  17.747  60.142  0.00  0.00    -0.337 N 
ATOM      9  CA  PRO d   1     -78.031  16.756  61.158  0.00  0.00     0.092 C 
ATOM     10  C   PRO d   1     -78.446  15.337  60.744  0.00  0.00     0.243 C 
ATOM     11  O   PRO d   1     -79.220  15.193  59.817  0.00  0.00    -0.271 OA
ATOM     12  CB  PRO d   1     -78.800  17.210  62.404  0.00  0.00    -0.036 C 
ATOM     13  CG  PRO d   1     -80.006  17.927  61.853  0.00  0.00    -0.048 C 
ATOM     14  CD  PRO d   1     -79.490  18.634  60.622  0.00  0.00    -0.001 C 
ATOM     15  N   PRO d   1     -73.254  13.934  58.415  0.00  0.00    -0.336 N 
ATOM     16  CA  PRO d   1     -73.002  14.689  59.640  0.00  0.00     0.098 C 
ATOM     17  C   PRO d   1     -73.973  15.850  59.811  0.00  0.00     0.282 C 
ATOM     18  O   PRO d   1     -74.497  16.114  60.854  0.00  0.00    -0.263 OA
ATOM     19  CB  PRO d   1     -71.565  15.176  59.447  0.00  0.00    -0.036 C 
ATOM     20  CG  PRO d   1     -71.424  15.346  57.940  0.00  0.00    -0.048 C 
ATOM     21  CD  PRO d   1     -72.490  14.477  57.282  0.00  0.00    -0.001 C 
ATOM     22  H   PRO d   1     -76.946  16.780  61.336  0.00  0.00     0.087 H 
ATOM     23  H   PRO d   1     -78.187  17.890  63.015  0.00  0.00     0.036 H 
ATOM     24  H   PRO d   1     -79.104  16.345  63.011  0.00  0.00     0.036 H 
ATOM     25  H   PRO d   1     -80.396  18.651  62.583  0.00  0.00     0.035 H 
ATOM     26  H   PRO d   1     -80.798  17.211  61.588  0.00  0.00     0.035 H 
ATOM     27  H   PRO d   1     -80.283  18.737  59.866  0.00  0.00     0.064 H 
ATOM     28  H   PRO d   1     -79.094  19.628  60.876  0.00  0.00     0.064 H 
ATOM     29  H   PRO d   1     -73.075  14.033  60.520  0.00  0.00     0.088 H 
ATOM     30  H   PRO d   1     -70.848  14.432  59.824  0.00  0.00     0.036 H 
ATOM     31  H   PRO d   1     -71.406  16.134  59.964  0.00  0.00     0.036 H 
ATOM     32  H   PRO d   1     -70.423  15.023  57.617  0.00  0.00     0.035 H 
ATOM     33  H   PRO d   1     -71.576  16.400  57.665  0.00  0.00     0.035 H 
ATOM     34  H   PRO d   1     -73.136  15.080  56.627  0.00  0.00     0.064 H 
ATOM     35  H   PRO d   1     -72.029  13.668  56.697  0.00  0.00     0.064 H 
ATOM     36  N3  3A0 d   1     -77.946  14.276  61.409  0.00  0.00    -0.337 N 
ATOM     37  O4  3A0 d   1     -74.870  12.739  62.433  0.00  0.00    -0.271 OA
ATOM     38  C21 3A0 d   1     -76.704  14.251  62.192  0.00  0.00     0.092 C 
ATOM     39  C22 3A0 d   1     -75.596  13.344  61.650  0.00  0.00     0.241 C 
ATOM     40  C33 3A0 d   1     -77.030  13.881  63.637  0.00  0.00    -0.035 C 
ATOM     41  C34 3A0 d   1     -77.695  12.513  63.690  0.00  0.00    -0.054 C 
ATOM     42  C36 3A0 d   1     -78.946  12.540  62.834  0.00  0.00    -0.047 C 
ATOM     43  C37 3A0 d   1     -78.657  12.992  61.405  0.00  0.00    -0.001 C 
ATOM     44  H   3A0 d   1     -76.303  15.275  62.187  0.00  0.00     0.087 H 
ATOM     45  H   3A0 d   1     -77.712  14.633  64.060  0.00  0.00     0.037 H 
ATOM     46  H   3A0 d   1     -76.100  13.857  64.225  0.00  0.00     0.037 H 
ATOM     47  H   3A0 d   1     -77.002  11.774  63.262  0.00  0.00     0.039 H 
ATOM     48  H   3A0 d   1     -79.669  13.235  63.286  0.00  0.00     0.035 H 
ATOM     49  H   3A0 d   1     -79.377  11.529  62.805  0.00  0.00     0.035 H 
ATOM     50  H   3A0 d   1     -78.036  12.235  60.904  0.00  0.00     0.064 H 
ATOM     51  H   3A0 d   1     -79.607  13.105  60.861  0.00  0.00     0.064 H 
ATOM     52  N   ALA d   1     -75.474  13.242  60.320  0.00  0.00    -0.346 N 
ATOM     53  CA  ALA d   1     -74.508  12.335  59.719  0.00  0.00     0.086 C 
ATOM     54  C   ALA d   1     -74.014  12.829  58.353  0.00  0.00     0.243 C 
ATOM     55  O   ALA d   1     -73.918  12.044  57.429  0.00  0.00    -0.271 OA
ATOM     56  H   ALA d   1     -76.058  13.799  59.729  0.00  0.00     0.163 HD
ATOM     57  H   ALA d   1     -73.643  12.258  60.395  0.00  0.00     0.086 H 
ENDROOT
BRANCH   1  58
ATOM     58  N   THR d   1     -76.947  16.245  57.327  0.00  0.00    -0.344 N 
ATOM     59  C   WFP d   1     -76.853  14.921  57.160  0.00  0.00     0.241 C 
ATOM     60  O   WFP d   1     -76.701  14.131  58.087  0.00  0.00    -0.271 OA
ATOM     61  H   THR d   1     -77.205  16.816  56.547  0.00  0.00     0.163 HD
BRANCH  59  62
ATOM     62  CA  WFP d   1     -76.912  14.413  55.725  0.00  0.00     0.093 C 
ATOM     63  H   WFP d   1     -77.609  15.047  55.157  0.00  0.00     0.088 H 
BRANCH  62  64
ATOM     64  N   WFP d   1     -75.601  14.504  55.114  0.00  0.00    -0.344 N 
ATOM     65  C8  39Y d   1     -75.179  15.618  54.497  0.00  0.00     0.241 C 
ATOM     66  O   39Y d   1     -75.897  16.622  54.395  0.00  0.00    -0.269 OA
ATOM     67  H   WFP d   1     -74.992  13.712  55.154  0.00  0.00     0.163 HD
BRANCH  65  68
ATOM     68  C9  39Y d   1     -73.811  15.546  53.948  0.00  0.00    -0.021 C 
ATOM     69  C10 39Y d   1     -73.278  16.568  53.326  0.00  0.00    -0.097 C 
ATOM     70  H   39Y d   1     -73.879  17.470  53.222  0.00  0.00     0.077 H 
ATOM     71  H   39Y d   1     -73.236  14.629  54.062  0.00  0.00     0.091 H 
BRANCH  69  72
ATOM     72  C11 39Y d   1     -71.901  16.578  52.751  0.00  0.00    -0.047 C 
ATOM     73  H   39Y d   1     -71.978  16.506  51.656  0.00  0.00     0.039 H 
ATOM     74  H   39Y d   1     -71.353  15.707  53.138  0.00  0.00     0.039 H 
BRANCH  72  75
ATOM     75  C12 39Y d   1     -71.122  17.835  53.101  0.00  0.00    -0.055 C 
ATOM     76  H   39Y d   1     -71.698  18.709  52.764  0.00  0.00     0.039 H 
BRANCH  75  77
ATOM     77  C13 39Y d   1     -70.948  17.928  54.613  0.00  0.00    -0.073 C 
ATOM     78  H   39Y d   1     -70.384  18.839  54.862  0.00  0.00     0.028 H 
ATOM     79  H   39Y d   1     -70.398  17.046  54.974  0.00  0.00     0.028 H 
ATOM     80  H   39Y d   1     -71.936  17.966  55.094  0.00  0.00     0.028 H 
ENDBRANCH  75  77
BRANCH  75  81
ATOM     81  C14 39Y d   1     -69.822  17.845  52.406  0.00  0.00    -0.065 C 
ATOM     82  H   39Y d   1     -69.222  17.021  52.819  0.00  0.00     0.033 H 
ATOM     83  H   39Y d   1     -69.334  18.804  52.636  0.00  0.00     0.033 H 
BRANCH  81  84
ATOM     84  C15 39Y d   1     -69.826  17.690  50.904  0.00  0.00    -0.076 C 
ATOM     85  H   39Y d   1     -68.792  17.716  50.530  0.00  0.00     0.027 H 
ATOM     86  H   39Y d   1     -70.400  18.512  50.452  0.00  0.00     0.027 H 
ATOM     87  H   39Y d   1     -70.288  16.729  50.636  0.00  0.00     0.027 H 
ENDBRANCH  81  84
ENDBRANCH  75  81
ENDBRANCH  72  75
ENDBRANCH  69  72
ENDBRANCH  65  68
ENDBRANCH  62  64
BRANCH  62  88
ATOM     88  CB  WFP d   1     -77.425  12.967  55.682  0.00  0.00    -0.014 C 
ATOM     89  H   WFP d   1     -78.409  12.925  56.173  0.00  0.00     0.043 H 
ATOM     90  H   WFP d   1     -76.717  12.323  56.224  0.00  0.00     0.043 H 
BRANCH  88  91
ATOM     91  CG  WFP d   1     -77.564  12.455  54.272  0.00  0.00    -0.050 A 
ATOM     92  CD1 WFP d   1     -78.671  12.799  53.506  0.00  0.00    -0.039 A 
ATOM     93  CE1 WFP d   1     -78.725  12.385  52.201  0.00  0.00     0.119 A 
ATOM     94  H   WFP d   1     -79.477  13.384  53.933  0.00  0.00     0.089 H 
ATOM     95  F1  WFP d   1     -79.806  12.739  51.461  0.00  0.00    -0.206 F 
ATOM     96  CZ  WFP d   1     -77.746  11.640  51.602  0.00  0.00    -0.009 A 
ATOM     97  CE2 WFP d   1     -76.678  11.307  52.392  0.00  0.00     0.119 A 
ATOM     98  H   WFP d   1     -77.812  11.332  50.565  0.00  0.00     0.092 H 
ATOM     99  F2  WFP d   1     -75.684  10.560  51.847  0.00  0.00    -0.206 F 
ATOM    100  CD2 WFP d   1     -76.557  11.687  53.702  0.00  0.00    -0.039 A 
ATOM    101  H   WFP d   1     -75.691  11.394  54.284  0.00  0.00     0.089 H 
ENDBRANCH  88  91
ENDBRANCH  62  88
ENDBRANCH  59  62
ENDBRANCH   1  58
BRANCH   4 102
ATOM    102  CG2 THR d   1     -75.082  18.516  59.713  0.00  0.00    -0.049 C 
ATOM    103  H   THR d   1     -74.058  18.913  59.661  0.00  0.00     0.031 H 
ATOM    104  H   THR d   1     -75.242  18.042  60.693  0.00  0.00     0.031 H 
ATOM    105  H   THR d   1     -75.801  19.338  59.581  0.00  0.00     0.031 H 
ENDBRANCH   4 102
BRANCH  53 106
ATOM    106  CB  ALA d   1     -75.123  10.954  59.546  0.00  0.00    -0.049 C 
ATOM    107  H   ALA d   1     -74.384  10.278  59.091  0.00  0.00     0.030 H 
ATOM    108  H   ALA d   1     -76.006  11.025  58.893  0.00  0.00     0.030 H 
ATOM    109  H   ALA d   1     -75.424  10.561  60.528  0.00  0.00     0.030 H 
ENDBRANCH  53 106
BRANCH  41 110
ATOM    110  C35 3A0 d   1     -77.991  12.094  65.124  0.00  0.00    -0.073 C 
ATOM    111  H   3A0 d   1     -78.470  11.104  65.125  0.00  0.00     0.028 H 
ATOM    112  H   3A0 d   1     -78.666  12.828  65.589  0.00  0.00     0.028 H 
ATOM    113  H   3A0 d   1     -77.051  12.047  65.694  0.00  0.00     0.028 H 
ENDBRANCH  41 110
TORSDOF 14
