REMARK  9 active torsions:
REMARK  status: ('A' for Active; 'I' for Inactive)
REMARK    1  A    between atoms: C20_12  and  N3_2 
REMARK    2  A    between atoms: C5_4  and  C4_3 
REMARK    3  A    between atoms: C6_5  and  C11_26 
REMARK    4  A    between atoms: N2_29  and  C13_9 
REMARK    5  A    between atoms: C17_11  and  C19_33 
REMARK    6  A    between atoms: C16_31  and  C20_12 
REMARK    7  A    between atoms: C3_24  and  C2_23 
REMARK    8  A    between atoms: C12_27  and  C9_25 
REMARK       I    between atoms: C12_27  and  N2_29 
REMARK    9  A    between atoms: N4_39  and  C25_38 
ROOT
ATOM      1  C13 0LI d   1      34.685   7.709  47.491  0.00  0.00     0.035 A 
ATOM      2  C15 0LI d   1      34.957   6.491  49.658  0.00  0.00    -0.072 A 
ATOM      3  C17 0LI d   1      33.992   8.831  49.656  0.00  0.00     0.058 A 
ATOM      4  C14 0LI d   1      35.095   6.535  48.215  0.00  0.00    -0.057 A 
ATOM      5  C16 0LI d   1      34.414   7.617  50.407  0.00  0.00    -0.017 A 
ATOM      6  C18 0LI d   1      34.141   8.833  48.236  0.00  0.00    -0.042 A 
ATOM      7  H   0LI d   1      35.265   5.599  50.192  0.00  0.00     0.084 H 
ATOM      8  H   0LI d   1      35.506   5.685  47.683  0.00  0.00     0.086 H 
ATOM      9  H   0LI d   1      33.834   9.715  47.687  0.00  0.00     0.088 H 
ENDROOT
BRANCH   1  10
ATOM     10  N2  0LI d   1      34.833   7.734  46.067  0.00  0.00    -0.323 N 
ATOM     11  C12 0LI d   1      34.914   8.835  45.277  0.00  0.00     0.256 C 
ATOM     12  O1  0LI d   1      35.078   9.978  45.694  0.00  0.00    -0.267 OA
ATOM     13  H   0LI d   1      34.882   6.848  45.606  0.00  0.00     0.169 HD
BRANCH  11  14
ATOM     14  C9  0LI d   1      34.760   8.620  43.810  0.00  0.00     0.033 A 
ATOM     15  C8  0LI d   1      34.319   7.356  43.210  0.00  0.00    -0.067 A 
ATOM     16  C7  0LI d   1      34.188   7.255  41.757  0.00  0.00    -0.075 A 
ATOM     17  H   0LI d   1      34.092   6.503  43.839  0.00  0.00     0.085 H 
ATOM     18  C6  0LI d   1      34.496   8.417  40.913  0.00  0.00    -0.043 A 
ATOM     19  H   0LI d   1      33.864   6.325  41.304  0.00  0.00     0.084 H 
ATOM     20  C5  0LI d   1      34.938   9.678  41.551  0.00  0.00     0.025 A 
ATOM     21  C10 0LI d   1      35.058   9.746  42.955  0.00  0.00    -0.049 A 
ATOM     22  H   0LI d   1      35.385  10.675  43.408  0.00  0.00     0.087 H 
BRANCH  18  23
ATOM     23  C11 0LI d   1      34.339   8.291  39.386  0.00  0.00    -0.050 C 
ATOM     24  H   0LI d   1      34.608   9.245  38.910  0.00  0.00     0.033 H 
ATOM     25  H   0LI d   1      33.295   8.042  39.144  0.00  0.00     0.033 H 
ATOM     26  H   0LI d   1      35.001   7.495  39.014  0.00  0.00     0.033 H 
ENDBRANCH  18  23
BRANCH  20  27
ATOM     27  C4  0LI d   1      35.262  10.905  40.823  0.00  0.00    -0.059 C 
ATOM     28  C3  0LI d   1      35.366  11.940  40.225  0.00  0.00    -0.040 C 
BRANCH  28  29
ATOM     29  C2  0LI d   1      35.352  13.143  39.549  0.00  0.00     0.131 A 
ATOM     30  N82 0LI d   1      36.435  13.860  39.134  0.00  0.00    -0.206 N 
ATOM     31  N81 0LI d   1      37.765  13.524  39.294  0.00  0.00    -0.177 NA
ATOM     32  C84 0LI d   1      35.865  15.031  38.497  0.00  0.00     0.151 A 
ATOM     33  C83 0LI d   1      38.601  14.442  38.770  0.00  0.00     0.022 A 
ATOM     34  C82 0LI d   1      38.189  15.670  38.102  0.00  0.00    -0.061 A 
ATOM     35  H   0LI d   1      39.670  14.251  38.852  0.00  0.00     0.117 H 
ATOM     36  C81 0LI d   1      36.824  15.962  37.963  0.00  0.00    -0.035 A 
ATOM     37  H   0LI d   1      38.938  16.358  37.712  0.00  0.00     0.086 H 
ATOM     38  H   0LI d   1      36.497  16.872  37.462  0.00  0.00     0.089 H 
ATOM     39  N1  0LI d   1      34.545  14.995  38.535  0.00  0.00    -0.238 NA
ATOM     40  C1  0LI d   1      34.223  13.823  39.193  0.00  0.00     0.041 A 
ATOM     41  H   0LI d   1      33.208  13.488  39.399  0.00  0.00     0.119 H 
ENDBRANCH  28  29
ENDBRANCH  20  27
ENDBRANCH  11  14
ENDBRANCH   1  10
BRANCH   3  42
ATOM     42  C19 0LI d   1      33.408  10.107  50.306  0.00  0.00     0.418 C 
ATOM     43  F1  0LI d   1      34.354  10.703  51.025  0.00  0.00    -0.166 F 
ATOM     44  F2  0LI d   1      32.970  10.991  49.412  0.00  0.00    -0.166 F 
ATOM     45  F3  0LI d   1      32.353   9.790  51.061  0.00  0.00    -0.166 F 
ENDBRANCH   3  42
BRANCH   5  46
ATOM     46  C20 0LI d   1      34.312   7.480  51.963  0.00  0.00     0.108 C 
ATOM     47  H   0LI d   1      34.338   8.490  52.397  0.00  0.00     0.083 H 
ATOM     48  H   0LI d   1      33.350   7.003  52.202  0.00  0.00     0.083 H 
BRANCH  46  49
ATOM     49  N3  0LI d   1      35.382   6.687  52.587  0.00  0.00    -0.064 N 
ATOM     50  C21 0LI d   1      36.740   7.336  52.528  0.00  0.00     0.106 C 
ATOM     51  C22 0LI d   1      37.840   6.342  53.032  0.00  0.00     0.105 C 
ATOM     52  H   0LI d   1      36.742   8.232  53.165  0.00  0.00     0.078 H 
ATOM     53  H   0LI d   1      36.960   7.624  51.489  0.00  0.00     0.078 H 
ATOM     54  N4  0LI d   1      37.570   5.944  54.446  0.00  0.00    -0.072 N 
ATOM     55  H   0LI d   1      38.824   6.830  52.974  0.00  0.00     0.078 H 
ATOM     56  H   0LI d   1      37.837   5.445  52.396  0.00  0.00     0.078 H 
ATOM     57  C23 0LI d   1      36.190   5.312  54.612  0.00  0.00     0.105 C 
ATOM     58  H   0LI d   1      37.547   6.798  54.980  0.00  0.00     0.279 HD
ATOM     59  C24 0LI d   1      35.035   6.199  53.975  0.00  0.00     0.106 C 
ATOM     60  H   0LI d   1      36.191   4.328  54.121  0.00  0.00     0.078 H 
ATOM     61  H   0LI d   1      35.987   5.186  55.686  0.00  0.00     0.078 H 
ATOM     62  H   0LI d   1      34.117   5.596  53.918  0.00  0.00     0.078 H 
ATOM     63  H   0LI d   1      34.861   7.071  54.623  0.00  0.00     0.078 H 
ATOM     64  H   0LI d   1      35.459   5.856  52.021  0.00  0.00     0.280 HD
BRANCH  54  65
ATOM     65  C25 0LI d   1      38.669   5.144  55.012  0.00  0.00     0.066 C 
ATOM     66  H   0LI d   1      39.623   5.667  54.851  0.00  0.00     0.068 H 
ATOM     67  H   0LI d   1      38.701   4.162  54.517  0.00  0.00     0.068 H 
ATOM     68  H   0LI d   1      38.504   5.005  56.091  0.00  0.00     0.068 H 
ENDBRANCH  54  65
ENDBRANCH  46  49
ENDBRANCH   5  46
TORSDOF 9
