REMARK  17 active torsions:
REMARK  status: ('A' for Active; 'I' for Inactive)
REMARK    1  A    between atoms: CT_2  and  CA_4 
REMARK    2  A    between atoms: CA_4  and  CB_5 
REMARK    3  A    between atoms: CA_4  and  N_9 
REMARK    4  A    between atoms: CB_5  and  CG_6 
REMARK    5  A    between atoms: CG_6  and  CD_7 
REMARK       I    between atoms: CD_7  and  N2_32 
REMARK       I    between atoms: N_9  and  C_10 
REMARK    6  A    between atoms: C_10  and  C11_12 
REMARK    7  A    between atoms: C14_15  and  N10_18 
REMARK    8  A    between atoms: N10_18  and  C9_19 
REMARK    9  A    between atoms: C9_19  and  C6_20 
REMARK   10  A    between atoms: N5_21  and  C1_42 
REMARK   11  A    between atoms: C2_27  and  NA2_28 
REMARK   12  A    between atoms: C4_30  and  O4_31 
REMARK   13  A    between atoms: N2_32  and  C3_33 
REMARK   14  A    between atoms: C3_33  and  C5_34 
REMARK   15  A    between atoms: C3_33  and  C8_37 
REMARK   16  A    between atoms: C8_37  and  C10_38 
REMARK   17  A    between atoms: C10_38  and  C17_39 
ROOT
ATOM      1  C11 TLL d   1     170.830-104.569  35.822  0.00  0.00     0.032 A 
ATOM      2  C16 TLL d   1     169.820-104.079  36.825  0.00  0.00    -0.066 A 
ATOM      3  C15 TLL d   1     168.746-104.817  37.140  0.00  0.00    -0.057 A 
ATOM      4  C14 TLL d   1     168.545-106.164  36.483  0.00  0.00     0.028 A 
ATOM      5  C13 TLL d   1     169.456-106.637  35.595  0.00  0.00    -0.057 A 
ATOM      6  C12 TLL d   1     170.684-105.782  35.240  0.00  0.00    -0.066 A 
ATOM      7  H   TLL d   1     169.963-103.115  37.300  0.00  0.00     0.085 H 
ATOM      8  H   TLL d   1     168.025-104.450  37.862  0.00  0.00     0.086 H 
ATOM      9  H   TLL d   1     169.319-107.611  35.139  0.00  0.00     0.086 H 
ATOM     10  H   TLL d   1     171.422-106.146  34.534  0.00  0.00     0.085 H 
ENDROOT
BRANCH   1  11
ATOM     11  C   TLL d   1     172.002-103.613  35.607  0.00  0.00     0.252 C 
ATOM     12  N   TLL d   1     173.200-104.071  34.924  0.00  0.00    -0.342 N 
ATOM     13  H   TLL d   1     173.197-105.010  34.580  0.00  0.00     0.163 HD
ATOM     14  O   TLL d   1     171.867-102.507  36.092  0.00  0.00    -0.268 OA
BRANCH  12  15
ATOM     15  CA  TLL d   1     174.391-103.295  34.698  0.00  0.00     0.097 C 
ATOM     16  H   TLL d   1     174.540-103.145  33.618  0.00  0.00     0.089 H 
BRANCH  15  17
ATOM     17  CT  TLL d   1     175.462-104.180  35.269  0.00  0.00     0.196 C 
ATOM     18  O2  TLL d   1     175.397-105.416  35.074  0.00  0.00    -0.646 OA
ATOM     19  O1  TLL d   1     176.410-103.720  35.966  0.00  0.00    -0.646 OA
ENDBRANCH  15  17
BRANCH  15  20
ATOM     20  CB  TLL d   1     174.417-101.930  35.381  0.00  0.00    -0.029 C 
ATOM     21  H   TLL d   1     174.400-102.078  36.471  0.00  0.00     0.037 H 
ATOM     22  H   TLL d   1     173.526-101.363  35.074  0.00  0.00     0.037 H 
BRANCH  20  23
ATOM     23  CG  TLL d   1     175.671-101.121  35.010  0.00  0.00     0.011 C 
ATOM     24  H   TLL d   1     176.472-101.802  34.686  0.00  0.00     0.047 H 
ATOM     25  H   TLL d   1     176.012-100.541  35.880  0.00  0.00     0.047 H 
BRANCH  23  26
ATOM     26  CD  TLL d   1     175.299-100.171  33.864  0.00  0.00     0.218 C 
ATOM     27  OE2 TLL d   1     174.433-100.489  33.082  0.00  0.00    -0.274 OA
ATOM     28  N2  TLL d   1     175.991 -98.912  33.747  0.00  0.00    -0.347 N 
ATOM     29  H   TLL d   1     176.713 -98.682  34.400  0.00  0.00     0.163 HD
BRANCH  28  30
ATOM     30  C3  TLL d   1     175.657 -97.992  32.711  0.00  0.00     0.096 C 
ATOM     31  H   TLL d   1     174.952 -98.465  32.012  0.00  0.00     0.089 H 
BRANCH  30  32
ATOM     32  C5  TLL d   1     176.905 -97.620  31.945  0.00  0.00     0.196 C 
ATOM     33  O6  TLL d   1     177.359 -98.420  31.076  0.00  0.00    -0.646 OA
ATOM     34  O7  TLL d   1     177.511 -96.536  32.150  0.00  0.00    -0.646 OA
ENDBRANCH  30  32
BRANCH  30  35
ATOM     35  C8  TLL d   1     174.961 -96.793  33.378  0.00  0.00    -0.028 C 
ATOM     36  H   TLL d   1     174.210 -96.384  32.687  0.00  0.00     0.037 H 
ATOM     37  H   TLL d   1     175.712 -96.021  33.602  0.00  0.00     0.037 H 
BRANCH  35  38
ATOM     38  C10 TLL d   1     174.259 -97.216  34.697  0.00  0.00     0.018 C 
ATOM     39  H   TLL d   1     174.977 -97.139  35.526  0.00  0.00     0.049 H 
ATOM     40  H   TLL d   1     173.917 -98.257  34.603  0.00  0.00     0.049 H 
BRANCH  38  41
ATOM     41  C17 TLL d   1     173.047 -96.315  34.997  0.00  0.00     0.172 C 
ATOM     42  O18 TLL d   1     171.883 -96.731  34.769  0.00  0.00    -0.648 OA
ATOM     43  O19 TLL d   1     173.199 -95.157  35.482  0.00  0.00    -0.648 OA
ENDBRANCH  38  41
ENDBRANCH  35  38
ENDBRANCH  30  35
ENDBRANCH  28  30
ENDBRANCH  23  26
ENDBRANCH  20  23
ENDBRANCH  15  20
ENDBRANCH  12  15
ENDBRANCH   1  11
BRANCH   4  44
ATOM     44  N10 TLL d   1     167.383-106.878  36.911  0.00  0.00    -0.388 N 
ATOM     45  H   TLL d   1     166.806-107.454  36.282  0.00  0.00     0.159 HD
BRANCH  44  46
ATOM     46  C9  TLL d   1     167.103-106.709  38.311  0.00  0.00     0.013 C 
ATOM     47  H   TLL d   1     166.693-105.697  38.446  0.00  0.00     0.067 H 
ATOM     48  H   TLL d   1     168.057-106.793  38.851  0.00  0.00     0.067 H 
BRANCH  46  49
ATOM     49  C6  TLL d   1     166.133-107.681  38.947  0.00  0.00     0.042 C 
ATOM     50  N5  TLL d   1     164.764-107.603  38.484  0.00  0.00    -0.374 N 
ATOM     51  C4A TLL d   1     163.786-108.347  39.261  0.00  0.00     0.101 A 
ATOM     52  C8A TLL d   1     163.931-108.350  40.571  0.00  0.00     0.144 A 
ATOM     53  C4  TLL d   1     162.561-109.153  38.673  0.00  0.00     0.160 A 
ATOM     54  N8  TLL d   1     165.004-107.637  41.153  0.00  0.00    -0.372 N 
ATOM     55  N1  TLL d   1     163.016-109.033  41.316  0.00  0.00    -0.175 N 
ATOM     56  C7  TLL d   1     166.177-107.327  40.407  0.00  0.00     0.014 C 
ATOM     57  H   TLL d   1     164.936-107.336  42.136  0.00  0.00     0.161 HD
ATOM     58  H   TLL d   1     166.352-106.244  40.487  0.00  0.00     0.067 H 
ATOM     59  H   TLL d   1     167.019-107.869  40.861  0.00  0.00     0.067 H 
ATOM     60  C2  TLL d   1     161.914-109.768  40.958  0.00  0.00     0.675 A 
ATOM     61  H   TLL d   1     163.182-108.989  42.332  0.00  0.00     0.186 HD
ATOM     62  N3  TLL d   1     161.642-109.866  39.649  0.00  0.00    -0.194 N 
ATOM     63  H   TLL d   1     160.833-110.409  39.315  0.00  0.00     0.180 HD
ATOM     64  H   TLL d   1     161.937-108.249  38.730  0.00  0.00     0.129 H 
ATOM     65  H   TLL d   1     166.492-108.708  38.786  0.00  0.00     0.077 H 
BRANCH  50  66
ATOM     66  C1  TLL d   1     164.316-106.832  37.355  0.00  0.00    -0.018 C 
ATOM     67  H   TLL d   1     163.230-106.957  37.233  0.00  0.00     0.056 H 
ATOM     68  H   TLL d   1     164.829-107.180  36.447  0.00  0.00     0.056 H 
ATOM     69  H   TLL d   1     164.546-105.769  37.522  0.00  0.00     0.056 H 
ENDBRANCH  50  66
BRANCH  60  70
ATOM     70  NA2 TLL d   1     161.107-110.412  41.957  0.00  0.00    -0.235 N 
ATOM     71  H   TLL d   1     160.282-110.961  41.677  0.00  0.00     0.174 HD
ATOM     72  H   TLL d   1     161.353-110.324  42.953  0.00  0.00     0.174 HD
ENDBRANCH  60  70
BRANCH  53  73
ATOM     73  O4  TLL d   1     162.310-109.230  37.293  0.00  0.00    -0.370 OA
ATOM     74  H   TLL d   1     162.971-108.734  36.824  0.00  0.00     0.212 HD
ENDBRANCH  53  73
ENDBRANCH  46  49
ENDBRANCH  44  46
ENDBRANCH   4  44
TORSDOF 17
