REMARK  9 active torsions:
REMARK  status: ('A' for Active; 'I' for Inactive)
REMARK    1  A    between atoms: O3A_8  and  PB_1 
REMARK    2  A    between atoms: PA_5  and  O3A_8 
REMARK    3  A    between atoms: PA_5  and  O5'_9 
REMARK    4  A    between atoms: O5'_9  and  C5'_10 
REMARK    5  A    between atoms: C5'_10  and  C4'_11 
REMARK    6  A    between atoms: C3'_13  and  O3'_14 
REMARK    7  A    between atoms: C2'_15  and  O2'_16 
REMARK    8  A    between atoms: C1'_17  and  N9_18 
REMARK    9  A    between atoms: C6_22  and  N6_23 
ROOT
ATOM      1  C4' ADP d   1      -6.092 -86.606  92.852  0.00  0.00     0.089 C 
ATOM      2  O4' ADP d   1      -4.685 -86.889  92.813  0.00  0.00    -0.353 OA
ATOM      3  C3' ADP d   1      -6.319 -85.549  91.792  0.00  0.00     0.091 C 
ATOM      4  C2' ADP d   1      -5.024 -84.760  91.792  0.00  0.00     0.105 C 
ATOM      5  C1' ADP d   1      -3.994 -85.754  92.341  0.00  0.00     0.139 C 
ATOM      6  H   ADP d   1      -6.379 -86.206  93.836  0.00  0.00     0.090 H 
ATOM      7  H   ADP d   1      -6.562 -85.977  90.808  0.00  0.00     0.091 H 
ATOM      8  H   ADP d   1      -4.748 -84.438  90.777  0.00  0.00     0.093 H 
ATOM      9  H   ADP d   1      -3.467 -85.273  93.178  0.00  0.00     0.122 H 
ENDROOT
BRANCH   5  10
ATOM     10  N9  ADP d   1      -2.997 -86.194  91.370  0.00  0.00    -0.294 N 
ATOM     11  C8  ADP d   1      -3.194 -86.445  90.038  0.00  0.00     0.071 A 
ATOM     12  N7  ADP d   1      -2.100 -86.749  89.384  0.00  0.00    -0.236 NA
ATOM     13  H   ADP d   1      -4.173 -86.396  89.564  0.00  0.00     0.144 H 
ATOM     14  C5  ADP d   1      -1.114 -86.707  90.357  0.00  0.00     0.149 A 
ATOM     15  C6  ADP d   1       0.276 -86.907  90.303  0.00  0.00     0.155 A 
ATOM     16  C4  ADP d   1      -1.653 -86.371  91.588  0.00  0.00     0.167 A 
ATOM     17  N1  ADP d   1       0.979 -86.754  91.448  0.00  0.00    -0.222 NA
ATOM     18  C2  ADP d   1       0.323 -86.409  92.564  0.00  0.00     0.091 A 
ATOM     19  N3  ADP d   1      -0.986 -86.208  92.736  0.00  0.00    -0.222 NA
ATOM     20  H   ADP d   1       0.938 -86.275  93.447  0.00  0.00     0.146 H 
BRANCH  15  21
ATOM     21  N6  ADP d   1       0.933 -87.168  89.180  0.00  0.00    -0.382 N 
ATOM     22  H   ADP d   1       1.954 -87.306  89.201  0.00  0.00     0.157 HD
ATOM     23  H   ADP d   1       0.422 -87.233  88.288  0.00  0.00     0.157 HD
ENDBRANCH  15  21
ENDBRANCH   5  10
BRANCH   4  24
ATOM     24  O2' ADP d   1      -5.190 -83.627  92.623  0.00  0.00    -0.388 OA
ATOM     25  H   ADP d   1      -5.898 -83.090  92.287  0.00  0.00     0.210 HD
ENDBRANCH   4  24
BRANCH   1  26
ATOM     26  C5' ADP d   1      -6.842 -87.886  92.609  0.00  0.00     0.058 C 
ATOM     27  H   ADP d   1      -7.888 -87.666  92.348  0.00  0.00     0.079 H 
ATOM     28  H   ADP d   1      -6.370 -88.449  91.790  0.00  0.00     0.079 H 
BRANCH  26  29
ATOM     29  O5' ADP d   1      -6.789 -88.648  93.822  0.00  0.00    -0.287 OA
BRANCH  29  30
ATOM     30  PA  ADP d   1      -8.104 -89.066  94.563  0.00  0.00     0.418 P 
ATOM     31  O1A ADP d   1      -8.897 -89.988  93.662  0.00  0.00    -0.624 OA
ATOM     32  O2A ADP d   1      -7.975 -89.759  95.868  0.00  0.00    -0.624 OA
BRANCH  30  33
ATOM     33  O3A ADP d   1      -9.004 -87.756  94.786  0.00  0.00    -0.173 OA
BRANCH  33  34
ATOM     34  PB  ADP d   1     -10.556 -87.483  94.493  0.00  0.00     0.431 P 
ATOM     35  O1B ADP d   1     -10.710 -86.820  93.162  0.00  0.00    -0.616 OA
ATOM     36  O2B ADP d   1     -11.137 -86.525  95.514  0.00  0.00    -0.616 OA
ATOM     37  O3B ADP d   1     -11.249 -88.777  94.460  0.00  0.00    -0.616 OA
ENDBRANCH  33  34
ENDBRANCH  30  33
ENDBRANCH  29  30
ENDBRANCH  26  29
ENDBRANCH   1  26
BRANCH   3  38
ATOM     38  O3' ADP d   1      -7.326 -84.677  92.257  0.00  0.00    -0.390 OA
ATOM     39  H   ADP d   1      -8.125 -85.169  92.408  0.00  0.00     0.210 HD
ENDBRANCH   3  38
TORSDOF 9
