REMARK  9 active torsions:
REMARK  status: ('A' for Active; 'I' for Inactive)
REMARK    1  A    between atoms: O3A_8  and  PB_1 
REMARK    2  A    between atoms: PA_5  and  O3A_8 
REMARK    3  A    between atoms: PA_5  and  O5'_9 
REMARK    4  A    between atoms: O5'_9  and  C5'_10 
REMARK    5  A    between atoms: C5'_10  and  C4'_11 
REMARK    6  A    between atoms: C3'_13  and  O3'_14 
REMARK    7  A    between atoms: C2'_15  and  O2'_16 
REMARK    8  A    between atoms: C1'_17  and  N9_18 
REMARK    9  A    between atoms: C6_22  and  N6_23 
ROOT
ATOM      1  C4' ADP d   1      86.742  21.772  13.476  0.00  0.00     0.089 C 
ATOM      2  O4' ADP d   1      87.240  22.738  12.526  0.00  0.00    -0.353 OA
ATOM      3  C3' ADP d   1      85.664  20.994  12.727  0.00  0.00     0.091 C 
ATOM      4  C2' ADP d   1      85.075  22.044  11.784  0.00  0.00     0.105 C 
ATOM      5  C1' ADP d   1      86.262  22.994  11.533  0.00  0.00     0.139 C 
ATOM      6  H   ADP d   1      86.281  22.287  14.332  0.00  0.00     0.090 H 
ATOM      7  H   ADP d   1      86.107  20.159  12.164  0.00  0.00     0.091 H 
ATOM      8  H   ADP d   1      84.738  21.591  10.840  0.00  0.00     0.093 H 
ATOM      9  H   ADP d   1      85.900  24.028  11.635  0.00  0.00     0.122 H 
ENDROOT
BRANCH   5  10
ATOM     10  N9  ADP d   1      86.887  22.862  10.215  0.00  0.00    -0.294 N 
ATOM     11  C8  ADP d   1      87.787  21.901   9.836  0.00  0.00     0.071 A 
ATOM     12  N7  ADP d   1      88.192  22.005   8.592  0.00  0.00    -0.236 NA
ATOM     13  H   ADP d   1      88.136  21.119  10.509  0.00  0.00     0.144 H 
ATOM     14  C5  ADP d   1      87.510  23.114   8.117  0.00  0.00     0.149 A 
ATOM     15  C6  ADP d   1      87.482  23.744   6.857  0.00  0.00     0.155 A 
ATOM     16  C4  ADP d   1      86.708  23.659   9.108  0.00  0.00     0.167 A 
ATOM     17  N1  ADP d   1      86.675  24.822   6.709  0.00  0.00    -0.222 NA
ATOM     18  C2  ADP d   1      85.965  25.244   7.760  0.00  0.00     0.091 A 
ATOM     19  N3  ADP d   1      85.919  24.734   8.993  0.00  0.00    -0.222 NA
ATOM     20  H   ADP d   1      85.344  26.116   7.588  0.00  0.00     0.146 H 
BRANCH  15  21
ATOM     21  N6  ADP d   1      88.217  23.347   5.813  0.00  0.00    -0.382 N 
ATOM     22  H   ADP d   1      88.152  23.850   4.917  0.00  0.00     0.157 HD
ATOM     23  H   ADP d   1      88.848  22.538   5.905  0.00  0.00     0.157 HD
ENDBRANCH  15  21
ENDBRANCH   5  10
BRANCH   4  24
ATOM     24  O2' ADP d   1      83.976  22.677  12.421  0.00  0.00    -0.388 OA
ATOM     25  H   ADP d   1      83.315  22.027  12.629  0.00  0.00     0.210 HD
ENDBRANCH   4  24
BRANCH   1  26
ATOM     26  C5' ADP d   1      87.887  20.934  13.993  0.00  0.00     0.058 C 
ATOM     27  H   ADP d   1      87.519  20.251  14.773  0.00  0.00     0.079 H 
ATOM     28  H   ADP d   1      88.317  20.350  13.166  0.00  0.00     0.079 H 
BRANCH  26  29
ATOM     29  O5' ADP d   1      88.899  21.801  14.549  0.00  0.00    -0.287 OA
BRANCH  29  30
ATOM     30  PA  ADP d   1      89.254  22.028  16.112  0.00  0.00     0.418 P 
ATOM     31  O1A ADP d   1      89.635  23.428  16.402  0.00  0.00    -0.624 OA
ATOM     32  O2A ADP d   1      90.439  21.130  16.499  0.00  0.00    -0.624 OA
BRANCH  30  33
ATOM     33  O3A ADP d   1      88.047  21.592  17.055  0.00  0.00    -0.173 OA
BRANCH  33  34
ATOM     34  PB  ADP d   1      87.757  20.212  17.796  0.00  0.00     0.431 P 
ATOM     35  O1B ADP d   1      87.065  19.407  16.762  0.00  0.00    -0.616 OA
ATOM     36  O2B ADP d   1      86.646  20.479  18.826  0.00  0.00    -0.616 OA
ATOM     37  O3B ADP d   1      89.041  19.579  18.337  0.00  0.00    -0.616 OA
ENDBRANCH  33  34
ENDBRANCH  30  33
ENDBRANCH  29  30
ENDBRANCH  26  29
ENDBRANCH   1  26
BRANCH   3  38
ATOM     38  O3' ADP d   1      84.656  20.490  13.601  0.00  0.00    -0.390 OA
ATOM     39  H   ADP d   1      84.238  21.214  14.052  0.00  0.00     0.210 HD
ENDBRANCH   3  38
TORSDOF 9
