REMARK  9 active torsions:
REMARK  status: ('A' for Active; 'I' for Inactive)
REMARK    1  A    between atoms: B1_1  and  O1_2 
REMARK    2  A    between atoms: B1_1  and  O2_3 
REMARK    3  A    between atoms: C7_7  and  B1_1 
REMARK    4  A    between atoms: C8_8  and  N4_4 
REMARK    5  A    between atoms: C7_7  and  C8_8 
REMARK    6  A    between atoms: C7_7  and  N10_9 
REMARK       I    between atoms: N10_9  and  C11_10 
REMARK    7  A    between atoms: C11_10  and  C12_11 
REMARK    8  A    between atoms: C12_11  and  C13_12 
REMARK    9  A    between atoms: C19_17  and  C21_19 
ROOT
ATOM      1  C7  ZXM d   1      -4.786 -12.049  -9.967  0.00  0.00    -0.016 C 
ATOM      2  H6  ZXM d   1      -4.955 -12.756 -10.793  0.00  0.00     0.055 H 
ENDROOT
BRANCH   1   3
ATOM      3  B1  ZXM d   1      -6.144 -12.245  -9.106  0.00  0.00     0.119 B 
BRANCH   3   4
ATOM      4  O1  ZXM d   1      -6.120 -13.212  -7.856  0.00  0.00     0.000 OA
ATOM      5  H1  ZXM d   1      -5.875 -14.086  -8.137  0.00  0.00     0.000 HD
ATOM      6  H2  ZXM d   1      -5.875 -14.086  -8.137  0.00  0.00     0.000 HD
ENDBRANCH   3   4
BRANCH   3   7
ATOM      7  O2  ZXM d   1      -6.531 -10.840  -8.698  0.00  0.00     0.000 OA
ATOM      8  H3  ZXM d   1      -5.901 -10.509  -8.069  0.00  0.00     0.000 HD
ATOM      9  H4  ZXM d   1      -5.901 -10.509  -8.069  0.00  0.00     0.000 HD
ENDBRANCH   3   7
ENDBRANCH   1   3
BRANCH   1  10
ATOM     10  C8  ZXM d   1      -3.572 -12.491  -9.185  0.00  0.00     0.023 C 
ATOM     11  H7  ZXM d   1      -3.899 -13.192  -8.403  0.00  0.00     0.068 H 
ATOM     12  H8  ZXM d   1      -2.884 -13.005  -9.873  0.00  0.00     0.068 H 
BRANCH  10  13
ATOM     13  N4  ZXM d   1      -2.869 -11.419  -8.563  0.00  0.00    -0.282 N 
ATOM     14  N5  ZXM d   1      -3.630 -10.576  -7.760  0.00  0.00     0.005 NA
ATOM     15  N6  ZXM d   1      -2.689  -9.646  -7.278  0.00  0.00    -0.152 NA
ATOM     16  C19 ZXM d   1      -1.472  -9.971  -7.814  0.00  0.00     0.167 A 
ATOM     17  C20 ZXM d   1      -1.594 -11.083  -8.625  0.00  0.00     0.031 A 
ATOM     18  H15 ZXM d   1      -0.807 -11.576  -9.193  0.00  0.00     0.117 H 
BRANCH  16  19
ATOM     19  C21 ZXM d   1      -0.179  -9.273  -7.590  0.00  0.00     0.231 C 
ATOM     20  O22 ZXM d   1       0.744  -9.423  -8.452  0.00  0.00    -0.643 OA
ATOM     21  O23 ZXM d   1      -0.096  -8.594  -6.531  0.00  0.00    -0.643 OA
ENDBRANCH  16  19
ENDBRANCH  10  13
ENDBRANCH   1  10
BRANCH   1  22
ATOM     22  N10 ZXM d   1      -4.618 -10.717 -10.517  0.00  0.00    -0.365 N 
ATOM     23  C11 ZXM d   1      -3.836 -10.480 -11.600  0.00  0.00     0.221 C 
ATOM     24  O18 ZXM d   1      -3.070 -11.278 -12.168  0.00  0.00    -0.273 OA
ATOM     25  H9  ZXM d   1      -5.093  -9.950 -10.085  0.00  0.00     0.161 HD
BRANCH  23  26
ATOM     26  C12 ZXM d   1      -3.916  -9.107 -12.181  0.00  0.00     0.039 C 
ATOM     27  H10 ZXM d   1      -4.802  -8.585 -11.790  0.00  0.00     0.055 H 
ATOM     28  H11 ZXM d   1      -3.979  -9.166 -13.278  0.00  0.00     0.055 H 
BRANCH  26  29
ATOM     29  C13 ZXM d   1      -2.661  -8.367 -11.776  0.00  0.00    -0.009 A 
ATOM     30  C14 ZXM d   1      -1.473  -8.218 -12.448  0.00  0.00    -0.069 A 
ATOM     31  C15 ZXM d   1      -0.574  -7.445 -11.724  0.00  0.00    -0.076 A 
ATOM     32  H12 ZXM d   1      -1.262  -8.651 -13.425  0.00  0.00     0.085 H 
ATOM     33  C16 ZXM d   1      -1.038  -7.005 -10.489  0.00  0.00    -0.045 A 
ATOM     34  H13 ZXM d   1       0.420  -7.202 -12.096  0.00  0.00     0.084 H 
ATOM     35  S24 ZXM d   1      -2.624  -7.580 -10.209  0.00  0.00    -0.106 SA
ATOM     36  H14 ZXM d   1      -0.471  -6.382  -9.798  0.00  0.00     0.095 H 
ENDBRANCH  26  29
ENDBRANCH  23  26
ENDBRANCH   1  22
TORSDOF 9
