REMARK WARNING: 32 MAX_TORS EXCEEDED!!!
REMARK  35 active torsions:
REMARK  status: ('A' for Active; 'I' for Inactive)
REMARK    1  A    between atoms: N_1  and  CA_2 
REMARK    2  A    between atoms: CA_2  and  C_3 
REMARK       I    between atoms: C_3  and  N_5 
REMARK    3  A    between atoms: N_5  and  CA_6 
REMARK    4  A    between atoms: CA_12  and  CB_15 
REMARK    5  A    between atoms: CB_15  and  CG_16 
REMARK    6  A    between atoms: CA_26  and  CB_29 
REMARK    7  A    between atoms: CB_29  and  OG1_30 
REMARK    8  A    between atoms: CB_29  and  CG2_31 
REMARK    9  A    between atoms: CA_33  and  CB_36 
REMARK   10  A    between atoms: CB_36  and  CG_37 
REMARK   11  A    between atoms: CG_37  and  CD_38 
REMARK   12  A    between atoms: CD_38  and  CE_39 
REMARK   13  A    between atoms: CE_39  and  NZ_40 
REMARK   14  A    between atoms: CA_42  and  CB_45 
REMARK   15  A    between atoms: CB_45  and  OG_46 
REMARK   16  A    between atoms: CA_48  and  CB_51 
REMARK   17  A    between atoms: CB_51  and  CG1_52 
REMARK   18  A    between atoms: CB_51  and  CG2_53 
REMARK   19  A    between atoms: CG1_52  and  CD1_54 
REMARK   20  A    between atoms: CA_70  and  CB_73 
REMARK   21  A    between atoms: CB_73  and  CG_74 
REMARK   22  A    between atoms: CA_83  and  C_84 
REMARK       I    between atoms: C_84  and  N_88 
REMARK   23  A    between atoms: N_88  and  CA_89 
REMARK   24  A    between atoms: CA_89  and  C_90 
REMARK   25  A    between atoms: CA_89  and  CB_92 
REMARK       I    between atoms: C_90  and  N_99 
REMARK   26  A    between atoms: CB_92  and  CG_93 
REMARK   27  A    between atoms: N_99  and  CA_100 
REMARK   28  A    between atoms: CA_100  and  C_101 
REMARK   29  A    between atoms: CA_100  and  CB_103 
REMARK       I    between atoms: C_101  and  N_106 
REMARK   30  A    between atoms: CB_103  and  CG1_104 
REMARK   31  A    between atoms: CB_103  and  CG2_105 
REMARK   32  A    between atoms: N_106  and  CA_107 
REMARK   33  A    between atoms: CA_107  and  C_108 
REMARK   34  A    between atoms: CA_107  and  CB_110 
REMARK   35  A    between atoms: CB_110  and  CG_111 
ROOT
ATOM      1  CA  CYS d   1      -9.496 -11.434  10.512  0.00  0.00     0.098 C 
ATOM      2  C   CYS d   1     -10.013 -10.728  11.694  0.00  0.00     0.242 C 
ATOM      3  O   CYS d   1      -9.998 -11.295  12.819  0.00  0.00    -0.271 OA
ATOM      4  CB  CYS d   1     -10.436 -12.617  10.259  0.00  0.00     0.013 C 
ATOM      5  SG  CYS d   1     -12.115 -12.095   9.725  0.00  0.00    -0.095 SA
ATOM      6  N   CYS d   1     -12.469 -13.308  13.802  0.00  0.00    -0.345 N 
ATOM      7  CA  CYS d   1     -13.278 -14.053  12.897  0.00  0.00     0.098 C 
ATOM      8  CB  CYS d   1     -14.010 -13.123  11.932  0.00  0.00     0.013 C 
ATOM      9  SG  CYS d   1     -13.144 -11.631  11.402  0.00  0.00    -0.095 SA
ATOM     10  H7  CYS d   1      -9.484 -10.754   9.647  0.00  0.00     0.088 H 
ATOM     11  H8  CYS d   1     -10.528 -13.197  11.189  0.00  0.00     0.053 H 
ATOM     12  H9  CYS d   1      -9.999 -13.251   9.473  0.00  0.00     0.053 H 
ATOM     13  H84 CYS d   1     -11.531 -13.085  13.538  0.00  0.00     0.163 HD
ATOM     14  H85 CYS d   1     -14.054 -14.562  13.488  0.00  0.00     0.088 H 
ATOM     15  H86 CYS d   1     -14.943 -12.807  12.421  0.00  0.00     0.053 H 
ATOM     16  H87 CYS d   1     -14.248 -13.705  11.029  0.00  0.00     0.053 H 
ATOM     17  N   TRP d   1     -10.573  -9.566  11.503  0.00  0.00    -0.346 N 
ATOM     18  CA  TRP d   1     -11.171  -8.800  12.524  0.00  0.00     0.093 C 
ATOM     19  C   TRP d   1     -12.408  -8.125  12.007  0.00  0.00     0.241 C 
ATOM     20  O   TRP d   1     -12.431  -7.525  10.904  0.00  0.00    -0.271 OA
ATOM     21  H10 TRP d   1     -10.579  -9.195  10.574  0.00  0.00     0.163 HD
ATOM     22  H11 TRP d   1     -11.444  -9.482  13.343  0.00  0.00     0.088 H 
ATOM     23  N   THR d   1     -13.456  -8.107  12.844  0.00  0.00    -0.344 N 
ATOM     24  CA  THR d   1     -14.578  -7.259  12.590  0.00  0.00     0.113 C 
ATOM     25  C   THR d   1     -14.162  -5.806  12.756  0.00  0.00     0.243 C 
ATOM     26  O   THR d   1     -13.214  -5.472  13.445  0.00  0.00    -0.271 OA
ATOM     27  H20 THR d   1     -13.452  -8.693  13.654  0.00  0.00     0.163 HD
ATOM     28  H21 THR d   1     -14.885  -7.416  11.545  0.00  0.00     0.091 H 
ATOM     29  N   LYS d   1     -14.933  -4.905  12.138  0.00  0.00    -0.346 N 
ATOM     30  CA  LYS d   1     -14.608  -3.473  12.127  0.00  0.00     0.089 C 
ATOM     31  C   LYS d   1     -15.381  -2.628  13.211  0.00  0.00     0.241 C 
ATOM     32  O   LYS d   1     -15.674  -1.494  13.000  0.00  0.00    -0.271 OA
ATOM     33  H27 LYS d   1     -15.758  -5.217  11.668  0.00  0.00     0.163 HD
ATOM     34  H28 LYS d   1     -13.549  -3.406  12.418  0.00  0.00     0.087 H 
ATOM     35  N   SER d   1     -15.624  -3.238  14.359  0.00  0.00    -0.344 N 
ATOM     36  CA  SER d   1     -16.296  -2.629  15.501  0.00  0.00     0.109 C 
ATOM     37  C   SER d   1     -15.278  -2.083  16.477  0.00  0.00     0.243 C 
ATOM     38  O   SER d   1     -14.095  -2.434  16.419  0.00  0.00    -0.271 OA
ATOM     39  H40 SER d   1     -15.325  -4.188  14.451  0.00  0.00     0.163 HD
ATOM     40  H41 SER d   1     -16.918  -1.792  15.149  0.00  0.00     0.090 H 
ATOM     41  N   ILE d   1     -15.780  -1.316  17.441  0.00  0.00    -0.346 N 
ATOM     42  CA  ILE d   1     -15.055  -0.994  18.663  0.00  0.00     0.092 C 
ATOM     43  C   ILE d   1     -15.630  -1.822  19.818  0.00  0.00     0.243 C 
ATOM     44  O   ILE d   1     -16.758  -1.588  20.194  0.00  0.00    -0.271 OA
ATOM     45  H45 ILE d   1     -16.700  -0.942  17.321  0.00  0.00     0.163 HD
ATOM     46  H46 ILE d   1     -13.988  -1.216  18.517  0.00  0.00     0.088 H 
ATOM     47  N   PRO d   1     -14.936  -2.793  20.349  0.00  0.00    -0.337 N 
ATOM     48  CA  PRO d   1     -13.617  -3.253  19.951  0.00  0.00     0.092 C 
ATOM     49  C   PRO d   1     -13.748  -4.242  18.780  0.00  0.00     0.243 C 
ATOM     50  O   PRO d   1     -14.880  -4.808  18.543  0.00  0.00    -0.271 OA
ATOM     51  CB  PRO d   1     -13.175  -4.046  21.184  0.00  0.00    -0.036 C 
ATOM     52  CG  PRO d   1     -14.414  -4.633  21.696  0.00  0.00    -0.048 C 
ATOM     53  CD  PRO d   1     -15.482  -3.580  21.466  0.00  0.00    -0.001 C 
ATOM     54  N   PRO d   1     -12.681  -4.538  18.085  0.00  0.00    -0.337 N 
ATOM     55  CA  PRO d   1     -12.742  -5.549  17.033  0.00  0.00     0.091 C 
ATOM     56  C   PRO d   1     -12.927  -6.944  17.634  0.00  0.00     0.241 C 
ATOM     57  O   PRO d   1     -12.398  -7.220  18.717  0.00  0.00    -0.271 OA
ATOM     58  CB  PRO d   1     -11.382  -5.410  16.350  0.00  0.00    -0.036 C 
ATOM     59  CG  PRO d   1     -10.484  -4.813  17.390  0.00  0.00    -0.048 C 
ATOM     60  CD  PRO d   1     -11.365  -3.896  18.158  0.00  0.00    -0.001 C 
ATOM     61  N   PRO d   1     -12.616 -11.205  16.755  0.00  0.00    -0.337 N 
ATOM     62  CA  PRO d   1     -11.949 -12.146  15.838  0.00  0.00     0.091 C 
ATOM     63  C   PRO d   1     -12.920 -12.895  14.996  0.00  0.00     0.241 C 
ATOM     64  O   PRO d   1     -14.046 -13.186  15.412  0.00  0.00    -0.271 OA
ATOM     65  CB  PRO d   1     -11.235 -13.091  16.813  0.00  0.00    -0.036 C 
ATOM     66  CG  PRO d   1     -12.110 -13.093  18.028  0.00  0.00    -0.048 C 
ATOM     67  CD  PRO d   1     -12.680 -11.698  18.153  0.00  0.00    -0.001 C 
ATOM     68  H56 PRO d   1     -12.936  -2.425  19.705  0.00  0.00     0.087 H 
ATOM     69  H57 PRO d   1     -12.720  -3.381  21.933  0.00  0.00     0.036 H 
ATOM     70  H58 PRO d   1     -12.457  -4.832  20.906  0.00  0.00     0.036 H 
ATOM     71  H59 PRO d   1     -14.319  -4.857  22.769  0.00  0.00     0.035 H 
ATOM     72  H60 PRO d   1     -14.658  -5.555  21.148  0.00  0.00     0.035 H 
ATOM     73  H61 PRO d   1     -16.441  -4.043  21.192  0.00  0.00     0.064 H 
ATOM     74  H62 PRO d   1     -15.619  -2.954  22.360  0.00  0.00     0.064 H 
ATOM     75  H63 PRO d   1     -13.561  -5.341  16.328  0.00  0.00     0.087 H 
ATOM     76  H64 PRO d   1     -11.455  -4.747  15.475  0.00  0.00     0.036 H 
ATOM     77  H65 PRO d   1     -11.006  -6.394  16.034  0.00  0.00     0.036 H 
ATOM     78  H66 PRO d   1      -9.660  -4.257  16.919  0.00  0.00     0.035 H 
ATOM     79  H67 PRO d   1     -10.072  -5.596  18.044  0.00  0.00     0.035 H 
ATOM     80  H68 PRO d   1     -11.028  -3.810  19.201  0.00  0.00     0.064 H 
ATOM     81  H69 PRO d   1     -11.389  -2.898  17.697  0.00  0.00     0.064 H 
ATOM     82  H77 PRO d   1     -11.231 -11.623  15.189  0.00  0.00     0.087 H 
ATOM     83  H78 PRO d   1     -10.230 -12.715  17.056  0.00  0.00     0.036 H 
ATOM     84  H79 PRO d   1     -11.155 -14.102  16.388  0.00  0.00     0.036 H 
ATOM     85  H80 PRO d   1     -11.518 -13.343  18.921  0.00  0.00     0.035 H 
ATOM     86  H81 PRO d   1     -12.922 -13.825  17.910  0.00  0.00     0.035 H 
ATOM     87  H82 PRO d   1     -13.717 -11.723  18.520  0.00  0.00     0.064 H 
ATOM     88  H83 PRO d   1     -12.068 -11.076  18.823  0.00  0.00     0.064 H 
ATOM     89  N   ARG d   1     -13.598  -7.804  16.863  0.00  0.00    -0.346 N 
ATOM     90  CA  ARG d   1     -13.882  -9.180  17.239  0.00  0.00     0.089 C 
ATOM     91  C   ARG d   1     -13.170 -10.109  16.290  0.00  0.00     0.243 C 
ATOM     92  O   ARG d   1     -13.106  -9.841  15.095  0.00  0.00    -0.271 OA
ATOM     93  H70 ARG d   1     -13.925  -7.482  15.974  0.00  0.00     0.163 HD
ATOM     94  H71 ARG d   1     -13.487  -9.358  18.250  0.00  0.00     0.087 H 
ENDROOT
BRANCH   7  95
ATOM     95  C   CYS d   1     -12.472 -15.110  12.259  0.00  0.00     0.242 C 
ATOM     96  O   CYS d   1     -11.247 -15.108  12.247  0.00  0.00    -0.271 OA
ATOM     97  N   PHE d   1     -13.179 -16.155  11.764  0.00  0.00    -0.346 N 
ATOM     98  H88 PHE d   1     -14.178 -16.127  11.809  0.00  0.00     0.163 HD
BRANCH  97  99
ATOM     99  CA  PHE d   1     -12.537 -17.310  11.172  0.00  0.00     0.093 C 
ATOM    100  H89 PHE d   1     -13.335 -18.057  11.048  0.00  0.00     0.088 H 
BRANCH  99 101
ATOM    101  C   PHE d   1     -11.509 -17.944  12.120  0.00  0.00     0.241 C 
ATOM    102  O   PHE d   1     -10.477 -18.417  11.707  0.00  0.00    -0.271 OA
ATOM    103  N   VAL d   1     -11.910 -18.044  13.396  0.00  0.00    -0.346 N 
ATOM    104  H97 VAL d   1     -12.781 -17.624  13.652  0.00  0.00     0.163 HD
BRANCH 103 105
ATOM    105  CA  VAL d   1     -11.162 -18.716  14.406  0.00  0.00     0.092 C 
ATOM    106  H98 VAL d   1     -10.102 -18.461  14.262  0.00  0.00     0.088 H 
BRANCH 105 107
ATOM    107  C   VAL d   1     -11.300 -20.232  14.247  0.00  0.00     0.241 C 
ATOM    108  O   VAL d   1     -12.465 -20.698  14.040  0.00  0.00    -0.271 OA
ATOM    109  N   LYS d   1     -10.214 -20.938  14.246  0.00  0.00    -0.345 N 
ATOM    110 6H10 LYS d   1      -9.328 -20.494  14.383  0.00  0.00     0.163 HD
BRANCH 109 111
ATOM    111  CA  LYS d   1     -10.285 -22.379  14.045  0.00  0.00     0.096 C 
ATOM    112 7H10 LYS d   1     -11.018 -22.587  13.252  0.00  0.00     0.089 H 
BRANCH 111 113
ATOM    113  C   LYS d   1     -10.718 -23.110  15.316  0.00  0.00     0.196 C 
ATOM    114  O   LYS d   1     -10.565 -22.595  16.421  0.00  0.00    -0.646 OA
ATOM    115  OXT LYS d   1     -11.227 -24.227  15.257  0.00  0.00    -0.646 OA
ENDBRANCH 111 113
BRANCH 111 116
ATOM    116  CB  LYS d   1      -8.935 -22.896  13.619  0.00  0.00    -0.040 C 
ATOM    117 8H10 LYS d   1      -9.033 -23.954  13.333  0.00  0.00     0.036 H 
ATOM    118 9H10 LYS d   1      -8.237 -22.808  14.465  0.00  0.00     0.036 H 
BRANCH 116 119
ATOM    119  CG  LYS d   1      -8.376 -22.114  12.434  0.00  0.00    -0.074 C 
ATOM    120 0H11 LYS d   1      -7.393 -22.522  12.156  0.00  0.00     0.027 H 
ATOM    121 1H11 LYS d   1      -8.268 -21.055  12.712  0.00  0.00     0.027 H 
ATOM    122 2H11 LYS d   1      -9.064 -22.201  11.580  0.00  0.00     0.027 H 
ENDBRANCH 116 119
ENDBRANCH 111 116
ENDBRANCH 109 111
ENDBRANCH 105 107
BRANCH 105 123
ATOM    123  CB  VAL d   1     -11.572 -18.230  15.855  0.00  0.00    -0.033 C 
ATOM    124  H99 VAL d   1     -12.632 -18.485  16.000  0.00  0.00     0.042 H 
BRANCH 123 125
ATOM    125  CG1 VAL d   1     -10.787 -18.910  16.930  0.00  0.00    -0.071 C 
ATOM    126 0H10 VAL d   1     -11.111 -18.537  17.913  0.00  0.00     0.028 H 
ATOM    127 1H10 VAL d   1      -9.716 -18.698  16.792  0.00  0.00     0.028 H 
ATOM    128 2H10 VAL d   1     -10.956 -19.996  16.877  0.00  0.00     0.028 H 
ENDBRANCH 123 125
BRANCH 123 129
ATOM    129  CG2 VAL d   1     -11.431 -16.756  15.996  0.00  0.00    -0.071 C 
ATOM    130 3H10 VAL d   1     -12.008 -16.255  15.205  0.00  0.00     0.028 H 
ATOM    131 4H10 VAL d   1     -10.370 -16.479  15.907  0.00  0.00     0.028 H 
ATOM    132 5H10 VAL d   1     -11.810 -16.444  16.980  0.00  0.00     0.028 H 
ENDBRANCH 123 129
ENDBRANCH 105 123
ENDBRANCH 103 105
ENDBRANCH  99 101
BRANCH  99 133
ATOM    133  CB  PHE d   1     -11.965 -17.086   9.762  0.00  0.00    -0.014 C 
ATOM    134  H90 PHE d   1     -11.573 -18.039   9.378  0.00  0.00     0.043 H 
ATOM    135  H91 PHE d   1     -11.150 -16.350   9.818  0.00  0.00     0.043 H 
BRANCH 133 136
ATOM    136  CG  PHE d   1     -13.002 -16.586   8.839  0.00  0.00    -0.056 A 
ATOM    137  CD1 PHE d   1     -13.946 -17.411   8.219  0.00  0.00    -0.077 A 
ATOM    138  CE1 PHE d   1     -14.926 -16.841   7.384  0.00  0.00    -0.082 A 
ATOM    139  H92 PHE d   1     -13.923 -18.483   8.380  0.00  0.00     0.084 H 
ATOM    140  CZ  PHE d   1     -14.975 -15.498   7.191  0.00  0.00    -0.083 A 
ATOM    141  H94 PHE d   1     -15.649 -17.481   6.890  0.00  0.00     0.083 H 
ATOM    142  CE2 PHE d   1     -14.054 -14.696   7.734  0.00  0.00    -0.082 A 
ATOM    143  H96 PHE d   1     -15.770 -15.072   6.590  0.00  0.00     0.083 H 
ATOM    144  CD2 PHE d   1     -13.110 -15.241   8.566  0.00  0.00    -0.077 A 
ATOM    145  H95 PHE d   1     -14.053 -13.633   7.520  0.00  0.00     0.083 H 
ATOM    146  H93 PHE d   1     -12.403 -14.569   9.039  0.00  0.00     0.084 H 
ENDBRANCH 133 136
ENDBRANCH  99 133
ENDBRANCH  97  99
ENDBRANCH   7  95
BRANCH   1 147
ATOM    147  N   CYS d   1      -8.183 -11.962  10.727  0.00  0.00    -0.346 N 
ATOM    148  C   GLY d   1      -7.106 -11.150  10.692  0.00  0.00     0.243 C 
ATOM    149  O   GLY d   1      -7.201  -9.930  10.536  0.00  0.00    -0.272 OA
ATOM    150  H6  CYS d   1      -8.063 -12.939  10.904  0.00  0.00     0.163 HD
BRANCH 148 151
ATOM    151  CA  GLY d   1      -5.733 -11.803  10.975  0.00  0.00     0.152 C 
ATOM    152  H4  GLY d   1      -5.804 -12.380  11.909  0.00  0.00     0.090 H 
ATOM    153  H5  GLY d   1      -5.488 -12.480  10.143  0.00  0.00     0.090 H 
BRANCH 151 154
ATOM    154  N   GLY d   1      -4.626 -10.795  11.117  0.00  0.00    -0.071 N 
ATOM    155  H1  GLY d   1      -3.758 -11.273  11.300  0.00  0.00     0.274 HD
ATOM    156  H2  GLY d   1      -4.834 -10.173  11.882  0.00  0.00     0.274 HD
ATOM    157  H3  GLY d   1      -4.544 -10.264  10.264  0.00  0.00     0.274 HD
ENDBRANCH 151 154
ENDBRANCH 148 151
ENDBRANCH   1 147
BRANCH  90 158
ATOM    158  CB  ARG d   1     -15.436  -9.410  17.281  0.00  0.00    -0.041 C 
ATOM    159  H72 ARG d   1     -15.627 -10.398  17.726  0.00  0.00     0.036 H 
ATOM    160  H73 ARG d   1     -15.815  -9.393  16.249  0.00  0.00     0.036 H 
BRANCH 158 161
ATOM    161  CG  ARG d   1     -16.193  -8.376  18.081  0.00  0.00    -0.074 C 
ATOM    162  H74 ARG d   1     -17.268  -8.610  18.059  0.00  0.00     0.027 H 
ATOM    163  H75 ARG d   1     -16.026  -7.380  17.645  0.00  0.00     0.027 H 
ATOM    164  H76 ARG d   1     -15.837  -8.385  19.122  0.00  0.00     0.027 H 
ENDBRANCH 158 161
ENDBRANCH  90 158
BRANCH  18 165
ATOM    165  CB  TRP d   1     -10.237  -7.669  13.104  0.00  0.00    -0.012 C 
ATOM    166  H12 TRP d   1     -10.810  -7.071  13.828  0.00  0.00     0.044 H 
ATOM    167  H13 TRP d   1      -9.904  -7.024  12.277  0.00  0.00     0.044 H 
BRANCH 165 168
ATOM    168  CG  TRP d   1      -9.028  -8.239  13.793  0.00  0.00    -0.028 A 
ATOM    169  CD1 TRP d   1      -7.819  -8.623  13.285  0.00  0.00    -0.015 A 
ATOM    170  NE1 TRP d   1      -7.016  -9.191  14.253  0.00  0.00    -0.365 N 
ATOM    171  H14 TRP d   1      -7.525  -8.496  12.244  0.00  0.00     0.112 H 
ATOM    172  CE2 TRP d   1      -7.722  -9.333  15.412  0.00  0.00     0.042 A 
ATOM    173  H15 TRP d   1      -6.032  -9.466  14.121  0.00  0.00     0.165 HD
ATOM    174  CD2 TRP d   1      -9.008  -8.709  15.183  0.00  0.00    -0.002 A 
ATOM    175  CZ2 TRP d   1      -7.322  -9.885  16.653  0.00  0.00    -0.056 A 
ATOM    176  CE3 TRP d   1      -9.893  -8.887  16.199  0.00  0.00    -0.070 A 
ATOM    177  CZ3 TRP d   1      -9.519  -9.320  17.418  0.00  0.00    -0.082 A 
ATOM    178  H16 TRP d   1     -10.941  -8.672  16.021  0.00  0.00     0.084 H 
ATOM    179  CH2 TRP d   1      -8.226  -9.861  17.666  0.00  0.00    -0.081 A 
ATOM    180  H18 TRP d   1     -10.226  -9.254  18.237  0.00  0.00     0.083 H 
ATOM    181  H19 TRP d   1      -7.968 -10.247  18.646  0.00  0.00     0.083 H 
ATOM    182  H17 TRP d   1      -6.334 -10.310  16.789  0.00  0.00     0.086 H 
ENDBRANCH 165 168
ENDBRANCH  18 165
BRANCH  24 183
ATOM    183  CB  THR d   1     -15.794  -7.557  13.480  0.00  0.00     0.060 C 
ATOM    184  H22 THR d   1     -16.634  -6.931  13.145  0.00  0.00     0.086 H 
BRANCH 183 185
ATOM    185  OG1 THR d   1     -15.462  -7.190  14.803  0.00  0.00    -0.393 OA
ATOM    186  H23 THR d   1     -15.252  -6.264  14.830  0.00  0.00     0.210 HD
ENDBRANCH 183 185
BRANCH 183 187
ATOM    187  CG2 THR d   1     -16.217  -8.960  13.380  0.00  0.00    -0.050 C 
ATOM    188  H24 THR d   1     -17.087  -9.128  14.031  0.00  0.00     0.031 H 
ATOM    189  H25 THR d   1     -15.392  -9.615  13.695  0.00  0.00     0.031 H 
ATOM    190  H26 THR d   1     -16.489  -9.188  12.339  0.00  0.00     0.031 H 
ENDBRANCH 183 187
ENDBRANCH  24 183
BRANCH  30 191
ATOM    191  CB  LYS d   1     -14.676  -2.925  10.744  0.00  0.00    -0.038 C 
ATOM    192  H29 LYS d   1     -14.638  -1.826  10.776  0.00  0.00     0.036 H 
ATOM    193  H30 LYS d   1     -15.611  -3.246  10.261  0.00  0.00     0.036 H 
BRANCH 191 194
ATOM    194  CG  LYS d   1     -13.480  -3.461   9.963  0.00  0.00    -0.061 C 
ATOM    195  H31 LYS d   1     -13.486  -4.560  10.009  0.00  0.00     0.033 H 
ATOM    196  H32 LYS d   1     -12.555  -3.080  10.420  0.00  0.00     0.033 H 
BRANCH 194 197
ATOM    197  CD  LYS d   1     -13.527  -3.031   8.521  0.00  0.00    -0.043 C 
ATOM    198  H33 LYS d   1     -13.473  -1.934   8.462  0.00  0.00     0.035 H 
ATOM    199  H34 LYS d   1     -14.466  -3.377   8.064  0.00  0.00     0.035 H 
BRANCH 197 200
ATOM    200  CE  LYS d   1     -12.362  -3.631   7.791  0.00  0.00     0.080 C 
ATOM    201  H35 LYS d   1     -12.387  -4.726   7.894  0.00  0.00     0.075 H 
ATOM    202  H36 LYS d   1     -11.423  -3.244   8.214  0.00  0.00     0.075 H 
BRANCH 200 203
ATOM    203  NZ  LYS d   1     -12.453  -3.249   6.298  0.00  0.00    -0.079 N 
ATOM    204  H37 LYS d   1     -11.673  -3.649   5.801  0.00  0.00     0.274 HD
ATOM    205  H38 LYS d   1     -12.431  -2.245   6.206  0.00  0.00     0.274 HD
ATOM    206  H39 LYS d   1     -13.314  -3.603   5.912  0.00  0.00     0.274 HD
ENDBRANCH 200 203
ENDBRANCH 197 200
ENDBRANCH 194 197
ENDBRANCH 191 194
ENDBRANCH  30 191
BRANCH  42 207
ATOM    207  CB  ILE d   1     -15.225   0.427  19.090  0.00  0.00    -0.030 C 
ATOM    208  H47 ILE d   1     -16.291   0.584  19.309  0.00  0.00     0.043 H 
BRANCH 207 209
ATOM    209  CG1 ILE d   1     -14.849   1.364  18.018  0.00  0.00    -0.063 C 
ATOM    210  H48 ILE d   1     -14.970   2.385  18.410  0.00  0.00     0.033 H 
ATOM    211  H49 ILE d   1     -15.544   1.208  17.180  0.00  0.00     0.033 H 
BRANCH 209 212
ATOM    212  CD1 ILE d   1     -13.505   1.251  17.498  0.00  0.00    -0.076 C 
ATOM    213  H53 ILE d   1     -13.353   2.002  16.709  0.00  0.00     0.027 H 
ATOM    214  H54 ILE d   1     -13.357   0.244  17.080  0.00  0.00     0.027 H 
ATOM    215  H55 ILE d   1     -12.782   1.421  18.310  0.00  0.00     0.027 H 
ENDBRANCH 209 212
ENDBRANCH 207 209
BRANCH 207 216
ATOM    216  CG2 ILE d   1     -14.465   0.702  20.331  0.00  0.00    -0.071 C 
ATOM    217  H50 ILE d   1     -14.767  -0.012  21.111  0.00  0.00     0.028 H 
ATOM    218  H51 ILE d   1     -14.676   1.727  20.671  0.00  0.00     0.028 H 
ATOM    219  H52 ILE d   1     -13.388   0.595  20.133  0.00  0.00     0.028 H 
ENDBRANCH 207 216
ENDBRANCH  42 207
BRANCH  36 220
ATOM    220  CB  SER d   1     -17.210  -3.687  16.133  0.00  0.00     0.044 C 
ATOM    221  H42 SER d   1     -18.067  -3.873  15.469  0.00  0.00     0.077 H 
ATOM    222  H43 SER d   1     -17.572  -3.322  17.106  0.00  0.00     0.077 H 
BRANCH 220 223
ATOM    223  OG  SER d   1     -16.490  -4.897  16.322  0.00  0.00    -0.398 OA
ATOM    224  H44 SER d   1     -15.750  -4.738  16.896  0.00  0.00     0.209 HD
ENDBRANCH 220 223
ENDBRANCH  36 220
TORSDOF 35
