REMARK  12 active torsions:
REMARK  status: ('A' for Active; 'I' for Inactive)
REMARK    1  A    between atoms: C6'_2  and  O6'_1 
REMARK    2  A    between atoms: C5'_3  and  C6'_2 
REMARK    3  A    between atoms: C2'_4  and  C1'_5 
REMARK    4  A    between atoms: C1'_5  and  O1'_6 
REMARK    5  A    between atoms: C3'_7  and  O3'_8 
REMARK    6  A    between atoms: C4'_9  and  O4'_10 
REMARK    7  A    between atoms: O4'_10  and  C1_11 
REMARK    8  A    between atoms: C2_12  and  O2_13 
REMARK    9  A    between atoms: C3_14  and  O3_15 
REMARK   10  A    between atoms: C4_16  and  O4_17 
REMARK   11  A    between atoms: C5_18  and  C6_19 
REMARK   12  A    between atoms: C6_19  and  O6_20 
ROOT
ATOM      1  C5' RZM d   1      25.817 -31.076 280.038  0.00  0.00     0.149 C 
ATOM      2  C2' RZM d   1      23.807 -30.122 280.421  0.00  0.00     0.149 C 
ATOM      3  C3' RZM d   1      23.671 -31.228 279.271  0.00  0.00     0.092 C 
ATOM      4  C4' RZM d   1      24.793 -31.139 278.719  0.00  0.00     0.098 C 
ATOM      5  N5' RZM d   1      25.297 -30.139 280.783  0.00  0.00    -0.058 N 
ATOM      6  H4  RZM d   1      25.818 -32.037 280.574  0.00  0.00     0.091 H 
ATOM      7  H5  RZM d   1      23.530 -29.135 280.022  0.00  0.00     0.091 H 
ATOM      8  H9  RZM d   1      23.496 -32.238 279.670  0.00  0.00     0.090 H 
ATOM      9  H11 RZM d   1      24.853 -30.215 278.126  0.00  0.00     0.090 H 
ATOM     10  H23 RZM d   1      25.721 -29.248 280.578  0.00  0.00     0.278 HD
ATOM     11  H24 RZM d   1      25.421 -30.354 281.760  0.00  0.00     0.278 HD
ENDROOT
BRANCH   4  12
ATOM     12  O4' RZM d   1      25.143 -32.278 277.850  0.00  0.00    -0.348 OA
BRANCH  12  13
ATOM     13  C1  RZM d   1      24.700 -32.030 276.542  0.00  0.00     0.159 C 
ATOM     14  C2  RZM d   1      24.367 -33.357 275.937  0.00  0.00     0.110 C 
ATOM     15  C3  RZM d   1      25.591 -34.192 275.830  0.00  0.00     0.092 C 
ATOM     16  H13 RZM d   1      23.966 -33.203 274.924  0.00  0.00     0.094 H 
ATOM     17  C4  RZM d   1      26.574 -33.507 274.959  0.00  0.00     0.090 C 
ATOM     18  H15 RZM d   1      26.025 -34.293 276.836  0.00  0.00     0.091 H 
ATOM     19  C5  RZM d   1      26.935 -32.214 275.636  0.00  0.00     0.089 C 
ATOM     20  H17 RZM d   1      26.122 -33.298 273.978  0.00  0.00     0.091 H 
ATOM     21  O5  RZM d   1      25.754 -31.328 275.786  0.00  0.00    -0.348 OA
ATOM     22  H19 RZM d   1      27.291 -32.474 276.644  0.00  0.00     0.090 H 
ATOM     23  H12 RZM d   1      23.798 -31.401 276.565  0.00  0.00     0.133 H 
BRANCH  14  24
ATOM     24  O2  RZM d   1      23.340 -33.969 276.754  0.00  0.00    -0.388 OA
ATOM     25  H14 RZM d   1      23.110 -34.816 276.390  0.00  0.00     0.210 HD
ENDBRANCH  14  24
BRANCH  15  26
ATOM     26  O3  RZM d   1      25.316 -35.529 275.325  0.00  0.00    -0.390 OA
ATOM     27  H16 RZM d   1      24.929 -35.466 274.460  0.00  0.00     0.210 HD
ENDBRANCH  15  26
BRANCH  17  28
ATOM     28  O4  RZM d   1      27.751 -34.348 274.772  0.00  0.00    -0.390 OA
ATOM     29  H18 RZM d   1      28.374 -33.899 274.212  0.00  0.00     0.210 HD
ENDBRANCH  17  28
BRANCH  19  30
ATOM     30  C6  RZM d   1      28.029 -31.448 274.963  0.00  0.00     0.043 C 
ATOM     31  H20 RZM d   1      28.820 -32.142 274.643  0.00  0.00     0.078 H 
ATOM     32  H21 RZM d   1      28.448 -30.713 275.666  0.00  0.00     0.078 H 
BRANCH  30  33
ATOM     33  O6  RZM d   1      27.506 -30.774 273.831  0.00  0.00    -0.398 OA
ATOM     34  H22 RZM d   1      26.823 -30.175 274.108  0.00  0.00     0.209 HD
ENDBRANCH  30  33
ENDBRANCH  19  30
ENDBRANCH  12  13
ENDBRANCH   4  12
BRANCH   1  35
ATOM     35  C6' RZM d   1      27.245 -30.745 279.614  0.00  0.00     0.046 C 
ATOM     36  H2  RZM d   1      27.885 -30.761 280.508  0.00  0.00     0.077 H 
ATOM     37  H3  RZM d   1      27.584 -31.516 278.906  0.00  0.00     0.077 H 
BRANCH  35  38
ATOM     38  O6' RZM d   1      27.377 -29.467 278.987  0.00  0.00    -0.399 OA
ATOM     39  H1  RZM d   1      27.096 -28.789 279.590  0.00  0.00     0.209 HD
ENDBRANCH  35  38
ENDBRANCH   1  35
BRANCH   3  40
ATOM     40  O3' RZM d   1      22.529 -30.815 278.373  0.00  0.00    -0.391 OA
ATOM     41  H10 RZM d   1      21.729 -30.766 278.882  0.00  0.00     0.210 HD
ENDBRANCH   3  40
BRANCH   2  42
ATOM     42  C1' RZM d   1      23.001 -30.388 281.516  0.00  0.00     0.046 C 
ATOM     43  H6  RZM d   1      23.590 -30.838 282.329  0.00  0.00     0.077 H 
ATOM     44  H7  RZM d   1      22.182 -31.067 281.237  0.00  0.00     0.077 H 
BRANCH  42  45
ATOM     45  O1' RZM d   1      22.476 -29.096 281.922  0.00  0.00    -0.399 OA
ATOM     46  H8  RZM d   1      23.196 -28.520 282.149  0.00  0.00     0.209 HD
ENDBRANCH  42  45
ENDBRANCH   2  42
TORSDOF 12
