REMARK  11 active torsions:
REMARK  status: ('A' for Active; 'I' for Inactive)
REMARK    1  A    between atoms: C1_1  and  O2_2 
REMARK    2  A    between atoms: O2_2  and  C3_3 
REMARK    3  A    between atoms: C3_3  and  C5_5 
REMARK    4  A    between atoms: C5_5  and  C9_9 
REMARK    5  A    between atoms: C6_6  and  O7_7 
REMARK    6  A    between atoms: O7_7  and  C8_8 
REMARK    7  A    between atoms: C14_14  and  C15_15 
REMARK    8  A    between atoms: C15_15  and  S16_16 
REMARK    9  A    between atoms: S16_16  and  C17_17 
REMARK   10  A    between atoms: C22_22  and  O23_23 
REMARK   11  A    between atoms: O23_23  and  C24_24 
ROOT
ATOM      1  C9  Y52 d   1       8.272 134.830  79.660  0.00  0.00    -0.011 A 
ATOM      2  C10 Y52 d   1       7.797 135.965  79.015  0.00  0.00    -0.071 A 
ATOM      3  C11 Y52 d   1       6.448 136.233  78.990  0.00  0.00    -0.082 A 
ATOM      4  C12 Y52 d   1       5.557 135.383  79.604  0.00  0.00    -0.082 A 
ATOM      5  C13 Y52 d   1       6.016 134.263  80.245  0.00  0.00    -0.075 A 
ATOM      6  C14 Y52 d   1       7.377 133.973  80.279  0.00  0.00    -0.037 A 
ATOM      7  H8  Y52 d   1       8.491 136.641  78.530  0.00  0.00     0.084 H 
ATOM      8  H9  Y52 d   1       6.085 137.120  78.483  0.00  0.00     0.083 H 
ATOM      9  H10 Y52 d   1       4.495 135.599  79.581  0.00  0.00     0.083 H 
ATOM     10  H11 Y52 d   1       5.313 133.596  80.731  0.00  0.00     0.084 H 
ENDROOT
BRANCH   6  11
ATOM     11  C15 Y52 d   1       7.868 132.748  80.981  0.00  0.00     0.008 C 
ATOM     12  H12 Y52 d   1       7.993 132.991  82.046  0.00  0.00     0.056 H 
ATOM     13  H13 Y52 d   1       8.843 132.474  80.550  0.00  0.00     0.056 H 
BRANCH  11  14
ATOM     14  S16 Y52 d   1       6.766 131.301  80.855  0.00  0.00    -0.098 SA
BRANCH  14  15
ATOM     15  C17 Y52 d   1       7.741 130.143  81.707  0.00  0.00     0.136 A 
ATOM     16  S18 Y52 d   1       7.057 128.540  81.881  0.00  0.00    -0.061 SA
ATOM     17  C19 Y52 d   1       8.486 128.068  82.739  0.00  0.00     0.036 A 
ATOM     18  C20 Y52 d   1       8.822 126.841  83.297  0.00  0.00    -0.061 A 
ATOM     19  C26 Y52 d   1       9.363 129.151  82.827  0.00  0.00     0.078 A 
ATOM     20  C21 Y52 d   1      10.030 126.720  83.933  0.00  0.00    -0.049 A 
ATOM     21  H14 Y52 d   1       8.144 125.998  83.231  0.00  0.00     0.085 H 
ATOM     22  C22 Y52 d   1      10.906 127.794  84.024  0.00  0.00     0.070 A 
ATOM     23  H15 Y52 d   1      10.307 125.769  84.373  0.00  0.00     0.087 H 
ATOM     24  C25 Y52 d   1      10.583 129.020  83.473  0.00  0.00    -0.022 A 
ATOM     25  H19 Y52 d   1      11.267 129.858  83.544  0.00  0.00     0.091 H 
ATOM     26  N27 Y52 d   1       8.906 130.331  82.225  0.00  0.00    -0.233 NA
BRANCH  22  27
ATOM     27  O23 Y52 d   1      12.078 127.541  84.681  0.00  0.00    -0.356 OA
BRANCH  27  28
ATOM     28  C24 Y52 d   1      12.215 126.365  85.463  0.00  0.00     0.010 C 
ATOM     29  H16 Y52 d   1      13.220 126.337  85.910  0.00  0.00     0.066 H 
ATOM     30  H17 Y52 d   1      12.073 125.481  84.824  0.00  0.00     0.066 H 
ATOM     31  H18 Y52 d   1      11.458 126.365  86.261  0.00  0.00     0.066 H 
ENDBRANCH  27  28
ENDBRANCH  22  27
ENDBRANCH  14  15
ENDBRANCH  11  14
ENDBRANCH   6  11
BRANCH   1  32
ATOM     32  C5  Y52 d   1       9.739 134.592  79.653  0.00  0.00     0.072 C 
ATOM     33  C6  Y52 d   1      10.564 135.057  80.580  0.00  0.00     0.028 C 
ATOM     34  H4  Y52 d   1      11.631 134.849  80.510  0.00  0.00     0.124 H 
BRANCH  32  35
ATOM     35  C3  Y52 d   1      10.283 133.795  78.532  0.00  0.00     0.295 C 
ATOM     36  O4  Y52 d   1       9.628 133.329  77.647  0.00  0.00    -0.259 OA
BRANCH  35  37
ATOM     37  O2  Y52 d   1      11.615 133.654  78.638  0.00  0.00    -0.322 OA
BRANCH  37  38
ATOM     38  C1  Y52 d   1      12.294 133.095  77.495  0.00  0.00     0.013 C 
ATOM     39  H1  Y52 d   1      13.372 133.031  77.704  0.00  0.00     0.067 H 
ATOM     40  H2  Y52 d   1      12.128 133.739  76.619  0.00  0.00     0.067 H 
ATOM     41  H3  Y52 d   1      11.900 132.089  77.290  0.00  0.00     0.067 H 
ENDBRANCH  37  38
ENDBRANCH  35  37
ENDBRANCH  32  35
BRANCH  33  42
ATOM     42  O7  Y52 d   1      10.095 135.779  81.599  0.00  0.00    -0.367 OA
BRANCH  42  43
ATOM     43  C8  Y52 d   1      11.067 136.474  82.395  0.00  0.00     0.009 C 
ATOM     44  H5  Y52 d   1      10.556 137.028  83.196  0.00  0.00     0.066 H 
ATOM     45  H6  Y52 d   1      11.625 137.178  81.760  0.00  0.00     0.066 H 
ATOM     46  H7  Y52 d   1      11.765 135.748  82.838  0.00  0.00     0.066 H 
ENDBRANCH  42  43
ENDBRANCH  33  42
ENDBRANCH   1  32
TORSDOF 11
