REMARK  3 active torsions:
REMARK  status: ('A' for Active; 'I' for Inactive)
REMARK    1  A    between atoms: C4_1  and  C7_4 
REMARK    2  A    between atoms: C10_7  and  N16_16 
REMARK    3  A    between atoms: N16_16  and  C17_17 
ROOT
ATOM      1  C7  3D9 d   1     -14.021  -2.325  29.342  0.00  0.00    -0.006 A 
ATOM      2  C8  3D9 d   1     -15.030  -3.187  28.880  0.00  0.00    -0.039 A 
ATOM      3  C9  3D9 d   1     -15.094  -4.225  29.783  0.00  0.00     0.104 A 
ATOM      4  C10 3D9 d   1     -15.884  -5.396  29.878  0.00  0.00     0.158 A 
ATOM      5  C12 3D9 d   1     -14.753  -5.984  31.840  0.00  0.00     0.108 A 
ATOM      6  N11 3D9 d   1     -15.667  -6.213  30.906  0.00  0.00    -0.220 NA
ATOM      7  N13 3D9 d   1     -14.007  -4.922  31.812  0.00  0.00    -0.161 NA
ATOM      8  N14 3D9 d   1     -14.142  -4.002  30.765  0.00  0.00    -0.239 N 
ATOM      9  C15 3D9 d   1     -13.505  -2.858  30.496  0.00  0.00     0.015 A 
ATOM     10  H   3D9 d   1     -15.639  -3.060  27.987  0.00  0.00     0.088 H 
ATOM     11  H   3D9 d   1     -14.626  -6.703  32.648  0.00  0.00     0.149 H 
ATOM     12  H   3D9 d   1     -12.707  -2.421  31.095  0.00  0.00     0.116 H 
ENDROOT
BRANCH   4  13
ATOM     13  N16 3D9 d   1     -16.839  -5.648  28.894  0.00  0.00    -0.339 N 
ATOM     14  H   3D9 d   1     -16.946  -4.929  28.165  0.00  0.00     0.167 HD
BRANCH  13  15
ATOM     15  C17 3D9 d   1     -17.673  -6.778  28.788  0.00  0.00     0.036 A 
ATOM     16  C18 3D9 d   1     -17.961  -7.650  29.846  0.00  0.00    -0.040 A 
ATOM     17  C19 3D9 d   1     -18.796  -8.727  29.648  0.00  0.00     0.004 A 
ATOM     18  H   3D9 d   1     -17.525  -7.476  30.823  0.00  0.00     0.089 H 
ATOM     19  N20 3D9 d   1     -19.343  -8.947  28.467  0.00  0.00    -0.273 NA
ATOM     20  H   3D9 d   1     -19.006  -9.401  30.471  0.00  0.00     0.114 H 
ATOM     21  C21 3D9 d   1     -19.114  -8.149  27.432  0.00  0.00     0.004 A 
ATOM     22  C22 3D9 d   1     -18.282  -7.050  27.555  0.00  0.00    -0.040 A 
ATOM     23  H   3D9 d   1     -19.584  -8.361  26.479  0.00  0.00     0.114 H 
ATOM     24  H   3D9 d   1     -18.102  -6.404  26.703  0.00  0.00     0.089 H 
ENDBRANCH  13  15
ENDBRANCH   4  13
BRANCH   1  25
ATOM     25  C4  3D9 d   1     -13.535  -1.072  28.719  0.00  0.00    -0.025 A 
ATOM     26  C5  3D9 d   1     -14.061  -0.626  27.507  0.00  0.00    -0.072 A 
ATOM     27  C6  3D9 d   1     -13.562   0.538  26.948  0.00  0.00    -0.082 A 
ATOM     28  H   3D9 d   1     -14.848  -1.182  27.011  0.00  0.00     0.084 H 
ATOM     29  C1  3D9 d   1     -12.546   1.244  27.573  0.00  0.00    -0.083 A 
ATOM     30  H   3D9 d   1     -13.970   0.901  26.012  0.00  0.00     0.083 H 
ATOM     31  C2  3D9 d   1     -12.017   0.804  28.772  0.00  0.00    -0.082 A 
ATOM     32  H   3D9 d   1     -12.163   2.150  27.117  0.00  0.00     0.083 H 
ATOM     33  C3  3D9 d   1     -12.501  -0.357  29.343  0.00  0.00    -0.072 A 
ATOM     34  H   3D9 d   1     -11.229   1.365  29.260  0.00  0.00     0.083 H 
ATOM     35  H   3D9 d   1     -12.081  -0.717  30.275  0.00  0.00     0.084 H 
ENDBRANCH   1  25
TORSDOF 3
