REMARK  3 active torsions:
REMARK  status: ('A' for Active; 'I' for Inactive)
REMARK    1  A    between atoms: N7_12  and  C6_3 
REMARK    2  A    between atoms: C11_4  and  C17_17 
REMARK    3  A    between atoms: C8_5  and  N7_12 
ROOT
ATOM      1  C11 3DC d   1     -26.242   2.354 -16.619  0.00  0.00    -0.003 A 
ATOM      2  C8  3DC d   1     -24.323   5.461 -16.029  0.00  0.00     0.158 A 
ATOM      3  C9  3DC d   1     -25.051   4.244 -16.196  0.00  0.00     0.104 A 
ATOM      4  C10 3DC d   1     -25.176   3.189 -17.088  0.00  0.00    -0.039 A 
ATOM      5  C12 3DC d   1     -26.748   2.874 -15.443  0.00  0.00     0.015 A 
ATOM      6  N13 3DC d   1     -26.041   4.028 -15.173  0.00  0.00    -0.239 N 
ATOM      7  N14 3DC d   1     -26.280   4.886 -14.120  0.00  0.00    -0.161 NA
ATOM      8  C15 3DC d   1     -25.506   5.974 -14.139  0.00  0.00     0.108 A 
ATOM      9  N16 3DC d   1     -24.557   6.296 -15.020  0.00  0.00    -0.220 NA
ATOM     10  H   3DC d   1     -24.574   3.025 -17.981  0.00  0.00     0.088 H 
ATOM     11  H   3DC d   1     -27.553   2.453 -14.842  0.00  0.00     0.116 H 
ATOM     12  H   3DC d   1     -25.670   6.689 -13.334  0.00  0.00     0.149 H 
ENDROOT
BRANCH   2  13
ATOM     13  N7  3DC d   1     -23.374   5.798 -16.958  0.00  0.00    -0.339 N 
ATOM     14  H   3DC d   1     -23.267   5.112 -17.719  0.00  0.00     0.167 HD
BRANCH  13  15
ATOM     15  C6  3DC d   1     -22.514   6.918 -17.062  0.00  0.00     0.036 A 
ATOM     16  C5  3DC d   1     -22.248   7.762 -15.989  0.00  0.00    -0.040 A 
ATOM     17  C4  3DC d   1     -21.357   8.804 -16.180  0.00  0.00     0.004 A 
ATOM     18  H   3DC d   1     -22.726   7.608 -15.028  0.00  0.00     0.089 H 
ATOM     19  N3  3DC d   1     -20.730   9.041 -17.335  0.00  0.00    -0.273 NA
ATOM     20  H   3DC d   1     -21.157   9.465 -15.345  0.00  0.00     0.114 H 
ATOM     21  C2  3DC d   1     -21.000   8.219 -18.354  0.00  0.00     0.004 A 
ATOM     22  C1  3DC d   1     -21.881   7.157 -18.276  0.00  0.00    -0.040 A 
ATOM     23  H   3DC d   1     -20.498   8.396 -19.298  0.00  0.00     0.114 H 
ATOM     24  H   3DC d   1     -22.073   6.528 -19.138  0.00  0.00     0.089 H 
ENDBRANCH  13  15
ENDBRANCH   2  13
BRANCH   1  25
ATOM     25  C17 3DC d   1     -26.764   1.174 -17.252  0.00  0.00     0.012 A 
ATOM     26  C18 3DC d   1     -27.802   0.371 -16.807  0.00  0.00     0.008 A 
ATOM     27  N19 3DC d   1     -27.950  -0.618 -17.692  0.00  0.00    -0.289 N 
ATOM     28  H   3DC d   1     -28.389   0.519 -15.902  0.00  0.00     0.115 H 
ATOM     29  N21 3DC d   1     -27.062  -0.531 -18.704  0.00  0.00    -0.187 NA
ATOM     30  H   3DC d   1     -28.659  -1.361 -17.611  0.00  0.00     0.188 HD
ATOM     31  C22 3DC d   1     -26.344   0.555 -18.444  0.00  0.00     0.034 A 
ATOM     32  H   3DC d   1     -25.533   0.920 -19.073  0.00  0.00     0.118 H 
ENDBRANCH   1  25
TORSDOF 3
