REMARK  2 active torsions:
REMARK  status: ('A' for Active; 'I' for Inactive)
REMARK    1  A    between atoms: N3_8  and  C7_12 
REMARK    2  A    between atoms: C7_12  and  C8_13 
ROOT
ATOM      1  C1  3C1 d   1     -16.518  43.838  -5.489  0.00  0.00     0.027 A 
ATOM      2  N1  3C1 d   1     -17.318  43.425  -4.481  0.00  0.00    -0.271 NA
ATOM      3  O1  3C1 d   1     -13.508  44.961  -6.532  0.00  0.00    -0.200 OA
ATOM      4  C2  3C1 d   1     -17.446  44.235  -3.419  0.00  0.00     0.004 A 
ATOM      5  N2  3C1 d   1     -14.748  47.139  -6.608  0.00  0.00    -0.298 N 
ATOM      6  O2  3C1 d   1     -15.540  45.235  -8.041  0.00  0.00    -0.200 OA
ATOM      7  C3  3C1 d   1     -16.795  45.454  -3.329  0.00  0.00    -0.039 A 
ATOM      8  N3  3C1 d   1     -15.302  47.117  -4.302  0.00  0.00    -0.363 N 
ATOM      9  C4  3C1 d   1     -15.845  45.041  -5.455  0.00  0.00     0.123 A 
ATOM     10  C5  3C1 d   1     -14.315  47.511  -5.284  0.00  0.00     0.063 C 
ATOM     11  C6  3C1 d   1     -15.961  45.901  -4.368  0.00  0.00     0.058 A 
ATOM     12  S1  3C1 d   1     -14.834  45.484  -6.802  0.00  0.00     0.263 S 
ATOM     13  H   3C1 d   1     -16.401  43.199  -6.357  0.00  0.00     0.117 H 
ATOM     14  H   3C1 d   1     -18.084  43.923  -2.600  0.00  0.00     0.114 H 
ATOM     15  H   3C1 d   1     -14.971  47.797  -7.327  0.00  0.00     0.174 HD
ATOM     16  H   3C1 d   1     -16.930  46.070  -2.447  0.00  0.00     0.089 H 
ATOM     17  H   3C1 d   1     -14.176  48.601  -5.241  0.00  0.00     0.097 H 
ATOM     18  H   3C1 d   1     -13.361  47.011  -5.060  0.00  0.00     0.097 H 
ENDROOT
BRANCH   8  19
ATOM     19  C7  3C1 d   1     -15.417  47.972  -3.108  0.00  0.00    -0.006 C 
ATOM     20  H   3C1 d   1     -14.557  48.657  -3.076  0.00  0.00     0.063 H 
ATOM     21  H   3C1 d   1     -15.412  47.334  -2.212  0.00  0.00     0.063 H 
BRANCH  19  22
ATOM     22  C8  3C1 d   1     -16.705  48.796  -3.122  0.00  0.00    -0.061 C 
ATOM     23  H   3C1 d   1     -16.752  49.419  -2.216  0.00  0.00     0.029 H 
ATOM     24  H   3C1 d   1     -17.573  48.120  -3.148  0.00  0.00     0.029 H 
ATOM     25  H   3C1 d   1     -16.717  49.442  -4.012  0.00  0.00     0.029 H 
ENDBRANCH  19  22
ENDBRANCH   8  19
TORSDOF 2
