REMARK  2 active torsions:
REMARK  status: ('A' for Active; 'I' for Inactive)
REMARK    1  A    between atoms: NAM_12  and  CAG_13 
REMARK    2  A    between atoms: CAG_13  and  CAA_14 
ROOT
ATOM      1  CAH 3C2 d   1     -24.371 -18.947  18.001  0.00  0.00     0.063 C 
ATOM      2  NAJ 3C2 d   1     -23.726 -18.471  16.771  0.00  0.00    -0.297 N 
ATOM      3  SAN 3C2 d   1     -23.456 -16.865  16.834  0.00  0.00     0.280 S 
ATOM      4  OAB 3C2 d   1     -24.754 -16.149  16.929  0.00  0.00    -0.199 OA
ATOM      5  OAC 3C2 d   1     -22.590 -16.556  15.666  0.00  0.00    -0.199 OA
ATOM      6  CAL 3C2 d   1     -22.594 -16.697  18.329  0.00  0.00     0.198 A 
ATOM      7  NAI 3C2 d   1     -21.846 -15.582  18.463  0.00  0.00    -0.246 NA
ATOM      8  CAE 3C2 d   1     -21.133 -15.386  19.649  0.00  0.00     0.004 A 
ATOM      9  CAD 3C2 d   1     -21.194 -16.324  20.656  0.00  0.00    -0.064 A 
ATOM     10  CAF 3C2 d   1     -21.967 -17.466  20.520  0.00  0.00    -0.053 A 
ATOM     11  CAK 3C2 d   1     -22.700 -17.690  19.341  0.00  0.00     0.074 A 
ATOM     12  NAM 3C2 d   1     -23.488 -18.788  19.175  0.00  0.00    -0.362 N 
ATOM     13  H   3C2 d   1     -24.621 -20.012  17.884  0.00  0.00     0.097 H 
ATOM     14  H   3C2 d   1     -25.293 -18.370  18.167  0.00  0.00     0.097 H 
ATOM     15  H   3C2 d   1     -23.484 -19.055  15.996  0.00  0.00     0.174 HD
ATOM     16  H   3C2 d   1     -20.531 -14.494  19.777  0.00  0.00     0.114 H 
ATOM     17  H   3C2 d   1     -20.629 -16.166  21.568  0.00  0.00     0.085 H 
ATOM     18  H   3C2 d   1     -22.007 -18.190  21.326  0.00  0.00     0.087 H 
ENDROOT
BRANCH  12  19
ATOM     19  CAG 3C2 d   1     -23.607 -19.853  20.205  0.00  0.00    -0.006 C 
ATOM     20  H   3C2 d   1     -24.456 -20.507  19.957  0.00  0.00     0.063 H 
ATOM     21  H   3C2 d   1     -23.774 -19.392  21.189  0.00  0.00     0.063 H 
BRANCH  19  22
ATOM     22  CAA 3C2 d   1     -22.318 -20.686  20.246  0.00  0.00    -0.061 C 
ATOM     23  H   3C2 d   1     -22.413 -21.472  21.010  0.00  0.00     0.029 H 
ATOM     24  H   3C2 d   1     -21.468 -20.034  20.495  0.00  0.00     0.029 H 
ATOM     25  H   3C2 d   1     -22.149 -21.149  19.263  0.00  0.00     0.029 H 
ENDBRANCH  19  22
ENDBRANCH  12  19
TORSDOF 2
