REMARK  9 active torsions:
REMARK  status: ('A' for Active; 'I' for Inactive)
REMARK    1  A    between atoms: CAF_6  and  CAG_7 
REMARK    2  A    between atoms: CAJ_12  and  CAM_13 
REMARK       I    between atoms: CAM_13  and  N_15 
REMARK    3  A    between atoms: N_15  and  CA_16 
REMARK    4  A    between atoms: CA_16  and  C_17 
REMARK    5  A    between atoms: CA_16  and  CB_20 
REMARK       I    between atoms: C_17  and  NAW_19 
REMARK    6  A    between atoms: CB_20  and  CG_21 
REMARK    7  A    between atoms: CG_21  and  CD_22 
REMARK    8  A    between atoms: CD_22  and  CE_23 
REMARK    9  A    between atoms: CE_23  and  NZ_24 
ROOT
ATOM      1  CAM 3C6 d   1       2.268  37.261  11.090  0.00  0.00     0.252 C 
ATOM      2  OAX 3C6 d   1       2.242  37.674   9.981  0.00  0.00    -0.268 OA
ATOM      3  N   3C6 d   1       2.947  38.008  12.125  0.00  0.00    -0.344 N 
ATOM      4  H9  3C6 d   1       2.979  37.657  13.061  0.00  0.00     0.163 HD
ENDROOT
BRANCH   3   5
ATOM      5  CA  3C6 d   1       3.578  39.264  11.797  0.00  0.00     0.089 C 
ATOM      6  H10 3C6 d   1       3.168  39.652  10.853  0.00  0.00     0.087 H 
BRANCH   5   7
ATOM      7  C   3C6 d   1       5.084  39.035  11.648  0.00  0.00     0.238 C 
ATOM      8  O   3C6 d   1       5.732  39.785  10.995  0.00  0.00    -0.271 OA
ATOM      9  NAW 3C6 d   1       5.726  37.897  12.285  0.00  0.00    -0.368 N 
ATOM     10  H11 3C6 d   1       6.711  37.756  12.182  0.00  0.00     0.159 HD
ATOM     11  H12 3C6 d   1       5.183  37.255  12.826  0.00  0.00     0.159 HD
ENDBRANCH   5   7
BRANCH   5  12
ATOM     12  CB  3C6 d   1       3.311  40.258  12.915  0.00  0.00    -0.038 C 
ATOM     13  H13 3C6 d   1       3.848  41.193  12.698  0.00  0.00     0.036 H 
ATOM     14  H14 3C6 d   1       3.676  39.837  13.863  0.00  0.00     0.036 H 
BRANCH  12  15
ATOM     15  CG  3C6 d   1       1.818  40.560  13.047  0.00  0.00    -0.061 C 
ATOM     16  H15 3C6 d   1       1.650  41.077  14.003  0.00  0.00     0.033 H 
ATOM     17  H16 3C6 d   1       1.268  39.607  13.044  0.00  0.00     0.033 H 
BRANCH  15  18
ATOM     18  CD  3C6 d   1       1.274  41.436  11.921  0.00  0.00    -0.043 C 
ATOM     19  H17 3C6 d   1       0.411  40.929  11.464  0.00  0.00     0.035 H 
ATOM     20  H18 3C6 d   1       2.062  41.571  11.166  0.00  0.00     0.035 H 
BRANCH  18  21
ATOM     21  CE  3C6 d   1       0.829  42.813  12.419  0.00  0.00     0.080 C 
ATOM     22  H19 3C6 d   1       1.498  43.142  13.228  0.00  0.00     0.075 H 
ATOM     23  H20 3C6 d   1      -0.201  42.748  12.798  0.00  0.00     0.075 H 
BRANCH  21  24
ATOM     24  NZ  3C6 d   1       0.882  43.776  11.327  0.00  0.00    -0.079 N 
ATOM     25  H21 3C6 d   1       0.588  44.680  11.662  0.00  0.00     0.274 HD
ATOM     26  H22 3C6 d   1       0.269  43.477  10.585  0.00  0.00     0.274 HD
ATOM     27  H23 3C6 d   1       1.826  43.837  10.979  0.00  0.00     0.274 HD
ENDBRANCH  21  24
ENDBRANCH  18  21
ENDBRANCH  15  18
ENDBRANCH  12  15
ENDBRANCH   5  12
ENDBRANCH   3   5
BRANCH   1  28
ATOM     28  CAJ 3C6 d   1       1.619  35.922  11.431  0.00  0.00     0.032 A 
ATOM     29  CAI 3C6 d   1       0.727  35.315  10.551  0.00  0.00    -0.067 A 
ATOM     30  CAH 3C6 d   1       0.164  34.087  10.876  0.00  0.00    -0.071 A 
ATOM     31  H6  3C6 d   1       0.472  35.799   9.615  0.00  0.00     0.085 H 
ATOM     32  CAG 3C6 d   1       0.506  33.463  12.073  0.00  0.00    -0.025 A 
ATOM     33  H5  3C6 d   1      -0.540  33.616  10.199  0.00  0.00     0.084 H 
ATOM     34  CAL 3C6 d   1       1.402  34.065  12.942  0.00  0.00    -0.071 A 
ATOM     35  CAK 3C6 d   1       1.960  35.295  12.615  0.00  0.00    -0.067 A 
ATOM     36  H7  3C6 d   1       1.667  33.578  13.874  0.00  0.00     0.084 H 
ATOM     37  H8  3C6 d   1       2.665  35.765  13.291  0.00  0.00     0.085 H 
BRANCH  32  38
ATOM     38  CAF 3C6 d   1      -0.093  32.112  12.441  0.00  0.00    -0.008 A 
ATOM     39  CAA 3C6 d   1       0.622  31.229  13.240  0.00  0.00    -0.070 A 
ATOM     40  CAB 3C6 d   1       0.069  29.996  13.568  0.00  0.00    -0.065 A 
ATOM     41  H1  3C6 d   1       1.606  31.500  13.606  0.00  0.00     0.085 H 
ATOM     42  CAC 3C6 d   1      -1.192  29.707  13.062  0.00  0.00     0.002 A 
ATOM     43  H2  3C6 d   1       0.601  29.288  14.194  0.00  0.00     0.085 H 
ATOM     44  NAD 3C6 d   1      -1.848  30.563  12.297  0.00  0.00    -0.272 NA
ATOM     45  H3  3C6 d   1      -1.651  28.754  13.301  0.00  0.00     0.114 H 
ATOM     46  CAE 3C6 d   1      -1.339  31.733  11.972  0.00  0.00     0.012 A 
ATOM     47  H4  3C6 d   1      -1.900  32.405  11.332  0.00  0.00     0.116 H 
ENDBRANCH  32  38
ENDBRANCH   1  28
TORSDOF 9
