REMARK  6 active torsions:
REMARK  status: ('A' for Active; 'I' for Inactive)
REMARK    1  A    between atoms: CAU_5  and  CAV_6 
REMARK    2  A    between atoms: CAV_6  and  CAJ_7 
REMARK    3  A    between atoms: CAV_6  and  NAW_10 
REMARK    4  A    between atoms: CAJ_7  and  CAB_8 
REMARK    5  A    between atoms: CAB_8  and  NAA_9 
REMARK    6  A    between atoms: CAQ_14  and  CAR_15 
ROOT
ATOM      1  CAV RXT d   1     -10.476  25.470   5.871  0.00  0.00     0.039 C 
ATOM      2  H   RXT d   1      -9.730  24.748   6.233  0.00  0.00     0.076 H 
ENDROOT
BRANCH   1   3
ATOM      3  CAU RXT d   1     -11.062  26.178   7.116  0.00  0.00    -0.026 C 
ATOM      4  CAK RXT d   1      -9.922  26.937   7.916  0.00  0.00    -0.045 C 
ATOM      5  CAH RXT d   1     -10.233  28.500   7.803  0.00  0.00    -0.106 C 
ATOM      6  H   RXT d   1      -9.930  26.626   8.971  0.00  0.00     0.039 H 
ATOM      7  H   RXT d   1      -8.939  26.715   7.475  0.00  0.00     0.039 H 
ATOM      8  CAI RXT d   1     -11.246  28.615   6.909  0.00  0.00    -0.106 C 
ATOM      9  H   RXT d   1      -9.733  29.308   8.335  0.00  0.00     0.076 H 
ATOM     10  CAL RXT d   1     -11.988  27.134   6.797  0.00  0.00    -0.045 C 
ATOM     11  H   RXT d   1     -11.523  29.516   6.363  0.00  0.00     0.076 H 
ATOM     12  H   RXT d   1     -12.353  26.974   5.771  0.00  0.00     0.039 H 
ATOM     13  H   RXT d   1     -12.834  27.085   7.499  0.00  0.00     0.039 H 
ATOM     14  H   RXT d   1     -11.528  25.418   7.761  0.00  0.00     0.044 H 
ENDBRANCH   1   3
BRANCH   1  15
ATOM     15  CAJ RXT d   1     -11.565  24.694   5.158  0.00  0.00    -0.022 C 
ATOM     16  H   RXT d   1     -11.466  24.834   4.072  0.00  0.00     0.038 H 
ATOM     17  H   RXT d   1     -12.550  25.057   5.486  0.00  0.00     0.038 H 
BRANCH  15  18
ATOM     18  CAB RXT d   1     -11.428  23.210   5.496  0.00  0.00     0.082 C 
ATOM     19  H   RXT d   1     -10.546  23.056   6.135  0.00  0.00     0.075 H 
ATOM     20  H   RXT d   1     -11.316  22.628   4.569  0.00  0.00     0.075 H 
BRANCH  18  21
ATOM     21  NAA RXT d   1     -12.595  22.791   6.184  0.00  0.00    -0.079 N 
ATOM     22  H   RXT d   1     -12.517  21.812   6.413  0.00  0.00     0.274 HD
ATOM     23  H   RXT d   1     -13.401  22.935   5.597  0.00  0.00     0.274 HD
ATOM     24  H   RXT d   1     -12.696  23.327   7.032  0.00  0.00     0.274 HD
ENDBRANCH  18  21
ENDBRANCH  15  18
ENDBRANCH   1  15
BRANCH   1  25
ATOM     25  NAW RXT d   1      -9.805  26.338   4.958  0.00  0.00    -0.275 N 
ATOM     26  CAG RXT d   1      -8.485  26.544   4.992  0.00  0.00     0.013 A 
ATOM     27  CAQ RXT d   1      -8.157  27.430   3.927  0.00  0.00     0.030 A 
ATOM     28  H   RXT d   1      -7.786  26.112   5.706  0.00  0.00     0.115 H 
ATOM     29  CAF RXT d   1      -9.410  27.704   3.300  0.00  0.00     0.035 A 
ATOM     30  NAO RXT d   1     -10.346  27.006   3.962  0.00  0.00    -0.184 NA
ATOM     31  H   RXT d   1      -9.575  28.357   2.445  0.00  0.00     0.118 H 
BRANCH  27  32
ATOM     32  CAR RXT d   1      -6.791  27.961   3.625  0.00  0.00     0.085 A 
ATOM     33  NAM RXT d   1      -6.624  29.014   2.805  0.00  0.00    -0.240 NA
ATOM     34  CAE RXT d   1      -5.414  29.500   2.570  0.00  0.00     0.089 A 
ATOM     35  NAP RXT d   1      -4.325  28.976   3.128  0.00  0.00    -0.224 NA
ATOM     36  H   RXT d   1      -5.308  30.349   1.904  0.00  0.00     0.146 H 
ATOM     37  CAT RXT d   1      -4.400  27.895   3.989  0.00  0.00     0.141 A 
ATOM     38  CAS RXT d   1      -5.642  27.354   4.271  0.00  0.00     0.041 A 
ATOM     39  NAN RXT d   1      -3.455  27.196   4.682  0.00  0.00    -0.350 N 
ATOM     40  CAD RXT d   1      -5.405  26.252   5.197  0.00  0.00    -0.052 A 
ATOM     41  CAC RXT d   1      -4.018  26.229   5.396  0.00  0.00    -0.020 A 
ATOM     42  H   RXT d   1      -6.147  25.589   5.639  0.00  0.00     0.087 H 
ATOM     43  H   RXT d   1      -3.485  25.527   6.036  0.00  0.00     0.111 H 
ATOM     44  H   RXT d   1      -2.444  27.392   4.655  0.00  0.00     0.166 HD
ENDBRANCH  27  32
ENDBRANCH   1  25
TORSDOF 6
