REMARK  10 active torsions:
REMARK  status: ('A' for Active; 'I' for Inactive)
REMARK    1  A    between atoms: N09_16  and  C10_1 
REMARK    2  A    between atoms: C10_1  and  C11_17 
REMARK    3  A    between atoms: C14_19  and  C15_3 
REMARK       I    between atoms: C02_9  and  N01_8 
REMARK    4  A    between atoms: C03_10  and  C02_9 
REMARK    5  A    between atoms: C03_10  and  C04_11 
REMARK    6  A    between atoms: C03_10  and  N09_16 
REMARK    7  A    between atoms: C04_11  and  C05_12 
REMARK    8  A    between atoms: C05_12  and  C06_13 
REMARK    9  A    between atoms: C06_13  and  C07_14 
REMARK   10  A    between atoms: C07_14  and  N08_15 
ROOT
ATOM      1  N09 3D6 d   1       3.544  37.710  10.744  0.00  0.00    -0.059 N 
ATOM      2  H22 3D6 d   1       3.842  36.747  10.754  0.00  0.00     0.278 HD
ATOM      3  H23 3D6 d   1       4.195  38.269  11.272  0.00  0.00     0.278 HD
ENDROOT
BRANCH   1   4
ATOM      4  C10 3D6 d   1       2.237  37.788  11.405  0.00  0.00     0.106 C 
ATOM      5  H1  3D6 d   1       1.540  38.333  10.751  0.00  0.00     0.083 H 
ATOM      6  H2  3D6 d   1       2.350  38.332  12.354  0.00  0.00     0.083 H 
BRANCH   4   7
ATOM      7  C11 3D6 d   1       1.657  36.391  11.698  0.00  0.00    -0.033 A 
ATOM      8  C22 3D6 d   1       0.911  35.743  10.712  0.00  0.00    -0.074 A 
ATOM      9  C21 3D6 d   1       0.377  34.488  10.927  0.00  0.00    -0.072 A 
ATOM     10  H7  3D6 d   1       0.748  36.234   9.760  0.00  0.00     0.084 H 
ATOM     11  C14 3D6 d   1       0.581  33.865  12.152  0.00  0.00    -0.025 A 
ATOM     12  H6  3D6 d   1      -0.195  33.995  10.149  0.00  0.00     0.084 H 
ATOM     13  C13 3D6 d   1       1.328  34.498  13.145  0.00  0.00    -0.072 A 
ATOM     14  C12 3D6 d   1       1.863  35.766  12.927  0.00  0.00    -0.074 A 
ATOM     15  H3  3D6 d   1       1.494  34.000  14.093  0.00  0.00     0.084 H 
ATOM     16  H24 3D6 d   1       2.433  36.261  13.705  0.00  0.00     0.084 H 
BRANCH  11  17
ATOM     17  C15 3D6 d   1      -0.013  32.469  12.349  0.00  0.00    -0.008 A 
ATOM     18  C20 3D6 d   1      -1.277  32.181  11.838  0.00  0.00     0.012 A 
ATOM     19  N19 3D6 d   1      -1.779  30.969  11.994  0.00  0.00    -0.272 NA
ATOM     20  H5  3D6 d   1      -1.843  32.945  11.317  0.00  0.00     0.116 H 
ATOM     21  C18 3D6 d   1      -1.115  30.000  12.612  0.00  0.00     0.002 A 
ATOM     22  C17 3D6 d   1       0.158  30.222  13.132  0.00  0.00    -0.065 A 
ATOM     23  H26 3D6 d   1      -1.570  29.021  12.713  0.00  0.00     0.114 H 
ATOM     24  C16 3D6 d   1       0.736  31.483  12.996  0.00  0.00    -0.070 A 
ATOM     25  H4  3D6 d   1       0.692  29.424  13.636  0.00  0.00     0.085 H 
ATOM     26  H25 3D6 d   1       1.729  31.691  13.378  0.00  0.00     0.085 H 
ENDBRANCH  11  17
ENDBRANCH   4   7
ENDBRANCH   1   4
BRANCH   1  27
ATOM     27  C03 3D6 d   1       3.565  38.182   9.344  0.00  0.00     0.178 C 
ATOM     28  H10 3D6 d   1       4.550  37.914   8.935  0.00  0.00     0.099 H 
BRANCH  27  29
ATOM     29  C02 3D6 d   1       3.426  39.719   9.221  0.00  0.00     0.246 C 
ATOM     30  N01 3D6 d   1       3.258  40.331   7.905  0.00  0.00    -0.368 N 
ATOM     31  H8  3D6 d   1       3.168  41.324   7.823  0.00  0.00     0.159 HD
ATOM     32  H9  3D6 d   1       3.233  39.757   7.086  0.00  0.00     0.159 HD
ATOM     33  O23 3D6 d   1       3.457  40.427  10.181  0.00  0.00    -0.271 OA
ENDBRANCH  27  29
BRANCH  27  34
ATOM     34  C04 3D6 d   1       2.503  37.475   8.477  0.00  0.00    -0.030 C 
ATOM     35  H11 3D6 d   1       1.730  38.217   8.227  0.00  0.00     0.036 H 
ATOM     36  H12 3D6 d   1       2.059  36.672   9.084  0.00  0.00     0.036 H 
BRANCH  34  37
ATOM     37  C05 3D6 d   1       2.990  36.848   7.160  0.00  0.00    -0.061 C 
ATOM     38  H13 3D6 d   1       3.163  35.774   7.322  0.00  0.00     0.033 H 
ATOM     39  H14 3D6 d   1       3.933  37.331   6.866  0.00  0.00     0.033 H 
BRANCH  37  40
ATOM     40  C06 3D6 d   1       1.970  37.019   6.021  0.00  0.00    -0.043 C 
ATOM     41  H15 3D6 d   1       0.969  36.779   6.408  0.00  0.00     0.035 H 
ATOM     42  H16 3D6 d   1       2.228  36.319   5.212  0.00  0.00     0.035 H 
BRANCH  40  43
ATOM     43  C07 3D6 d   1       1.943  38.450   5.443  0.00  0.00     0.080 C 
ATOM     44  H17 3D6 d   1       2.948  38.690   5.066  0.00  0.00     0.075 H 
ATOM     45  H18 3D6 d   1       1.679  39.146   6.253  0.00  0.00     0.075 H 
BRANCH  43  46
ATOM     46  N08 3D6 d   1       0.985  38.630   4.350  0.00  0.00    -0.079 N 
ATOM     47  H19 3D6 d   1       1.022  39.583   4.024  0.00  0.00     0.274 HD
ATOM     48  H20 3D6 d   1       0.055  38.424   4.681  0.00  0.00     0.274 HD
ATOM     49  H21 3D6 d   1       1.218  38.007   3.593  0.00  0.00     0.274 HD
ENDBRANCH  43  46
ENDBRANCH  40  43
ENDBRANCH  37  40
ENDBRANCH  34  37
ENDBRANCH  27  34
ENDBRANCH   1  27
TORSDOF 10
