REMARK  3 active torsions:
REMARK  status: ('A' for Active; 'I' for Inactive)
REMARK    1  A    between atoms: C2_2  and  C1_7 
REMARK    2  A    between atoms: C4_5  and  SB_15 
REMARK    3  A    between atoms: C14_6  and  C15_12 
ROOT
ATOM      1  C3  3CG d   1     -24.755  35.221   2.945  0.00  0.00     0.000 A 
ATOM      2  C2  3CG d   1     -24.667  34.195   2.048  0.00  0.00     0.000 A 
ATOM      3  C7  3CG d   1     -23.454  33.954   1.425  0.00  0.00     0.000 A 
ATOM      4  C6  3CG d   1     -22.358  34.760   1.716  0.00  0.00     0.000 A 
ATOM      5  C4  3CG d   1     -23.685  36.026   3.225  0.00  0.00     0.000 A 
ATOM      6  C5  3CG d   1     -22.458  35.805   2.623  0.00  0.00     0.000 A 
ENDROOT
BRANCH   2   7
ATOM      7  C1  3CG d   1     -25.904  33.400   1.794  0.00  0.00     0.006 C 
ATOM      8  C14 3CG d   1     -27.129  33.964   1.493  0.00  0.00     0.070 C 
BRANCH   8   9
ATOM      9  C15 3CG d   1     -27.610  35.267   2.070  0.00  0.00     0.211 C 
ATOM     10  O16 3CG d   1     -28.009  35.324   3.270  0.00  0.00    -0.644 OA
ATOM     11  O17 3CG d   1     -27.589  36.317   1.365  0.00  0.00    -0.644 OA
ENDBRANCH   8   9
ENDBRANCH   2   7
BRANCH   5  12
ATOM     12 SB   3CG d   1     -24.099  37.578   4.605  0.00  0.00     0.000 Sb
ATOM     13  O9  3CG d   1     -25.584  38.700   3.892  0.00  0.00     0.000 OA
ATOM     14  O10 3CG d   1     -24.673  36.742   6.301  0.00  0.00     0.000 OA
ATOM     15  O11 3CG d   1     -22.556  38.814   4.751  0.00  0.00     0.000 OA
ENDBRANCH   5  12
TORSDOF 3
