REMARK  10 active torsions:
REMARK  status: ('A' for Active; 'I' for Inactive)
REMARK    1  A    between atoms: C16_4  and  C15_3 
REMARK    2  A    between atoms: C11_9  and  C10_11 
REMARK    3  A    between atoms: C10_11  and  N09_14 
REMARK    4  A    between atoms: N09_14  and  C03_15 
REMARK    5  A    between atoms: C03_15  and  C02_16 
REMARK    6  A    between atoms: C03_15  and  C04_19 
REMARK       I    between atoms: C02_16  and  N01_18 
REMARK    7  A    between atoms: C04_19  and  C05_20 
REMARK    8  A    between atoms: C05_20  and  C06_21 
REMARK    9  A    between atoms: C06_21  and  C07_22 
REMARK   10  A    between atoms: C07_22  and  N08_23 
ROOT
ATOM      1  N09 3D2 d   1       3.642  37.475  12.870  0.00  0.00    -0.059 N 
ATOM      2  H11 3D2 d   1       4.243  37.063  12.174  0.00  0.00     0.278 HD
ATOM      3  H12 3D2 d   1       4.149  37.573  13.736  0.00  0.00     0.278 HD
ENDROOT
BRANCH   1   4
ATOM      4  C10 3D2 d   1       2.602  36.432  13.148  0.00  0.00     0.106 C 
ATOM      5  H8  3D2 d   1       3.157  35.608  13.620  0.00  0.00     0.083 H 
ATOM      6  H9  3D2 d   1       1.936  36.897  13.890  0.00  0.00     0.083 H 
BRANCH   4   7
ATOM      7  C11 3D2 d   1       1.729  35.796  12.238  0.00  0.00    -0.032 A 
ATOM      8  C12 3D2 d   1       1.273  36.343  11.048  0.00  0.00    -0.075 A 
ATOM      9  C13 3D2 d   1       0.410  35.591  10.250  0.00  0.00    -0.082 A 
ATOM     10  H6  3D2 d   1       1.581  37.337  10.743  0.00  0.00     0.084 H 
ATOM     11  C14 3D2 d   1      -0.029  34.325  10.634  0.00  0.00    -0.072 A 
ATOM     12  H5  3D2 d   1       0.072  36.002   9.306  0.00  0.00     0.083 H 
ATOM     13  C15 3D2 d   1       0.464  33.740  11.794  0.00  0.00    -0.024 A 
ATOM     14  H2  3D2 d   1      -0.755  33.797  10.027  0.00  0.00     0.084 H 
ATOM     15  C22 3D2 d   1       1.296  34.512  12.603  0.00  0.00    -0.065 A 
ATOM     16  H7  3D2 d   1       1.622  34.104  13.553  0.00  0.00     0.085 H 
BRANCH  13  17
ATOM     17  C16 3D2 d   1       0.013  32.474  12.199  0.00  0.00    -0.008 A 
ATOM     18  C17 3D2 d   1       0.604  31.803  13.264  0.00  0.00    -0.070 A 
ATOM     19  C18 3D2 d   1       0.141  30.552  13.673  0.00  0.00    -0.065 A 
ATOM     20  H3  3D2 d   1       1.438  32.259  13.785  0.00  0.00     0.085 H 
ATOM     21  C19 3D2 d   1      -0.983  29.983  13.082  0.00  0.00     0.002 A 
ATOM     22  H4  3D2 d   1       0.662  30.018  14.459  0.00  0.00     0.085 H 
ATOM     23  N20 3D2 d   1      -1.625  30.675  12.052  0.00  0.00    -0.272 NA
ATOM     24  H1  3D2 d   1      -1.354  29.020  13.415  0.00  0.00     0.114 H 
ATOM     25  C21 3D2 d   1      -1.131  31.923  11.623  0.00  0.00     0.012 A 
ATOM     26  H10 3D2 d   1      -1.647  32.461  10.836  0.00  0.00     0.116 H 
ENDBRANCH  13  17
ENDBRANCH   4   7
ENDBRANCH   1   4
BRANCH   1  27
ATOM     27  C03 3D2 d   1       3.410  38.882  12.396  0.00  0.00     0.178 C 
ATOM     28  H13 3D2 d   1       4.331  39.409  12.686  0.00  0.00     0.099 H 
BRANCH  27  29
ATOM     29  C02 3D2 d   1       2.254  39.563  13.166  0.00  0.00     0.246 C 
ATOM     30  O23 3D2 d   1       1.383  40.200  12.567  0.00  0.00    -0.271 OA
ATOM     31  N01 3D2 d   1       2.305  39.449  14.493  0.00  0.00    -0.368 N 
ATOM     32  H14 3D2 d   1       1.592  39.864  15.058  0.00  0.00     0.159 HD
ATOM     33  H15 3D2 d   1       3.057  38.949  14.923  0.00  0.00     0.159 HD
ENDBRANCH  27  29
BRANCH  27  34
ATOM     34  C04 3D2 d   1       3.231  39.215  10.901  0.00  0.00    -0.030 C 
ATOM     35  H16 3D2 d   1       3.004  40.285  10.786  0.00  0.00     0.036 H 
ATOM     36  H17 3D2 d   1       2.405  38.618  10.486  0.00  0.00     0.036 H 
BRANCH  34  37
ATOM     37  C05 3D2 d   1       4.528  38.882  10.160  0.00  0.00    -0.061 C 
ATOM     38  H18 3D2 d   1       4.705  37.797  10.200  0.00  0.00     0.033 H 
ATOM     39  H19 3D2 d   1       5.368  39.408  10.637  0.00  0.00     0.033 H 
BRANCH  37  40
ATOM     40  C06 3D2 d   1       4.410  39.327   8.700  0.00  0.00    -0.043 C 
ATOM     41  H20 3D2 d   1       3.564  38.812   8.222  0.00  0.00     0.035 H 
ATOM     42  H21 3D2 d   1       5.338  39.085   8.162  0.00  0.00     0.035 H 
BRANCH  40  43
ATOM     43  C07 3D2 d   1       4.175  40.849   8.674  0.00  0.00     0.080 C 
ATOM     44  H22 3D2 d   1       3.240  41.073   9.209  0.00  0.00     0.075 H 
ATOM     45  H23 3D2 d   1       4.087  41.177   7.628  0.00  0.00     0.075 H 
BRANCH  43  46
ATOM     46  N08 3D2 d   1       5.278  41.590   9.313  0.00  0.00    -0.079 N 
ATOM     47  H24 3D2 d   1       5.085  42.579   9.275  0.00  0.00     0.274 HD
ATOM     48  H25 3D2 d   1       6.139  41.397   8.826  0.00  0.00     0.274 HD
ATOM     49  H26 3D2 d   1       5.364  41.301  10.275  0.00  0.00     0.274 HD
ENDBRANCH  43  46
ENDBRANCH  40  43
ENDBRANCH  37  40
ENDBRANCH  34  37
ENDBRANCH  27  34
ENDBRANCH   1  27
TORSDOF 10
