REMARK  10 active torsions:
REMARK  status: ('A' for Active; 'I' for Inactive)
REMARK       I    between atoms: N01_1  and  C02_2 
REMARK    1  A    between atoms: C02_2  and  C03_3 
REMARK    2  A    between atoms: C03_3  and  C04_4 
REMARK    3  A    between atoms: C03_3  and  N09_9 
REMARK    4  A    between atoms: C04_4  and  C05_5 
REMARK    5  A    between atoms: C05_5  and  C06_6 
REMARK    6  A    between atoms: C06_6  and  C07_7 
REMARK    7  A    between atoms: C07_7  and  N08_8 
REMARK    8  A    between atoms: N09_9  and  C10_10 
REMARK    9  A    between atoms: C10_10  and  C11_11 
REMARK   10  A    between atoms: C14_14  and  C15_15 
ROOT
ATOM      1  C03 RH2 d   1       3.518  37.267   9.908  0.00  0.00     0.178 C 
ATOM      2  H3  RH2 d   1       3.778  36.349  10.456  0.00  0.00     0.099 H 
ENDROOT
BRANCH   1   3
ATOM      3  C02 RH2 d   1       4.585  38.349  10.296  0.00  0.00     0.246 C 
ATOM      4  N01 RH2 d   1       4.378  39.096  11.388  0.00  0.00    -0.368 N 
ATOM      5  H1  RH2 d   1       5.046  39.791  11.652  0.00  0.00     0.159 HD
ATOM      6  H2  RH2 d   1       3.555  38.959  11.939  0.00  0.00     0.159 HD
ATOM      7  O22 RH2 d   1       5.605  38.473   9.636  0.00  0.00    -0.271 OA
ENDBRANCH   1   3
BRANCH   1   8
ATOM      8  C04 RH2 d   1       3.549  36.860   8.361  0.00  0.00    -0.030 C 
ATOM      9  H4  RH2 d   1       3.488  35.766   8.270  0.00  0.00     0.036 H 
ATOM     10  H5  RH2 d   1       4.487  37.214   7.909  0.00  0.00     0.036 H 
BRANCH   8  11
ATOM     11  C05 RH2 d   1       2.354  37.502   7.629  0.00  0.00    -0.061 C 
ATOM     12  H6  RH2 d   1       2.300  38.557   7.936  0.00  0.00     0.033 H 
ATOM     13  H7  RH2 d   1       1.442  36.979   7.952  0.00  0.00     0.033 H 
BRANCH  11  14
ATOM     14  C06 RH2 d   1       2.398  37.462   6.072  0.00  0.00    -0.043 C 
ATOM     15  H8  RH2 d   1       2.072  36.486   5.682  0.00  0.00     0.035 H 
ATOM     16  H9  RH2 d   1       3.403  37.693   5.689  0.00  0.00     0.035 H 
BRANCH  14  17
ATOM     17  C07 RH2 d   1       1.374  38.593   5.725  0.00  0.00     0.080 C 
ATOM     18  H10 RH2 d   1       1.863  39.557   5.926  0.00  0.00     0.075 H 
ATOM     19  H11 RH2 d   1       0.509  38.474   6.394  0.00  0.00     0.075 H 
BRANCH  17  20
ATOM     20  N08 RH2 d   1       0.856  38.632   4.316  0.00  0.00    -0.079 N 
ATOM     21  H12 RH2 d   1       0.209  39.399   4.217  0.00  0.00     0.274 HD
ATOM     22  H13 RH2 d   1       0.385  37.766   4.107  0.00  0.00     0.274 HD
ATOM     23  H14 RH2 d   1       1.626  38.758   3.678  0.00  0.00     0.274 HD
ENDBRANCH  17  20
ENDBRANCH  14  17
ENDBRANCH  11  14
ENDBRANCH   8  11
ENDBRANCH   1   8
BRANCH   1  24
ATOM     24  N09 RH2 d   1       2.192  37.722  10.445  0.00  0.00    -0.058 N 
ATOM     25  H15 RH2 d   1       1.476  37.504   9.770  0.00  0.00     0.278 HD
ATOM     26  H16 RH2 d   1       2.225  38.719  10.589  0.00  0.00     0.278 HD
BRANCH  24  27
ATOM     27  C10 RH2 d   1       1.856  37.071  11.717  0.00  0.00     0.112 C 
ATOM     28  H17 RH2 d   1       1.147  37.688  12.288  0.00  0.00     0.084 H 
ATOM     29  H18 RH2 d   1       2.764  36.907  12.316  0.00  0.00     0.084 H 
BRANCH  27  30
ATOM     30  C11 RH2 d   1       1.223  35.748  11.345  0.00  0.00     0.009 C 
ATOM     31  C12 RH2 d   1       0.527  35.398  10.081  0.00  0.00    -0.067 C 
ATOM     32  C13 RH2 d   1      -0.324  34.185  10.312  0.00  0.00    -0.065 C 
ATOM     33  H19 RH2 d   1       0.620  35.935   9.138  0.00  0.00     0.085 H 
ATOM     34  C14 RH2 d   1       0.176  33.494  11.536  0.00  0.00     0.017 C 
ATOM     35  H20 RH2 d   1      -1.161  33.864   9.694  0.00  0.00     0.085 H 
ATOM     36  S21 RH2 d   1       1.297  34.425  12.289  0.00  0.00    -0.092 SA
BRANCH  34  37
ATOM     37  C15 RH2 d   1      -0.315  32.295  12.009  0.00  0.00    -0.002 A 
ATOM     38  C16 RH2 d   1       0.442  31.607  12.957  0.00  0.00    -0.069 A 
ATOM     39  C17 RH2 d   1      -0.012  30.405  13.478  0.00  0.00    -0.065 A 
ATOM     40  H21 RH2 d   1       1.390  32.014  13.288  0.00  0.00     0.085 H 
ATOM     41  C18 RH2 d   1      -1.247  29.906  13.060  0.00  0.00     0.002 A 
ATOM     42  H22 RH2 d   1       0.584  29.860  14.201  0.00  0.00     0.085 H 
ATOM     43  N19 RH2 d   1      -2.030  30.613  12.109  0.00  0.00    -0.272 NA
ATOM     44  H23 RH2 d   1      -1.612  28.969  13.465  0.00  0.00     0.114 H 
ATOM     45  C20 RH2 d   1      -1.556  31.825  11.563  0.00  0.00     0.013 A 
ATOM     46  H24 RH2 d   1      -2.132  32.372  10.825  0.00  0.00     0.116 H 
ENDBRANCH  34  37
ENDBRANCH  27  30
ENDBRANCH  24  27
ENDBRANCH   1  24
TORSDOF 10
