REMARK WARNING: 32 MAX_TORS EXCEEDED!!!
REMARK  40 active torsions:
REMARK  status: ('A' for Active; 'I' for Inactive)
REMARK    1  A    between atoms: N_1  and  CA_2 
REMARK    2  A    between atoms: CA_2  and  C_3 
REMARK    3  A    between atoms: CA_2  and  CB_5 
REMARK       I    between atoms: C_3  and  N_10 
REMARK    4  A    between atoms: CB_5  and  CG_6 
REMARK    5  A    between atoms: CG_6  and  CD_7 
REMARK    6  A    between atoms: CD_7  and  CE_8 
REMARK    7  A    between atoms: CE_8  and  NZ_9 
REMARK    8  A    between atoms: N_10  and  CA_11 
REMARK    9  A    between atoms: CA_11  and  C_12 
REMARK   10  A    between atoms: CA_11  and  CB_14 
REMARK       I    between atoms: C_12  and  N_19 
REMARK   11  A    between atoms: CB_14  and  CG_15 
REMARK   12  A    between atoms: CG_15  and  CD_16 
REMARK       I    between atoms: CD_16  and  NE2_18 
REMARK   13  A    between atoms: N_19  and  CA_20 
REMARK   14  A    between atoms: CA_20  and  C_21 
REMARK   15  A    between atoms: CA_20  and  CB_23 
REMARK       I    between atoms: C_21  and  N_26 
REMARK   16  A    between atoms: CB_23  and  OG1_24 
REMARK   17  A    between atoms: CB_23  and  CG2_25 
REMARK   18  A    between atoms: N_26  and  CA_27 
REMARK   19  A    between atoms: CA_27  and  C_28 
REMARK   20  A    between atoms: CA_27  and  CB_30 
REMARK       I    between atoms: C_28  and  N_31 
REMARK   21  A    between atoms: N_31  and  CA_32 
REMARK   22  A    between atoms: CA_32  and  C_33 
REMARK   23  A    between atoms: CA_32  and  CB_35 
REMARK       I    between atoms: C_33  and  N_42 
REMARK   24  A    between atoms: CB_35  and  CG_36 
REMARK   25  A    between atoms: CG_36  and  CD_37 
REMARK   26  A    between atoms: CD_37  and  NE_38 
REMARK       I    between atoms: NE_38  and  CZ_39 
REMARK       I    between atoms: CZ_39  and  NH1_40 
REMARK   27  A    between atoms: N_42  and  CA_43 
REMARK   28  A    between atoms: CA_43  and  CB_44 
REMARK   29  A    between atoms: CA_43  and  C_49 
REMARK   30  A    between atoms: CB_44  and  CG_45 
REMARK   31  A    between atoms: CG_45  and  CD_46 
REMARK   32  A    between atoms: CD_46  and  CE_47 
REMARK   33  A    between atoms: CE_47  and  NZ_48 
REMARK   34  A    between atoms: NZ_48  and  CM1_51 
REMARK   35  A    between atoms: NZ_48  and  CM2_52 
REMARK   36  A    between atoms: NZ_48  and  CM3_53 
REMARK       I    between atoms: C_49  and  N_54 
REMARK   37  A    between atoms: N_54  and  CA_55 
REMARK   38  A    between atoms: CA_55  and  C_56 
REMARK   39  A    between atoms: CA_55  and  CB_58 
REMARK   40  A    between atoms: CB_58  and  OG_59 
ROOT
ATOM      1  C   ALA d   1     -20.795   4.954  39.485  0.00  0.00     0.240 C 
ATOM      2  O   ALA d   1     -21.828   4.352  39.211  0.00  0.00    -0.271 OA
ATOM      3  N   ARG d   1     -20.361   5.121  40.728  0.00  0.00    -0.346 N 
ATOM      4  H36 ARG d   1     -19.470   5.548  40.885  0.00  0.00     0.163 HD
ENDROOT
BRANCH   3   5
ATOM      5  CA  ARG d   1     -21.159   4.694  41.864  0.00  0.00     0.089 C 
ATOM      6  H37 ARG d   1     -21.703   3.779  41.586  0.00  0.00     0.087 H 
BRANCH   5   7
ATOM      7  C   ARG d   1     -22.179   5.772  42.208  0.00  0.00     0.241 C 
ATOM      8  O   ARG d   1     -21.909   6.975  42.085  0.00  0.00    -0.271 OA
ATOM      9  N   M3L d   1     -23.361   5.334  42.620  0.00  0.00    -0.346 N 
ATOM     10  H49 M3L d   1     -23.498   4.351  42.745  0.00  0.00     0.163 HD
BRANCH   9  11
ATOM     11  CA  M3L d   1     -24.457   6.234  42.894  0.00  0.00     0.089 C 
ATOM     12  H50 M3L d   1     -24.266   7.232  42.473  0.00  0.00     0.087 H 
BRANCH  11  13
ATOM     13  CB  M3L d   1     -25.695   5.612  42.260  0.00  0.00    -0.038 C 
ATOM     14  H51 M3L d   1     -26.175   4.946  42.991  0.00  0.00     0.036 H 
ATOM     15  H52 M3L d   1     -25.391   5.030  41.377  0.00  0.00     0.036 H 
BRANCH  13  16
ATOM     16  CG  M3L d   1     -26.690   6.675  41.832  0.00  0.00    -0.061 C 
ATOM     17  H53 M3L d   1     -26.181   7.399  41.179  0.00  0.00     0.033 H 
ATOM     18  H54 M3L d   1     -27.069   7.191  42.727  0.00  0.00     0.033 H 
BRANCH  16  19
ATOM     19  CD  M3L d   1     -27.866   6.068  41.076  0.00  0.00    -0.042 C 
ATOM     20  H55 M3L d   1     -28.409   5.376  41.736  0.00  0.00     0.035 H 
ATOM     21  H56 M3L d   1     -27.495   5.521  40.197  0.00  0.00     0.035 H 
BRANCH  19  22
ATOM     22  CE  M3L d   1     -28.802   7.180  40.625  0.00  0.00     0.084 C 
ATOM     23  H57 M3L d   1     -28.262   7.845  39.935  0.00  0.00     0.076 H 
ATOM     24  H58 M3L d   1     -29.128   7.753  41.506  0.00  0.00     0.076 H 
BRANCH  22  25
ATOM     25  NZ  M3L d   1     -29.986   6.638  39.940  0.00  0.00    -0.079 N 
BRANCH  25  26
ATOM     26  CM1 M3L d   1     -30.915   7.743  39.674  0.00  0.00     0.067 C 
ATOM     27  H59 M3L d   1     -31.808   7.356  39.161  0.00  0.00     0.068 H 
ATOM     28  H60 M3L d   1     -30.422   8.491  39.036  0.00  0.00     0.068 H 
ATOM     29  H61 M3L d   1     -31.212   8.210  40.625  0.00  0.00     0.068 H 
ENDBRANCH  25  26
BRANCH  25  30
ATOM     30  CM2 M3L d   1     -30.670   5.649  40.790  0.00  0.00     0.067 C 
ATOM     31  H62 M3L d   1     -29.988   4.812  41.000  0.00  0.00     0.068 H 
ATOM     32  H63 M3L d   1     -31.563   5.272  40.269  0.00  0.00     0.068 H 
ATOM     33  H64 M3L d   1     -30.970   6.124  41.736  0.00  0.00     0.068 H 
ENDBRANCH  25  30
BRANCH  25  34
ATOM     34  CM3 M3L d   1     -29.573   6.003  38.679  0.00  0.00     0.067 C 
ATOM     35  H65 M3L d   1     -29.062   6.743  38.046  0.00  0.00     0.068 H 
ATOM     36  H66 M3L d   1     -30.460   5.620  38.153  0.00  0.00     0.068 H 
ATOM     37  H67 M3L d   1     -28.887   5.170  38.895  0.00  0.00     0.068 H 
ENDBRANCH  25  34
ENDBRANCH  22  25
ENDBRANCH  19  22
ENDBRANCH  16  19
ENDBRANCH  13  16
ENDBRANCH  11  13
BRANCH  11  38
ATOM     38  C   M3L d   1     -24.619   6.318  44.381  0.00  0.00     0.241 C 
ATOM     39  O   M3L d   1     -24.731   5.258  45.035  0.00  0.00    -0.271 OA
ATOM     40  N   SER d   1     -24.623   7.527  44.939  0.00  0.00    -0.343 N 
ATOM     41  H68 SER d   1     -24.560   8.336  44.355  0.00  0.00     0.163 HD
BRANCH  40  42
ATOM     42  CA  SER d   1     -24.718   7.696  46.388  0.00  0.00     0.116 C 
ATOM     43  H69 SER d   1     -24.402   6.755  46.862  0.00  0.00     0.093 H 
BRANCH  42  44
ATOM     44  C   SER d   1     -26.151   7.989  46.819  0.00  0.00     0.198 C 
ATOM     45  O   SER d   1     -27.102   7.590  46.146  0.00  0.00    -0.646 OA
ATOM     46  OXT SER d   1     -26.378   8.629  47.846  0.00  0.00    -0.646 OA
ENDBRANCH  42  44
BRANCH  42  47
ATOM     47  CB  SER d   1     -23.783   8.814  46.867  0.00  0.00     0.045 C 
ATOM     48  H70 SER d   1     -22.788   8.660  46.425  0.00  0.00     0.077 H 
ATOM     49  H71 SER d   1     -23.708   8.770  47.964  0.00  0.00     0.077 H 
BRANCH  47  50
ATOM     50  OG  SER d   1     -24.260  10.097  46.490  0.00  0.00    -0.398 OA
ATOM     51  H72 SER d   1     -24.323  10.145  45.543  0.00  0.00     0.209 HD
ENDBRANCH  47  50
ENDBRANCH  42  47
ENDBRANCH  40  42
ENDBRANCH  11  38
ENDBRANCH   9  11
ENDBRANCH   5   7
BRANCH   5  52
ATOM     52  CB  ARG d   1     -20.257   4.369  43.058  0.00  0.00    -0.036 C 
ATOM     53  H38 ARG d   1     -20.839   3.801  43.798  0.00  0.00     0.036 H 
ATOM     54  H39 ARG d   1     -19.911   5.311  43.508  0.00  0.00     0.036 H 
BRANCH  52  55
ATOM     55  CG  ARG d   1     -19.049   3.549  42.652  0.00  0.00    -0.048 C 
ATOM     56  H40 ARG d   1     -18.400   4.162  42.010  0.00  0.00     0.035 H 
ATOM     57  H41 ARG d   1     -19.389   2.665  42.092  0.00  0.00     0.035 H 
BRANCH  55  58
ATOM     58  CD  ARG d   1     -18.261   3.095  43.853  0.00  0.00     0.009 C 
ATOM     59  H42 ARG d   1     -18.959   2.634  44.568  0.00  0.00     0.064 H 
ATOM     60  H43 ARG d   1     -17.795   3.979  44.313  0.00  0.00     0.064 H 
BRANCH  58  61
ATOM     61  NE  ARG d   1     -17.202   2.122  43.553  0.00  0.00    -0.227 N 
ATOM     62  CZ  ARG d   1     -16.312   1.754  44.476  0.00  0.00     0.665 C 
ATOM     63  NH1 ARG d   1     -16.388   2.310  45.678  0.00  0.00    -0.235 N 
ATOM     64  NH2 ARG d   1     -15.358   0.867  44.230  0.00  0.00    -0.235 N 
ATOM     65  H45 ARG d   1     -15.714   2.046  46.411  0.00  0.00     0.174 HD
ATOM     66  H46 ARG d   1     -17.120   3.006  45.878  0.00  0.00     0.174 HD
ATOM     67  H47 ARG d   1     -15.289   0.429  43.300  0.00  0.00     0.174 HD
ATOM     68  H48 ARG d   1     -14.685   0.616  44.968  0.00  0.00     0.174 HD
ATOM     69  H44 ARG d   1     -17.145   1.715  42.609  0.00  0.00     0.177 HD
ENDBRANCH  58  61
ENDBRANCH  55  58
ENDBRANCH  52  55
ENDBRANCH   5  52
ENDBRANCH   3   5
BRANCH   1  70
ATOM     70  CA  ALA d   1     -19.940   5.560  38.397  0.00  0.00     0.086 C 
ATOM     71  H32 ALA d   1     -18.883   5.399  38.654  0.00  0.00     0.086 H 
BRANCH  70  72
ATOM     72  N   ALA d   1     -20.206   4.912  37.124  0.00  0.00    -0.346 N 
ATOM     73  C   THR d   1     -19.282   4.877  36.174  0.00  0.00     0.243 C 
ATOM     74  O   THR d   1     -18.187   5.421  36.290  0.00  0.00    -0.271 OA
ATOM     75  H31 ALA d   1     -21.097   4.487  36.962  0.00  0.00     0.163 HD
BRANCH  73  76
ATOM     76  CA  THR d   1     -19.647   4.116  34.902  0.00  0.00     0.113 C 
ATOM     77  H25 THR d   1     -20.652   4.430  34.583  0.00  0.00     0.091 H 
BRANCH  76  78
ATOM     78  N   THR d   1     -18.723   4.409  33.822  0.00  0.00    -0.344 N 
ATOM     79  C   GLN d   1     -19.156   4.663  32.591  0.00  0.00     0.241 C 
ATOM     80  O   GLN d   1     -20.344   4.658  32.294  0.00  0.00    -0.271 OA
ATOM     81  H24 THR d   1     -17.740   4.420  34.008  0.00  0.00     0.163 HD
BRANCH  79  82
ATOM     82  CA  GLN d   1     -18.103   4.928  31.533  0.00  0.00     0.090 C 
ATOM     83  H17 GLN d   1     -17.106   4.875  31.994  0.00  0.00     0.087 H 
BRANCH  82  84
ATOM     84  N   GLN d   1     -18.221   3.901  30.519  0.00  0.00    -0.346 N 
ATOM     85  C   LYS d   1     -17.449   2.828  30.537  0.00  0.00     0.248 C 
ATOM     86  O   LYS d   1     -16.558   2.654  31.365  0.00  0.00    -0.271 OA
ATOM     87  H16 GLN d   1     -18.899   4.005  29.791  0.00  0.00     0.163 HD
BRANCH  85  88
ATOM     88  CA  LYS d   1     -17.736   1.801  29.465  0.00  0.00     0.176 C 
ATOM     89  H4  LYS d   1     -18.265   2.292  28.635  0.00  0.00     0.099 H 
BRANCH  88  90
ATOM     90  N   LYS d   1     -16.494   1.244  28.951  0.00  0.00    -0.067 N 
ATOM     91  H1  LYS d   1     -16.701   0.562  28.238  0.00  0.00     0.275 HD
ATOM     92  H2  LYS d   1     -15.988   0.802  29.702  0.00  0.00     0.275 HD
ATOM     93  H3  LYS d   1     -15.932   1.982  28.556  0.00  0.00     0.275 HD
ENDBRANCH  88  90
BRANCH  88  94
ATOM     94  CB  LYS d   1     -18.640   0.716  30.047  0.00  0.00    -0.030 C 
ATOM     95  H5  LYS d   1     -19.366   1.202  30.715  0.00  0.00     0.036 H 
ATOM     96  H6  LYS d   1     -18.011   0.026  30.629  0.00  0.00     0.036 H 
BRANCH  94  97
ATOM     97  CG  LYS d   1     -19.415  -0.103  29.028  0.00  0.00    -0.061 C 
ATOM     98  H7  LYS d   1     -18.719  -0.691  28.412  0.00  0.00     0.033 H 
ATOM     99  H8  LYS d   1     -20.004   0.564  28.381  0.00  0.00     0.033 H 
BRANCH  97 100
ATOM    100  CD  LYS d   1     -20.334  -1.026  29.788  0.00  0.00    -0.043 C 
ATOM    101  H9  LYS d   1     -20.922  -0.435  30.506  0.00  0.00     0.035 H 
ATOM    102  H10 LYS d   1     -19.729  -1.767  30.332  0.00  0.00     0.035 H 
BRANCH 100 103
ATOM    103  CE  LYS d   1     -21.265  -1.740  28.866  0.00  0.00     0.080 C 
ATOM    104  H11 LYS d   1     -20.711  -2.491  28.284  0.00  0.00     0.075 H 
ATOM    105  H12 LYS d   1     -21.736  -1.020  28.181  0.00  0.00     0.075 H 
BRANCH 103 106
ATOM    106  NZ  LYS d   1     -22.310  -2.410  29.694  0.00  0.00    -0.079 N 
ATOM    107  H13 LYS d   1     -22.953  -2.900  29.092  0.00  0.00     0.274 HD
ATOM    108  H14 LYS d   1     -22.812  -1.717  30.227  0.00  0.00     0.274 HD
ATOM    109  H15 LYS d   1     -21.872  -3.065  30.322  0.00  0.00     0.274 HD
ENDBRANCH 103 106
ENDBRANCH 100 103
ENDBRANCH  97 100
ENDBRANCH  94  97
ENDBRANCH  88  94
ENDBRANCH  85  88
ENDBRANCH  82  84
BRANCH  82 110
ATOM    110  CB  GLN d   1     -18.282   6.308  30.903  0.00  0.00    -0.030 C 
ATOM    111  H18 GLN d   1     -18.096   7.071  31.674  0.00  0.00     0.037 H 
ATOM    112  H19 GLN d   1     -19.318   6.396  30.543  0.00  0.00     0.037 H 
BRANCH 110 113
ATOM    113  CG  GLN d   1     -17.344   6.561  29.738  0.00  0.00     0.011 C 
ATOM    114  H20 GLN d   1     -17.747   7.384  29.129  0.00  0.00     0.047 H 
ATOM    115  H21 GLN d   1     -17.283   5.649  29.127  0.00  0.00     0.047 H 
BRANCH 113 116
ATOM    116  CD  GLN d   1     -15.955   6.932  30.202  0.00  0.00     0.215 C 
ATOM    117  OE1 GLN d   1     -15.761   7.969  30.824  0.00  0.00    -0.274 OA
ATOM    118  NE2 GLN d   1     -14.980   6.074  29.913  0.00  0.00    -0.370 N 
ATOM    119  H22 GLN d   1     -14.041   6.270  30.197  0.00  0.00     0.159 HD
ATOM    120  H23 GLN d   1     -15.186   5.233  29.412  0.00  0.00     0.159 HD
ENDBRANCH 113 116
ENDBRANCH 110 113
ENDBRANCH  82 110
ENDBRANCH  79  82
ENDBRANCH  76  78
BRANCH  76 121
ATOM    121  CB  THR d   1     -19.684   2.617  35.224  0.00  0.00     0.060 C 
ATOM    122  H26 THR d   1     -20.430   2.445  36.014  0.00  0.00     0.086 H 
BRANCH 121 123
ATOM    123  OG1 THR d   1     -18.397   2.202  35.699  0.00  0.00    -0.393 OA
ATOM    124  H27 THR d   1     -17.745   2.368  35.028  0.00  0.00     0.210 HD
ENDBRANCH 121 123
BRANCH 121 125
ATOM    125  CG2 THR d   1     -20.075   1.792  33.999  0.00  0.00    -0.050 C 
ATOM    126  H28 THR d   1     -20.091   0.725  34.266  0.00  0.00     0.031 H 
ATOM    127  H29 THR d   1     -19.342   1.958  33.196  0.00  0.00     0.031 H 
ATOM    128  H30 THR d   1     -21.073   2.099  33.654  0.00  0.00     0.031 H 
ENDBRANCH 121 125
ENDBRANCH  76 121
ENDBRANCH  73  76
ENDBRANCH  70  72
BRANCH  70 129
ATOM    129  CB  ALA d   1     -20.190   7.055  38.306  0.00  0.00    -0.049 C 
ATOM    130  H33 ALA d   1     -19.982   7.521  39.280  0.00  0.00     0.030 H 
ATOM    131  H34 ALA d   1     -21.239   7.235  38.030  0.00  0.00     0.030 H 
ATOM    132  H35 ALA d   1     -19.530   7.491  37.542  0.00  0.00     0.030 H 
ENDBRANCH  70 129
ENDBRANCH   1  70
TORSDOF 40
