REMARK  3 active torsions:
REMARK  status: ('A' for Active; 'I' for Inactive)
REMARK    1  A    between atoms: P_2  and  C_5 
REMARK    2  A    between atoms: C_5  and  N_6 
REMARK    3  A    between atoms: C_5  and  C1_7 
ROOT
ATOM      1  C1  Q02 d   1     -22.987 -17.575 -10.692  0.00  0.00    -0.015 A 
ATOM      2  C6  Q02 d   1     -22.367 -18.077 -11.835  0.00  0.00    -0.074 A 
ATOM      3  C5  Q02 d   1     -22.654 -19.369 -12.278  0.00  0.00    -0.082 A 
ATOM      4  C4  Q02 d   1     -23.559 -20.169 -11.581  0.00  0.00    -0.083 A 
ATOM      5  C3  Q02 d   1     -24.177 -19.668 -10.438  0.00  0.00    -0.082 A 
ATOM      6  C2  Q02 d   1     -23.891 -18.372  -9.994  0.00  0.00    -0.074 A 
ATOM      7  H5  Q02 d   1     -21.660 -17.463 -12.381  0.00  0.00     0.084 H 
ATOM      8  H6  Q02 d   1     -22.171 -19.753 -13.169  0.00  0.00     0.083 H 
ATOM      9  H7  Q02 d   1     -23.780 -21.173 -11.926  0.00  0.00     0.083 H 
ATOM     10  H8  Q02 d   1     -24.882 -20.284  -9.891  0.00  0.00     0.083 H 
ATOM     11  H9  Q02 d   1     -24.375 -17.987  -9.104  0.00  0.00     0.084 H 
ENDROOT
BRANCH   1  12
ATOM     12  C   Q02 d   1     -22.705 -16.214 -10.159  0.00  0.00     0.231 C 
ATOM     13  H1  Q02 d   1     -22.136 -16.351  -9.228  0.00  0.00     0.114 H 
BRANCH  12  14
ATOM     14  P   Q02 d   1     -21.706 -15.105 -11.216  0.00  0.00     0.295 P 
ATOM     15  O   Q02 d   1     -20.336 -15.672 -11.322  0.00  0.00    -0.638 OA
ATOM     16  O1  Q02 d   1     -22.353 -14.896 -12.666  0.00  0.00    -0.638 OA
ATOM     17  O2  Q02 d   1     -21.700 -13.730 -10.372  0.00  0.00    -0.638 OA
ENDBRANCH  12  14
BRANCH  12  18
ATOM     18  N   Q02 d   1     -23.970 -15.579  -9.825  0.00  0.00    -0.058 N 
ATOM     19  H2  Q02 d   1     -24.513 -16.197  -9.243  0.00  0.00     0.275 HD
ATOM     20  H3  Q02 d   1     -24.480 -15.380 -10.671  0.00  0.00     0.275 HD
ATOM     21  H4  Q02 d   1     -23.794 -14.719  -9.329  0.00  0.00     0.275 HD
ENDBRANCH  12  18
ENDBRANCH   1  12
TORSDOF 3
