REMARK  10 active torsions:
REMARK  status: ('A' for Active; 'I' for Inactive)
REMARK    1  A    between atoms: C23_3  and  N6_4 
REMARK    2  A    between atoms: C20_7  and  N4_8 
REMARK    3  A    between atoms: N4_8  and  C12_9 
REMARK    4  A    between atoms: C11_14  and  C14_15 
REMARK    5  A    between atoms: C19_20  and  O1_21 
REMARK    6  A    between atoms: O1_21  and  C4_22 
REMARK    7  A    between atoms: C5_23  and  C26_24 
REMARK    8  A    between atoms: C1_32  and  N1_33 
REMARK    9  A    between atoms: N1_33  and  S1_34 
REMARK   10  A    between atoms: S1_34  and  C27_37 
ROOT
ATOM      1  C14 3E4 d   1       0.159 -24.050  -0.268  0.00  0.00     0.047 A 
ATOM      2  C16 3E4 d   1      -0.225 -25.351  -0.151  0.00  0.00    -0.065 A 
ATOM      3  C17 3E4 d   1       0.709 -26.329  -0.071  0.00  0.00    -0.065 A 
ATOM      4  C18 3E4 d   1       2.004 -25.949  -0.090  0.00  0.00     0.005 A 
ATOM      5  N5  3E4 d   1       2.353 -24.704  -0.180  0.00  0.00    -0.236 NA
ATOM      6  C19 3E4 d   1       1.490 -23.733  -0.262  0.00  0.00     0.182 A 
ATOM      7  H   3E4 d   1      -1.279 -25.604  -0.122  0.00  0.00     0.085 H 
ATOM      8  H   3E4 d   1       0.428 -27.373   0.005  0.00  0.00     0.085 H 
ATOM      9  H   3E4 d   1       2.776 -26.708  -0.028  0.00  0.00     0.114 H 
ENDROOT
BRANCH   6  10
ATOM     10  O1  3E4 d   1       1.878 -22.456  -0.368  0.00  0.00    -0.290 OA
BRANCH  10  11
ATOM     11  C4  3E4 d   1       3.082 -22.014  -0.053  0.00  0.00     0.095 A 
ATOM     12  C5  3E4 d   1       4.067 -21.896  -0.986  0.00  0.00    -0.025 A 
ATOM     13  C6  3E4 d   1       5.291 -21.432  -0.635  0.00  0.00    -0.047 A 
ATOM     14  C1  3E4 d   1       5.537 -21.021   0.633  0.00  0.00     0.054 A 
ATOM     15  H   3E4 d   1       6.081 -21.389  -1.376  0.00  0.00     0.087 H 
ATOM     16  C2  3E4 d   1       4.538 -21.102   1.562  0.00  0.00     0.004 A 
ATOM     17  C3  3E4 d   1       3.320 -21.591   1.202  0.00  0.00     0.011 A 
ATOM     18  C7  3E4 d   1       4.752 -20.693   2.849  0.00  0.00    -0.070 A 
ATOM     19  C10 3E4 d   1       2.331 -21.678   2.130  0.00  0.00    -0.069 A 
ATOM     20  C9  3E4 d   1       2.539 -21.287   3.422  0.00  0.00    -0.082 A 
ATOM     21  H   3E4 d   1       1.361 -22.064   1.840  0.00  0.00     0.085 H 
ATOM     22  C8  3E4 d   1       3.752 -20.783   3.782  0.00  0.00    -0.082 A 
ATOM     23  H   3E4 d   1       1.745 -21.377   4.155  0.00  0.00     0.083 H 
ATOM     24  H   3E4 d   1       3.925 -20.455   4.801  0.00  0.00     0.083 H 
ATOM     25  H   3E4 d   1       5.719 -20.295   3.133  0.00  0.00     0.084 H 
BRANCH  12  26
ATOM     26  C26 3E4 d   1       3.877 -22.331  -2.400  0.00  0.00    -0.049 C 
ATOM     27  H   3E4 d   1       4.799 -22.142  -2.969  0.00  0.00     0.033 H 
ATOM     28  H   3E4 d   1       3.047 -21.766  -2.849  0.00  0.00     0.033 H 
ATOM     29  H   3E4 d   1       3.645 -23.406  -2.425  0.00  0.00     0.033 H 
ENDBRANCH  12  26
BRANCH  14  30
ATOM     30  N1  3E4 d   1       6.707 -20.546   0.921  0.00  0.00    -0.280 N 
ATOM     31  H   3E4 d   1       7.326 -21.074   1.502  0.00  0.00     0.179 HD
BRANCH  30  32
ATOM     32  S1  3E4 d   1       7.174 -19.117   0.354  0.00  0.00     0.264 S 
ATOM     33  O2  3E4 d   1       6.399 -18.653  -0.786  0.00  0.00    -0.200 OA
ATOM     34  O3  3E4 d   1       8.558 -19.217   0.080  0.00  0.00    -0.200 OA
BRANCH  32  35
ATOM     35  C27 3E4 d   1       6.924 -17.844   1.373  0.00  0.00     0.101 A 
ATOM     36  C32 3E4 d   1       5.965 -16.970   0.938  0.00  0.00    -0.059 A 
ATOM     37  C31 3E4 d   1       5.680 -15.873   1.712  0.00  0.00    -0.081 A 
ATOM     38  H   3E4 d   1       5.442 -17.140   0.004  0.00  0.00     0.086 H 
ATOM     39  C30 3E4 d   1       6.331 -15.660   2.902  0.00  0.00    -0.081 A 
ATOM     40  H   3E4 d   1       4.930 -15.165   1.379  0.00  0.00     0.083 H 
ATOM     41  C29 3E4 d   1       7.283 -16.528   3.332  0.00  0.00    -0.060 A 
ATOM     42  H   3E4 d   1       6.083 -14.793   3.503  0.00  0.00     0.083 H 
ATOM     43  C28 3E4 d   1       7.572 -17.606   2.566  0.00  0.00     0.057 A 
ATOM     44  H   3E4 d   1       7.801 -16.361   4.269  0.00  0.00     0.086 H 
ATOM     45 CL1  3E4 d   1       8.756 -18.621   3.183  0.00  0.00    -0.083 Cl
ENDBRANCH  32  35
ENDBRANCH  30  32
ENDBRANCH  14  30
ENDBRANCH  10  11
ENDBRANCH   6  10
BRANCH   1  46
ATOM     46  C11 3E4 d   1      -0.861 -23.129  -0.321  0.00  0.00     0.091 A 
ATOM     47  N2  3E4 d   1      -2.049 -23.578  -0.564  0.00  0.00    -0.062 NA
ATOM     48  C12 3E4 d   1      -3.075 -22.799  -0.595  0.00  0.00     0.723 A 
ATOM     49  N3  3E4 d   1      -2.951 -21.519  -0.367  0.00  0.00    -0.075 NA
ATOM     50  C15 3E4 d   1      -1.802 -20.987  -0.118  0.00  0.00     0.023 A 
ATOM     51  C13 3E4 d   1      -0.707 -21.795  -0.075  0.00  0.00    -0.036 A 
ATOM     52  H   3E4 d   1      -1.711 -19.921   0.053  0.00  0.00     0.115 H 
ATOM     53  H   3E4 d   1       0.271 -21.386   0.151  0.00  0.00     0.089 H 
BRANCH  48  54
ATOM     54  N4  3E4 d   1      -4.235 -23.289  -0.849  0.00  0.00    -0.218 N 
ATOM     55  H   3E4 d   1      -5.069 -22.778  -0.526  0.00  0.00     0.178 HD
BRANCH  54  56
ATOM     56  C20 3E4 d   1      -4.417 -24.526  -1.568  0.00  0.00     0.026 C 
ATOM     57  C21 3E4 d   1      -5.809 -25.013  -1.347  0.00  0.00    -0.044 C 
ATOM     58  C22 3E4 d   1      -6.027 -26.352  -1.984  0.00  0.00    -0.037 C 
ATOM     59  H   3E4 d   1      -5.991 -25.097  -0.266  0.00  0.00     0.036 H 
ATOM     60  H   3E4 d   1      -6.514 -24.290  -1.783  0.00  0.00     0.036 H 
ATOM     61  C23 3E4 d   1      -5.825 -26.262  -3.449  0.00  0.00     0.100 C 
ATOM     62  H   3E4 d   1      -7.054 -26.689  -1.779  0.00  0.00     0.036 H 
ATOM     63  H   3E4 d   1      -5.313 -27.075  -1.563  0.00  0.00     0.036 H 
ATOM     64  C24 3E4 d   1      -4.499 -25.634  -3.790  0.00  0.00    -0.037 C 
ATOM     65  H   3E4 d   1      -6.635 -25.662  -3.889  0.00  0.00     0.083 H 
ATOM     66  C25 3E4 d   1      -4.231 -24.356  -3.050  0.00  0.00    -0.044 C 
ATOM     67  H   3E4 d   1      -4.482 -25.421  -4.869  0.00  0.00     0.036 H 
ATOM     68  H   3E4 d   1      -3.701 -26.351  -3.546  0.00  0.00     0.036 H 
ATOM     69  H   3E4 d   1      -4.925 -23.582  -3.410  0.00  0.00     0.036 H 
ATOM     70  H   3E4 d   1      -3.196 -24.040  -3.246  0.00  0.00     0.036 H 
ATOM     71  H   3E4 d   1      -3.696 -25.267  -1.194  0.00  0.00     0.073 H 
BRANCH  61  72
ATOM     72  N6  3E4 d   1      -5.846 -27.585  -3.996  0.00  0.00    -0.075 N 
ATOM     73  H   3E4 d   1      -5.710 -27.538  -4.994  0.00  0.00     0.274 HD
ATOM     74  H   3E4 d   1      -6.735 -28.016  -3.798  0.00  0.00     0.274 HD
ATOM     75  H   3E4 d   1      -5.108 -28.132  -3.581  0.00  0.00     0.274 HD
ENDBRANCH  61  72
ENDBRANCH  54  56
ENDBRANCH  48  54
ENDBRANCH   1  46
TORSDOF 10
