REMARK WARNING: 32 MAX_TORS EXCEEDED!!!
REMARK  48 active torsions:
REMARK  status: ('A' for Active; 'I' for Inactive)
REMARK    1  A    between atoms: N_1  and  CA_2 
REMARK    2  A    between atoms: CA_2  and  C_3 
REMARK    3  A    between atoms: CA_2  and  CB_5 
REMARK       I    between atoms: C_3  and  N_6 
REMARK    4  A    between atoms: N_6  and  CA_7 
REMARK    5  A    between atoms: CA_7  and  C_8 
REMARK    6  A    between atoms: CA_7  and  CB_10 
REMARK       I    between atoms: C_8  and  N_14 
REMARK    7  A    between atoms: CB_10  and  CG_11 
REMARK    8  A    between atoms: CG_11  and  CD1_12 
REMARK    9  A    between atoms: CG_11  and  CD2_13 
REMARK   10  A    between atoms: N_14  and  CA_15 
REMARK   11  A    between atoms: CA_15  and  C_16 
REMARK   12  A    between atoms: CA_15  and  CB_18 
REMARK       I    between atoms: C_16  and  N_23 
REMARK   13  A    between atoms: CB_18  and  CG_19 
REMARK   14  A    between atoms: CG_19  and  CD_20 
REMARK       I    between atoms: CD_20  and  NE2_22 
REMARK   15  A    between atoms: N_23  and  CA_24 
REMARK   16  A    between atoms: CA_24  and  C_25 
REMARK   17  A    between atoms: CA_24  and  CB_27 
REMARK       I    between atoms: C_25  and  N_31 
REMARK   18  A    between atoms: CB_27  and  CG_28 
REMARK   19  A    between atoms: N_31  and  CA_32 
REMARK   20  A    between atoms: CA_32  and  C_33 
REMARK   21  A    between atoms: CA_32  and  CB_35 
REMARK   22  A    between atoms: N_36  and  CA_37 
REMARK   23  A    between atoms: CA_37  and  C_38 
REMARK   24  A    between atoms: CA_37  and  CB_40 
REMARK       I    between atoms: C_38  and  N_45 
REMARK   25  A    between atoms: CB_40  and  CG_41 
REMARK   26  A    between atoms: CG_41  and  CD_42 
REMARK   27  A    between atoms: CD_42  and  CE_43 
REMARK   28  A    between atoms: CE_43  and  NZ_44 
REMARK   29  A    between atoms: N_45  and  CA_46 
REMARK   30  A    between atoms: CA_46  and  C_47 
REMARK   31  A    between atoms: CA_46  and  CB_49 
REMARK       I    between atoms: C_47  and  N_54 
REMARK   32  A    between atoms: CB_49  and  CG_50 
REMARK   33  A    between atoms: CG_50  and  CD_51 
REMARK   34  A    between atoms: N_54  and  CA_55 
REMARK   35  A    between atoms: CA_55  and  C_56 
REMARK   36  A    between atoms: CA_55  and  CB_58 
REMARK       I    between atoms: C_56  and  N_66 
REMARK   37  A    between atoms: CB_58  and  CG_59 
REMARK   38  A    between atoms: CZ_64  and  OH_65 
REMARK   39  A    between atoms: N_66  and  CA_67 
REMARK   40  A    between atoms: CA_67  and  C_68 
REMARK   41  A    between atoms: CA_67  and  CB_70 
REMARK       I    between atoms: C_68  and  N_77 
REMARK   42  A    between atoms: CB_70  and  CG_71 
REMARK   43  A    between atoms: N_77  and  CA_78 
REMARK   44  A    between atoms: CA_78  and  C_79 
REMARK   45  A    between atoms: CA_78  and  CB_81 
REMARK   46  A    between atoms: CB_81  and  CG1_82 
REMARK   47  A    between atoms: CB_81  and  CG2_83 
REMARK   48  A    between atoms: CG1_82  and  CD1_84 
ROOT
ATOM      1  CA  GLN d   1     -16.527   7.429  12.097  0.00  0.00     0.090 C 
ATOM      2  H   GLN d   1     -17.299   6.688  12.350  0.00  0.00     0.087 H 
ENDROOT
BRANCH   1   3
ATOM      3  N   GLN d   1     -15.518   6.790  11.270  0.00  0.00    -0.346 N 
ATOM      4  C   LEU d   1     -15.895   6.146  10.168  0.00  0.00     0.241 C 
ATOM      5  O   LEU d   1     -17.091   5.962   9.881  0.00  0.00    -0.271 OA
ATOM      6  H   GLN d   1     -14.552   6.833  11.526  0.00  0.00     0.163 HD
BRANCH   4   7
ATOM      7  CA  LEU d   1     -14.775   5.667   9.255  0.00  0.00     0.089 C 
ATOM      8  H   LEU d   1     -13.915   5.380   9.879  0.00  0.00     0.087 H 
BRANCH   7   9
ATOM      9  N   LEU d   1     -15.164   4.511   8.449  0.00  0.00    -0.346 N 
ATOM     10  C   ALA d   1     -15.445   3.334   9.001  0.00  0.00     0.248 C 
ATOM     11  O   ALA d   1     -15.428   3.144  10.226  0.00  0.00    -0.271 OA
ATOM     12  H   LEU d   1     -15.220   4.608   7.455  0.00  0.00     0.163 HD
BRANCH  10  13
ATOM     13  CA  ALA d   1     -15.810   2.211   8.032  0.00  0.00     0.172 C 
ATOM     14  H   ALA d   1     -15.346   2.432   7.059  0.00  0.00     0.098 H 
BRANCH  13  15
ATOM     15  N   ALA d   1     -15.297   0.929   8.499  0.00  0.00    -0.067 N 
ATOM     16  H   ALA d   1     -15.551   0.207   7.843  0.00  0.00     0.275 HD
ATOM     17  H   ALA d   1     -15.693   0.718   9.402  0.00  0.00     0.275 HD
ATOM     18  H   ALA d   1     -14.293   0.976   8.575  0.00  0.00     0.275 HD
ENDBRANCH  13  15
BRANCH  13  19
ATOM     19  CB  ALA d   1     -17.320   2.145   7.838  0.00  0.00    -0.042 C 
ATOM     20  H   ALA d   1     -17.687   3.120   7.486  0.00  0.00     0.030 H 
ATOM     21  H   ALA d   1     -17.802   1.895   8.795  0.00  0.00     0.030 H 
ATOM     22  H   ALA d   1     -17.561   1.372   7.093  0.00  0.00     0.030 H 
ENDBRANCH  13  19
ENDBRANCH  10  13
ENDBRANCH   7   9
BRANCH   7  23
ATOM     23  CB  LEU d   1     -14.362   6.823   8.334  0.00  0.00    -0.035 C 
ATOM     24  H   LEU d   1     -14.228   7.716   8.962  0.00  0.00     0.037 H 
ATOM     25  H   LEU d   1     -15.186   6.993   7.625  0.00  0.00     0.037 H 
BRANCH  23  26
ATOM     26  CG  LEU d   1     -13.087   6.638   7.520  0.00  0.00    -0.059 C 
ATOM     27  H   LEU d   1     -13.125   5.670   6.998  0.00  0.00     0.038 H 
BRANCH  26  28
ATOM     28  CD1 LEU d   1     -12.985   7.768   6.487  0.00  0.00    -0.073 C 
ATOM     29  H   LEU d   1     -12.067   7.642   5.895  0.00  0.00     0.028 H 
ATOM     30  H   LEU d   1     -12.956   8.738   7.006  0.00  0.00     0.028 H 
ATOM     31  H   LEU d   1     -13.859   7.735   5.820  0.00  0.00     0.028 H 
ENDBRANCH  26  28
BRANCH  26  32
ATOM     32  CD2 LEU d   1     -11.871   6.660   8.444  0.00  0.00    -0.073 C 
ATOM     33  H   LEU d   1     -11.955   5.846   9.180  0.00  0.00     0.028 H 
ATOM     34  H   LEU d   1     -11.827   7.626   8.969  0.00  0.00     0.028 H 
ATOM     35  H   LEU d   1     -10.956   6.524   7.849  0.00  0.00     0.028 H 
ENDBRANCH  26  32
ENDBRANCH  23  26
ENDBRANCH   7  23
ENDBRANCH   4   7
ENDBRANCH   1   3
BRANCH   1  36
ATOM     36  C   GLN d   1     -17.169   8.567  11.305  0.00  0.00     0.241 C 
ATOM     37  O   GLN d   1     -16.504   9.231  10.499  0.00  0.00    -0.271 OA
ATOM     38  N   ASP d   1     -18.460   8.790  11.513  0.00  0.00    -0.346 N 
ATOM     39  H   ASP d   1     -18.966   8.220  12.161  0.00  0.00     0.163 HD
BRANCH  38  40
ATOM     40  CA  ASP d   1     -19.142   9.860  10.802  0.00  0.00     0.098 C 
ATOM     41  H   ASP d   1     -18.509  10.207   9.972  0.00  0.00     0.088 H 
BRANCH  40  42
ATOM     42  C   ASP d   1     -19.365  11.011  11.779  0.00  0.00     0.241 C 
ATOM     43  O   ASP d   1     -20.471  11.216  12.266  0.00  0.00    -0.271 OA
ATOM     44  N   ALA d   1     -18.296  11.742  12.076  0.00  0.00    -0.349 N 
ATOM     45  H   ALA d   1     -17.432  11.551  11.610  0.00  0.00     0.163 HD
BRANCH  44  46
ATOM     46  CA  ALA d   1     -18.348  12.816  13.064  0.00  0.00     0.059 C 
ATOM     47  H   ALA d   1     -18.845  12.425  13.964  0.00  0.00     0.083 H 
BRANCH  46  48
ATOM     48  C   ALA d   1     -19.161  14.005  12.560  0.00  0.00     0.109 C 
ATOM     49  O   ALA d   1     -20.081  13.846  11.754  0.00  0.00    -0.305 OA
ATOM     50  H   ALA d   1     -18.926  15.007  12.916  0.00  0.00     0.146 H 
ENDBRANCH  46  48
BRANCH  46  51
ATOM     51  CB  ALA d   1     -16.933  13.253  13.453  0.00  0.00    -0.051 C 
ATOM     52  H   ALA d   1     -16.990  14.061  14.197  0.00  0.00     0.030 H 
ATOM     53  H   ALA d   1     -16.402  13.614  12.560  0.00  0.00     0.030 H 
ATOM     54  H   ALA d   1     -16.390  12.398  13.882  0.00  0.00     0.030 H 
ENDBRANCH  46  51
ENDBRANCH  44  46
ENDBRANCH  40  42
BRANCH  40  55
ATOM     55  CB  ASP d   1     -20.470   9.361  10.231  0.00  0.00     0.043 C 
ATOM     56  H   ASP d   1     -21.238   9.430  11.015  0.00  0.00     0.052 H 
ATOM     57  H   ASP d   1     -20.350   8.311   9.927  0.00  0.00     0.052 H 
BRANCH  55  58
ATOM     58  CG  ASP d   1     -20.932  10.170   9.022  0.00  0.00     0.175 C 
ATOM     59  OD1 ASP d   1     -20.458  11.317   8.840  0.00  0.00    -0.648 OA
ATOM     60  OD2 ASP d   1     -21.782   9.663   8.257  0.00  0.00    -0.648 OA
ENDBRANCH  55  58
ENDBRANCH  40  55
ENDBRANCH  38  40
ENDBRANCH   1  36
BRANCH   1  61
ATOM     61  CB  GLN d   1     -15.925   7.968  13.395  0.00  0.00    -0.030 C 
ATOM     62  H   GLN d   1     -15.221   8.777  13.152  0.00  0.00     0.037 H 
ATOM     63  H   GLN d   1     -15.387   7.154  13.904  0.00  0.00     0.037 H 
BRANCH  61  64
ATOM     64  CG  GLN d   1     -16.999   8.511  14.330  0.00  0.00     0.011 C 
ATOM     65  H   GLN d   1     -17.585   7.666  14.720  0.00  0.00     0.047 H 
ATOM     66  H   GLN d   1     -17.657   9.181  13.758  0.00  0.00     0.047 H 
BRANCH  64  67
ATOM     67  CD  GLN d   1     -16.426   9.279  15.496  0.00  0.00     0.215 C 
ATOM     68  OE1 GLN d   1     -15.202   9.338  15.673  0.00  0.00    -0.274 OA
ATOM     69  NE2 GLN d   1     -17.303   9.879  16.300  0.00  0.00    -0.370 N 
ATOM     70  H   GLN d   1     -16.981  10.402  17.089  0.00  0.00     0.159 HD
ATOM     71  H   GLN d   1     -18.283   9.806  16.114  0.00  0.00     0.159 HD
ENDBRANCH  64  67
ENDBRANCH  61  64
ENDBRANCH   1  61
TORSDOF 48
