REMARK WARNING: 32 MAX_TORS EXCEEDED!!!
REMARK  71 active torsions:
REMARK  status: ('A' for Active; 'I' for Inactive)
REMARK    1  A    between atoms: N_1  and  CA_2 
REMARK    2  A    between atoms: CA_2  and  C_3 
REMARK    3  A    between atoms: CA_2  and  CB_5 
REMARK       I    between atoms: C_3  and  N_12 
REMARK    4  A    between atoms: CB_5  and  CG_6 
REMARK    5  A    between atoms: N_12  and  CA_13 
REMARK    6  A    between atoms: CA_13  and  C_14 
REMARK    7  A    between atoms: CA_13  and  CB_16 
REMARK       I    between atoms: C_14  and  N_20 
REMARK    8  A    between atoms: CB_16  and  CG_17 
REMARK    9  A    between atoms: CG_17  and  CD1_18 
REMARK   10  A    between atoms: CG_17  and  CD2_19 
REMARK   11  A    between atoms: N_20  and  CA_21 
REMARK   12  A    between atoms: CA_21  and  C_22 
REMARK   13  A    between atoms: CA_21  and  CB_24 
REMARK       I    between atoms: C_22  and  N_28 
REMARK   14  A    between atoms: CB_24  and  CG_25 
REMARK       I    between atoms: CG_25  and  ND2_27 
REMARK   15  A    between atoms: N_28  and  CA_29 
REMARK   16  A    between atoms: CA_29  and  C_30 
REMARK   17  A    between atoms: CA_29  and  CB_32 
REMARK       I    between atoms: C_30  and  N_37 
REMARK   18  A    between atoms: CB_32  and  CG_33 
REMARK   19  A    between atoms: CG_33  and  CD_34 
REMARK   20  A    between atoms: CD_34  and  CE_35 
REMARK   21  A    between atoms: CE_35  and  NZ_36 
REMARK   22  A    between atoms: N_37  and  CA_38 
REMARK   23  A    between atoms: CA_38  and  C_39 
REMARK   24  A    between atoms: CA_38  and  CB_41 
REMARK       I    between atoms: C_39  and  N_45 
REMARK   25  A    between atoms: CB_41  and  CG_42 
REMARK   26  A    between atoms: N_45  and  CA_46 
REMARK   27  A    between atoms: CA_46  and  C_47 
REMARK   28  A    between atoms: CA_46  and  CB_49 
REMARK       I    between atoms: C_47  and  N_53 
REMARK   29  A    between atoms: CB_49  and  CG_50 
REMARK   30  A    between atoms: CG_50  and  CD1_51 
REMARK   31  A    between atoms: CG_50  and  CD2_52 
REMARK   32  A    between atoms: N_53  and  CA_54 
REMARK   33  A    between atoms: CA_54  and  C_55 
REMARK   34  A    between atoms: CA_54  and  CB_57 
REMARK       I    between atoms: C_55  and  N_62 
REMARK   35  A    between atoms: CB_57  and  CG_58 
REMARK   36  A    between atoms: CG_58  and  CD_59 
REMARK   37  A    between atoms: N_62  and  CA_63 
REMARK   38  A    between atoms: CA_63  and  C_64 
REMARK   39  A    between atoms: CA_63  and  CB_66 
REMARK       I    between atoms: C_64  and  N_69 
REMARK   40  A    between atoms: CB_66  and  CG1_67 
REMARK   41  A    between atoms: CB_66  and  CG2_68 
REMARK   42  A    between atoms: N_69  and  CA_70 
REMARK   43  A    between atoms: CA_70  and  C_71 
REMARK   44  A    between atoms: CA_70  and  CB_73 
REMARK       I    between atoms: C_71  and  N_77 
REMARK   45  A    between atoms: CB_73  and  CG_74 
REMARK   46  A    between atoms: N_77  and  CA_78 
REMARK   47  A    between atoms: CA_78  and  C_79 
REMARK       I    between atoms: C_79  and  N_81 
REMARK   48  A    between atoms: N_81  and  CA_82 
REMARK   49  A    between atoms: CA_82  and  C_83 
REMARK   50  A    between atoms: CA_82  and  CB_85 
REMARK       I    between atoms: C_83  and  N_91 
REMARK   51  A    between atoms: CB_85  and  CG_86 
REMARK   52  A    between atoms: N_91  and  CA_92 
REMARK   53  A    between atoms: CA_92  and  C_93 
REMARK   54  A    between atoms: CA_92  and  CB_95 
REMARK       I    between atoms: C_93  and  N_102 
REMARK   55  A    between atoms: CB_95  and  CG_96 
REMARK   56  A    between atoms: N_102  and  CA_103 
REMARK   57  A    between atoms: CA_103  and  C_104 
REMARK   58  A    between atoms: CA_103  and  CB_106 
REMARK       I    between atoms: C_104  and  N_109 
REMARK   59  A    between atoms: CB_106  and  CG1_107 
REMARK   60  A    between atoms: CB_106  and  CG2_108 
REMARK   61  A    between atoms: N_109  and  CA_110 
REMARK   62  A    between atoms: CA_110  and  C_111 
REMARK   63  A    between atoms: CA_110  and  CB_113 
REMARK       I    between atoms: C_111  and  N_116 
REMARK   64  A    between atoms: CB_113  and  OG1_114 
REMARK   65  A    between atoms: CB_113  and  CG2_115 
REMARK   66  A    between atoms: N_116  and  CA_117 
REMARK   67  A    between atoms: CA_117  and  C_118 
REMARK   68  A    between atoms: CA_117  and  CB_120 
REMARK   69  A    between atoms: CB_120  and  CG_121 
REMARK   70  A    between atoms: CG_121  and  SD_122 
REMARK   71  A    between atoms: SD_122  and  CE_123 
ROOT
ATOM      1  C   GLU d   1     -21.821  17.109  17.120  0.00  0.00     0.241 C 
ATOM      2  O   GLU d   1     -22.256  16.102  17.705  0.00  0.00    -0.271 OA
ATOM      3  N   VAL d   1     -22.184  18.358  17.436  0.00  0.00    -0.346 N 
ATOM      4  H   VAL d   1     -21.799  19.124  16.921  0.00  0.00     0.163 HD
ENDROOT
BRANCH   1   5
ATOM      5  CA  GLU d   1     -20.872  16.953  15.935  0.00  0.00     0.090 C 
ATOM      6  H   GLU d   1     -20.384  17.917  15.729  0.00  0.00     0.087 H 
BRANCH   5   7
ATOM      7  N   GLU d   1     -19.856  15.963  16.248  0.00  0.00    -0.346 N 
ATOM      8  C   LEU d   1     -18.579  16.127  15.911  0.00  0.00     0.241 C 
ATOM      9  O   LEU d   1     -18.147  17.113  15.354  0.00  0.00    -0.271 OA
ATOM     10  H   GLU d   1     -20.125  15.131  16.733  0.00  0.00     0.163 HD
BRANCH   8  11
ATOM     11  CA  LEU d   1     -17.627  14.988  16.212  0.00  0.00     0.089 C 
ATOM     12  H   LEU d   1     -18.192  14.121  16.584  0.00  0.00     0.087 H 
BRANCH  11  13
ATOM     13  N   LEU d   1     -16.936  14.621  14.967  0.00  0.00    -0.346 N 
ATOM     14  C   ASP d   1     -17.621  14.239  13.887  0.00  0.00     0.241 C 
ATOM     15  O   ASP d   1     -18.849  14.162  13.876  0.00  0.00    -0.271 OA
ATOM     16  H   LEU d   1     -15.937  14.658  14.929  0.00  0.00     0.163 HD
BRANCH  14  17
ATOM     17  CA  ASP d   1     -16.814  13.890  12.628  0.00  0.00     0.098 C 
ATOM     18  H   ASP d   1     -15.874  13.416  12.947  0.00  0.00     0.088 H 
BRANCH  17  19
ATOM     19  N   ASP d   1     -17.527  12.941  11.766  0.00  0.00    -0.346 N 
ATOM     20  C   LYS d   1     -17.704  11.680  12.148  0.00  0.00     0.241 C 
ATOM     21  O   LYS d   1     -17.266  11.269  13.225  0.00  0.00    -0.271 OA
ATOM     22  H   ASP d   1     -17.883  13.245  10.883  0.00  0.00     0.163 HD
BRANCH  20  23
ATOM     23  CA  LYS d   1     -18.526  10.776  11.245  0.00  0.00     0.089 C 
ATOM     24  H   LYS d   1     -18.216  10.946  10.203  0.00  0.00     0.087 H 
BRANCH  23  25
ATOM     25  N   LYS d   1     -18.311   9.358  11.580  0.00  0.00    -0.346 N 
ATOM     26  C   ASN d   1     -17.221   8.745  11.164  0.00  0.00     0.241 C 
ATOM     27  O   ASN d   1     -16.499   9.206  10.304  0.00  0.00    -0.271 OA
ATOM     28  H   LYS d   1     -18.990   8.862  12.121  0.00  0.00     0.163 HD
BRANCH  26  29
ATOM     29  CA  ASN d   1     -16.935   7.383  11.790  0.00  0.00     0.097 C 
ATOM     30  H   ASN d   1     -17.878   6.827  11.894  0.00  0.00     0.088 H 
BRANCH  29  31
ATOM     31  N   ASN d   1     -16.003   6.613  10.974  0.00  0.00    -0.346 N 
ATOM     32  C   LEU d   1     -16.417   5.976   9.879  0.00  0.00     0.241 C 
ATOM     33  O   LEU d   1     -17.603   5.925   9.570  0.00  0.00    -0.271 OA
ATOM     34  H   ASN d   1     -15.040   6.562  11.240  0.00  0.00     0.163 HD
BRANCH  32  35
ATOM     35  CA  LEU d   1     -15.302   5.467   8.983  0.00  0.00     0.089 C 
ATOM     36  H   LEU d   1     -14.451   5.165   9.611  0.00  0.00     0.087 H 
BRANCH  35  37
ATOM     37  N   LEU d   1     -15.721   4.337   8.176  0.00  0.00    -0.346 N 
ATOM     38  C   PHE d   1     -15.990   3.168   8.745  0.00  0.00     0.249 C 
ATOM     39  O   PHE d   1     -15.954   2.986   9.967  0.00  0.00    -0.271 OA
ATOM     40  H   LEU d   1     -15.808   4.439   7.185  0.00  0.00     0.163 HD
BRANCH  38  41
ATOM     41  CA  PHE d   1     -16.326   2.020   7.776  0.00  0.00     0.179 C 
ATOM     42  H   PHE d   1     -16.393   2.394   6.744  0.00  0.00     0.099 H 
BRANCH  41  43
ATOM     43  N   PHE d   1     -15.247   1.000   7.913  0.00  0.00    -0.066 N 
ATOM     44  H   PHE d   1     -15.433   0.229   7.291  0.00  0.00     0.275 HD
ATOM     45  H   PHE d   1     -15.219   0.666   8.864  0.00  0.00     0.275 HD
ATOM     46  H   PHE d   1     -14.360   1.416   7.677  0.00  0.00     0.275 HD
ENDBRANCH  41  43
BRANCH  41  47
ATOM     47  CB  PHE d   1     -17.626   1.338   8.184  0.00  0.00    -0.006 C 
ATOM     48  H   PHE d   1     -17.562   1.099   9.256  0.00  0.00     0.043 H 
ATOM     49  H   PHE d   1     -17.718   0.407   7.605  0.00  0.00     0.043 H 
BRANCH  47  50
ATOM     50  CG  PHE d   1     -18.880   2.152   7.961  0.00  0.00    -0.056 A 
ATOM     51  CD1 PHE d   1     -19.550   2.132   6.731  0.00  0.00    -0.077 A 
ATOM     52  CE1 PHE d   1     -20.721   2.831   6.570  0.00  0.00    -0.082 A 
ATOM     53  H   PHE d   1     -19.143   1.563   5.903  0.00  0.00     0.084 H 
ATOM     54  CZ  PHE d   1     -21.259   3.572   7.611  0.00  0.00    -0.083 A 
ATOM     55  H   PHE d   1     -21.232   2.803   5.615  0.00  0.00     0.083 H 
ATOM     56  CE2 PHE d   1     -20.614   3.616   8.845  0.00  0.00    -0.082 A 
ATOM     57  H   PHE d   1     -22.184   4.118   7.464  0.00  0.00     0.083 H 
ATOM     58  CD2 PHE d   1     -19.401   2.929   9.007  0.00  0.00    -0.077 A 
ATOM     59  H   PHE d   1     -21.044   4.174   9.669  0.00  0.00     0.083 H 
ATOM     60  H   PHE d   1     -18.863   2.999   9.946  0.00  0.00     0.084 H 
ENDBRANCH  47  50
ENDBRANCH  41  47
ENDBRANCH  38  41
ENDBRANCH  35  37
BRANCH  35  61
ATOM     61  CB  LEU d   1     -14.868   6.596   8.026  0.00  0.00    -0.035 C 
ATOM     62  H   LEU d   1     -14.788   7.517   8.622  0.00  0.00     0.037 H 
ATOM     63  H   LEU d   1     -15.664   6.713   7.275  0.00  0.00     0.037 H 
BRANCH  61  64
ATOM     64  CG  LEU d   1     -13.556   6.428   7.273  0.00  0.00    -0.059 C 
ATOM     65  H   LEU d   1     -13.536   5.438   6.794  0.00  0.00     0.038 H 
BRANCH  64  66
ATOM     66  CD1 LEU d   1     -13.460   7.516   6.198  0.00  0.00    -0.073 C 
ATOM     67  H   LEU d   1     -12.515   7.404   5.647  0.00  0.00     0.028 H 
ATOM     68  H   LEU d   1     -13.491   8.507   6.675  0.00  0.00     0.028 H 
ATOM     69  H   LEU d   1     -14.305   7.418   5.500  0.00  0.00     0.028 H 
ENDBRANCH  64  66
BRANCH  64  70
ATOM     70  CD2 LEU d   1     -12.372   6.543   8.234  0.00  0.00    -0.073 C 
ATOM     71  H   LEU d   1     -12.447   5.760   9.003  0.00  0.00     0.028 H 
ATOM     72  H   LEU d   1     -12.385   7.532   8.716  0.00  0.00     0.028 H 
ATOM     73  H   LEU d   1     -11.433   6.420   7.675  0.00  0.00     0.028 H 
ENDBRANCH  64  70
ENDBRANCH  61  64
ENDBRANCH  35  61
ENDBRANCH  32  35
ENDBRANCH  29  31
BRANCH  29  74
ATOM     74  CB  ASN d   1     -16.297   7.588  13.167  0.00  0.00     0.036 C 
ATOM     75  H   ASN d   1     -15.490   8.330  13.074  0.00  0.00     0.051 H 
ATOM     76  H   ASN d   1     -15.877   6.630  13.506  0.00  0.00     0.051 H 
BRANCH  74  77
ATOM     77  CG  ASN d   1     -17.269   8.068  14.186  0.00  0.00     0.217 C 
ATOM     78  OD1 ASN d   1     -18.495   8.083  13.963  0.00  0.00    -0.274 OA
ATOM     79  ND2 ASN d   1     -16.742   8.460  15.349  0.00  0.00    -0.370 N 
ATOM     80  H   ASN d   1     -17.337   8.795  16.080  0.00  0.00     0.159 HD
ATOM     81  H   ASN d   1     -15.753   8.419  15.489  0.00  0.00     0.159 HD
ENDBRANCH  74  77
ENDBRANCH  29  74
ENDBRANCH  26  29
ENDBRANCH  23  25
BRANCH  23  82
ATOM     82  CB  LYS d   1     -20.002  11.097  11.378  0.00  0.00    -0.038 C 
ATOM     83  H   LYS d   1     -20.204  12.066  10.898  0.00  0.00     0.036 H 
ATOM     84  H   LYS d   1     -20.262  11.155  12.445  0.00  0.00     0.036 H 
BRANCH  82  85
ATOM     85  CG  LYS d   1     -20.877  10.002  10.700  0.00  0.00    -0.061 C 
ATOM     86  H   LYS d   1     -21.840   9.941  11.227  0.00  0.00     0.033 H 
ATOM     87  H   LYS d   1     -20.356   9.036  10.774  0.00  0.00     0.033 H 
BRANCH  85  88
ATOM     88  CD  LYS d   1     -21.141  10.310   9.223  0.00  0.00    -0.043 C 
ATOM     89  H   LYS d   1     -20.201  10.631   8.750  0.00  0.00     0.035 H 
ATOM     90  H   LYS d   1     -21.882  11.120   9.152  0.00  0.00     0.035 H 
BRANCH  88  91
ATOM     91  CE  LYS d   1     -21.676   9.077   8.486  0.00  0.00     0.080 C 
ATOM     92  H   LYS d   1     -22.456   8.610   9.105  0.00  0.00     0.075 H 
ATOM     93  H   LYS d   1     -20.848   8.367   8.343  0.00  0.00     0.075 H 
BRANCH  91  94
ATOM     94  NZ  LYS d   1     -22.264   9.405   7.141  0.00  0.00    -0.079 N 
ATOM     95  H   LYS d   1     -22.598   8.560   6.705  0.00  0.00     0.274 HD
ATOM     96  H   LYS d   1     -21.557   9.826   6.559  0.00  0.00     0.274 HD
ATOM     97  H   LYS d   1     -23.031  10.049   7.258  0.00  0.00     0.274 HD
ENDBRANCH  91  94
ENDBRANCH  88  91
ENDBRANCH  85  88
ENDBRANCH  82  85
ENDBRANCH  23  82
ENDBRANCH  20  23
ENDBRANCH  17  19
BRANCH  17  98
ATOM     98  CB  ASP d   1     -16.470  15.164  11.853  0.00  0.00     0.043 C 
ATOM     99  H   ASP d   1     -15.548  14.989  11.278  0.00  0.00     0.052 H 
ATOM    100  H   ASP d   1     -16.305  15.980  12.572  0.00  0.00     0.052 H 
BRANCH  98 101
ATOM    101  CG  ASP d   1     -17.569  15.577  10.894  0.00  0.00     0.175 C 
ATOM    102  OD1 ASP d   1     -18.755  15.505  11.280  0.00  0.00    -0.648 OA
ATOM    103  OD2 ASP d   1     -17.247  15.973   9.754  0.00  0.00    -0.648 OA
ENDBRANCH  98 101
ENDBRANCH  17  98
ENDBRANCH  14  17
ENDBRANCH  11  13
BRANCH  11 104
ATOM    104  CB  LEU d   1     -16.629  15.434  17.284  0.00  0.00    -0.035 C 
ATOM    105  H   LEU d   1     -17.188  15.726  18.186  0.00  0.00     0.037 H 
ATOM    106  H   LEU d   1     -16.068  16.300  16.904  0.00  0.00     0.037 H 
BRANCH 104 107
ATOM    107  CG  LEU d   1     -15.642  14.340  17.656  0.00  0.00    -0.059 C 
ATOM    108  H   LEU d   1     -15.164  13.957  16.742  0.00  0.00     0.038 H 
BRANCH 107 109
ATOM    109  CD1 LEU d   1     -14.562  14.933  18.552  0.00  0.00    -0.073 C 
ATOM    110  H   LEU d   1     -13.842  14.148  18.827  0.00  0.00     0.028 H 
ATOM    111  H   LEU d   1     -15.024  15.342  19.463  0.00  0.00     0.028 H 
ATOM    112  H   LEU d   1     -14.040  15.737  18.013  0.00  0.00     0.028 H 
ENDBRANCH 107 109
BRANCH 107 113
ATOM    113  CD2 LEU d   1     -16.404  13.195  18.320  0.00  0.00    -0.073 C 
ATOM    114  H   LEU d   1     -17.166  12.811  17.626  0.00  0.00     0.028 H 
ATOM    115  H   LEU d   1     -16.892  13.562  19.235  0.00  0.00     0.028 H 
ATOM    116  H   LEU d   1     -15.702  12.388  18.577  0.00  0.00     0.028 H 
ENDBRANCH 107 113
ENDBRANCH 104 107
ENDBRANCH  11 104
ENDBRANCH   8  11
ENDBRANCH   5   7
BRANCH   5 117
ATOM    117  CB  GLU d   1     -21.681  16.520  14.697  0.00  0.00    -0.029 C 
ATOM    118  H   GLU d   1     -22.281  15.637  14.961  0.00  0.00     0.037 H 
ATOM    119  H   GLU d   1     -20.978  16.258  13.892  0.00  0.00     0.037 H 
BRANCH 117 120
ATOM    120  CG  GLU d   1     -22.619  17.612  14.188  0.00  0.00     0.018 C 
ATOM    121  H   GLU d   1     -22.013  18.437  13.786  0.00  0.00     0.049 H 
ATOM    122  H   GLU d   1     -23.223  17.978  15.032  0.00  0.00     0.049 H 
BRANCH 120 123
ATOM    123  CD  GLU d   1     -23.554  17.123  13.100  0.00  0.00     0.172 C 
ATOM    124  OE1 GLU d   1     -23.154  16.207  12.359  0.00  0.00    -0.648 OA
ATOM    125  OE2 GLU d   1     -24.690  17.647  12.994  0.00  0.00    -0.648 OA
ENDBRANCH 120 123
ENDBRANCH 117 120
ENDBRANCH   5 117
ENDBRANCH   1   5
BRANCH   3 126
ATOM    126  CA  VAL d   1     -23.128  18.628  18.513  0.00  0.00     0.092 C 
ATOM    127  H   VAL d   1     -23.749  17.735  18.679  0.00  0.00     0.088 H 
BRANCH 126 128
ATOM    128  C   VAL d   1     -24.002  19.781  18.089  0.00  0.00     0.241 C 
ATOM    129  O   VAL d   1     -23.481  20.822  17.689  0.00  0.00    -0.271 OA
ATOM    130  N   ASP d   1     -25.323  19.594  18.160  0.00  0.00    -0.345 N 
ATOM    131  H   ASP d   1     -25.677  18.703  18.444  0.00  0.00     0.163 HD
BRANCH 130 132
ATOM    132  CA  ASP d   1     -26.262  20.665  17.831  0.00  0.00     0.098 C 
ATOM    133  H   ASP d   1     -27.281  20.254  17.877  0.00  0.00     0.088 H 
BRANCH 132 134
ATOM    134  C   ASP d   1     -26.032  21.205  16.413  0.00  0.00     0.241 C 
ATOM    135  O   ASP d   1     -26.031  22.410  16.199  0.00  0.00    -0.271 OA
ATOM    136  N   GLY d   1     -25.815  20.303  15.459  0.00  0.00    -0.351 N 
ATOM    137  H   GLY d   1     -25.792  19.335  15.707  0.00  0.00     0.163 HD
BRANCH 136 138
ATOM    138  CA  GLY d   1     -25.610  20.675  14.068  0.00  0.00     0.069 C 
ATOM    139  H   GLY d   1     -26.346  21.454  13.822  0.00  0.00     0.078 H 
ATOM    140  H   GLY d   1     -25.802  19.782  13.455  0.00  0.00     0.078 H 
BRANCH 138 141
ATOM    141  C   GLY d   1     -24.232  21.207  13.686  0.00  0.00     0.236 C 
ATOM    142  O   GLY d   1     -23.976  21.493  12.502  0.00  0.00    -0.272 OA
ATOM    143  N   HIS d   1     -23.336  21.342  14.665  0.00  0.00    -0.346 N 
ATOM    144  H   HIS d   1     -23.552  21.007  15.582  0.00  0.00     0.163 HD
BRANCH 143 145
ATOM    145  CA  HIS d   1     -22.041  21.974  14.412  0.00  0.00     0.094 C 
ATOM    146  H   HIS d   1     -21.953  22.163  13.332  0.00  0.00     0.088 H 
BRANCH 145 147
ATOM    147  C   HIS d   1     -20.919  21.071  14.821  0.00  0.00     0.241 C 
ATOM    148  O   HIS d   1     -20.979  20.424  15.855  0.00  0.00    -0.271 OA
ATOM    149  N   PHE d   1     -19.904  21.018  13.976  0.00  0.00    -0.346 N 
ATOM    150  H   PHE d   1     -19.916  21.579  13.149  0.00  0.00     0.163 HD
BRANCH 149 151
ATOM    151  CA  PHE d   1     -18.768  20.147  14.243  0.00  0.00     0.093 C 
ATOM    152  H   PHE d   1     -19.166  19.175  14.570  0.00  0.00     0.088 H 
BRANCH 151 153
ATOM    153  C   PHE d   1     -17.903  20.682  15.380  0.00  0.00     0.241 C 
ATOM    154  O   PHE d   1     -17.881  21.886  15.644  0.00  0.00    -0.271 OA
ATOM    155  N   VAL d   1     -17.259  19.770  16.106  0.00  0.00    -0.346 N 
ATOM    156  H   VAL d   1     -17.319  18.807  15.842  0.00  0.00     0.163 HD
BRANCH 155 157
ATOM    157  CA  VAL d   1     -16.473  20.135  17.268  0.00  0.00     0.092 C 
ATOM    158  H   VAL d   1     -16.479  21.228  17.391  0.00  0.00     0.088 H 
BRANCH 157 159
ATOM    159  C   VAL d   1     -15.053  19.637  17.051  0.00  0.00     0.241 C 
ATOM    160  O   VAL d   1     -14.839  18.440  16.983  0.00  0.00    -0.271 OA
ATOM    161  N   THR d   1     -14.100  20.552  16.918  0.00  0.00    -0.344 N 
ATOM    162  H   THR d   1     -14.343  21.514  17.039  0.00  0.00     0.163 HD
BRANCH 161 163
ATOM    163  CA  THR d   1     -12.706  20.217  16.602  0.00  0.00     0.113 C 
ATOM    164  H   THR d   1     -12.651  19.155  16.320  0.00  0.00     0.091 H 
BRANCH 163 165
ATOM    165  C   THR d   1     -11.839  20.433  17.856  0.00  0.00     0.243 C 
ATOM    166  O   THR d   1     -12.365  20.771  18.912  0.00  0.00    -0.271 OA
ATOM    167  N   MET d   1     -10.527  20.227  17.766  0.00  0.00    -0.345 N 
ATOM    168  H   MET d   1     -10.121  19.942  16.898  0.00  0.00     0.163 HD
BRANCH 167 169
ATOM    169  CA  MET d   1      -9.682  20.420  18.945  0.00  0.00     0.097 C 
ATOM    170  H   MET d   1     -10.037  19.741  19.734  0.00  0.00     0.089 H 
BRANCH 169 171
ATOM    171  C   MET d   1      -9.648  21.831  19.491  0.00  0.00     0.196 C 
ATOM    172  O   MET d   1      -9.999  22.805  18.785  0.00  0.00    -0.646 OA
ATOM    173  OXT MET d   1      -9.213  21.982  20.654  0.00  0.00    -0.646 OA
ENDBRANCH 169 171
BRANCH 169 174
ATOM    174  CB  MET d   1      -8.261  20.105  18.595  0.00  0.00    -0.029 C 
ATOM    175  H   MET d   1      -7.617  20.423  19.428  0.00  0.00     0.037 H 
ATOM    176  H   MET d   1      -7.992  20.667  17.689  0.00  0.00     0.037 H 
BRANCH 174 177
ATOM    177  CG  MET d   1      -8.029  18.693  18.347  0.00  0.00    -0.021 C 
ATOM    178  H   MET d   1      -8.643  18.338  17.506  0.00  0.00     0.049 H 
ATOM    179  H   MET d   1      -8.255  18.097  19.243  0.00  0.00     0.049 H 
BRANCH 177 180
ATOM    180  SD  MET d   1      -6.266  18.599  17.940  0.00  0.00    -0.173 SA
BRANCH 180 181
ATOM    181  CE  MET d   1      -6.177  16.825  18.042  0.00  0.00    -0.035 C 
ATOM    182  H   MET d   1      -5.150  16.496  17.824  0.00  0.00     0.041 H 
ATOM    183  H   MET d   1      -6.867  16.381  17.310  0.00  0.00     0.041 H 
ATOM    184  H   MET d   1      -6.458  16.501  19.055  0.00  0.00     0.041 H 
ENDBRANCH 180 181
ENDBRANCH 177 180
ENDBRANCH 174 177
ENDBRANCH 169 174
ENDBRANCH 167 169
ENDBRANCH 163 165
BRANCH 163 185
ATOM    185  CB  THR d   1     -12.219  21.063  15.400  0.00  0.00     0.060 C 
ATOM    186  H   THR d   1     -11.194  20.769  15.131  0.00  0.00     0.086 H 
BRANCH 185 187
ATOM    187  OG1 THR d   1     -12.268  22.453  15.743  0.00  0.00    -0.393 OA
ATOM    188  H   THR d   1     -11.706  22.613  16.492  0.00  0.00     0.210 HD
ENDBRANCH 185 187
BRANCH 185 189
ATOM    189  CG2 THR d   1     -13.163  20.877  14.192  0.00  0.00    -0.050 C 
ATOM    190  H   THR d   1     -12.803  21.484  13.348  0.00  0.00     0.031 H 
ATOM    191  H   THR d   1     -14.178  21.198  14.467  0.00  0.00     0.031 H 
ATOM    192  H   THR d   1     -13.180  19.817  13.900  0.00  0.00     0.031 H 
ENDBRANCH 185 189
ENDBRANCH 163 185
ENDBRANCH 161 163
ENDBRANCH 157 159
BRANCH 157 193
ATOM    193  CB  VAL d   1     -17.029  19.465  18.547  0.00  0.00    -0.033 C 
ATOM    194  H   VAL d   1     -16.986  18.373  18.423  0.00  0.00     0.042 H 
BRANCH 193 195
ATOM    195  CG1 VAL d   1     -16.162  19.856  19.746  0.00  0.00    -0.071 C 
ATOM    196  H   VAL d   1     -16.557  19.380  20.655  0.00  0.00     0.028 H 
ATOM    197  H   VAL d   1     -16.177  20.949  19.869  0.00  0.00     0.028 H 
ATOM    198  H   VAL d   1     -15.128  19.520  19.576  0.00  0.00     0.028 H 
ENDBRANCH 193 195
BRANCH 193 199
ATOM    199  CG2 VAL d   1     -18.486  19.871  18.763  0.00  0.00    -0.071 C 
ATOM    200  H   VAL d   1     -19.082  19.577  17.887  0.00  0.00     0.028 H 
ATOM    201  H   VAL d   1     -18.547  20.961  18.899  0.00  0.00     0.028 H 
ATOM    202  H   VAL d   1     -18.878  19.367  19.659  0.00  0.00     0.028 H 
ENDBRANCH 193 199
ENDBRANCH 157 193
ENDBRANCH 155 157
ENDBRANCH 151 153
BRANCH 151 203
ATOM    203  CB  PHE d   1     -17.964  19.902  12.952  0.00  0.00    -0.014 C 
ATOM    204  H   PHE d   1     -17.106  19.256  13.191  0.00  0.00     0.043 H 
ATOM    205  H   PHE d   1     -17.601  20.870  12.577  0.00  0.00     0.043 H 
BRANCH 203 206
ATOM    206  CG  PHE d   1     -18.774  19.241  11.866  0.00  0.00    -0.056 A 
ATOM    207  CD1 PHE d   1     -19.116  17.899  11.965  0.00  0.00    -0.077 A 
ATOM    208  CE1 PHE d   1     -19.873  17.288  10.974  0.00  0.00    -0.082 A 
ATOM    209  H   PHE d   1     -18.789  17.323  12.823  0.00  0.00     0.084 H 
ATOM    210  CZ  PHE d   1     -20.298  18.023   9.873  0.00  0.00    -0.083 A 
ATOM    211  H   PHE d   1     -20.132  16.239  11.059  0.00  0.00     0.083 H 
ATOM    212  CE2 PHE d   1     -19.962  19.362   9.768  0.00  0.00    -0.082 A 
ATOM    213  H   PHE d   1     -20.891  17.549   9.099  0.00  0.00     0.083 H 
ATOM    214  CD2 PHE d   1     -19.210  19.962  10.757  0.00  0.00    -0.077 A 
ATOM    215  H   PHE d   1     -20.289  19.938   8.910  0.00  0.00     0.083 H 
ATOM    216  H   PHE d   1     -18.954  21.012  10.669  0.00  0.00     0.084 H 
ENDBRANCH 203 206
ENDBRANCH 151 203
ENDBRANCH 149 151
ENDBRANCH 145 147
BRANCH 145 217
ATOM    217  CB  HIS d   1     -21.956  23.300  15.136  0.00  0.00     0.004 C 
ATOM    218  H   HIS d   1     -20.930  23.687  15.046  0.00  0.00     0.046 H 
ATOM    219  H   HIS d   1     -22.195  23.139  16.198  0.00  0.00     0.046 H 
BRANCH 217 220
ATOM    220  CG  HIS d   1     -22.901  24.313  14.580  0.00  0.00     0.053 A 
ATOM    221  ND1 HIS d   1     -24.268  24.219  14.740  0.00  0.00    -0.247 NA
ATOM    222  CE1 HIS d   1     -24.853  25.227  14.113  0.00  0.00     0.064 A 
ATOM    223  NE2 HIS d   1     -23.916  25.955  13.528  0.00  0.00    -0.359 N 
ATOM    224  H   HIS d   1     -25.924  25.424  14.084  0.00  0.00     0.143 H 
ATOM    225  CD2 HIS d   1     -22.685  25.401  13.798  0.00  0.00     0.002 A 
ATOM    226  H   HIS d   1     -24.081  26.800  12.962  0.00  0.00     0.166 HD
ATOM    227  H   HIS d   1     -21.720  25.767  13.450  0.00  0.00     0.114 H 
ENDBRANCH 217 220
ENDBRANCH 145 217
ENDBRANCH 143 145
ENDBRANCH 138 141
ENDBRANCH 136 138
ENDBRANCH 132 134
BRANCH 132 228
ATOM    228  CB  ASP d   1     -26.148  21.796  18.869  0.00  0.00     0.043 C 
ATOM    229  H   ASP d   1     -26.748  22.651  18.524  0.00  0.00     0.052 H 
ATOM    230  H   ASP d   1     -25.093  22.096  18.948  0.00  0.00     0.052 H 
BRANCH 228 231
ATOM    231  CG  ASP d   1     -26.647  21.375  20.267  0.00  0.00     0.175 C 
ATOM    232  OD1 ASP d   1     -27.516  20.477  20.346  0.00  0.00    -0.648 OA
ATOM    233  OD2 ASP d   1     -26.173  21.940  21.282  0.00  0.00    -0.648 OA
ENDBRANCH 228 231
ENDBRANCH 132 228
ENDBRANCH 130 132
ENDBRANCH 126 128
BRANCH 126 234
ATOM    234  CB  VAL d   1     -22.403  18.993  19.847  0.00  0.00    -0.033 C 
ATOM    235  H   VAL d   1     -21.736  19.846  19.654  0.00  0.00     0.042 H 
BRANCH 234 236
ATOM    236  CG1 VAL d   1     -23.426  19.410  20.932  0.00  0.00    -0.071 C 
ATOM    237  H   VAL d   1     -22.893  19.662  21.861  0.00  0.00     0.028 H 
ATOM    238  H   VAL d   1     -24.119  18.577  21.122  0.00  0.00     0.028 H 
ATOM    239  H   VAL d   1     -23.992  20.287  20.585  0.00  0.00     0.028 H 
ENDBRANCH 234 236
BRANCH 234 240
ATOM    240  CG2 VAL d   1     -21.559  17.827  20.339  0.00  0.00    -0.071 C 
ATOM    241  H   VAL d   1     -20.838  17.542  19.559  0.00  0.00     0.028 H 
ATOM    242  H   VAL d   1     -22.212  16.971  20.565  0.00  0.00     0.028 H 
ATOM    243  H   VAL d   1     -21.017  18.125  21.249  0.00  0.00     0.028 H 
ENDBRANCH 234 240
ENDBRANCH 126 234
ENDBRANCH   3 126
TORSDOF 71
