REMARK  9 active torsions:
REMARK  status: ('A' for Active; 'I' for Inactive)
REMARK    1  A    between atoms: C23_3  and  N6_4 
REMARK    2  A    between atoms: C20_7  and  N5_8 
REMARK    3  A    between atoms: N5_8  and  C15_9 
REMARK    4  A    between atoms: C12_14  and  C7_15 
REMARK    5  A    between atoms: C11_20  and  O1_21 
REMARK    6  A    between atoms: O1_21  and  C3_22 
REMARK    7  A    between atoms: C6_31  and  N1_32 
REMARK    8  A    between atoms: N1_32  and  S1_33 
REMARK    9  A    between atoms: S1_33  and  C26_36 
ROOT
ATOM      1  C7  3EL d   1      -4.170  25.402 -31.992  0.00  0.00     0.047 A 
ATOM      2  C8  3EL d   1      -2.889  25.461 -31.499  0.00  0.00    -0.065 A 
ATOM      3  C9  3EL d   1      -2.181  24.289 -31.326  0.00  0.00    -0.065 A 
ATOM      4  C10 3EL d   1      -2.756  23.078 -31.656  0.00  0.00     0.005 A 
ATOM      5  N2  3EL d   1      -3.975  23.040 -32.132  0.00  0.00    -0.236 NA
ATOM      6  C11 3EL d   1      -4.680  24.148 -32.313  0.00  0.00     0.182 A 
ATOM      7  H   3EL d   1      -2.440  26.416 -31.249  0.00  0.00     0.085 H 
ATOM      8  H   3EL d   1      -1.172  24.319 -30.930  0.00  0.00     0.085 H 
ATOM      9  H   3EL d   1      -2.198  22.159 -31.521  0.00  0.00     0.114 H 
ENDROOT
BRANCH   6  10
ATOM     10  O1  3EL d   1      -5.906  24.056 -32.816  0.00  0.00    -0.290 OA
BRANCH  10  11
ATOM     11  C3  3EL d   1      -6.607  22.927 -33.022  0.00  0.00     0.089 A 
ATOM     12  C4  3EL d   1      -6.726  21.952 -32.055  0.00  0.00    -0.047 A 
ATOM     13  C5  3EL d   1      -7.499  20.834 -32.297  0.00  0.00    -0.053 A 
ATOM     14  H   3EL d   1      -6.214  22.063 -31.106  0.00  0.00     0.087 H 
ATOM     15  C6  3EL d   1      -8.165  20.685 -33.495  0.00  0.00     0.053 A 
ATOM     16  H   3EL d   1      -7.583  20.065 -31.537  0.00  0.00     0.087 H 
ATOM     17  C2  3EL d   1      -8.061  21.677 -34.462  0.00  0.00     0.004 A 
ATOM     18  C1  3EL d   1      -7.284  22.797 -34.225  0.00  0.00     0.010 A 
ATOM     19  C16 3EL d   1      -8.714  21.569 -35.677  0.00  0.00    -0.070 A 
ATOM     20  C19 3EL d   1      -7.171  23.789 -35.188  0.00  0.00    -0.069 A 
ATOM     21  C18 3EL d   1      -7.818  23.681 -36.396  0.00  0.00    -0.082 A 
ATOM     22  H   3EL d   1      -6.563  24.663 -34.985  0.00  0.00     0.085 H 
ATOM     23  C17 3EL d   1      -8.589  22.567 -36.637  0.00  0.00    -0.082 A 
ATOM     24  H   3EL d   1      -7.723  24.459 -37.145  0.00  0.00     0.083 H 
ATOM     25  H   3EL d   1      -9.104  22.466 -37.585  0.00  0.00     0.083 H 
ATOM     26  H   3EL d   1      -9.328  20.700 -35.882  0.00  0.00     0.084 H 
BRANCH  15  27
ATOM     27  N1  3EL d   1      -8.903  19.601 -33.683  0.00  0.00    -0.280 N 
ATOM     28  H   3EL d   1      -9.878  19.637 -33.465  0.00  0.00     0.179 HD
BRANCH  27  29
ATOM     29  S1  3EL d   1      -8.283  18.224 -34.252  0.00  0.00     0.263 S 
ATOM     30  O2  3EL d   1      -9.336  17.523 -35.012  0.00  0.00    -0.200 OA
ATOM     31  O3  3EL d   1      -7.139  18.549 -35.117  0.00  0.00    -0.200 OA
BRANCH  29  32
ATOM     32  C26 3EL d   1      -7.674  17.204 -33.052  0.00  0.00     0.079 A 
ATOM     33  C27 3EL d   1      -8.155  17.273 -31.754  0.00  0.00    -0.060 A 
ATOM     34  C28 3EL d   1      -7.633  16.425 -30.798  0.00  0.00    -0.082 A 
ATOM     35  H   3EL d   1      -8.931  17.983 -31.493  0.00  0.00     0.085 H 
ATOM     36  C29 3EL d   1      -6.639  15.523 -31.143  0.00  0.00    -0.083 A 
ATOM     37  H   3EL d   1      -8.000  16.465 -29.779  0.00  0.00     0.083 H 
ATOM     38  C30 3EL d   1      -6.166  15.455 -32.447  0.00  0.00    -0.082 A 
ATOM     39  H   3EL d   1      -6.227  14.864 -30.387  0.00  0.00     0.083 H 
ATOM     40  C31 3EL d   1      -6.686  16.301 -33.410  0.00  0.00    -0.060 A 
ATOM     41  H   3EL d   1      -5.393  14.742 -32.709  0.00  0.00     0.083 H 
ATOM     42  H   3EL d   1      -6.325  16.258 -34.431  0.00  0.00     0.085 H 
ENDBRANCH  29  32
ENDBRANCH  27  29
ENDBRANCH  15  27
ENDBRANCH  10  11
ENDBRANCH   6  10
BRANCH   1  43
ATOM     43  C12 3EL d   1      -4.842  26.614 -32.168  0.00  0.00     0.091 A 
ATOM     44  N3  3EL d   1      -4.173  27.739 -31.965  0.00  0.00    -0.062 NA
ATOM     45  C15 3EL d   1      -4.736  28.938 -32.126  0.00  0.00     0.723 A 
ATOM     46  N4  3EL d   1      -6.000  29.052 -32.500  0.00  0.00    -0.075 NA
ATOM     47  C14 3EL d   1      -6.717  27.983 -32.712  0.00  0.00     0.023 A 
ATOM     48  C13 3EL d   1      -6.158  26.732 -32.558  0.00  0.00    -0.036 A 
ATOM     49  H   3EL d   1      -7.755  28.078 -33.010  0.00  0.00     0.115 H 
ATOM     50  H   3EL d   1      -6.752  25.844 -32.743  0.00  0.00     0.089 H 
BRANCH  45  51
ATOM     51  N5  3EL d   1      -4.028  30.027 -31.914  0.00  0.00    -0.218 N 
ATOM     52  H   3EL d   1      -4.408  30.945 -32.185  0.00  0.00     0.178 HD
BRANCH  51  53
ATOM     53  C20 3EL d   1      -2.709  29.942 -31.298  0.00  0.00     0.026 C 
ATOM     54  C21 3EL d   1      -2.854  29.812 -29.788  0.00  0.00    -0.044 C 
ATOM     55  C22 3EL d   1      -1.493  29.715 -29.125  0.00  0.00    -0.037 C 
ATOM     56  H   3EL d   1      -3.383  30.694 -29.399  0.00  0.00     0.036 H 
ATOM     57  H   3EL d   1      -3.433  28.906 -29.558  0.00  0.00     0.036 H 
ATOM     58  C23 3EL d   1      -0.642  30.931 -29.456  0.00  0.00     0.100 C 
ATOM     59  H   3EL d   1      -0.982  28.809 -29.483  0.00  0.00     0.036 H 
ATOM     60  H   3EL d   1      -1.627  29.655 -28.035  0.00  0.00     0.036 H 
ATOM     61  C24 3EL d   1      -0.550  31.122 -30.969  0.00  0.00    -0.037 C 
ATOM     62  H   3EL d   1      -1.092  31.827 -29.003  0.00  0.00     0.083 H 
ATOM     63  C25 3EL d   1      -1.925  31.197 -31.608  0.00  0.00    -0.044 C 
ATOM     64  H   3EL d   1      -0.001  30.274 -31.403  0.00  0.00     0.036 H 
ATOM     65  H   3EL d   1      -0.008  32.056 -31.178  0.00  0.00     0.036 H 
ATOM     66  H   3EL d   1      -1.815  31.298 -32.698  0.00  0.00     0.036 H 
ATOM     67  H   3EL d   1      -2.464  32.070 -31.211  0.00  0.00     0.036 H 
ATOM     68  H   3EL d   1      -2.175  29.066 -31.694  0.00  0.00     0.073 H 
BRANCH  58  69
ATOM     69  N6  3EL d   1       0.699  30.727 -28.916  0.00  0.00    -0.075 N 
ATOM     70  H   3EL d   1       1.273  31.528 -29.130  0.00  0.00     0.274 HD
ATOM     71  H   3EL d   1       1.106  29.902 -29.329  0.00  0.00     0.274 HD
ATOM     72  H   3EL d   1       0.644  30.610 -27.916  0.00  0.00     0.274 HD
ENDBRANCH  58  69
ENDBRANCH  51  53
ENDBRANCH  45  51
ENDBRANCH   1  43
TORSDOF 9
