REMARK  10 active torsions:
REMARK  status: ('A' for Active; 'I' for Inactive)
REMARK    1  A    between atoms: N3B_1  and  PB_2 
REMARK    2  A    between atoms: PB_2  and  O3A_5 
REMARK    3  A    between atoms: O3A_5  and  PA_6 
REMARK    4  A    between atoms: PA_6  and  O5'_9 
REMARK    5  A    between atoms: O5'_9  and  C5'_10 
REMARK    6  A    between atoms: C5'_10  and  C4'_11 
REMARK    7  A    between atoms: C3'_13  and  O3'_14 
REMARK    8  A    between atoms: C2'_15  and  O2'_16 
REMARK    9  A    between atoms: C1'_17  and  N9_18 
REMARK   10  A    between atoms: C6_26  and  N6_27 
ROOT
ATOM      1  C4' AN2 d   1      -6.688  15.676 -32.953  0.00  0.00     0.089 C 
ATOM      2  O4' AN2 d   1      -6.462  16.763 -33.642  0.00  0.00    -0.353 OA
ATOM      3  C3' AN2 d   1      -5.308  14.973 -32.822  0.00  0.00     0.091 C 
ATOM      4  C2' AN2 d   1      -4.701  15.266 -34.202  0.00  0.00     0.105 C 
ATOM      5  C1' AN2 d   1      -5.170  16.438 -34.552  0.00  0.00     0.139 C 
ATOM      6  H5  AN2 d   1      -7.392  15.027 -33.495  0.00  0.00     0.090 H 
ATOM      7  H6  AN2 d   1      -4.714  15.409 -32.005  0.00  0.00     0.091 H 
ATOM      8  H8  AN2 d   1      -3.601  15.265 -34.174  0.00  0.00     0.093 H 
ATOM      9  H10 AN2 d   1      -5.446  16.425 -35.617  0.00  0.00     0.122 H 
ENDROOT
BRANCH   1  10
ATOM     10  C5' AN2 d   1      -7.271  15.997 -31.577  0.00  0.00     0.058 C 
ATOM     11  H3  AN2 d   1      -8.235  16.514 -31.695  0.00  0.00     0.079 H 
ATOM     12  H4  AN2 d   1      -7.422  15.065 -31.013  0.00  0.00     0.079 H 
BRANCH  10  13
ATOM     13  O5' AN2 d   1      -6.358  16.839 -30.875  0.00  0.00    -0.287 OA
BRANCH  13  14
ATOM     14  PA  AN2 d   1      -6.463  16.726 -29.285  0.00  0.00     0.417 P 
ATOM     15  O1A AN2 d   1      -7.862  17.002 -28.786  0.00  0.00    -0.624 OA
ATOM     16  O2A AN2 d   1      -5.460  17.669 -28.628  0.00  0.00    -0.624 OA
BRANCH  14  17
ATOM     17  O3A AN2 d   1      -5.974  15.246 -28.957  0.00  0.00    -0.186 OA
BRANCH  17  18
ATOM     18  PB  AN2 d   1      -5.248  14.804 -27.616  0.00  0.00     0.366 P 
ATOM     19  O2B AN2 d   1      -5.311  13.333 -27.694  0.00  0.00    -0.630 OA
ATOM     20  O1B AN2 d   1      -6.073  15.124 -26.367  0.00  0.00    -0.630 OA
BRANCH  18  21
ATOM     21  N3B AN2 d   1      -3.716  15.394 -27.490  0.00  0.00    -0.334 N 
ATOM     22  H1  AN2 d   1      -3.162  15.180 -26.685  0.00  0.00     0.162 HD
ATOM     23  H2  AN2 d   1      -3.339  15.967 -28.218  0.00  0.00     0.162 HD
ENDBRANCH  18  21
ENDBRANCH  17  18
ENDBRANCH  14  17
ENDBRANCH  13  14
ENDBRANCH  10  13
ENDBRANCH   1  10
BRANCH   3  24
ATOM     24  O3' AN2 d   1      -5.400  13.631 -32.655  0.00  0.00    -0.390 OA
ATOM     25  H7  AN2 d   1      -5.845  13.250 -33.403  0.00  0.00     0.210 HD
ENDBRANCH   3  24
BRANCH   5  26
ATOM     26  N9  AN2 d   1      -4.220  17.438 -34.318  0.00  0.00    -0.294 N 
ATOM     27  C8  AN2 d   1      -4.195  18.292 -33.253  0.00  0.00     0.071 A 
ATOM     28  N7  AN2 d   1      -3.127  19.112 -33.382  0.00  0.00    -0.236 NA
ATOM     29  H11 AN2 d   1      -4.915  18.310 -32.436  0.00  0.00     0.144 H 
ATOM     30  C5  AN2 d   1      -2.493  18.763 -34.526  0.00  0.00     0.149 A 
ATOM     31  C4  AN2 d   1      -3.173  17.733 -35.090  0.00  0.00     0.167 A 
ATOM     32  C6  AN2 d   1      -1.358  19.255 -35.149  0.00  0.00     0.155 A 
ATOM     33  N3  AN2 d   1      -2.752  17.165 -36.241  0.00  0.00    -0.222 NA
ATOM     34  C2  AN2 d   1      -1.634  17.667 -36.854  0.00  0.00     0.091 A 
ATOM     35  N1  AN2 d   1      -0.952  18.701 -36.296  0.00  0.00    -0.222 NA
ATOM     36  H12 AN2 d   1      -1.292  17.237 -37.788  0.00  0.00     0.146 H 
BRANCH  32  37
ATOM     37  N6  AN2 d   1      -0.584  20.353 -34.606  0.00  0.00    -0.382 N 
ATOM     38  H13 AN2 d   1       0.254  20.687 -35.103  0.00  0.00     0.157 HD
ATOM     39  H14 AN2 d   1      -0.872  20.799 -33.723  0.00  0.00     0.157 HD
ENDBRANCH  32  37
ENDBRANCH   5  26
BRANCH   4  40
ATOM     40  O2' AN2 d   1      -5.212  14.232 -35.138  0.00  0.00    -0.388 OA
ATOM     41  H9  AN2 d   1      -4.854  14.386 -36.004  0.00  0.00     0.210 HD
ENDBRANCH   4  40
TORSDOF 10
