REMARK  26 active torsions:
REMARK  status: ('A' for Active; 'I' for Inactive)
REMARK    1  A    between atoms: C6_2  and  C2_6 
REMARK    2  A    between atoms: O7_55  and  C6_2 
REMARK    3  A    between atoms: C14_9  and  C15_3 
REMARK    4  A    between atoms: C15_3  and  N58_36 
REMARK    5  A    between atoms: C15_3  and  C44_37 
REMARK    6  A    between atoms: C21_4  and  OD1_29 
REMARK       I    between atoms: N20_31  and  C21_4 
REMARK    7  A    between atoms: N11_7  and  C12_8 
REMARK       I    between atoms: C10_53  and  N11_7 
REMARK    8  A    between atoms: C12_8  and  C13_44 
REMARK    9  A    between atoms: C12_8  and  C26_46 
REMARK   10  A    between atoms: C13_44  and  C14_9 
REMARK   11  A    between atoms: C18_10  and  C19_11 
REMARK       I    between atoms: N58_36  and  C18_10 
REMARK   12  A    between atoms: C19_11  and  N20_31 
REMARK   13  A    between atoms: C19_11  and  C62_32 
REMARK   14  A    between atoms: CF4_13  and  CF5_12 
REMARK   15  A    between atoms: NF1_14  and  CF4_13 
REMARK   16  A    between atoms: NF1_14  and  CF2_15 
REMARK   17  A    between atoms: CE2_17  and  NF1_14 
REMARK   18  A    between atoms: CF2_15  and  CF3_16 
REMARK   19  A    between atoms: CD1_28  and  CD2_27 
REMARK   20  A    between atoms: OD1_29  and  CD1_28 
REMARK   21  A    between atoms: C62_32  and  C68_33 
REMARK   22  A    between atoms: C62_32  and  C64_34 
REMARK   23  A    between atoms: C44_37  and  C45_38 
REMARK   24  A    between atoms: C13_44  and  O41_45 
REMARK   25  A    between atoms: C26_46  and  C28_47 
REMARK   26  A    between atoms: C10_53  and  O7_55 
ROOT
ATOM      1  C15 3EM d   1     -18.470   2.132 -11.957  0.00  0.00     0.018 C 
ATOM      2  H4  3EM d   1     -17.497   1.761 -11.601  0.00  0.00     0.073 H 
ENDROOT
BRANCH   1   3
ATOM      3  C14 3EM d   1     -19.574   1.639 -11.034  0.00  0.00    -0.020 C 
ATOM      4  H8  3EM d   1     -20.493   2.213 -11.222  0.00  0.00     0.040 H 
ATOM      5  H9  3EM d   1     -19.265   1.774  -9.987  0.00  0.00     0.040 H 
BRANCH   3   6
ATOM      6  C13 3EM d   1     -19.832   0.165 -11.302  0.00  0.00     0.057 C 
ATOM      7  H43 3EM d   1     -19.984  -0.007 -12.378  0.00  0.00     0.086 H 
BRANCH   6   8
ATOM      8  C12 3EM d   1     -18.598  -0.642 -10.835  0.00  0.00     0.043 C 
ATOM      9  H7  3EM d   1     -17.675  -0.121 -11.129  0.00  0.00     0.077 H 
BRANCH   8  10
ATOM     10  N11 3EM d   1     -18.636  -0.829  -9.378  0.00  0.00    -0.329 N 
ATOM     11  C10 3EM d   1     -17.600  -0.572  -8.564  0.00  0.00     0.361 C 
ATOM     12  O24 3EM d   1     -16.526  -0.142  -9.004  0.00  0.00    -0.238 OA
ATOM     13  H6  3EM d   1     -19.483  -1.168  -8.969  0.00  0.00     0.165 HD
BRANCH  11  14
ATOM     14  O7  3EM d   1     -17.789  -0.803  -7.250  0.00  0.00    -0.299 OA
BRANCH  14  15
ATOM     15  C6  3EM d   1     -16.848  -0.123  -6.444  0.00  0.00     0.061 C 
ATOM     16  H2  3EM d   1     -15.823  -0.438  -6.690  0.00  0.00     0.083 H 
ATOM     17  H3  3EM d   1     -16.938   0.966  -6.573  0.00  0.00     0.083 H 
BRANCH  15  18
ATOM     18  C2  3EM d   1     -17.215  -0.534  -5.015  0.00  0.00     0.025 A 
ATOM     19  C1  3EM d   1     -18.234  -0.064  -4.300  0.00  0.00     0.017 A 
ATOM     20  N5  3EM d   1     -18.300  -0.611  -3.054  0.00  0.00    -0.265 NA
ATOM     21  H5  3EM d   1     -18.939   0.678  -4.671  0.00  0.00     0.116 H 
ATOM     22  C4  3EM d   1     -17.333  -1.507  -2.779  0.00  0.00     0.040 A 
ATOM     23  S3  3EM d   1     -16.374  -1.601  -4.137  0.00  0.00    -0.084 SA
ATOM     24  H1  3EM d   1     -17.204  -2.061  -1.851  0.00  0.00     0.126 H 
ENDBRANCH  15  18
ENDBRANCH  14  15
ENDBRANCH  11  14
ENDBRANCH   8  10
BRANCH   8  25
ATOM     25  C26 3EM d   1     -18.655  -2.005 -11.455  0.00  0.00    -0.020 C 
ATOM     26  H45 3EM d   1     -18.247  -1.956 -12.475  0.00  0.00     0.043 H 
ATOM     27  H46 3EM d   1     -19.702  -2.341 -11.495  0.00  0.00     0.043 H 
BRANCH  25  28
ATOM     28  C28 3EM d   1     -17.904  -2.920 -10.700  0.00  0.00    -0.056 A 
ATOM     29  C31 3EM d   1     -18.448  -3.471  -9.532  0.00  0.00    -0.077 A 
ATOM     30  C32 3EM d   1     -17.747  -4.408  -8.768  0.00  0.00    -0.082 A 
ATOM     31  H47 3EM d   1     -19.437  -3.163  -9.213  0.00  0.00     0.084 H 
ATOM     32  C33 3EM d   1     -16.483  -4.847  -9.163  0.00  0.00    -0.083 A 
ATOM     33  H48 3EM d   1     -18.190  -4.798  -7.859  0.00  0.00     0.083 H 
ATOM     34  C34 3EM d   1     -15.933  -4.315 -10.329  0.00  0.00    -0.082 A 
ATOM     35  H49 3EM d   1     -15.942  -5.583  -8.579  0.00  0.00     0.083 H 
ATOM     36  C35 3EM d   1     -16.642  -3.363 -11.104  0.00  0.00    -0.077 A 
ATOM     37  H50 3EM d   1     -14.947  -4.635 -10.648  0.00  0.00     0.083 H 
ATOM     38  H51 3EM d   1     -16.202  -2.976 -12.016  0.00  0.00     0.084 H 
ENDBRANCH  25  28
ENDBRANCH   8  25
ENDBRANCH   6   8
BRANCH   6  39
ATOM     39  O41 3EM d   1     -21.032  -0.166 -10.595  0.00  0.00    -0.393 OA
ATOM     40  H44 3EM d   1     -21.236  -1.083 -10.732  0.00  0.00     0.210 HD
ENDBRANCH   6  39
ENDBRANCH   3   6
ENDBRANCH   1   3
BRANCH   1  41
ATOM     41  N58 3EM d   1     -18.624   1.815 -13.385  0.00  0.00    -0.354 N 
ATOM     42  C18 3EM d   1     -17.685   1.167 -14.104  0.00  0.00     0.241 C 
ATOM     43  O61 3EM d   1     -16.616   0.730 -13.619  0.00  0.00    -0.271 OA
ATOM     44  H35 3EM d   1     -19.467   2.094 -13.845  0.00  0.00     0.162 HD
BRANCH  42  45
ATOM     45  C19 3EM d   1     -18.017   1.019 -15.620  0.00  0.00     0.094 C 
ATOM     46  H10 3EM d   1     -19.103   1.089 -15.782  0.00  0.00     0.088 H 
BRANCH  45  47
ATOM     47  N20 3EM d   1     -17.316   2.109 -16.338  0.00  0.00    -0.323 N 
ATOM     48  C21 3EM d   1     -17.857   3.219 -16.915  0.00  0.00     0.361 C 
ATOM     49  O76 3EM d   1     -19.059   3.452 -16.901  0.00  0.00    -0.238 OA
ATOM     50  H27 3EM d   1     -16.323   2.019 -16.408  0.00  0.00     0.165 HD
BRANCH  48  51
ATOM     51  OD1 3EM d   1     -16.996   4.133 -17.458  0.00  0.00    -0.299 OA
BRANCH  51  52
ATOM     52  CD1 3EM d   1     -17.546   5.190 -18.272  0.00  0.00     0.055 C 
ATOM     53  H25 3EM d   1     -17.887   4.797 -19.241  0.00  0.00     0.082 H 
ATOM     54  H26 3EM d   1     -18.387   5.679 -17.758  0.00  0.00     0.082 H 
BRANCH  52  55
ATOM     55  CD2 3EM d   1     -16.483   6.086 -18.447  0.00  0.00    -0.015 A 
ATOM     56  CD7 3EM d   1     -16.715   7.411 -18.826  0.00  0.00     0.007 A 
ATOM     57  CE4 3EM d   1     -18.005   7.886 -19.049  0.00  0.00    -0.068 A 
ATOM     58  CD6 3EM d   1     -15.672   8.313 -18.974  0.00  0.00     0.092 A 
ATOM     59  CE3 3EM d   1     -18.254   9.209 -19.436  0.00  0.00    -0.061 A 
ATOM     60  H23 3EM d   1     -18.843   7.211 -18.919  0.00  0.00     0.085 H 
ATOM     61  CE2 3EM d   1     -17.205  10.102 -19.543  0.00  0.00     0.013 A 
ATOM     62  H22 3EM d   1     -19.266   9.531 -19.651  0.00  0.00     0.086 H 
ATOM     63  CE1 3EM d   1     -15.918   9.630 -19.317  0.00  0.00    -0.029 A 
ATOM     64  H21 3EM d   1     -15.082  10.314 -19.412  0.00  0.00     0.090 H 
ATOM     65  OD5 3EM d   1     -14.393   7.919 -18.804  0.00  0.00    -0.275 OA
ATOM     66  CD4 3EM d   1     -14.117   6.632 -18.480  0.00  0.00     0.288 A 
ATOM     67  OD4 3EM d   1     -12.946   6.290 -18.301  0.00  0.00    -0.260 OA
ATOM     68  CD3 3EM d   1     -15.155   5.704 -18.295  0.00  0.00    -0.001 A 
ATOM     69  H24 3EM d   1     -14.917   4.675 -18.030  0.00  0.00     0.093 H 
BRANCH  61  70
ATOM     70  NF1 3EM d   1     -17.455  11.384 -19.864  0.00  0.00    -0.284 NA
BRANCH  70  71
ATOM     71  CF4 3EM d   1     -16.217  12.203 -19.845  0.00  0.00    -0.020 C 
ATOM     72  H14 3EM d   1     -15.453  11.713 -20.466  0.00  0.00     0.055 H 
ATOM     73  H15 3EM d   1     -16.439  13.199 -20.255  0.00  0.00     0.055 H 
BRANCH  71  74
ATOM     74  CF5 3EM d   1     -15.684  12.356 -18.432  0.00  0.00    -0.065 C 
ATOM     75  H11 3EM d   1     -14.769  12.966 -18.449  0.00  0.00     0.029 H 
ATOM     76  H12 3EM d   1     -15.455  11.363 -18.017  0.00  0.00     0.029 H 
ATOM     77  H13 3EM d   1     -16.442  12.850 -17.806  0.00  0.00     0.029 H 
ENDBRANCH  71  74
ENDBRANCH  70  71
BRANCH  70  78
ATOM     78  CF2 3EM d   1     -18.463  11.888 -18.915  0.00  0.00    -0.020 C 
ATOM     79  H16 3EM d   1     -18.078  12.758 -18.364  0.00  0.00     0.055 H 
ATOM     80  H17 3EM d   1     -18.754  11.102 -18.202  0.00  0.00     0.055 H 
BRANCH  78  81
ATOM     81  CF3 3EM d   1     -19.636  12.282 -19.786  0.00  0.00    -0.065 C 
ATOM     82  H18 3EM d   1     -20.446  12.674 -19.154  0.00  0.00     0.029 H 
ATOM     83  H19 3EM d   1     -19.995  11.401 -20.338  0.00  0.00     0.029 H 
ATOM     84  H20 3EM d   1     -19.319  13.057 -20.499  0.00  0.00     0.029 H 
ENDBRANCH  78  81
ENDBRANCH  70  78
ENDBRANCH  61  70
ENDBRANCH  52  55
ENDBRANCH  51  52
ENDBRANCH  48  51
ENDBRANCH  45  47
BRANCH  45  85
ATOM     85  C62 3EM d   1     -17.495  -0.336 -16.132  0.00  0.00    -0.033 C 
ATOM     86  H28 3EM d   1     -16.396  -0.295 -16.131  0.00  0.00     0.042 H 
BRANCH  85  87
ATOM     87  C68 3EM d   1     -17.959  -0.592 -17.586  0.00  0.00    -0.071 C 
ATOM     88  H29 3EM d   1     -17.574  -1.564 -17.928  0.00  0.00     0.028 H 
ATOM     89  H30 3EM d   1     -17.574   0.205 -18.239  0.00  0.00     0.028 H 
ATOM     90  H31 3EM d   1     -19.058  -0.599 -17.624  0.00  0.00     0.028 H 
ENDBRANCH  85  87
BRANCH  85  91
ATOM     91  C64 3EM d   1     -17.921  -1.484 -15.212  0.00  0.00    -0.071 C 
ATOM     92  H32 3EM d   1     -17.580  -1.278 -14.187  0.00  0.00     0.028 H 
ATOM     93  H33 3EM d   1     -17.472  -2.424 -15.566  0.00  0.00     0.028 H 
ATOM     94  H34 3EM d   1     -19.017  -1.575 -15.222  0.00  0.00     0.028 H 
ENDBRANCH  85  91
ENDBRANCH  45  85
ENDBRANCH  42  45
ENDBRANCH   1  41
BRANCH   1  95
ATOM     95  C44 3EM d   1     -18.565   3.641 -11.877  0.00  0.00    -0.022 C 
ATOM     96  H36 3EM d   1     -19.415   3.963 -11.258  0.00  0.00     0.043 H 
ATOM     97  H37 3EM d   1     -18.645   4.097 -12.875  0.00  0.00     0.043 H 
BRANCH  95  98
ATOM     98  C45 3EM d   1     -17.375   3.930 -11.286  0.00  0.00    -0.056 A 
ATOM     99  C48 3EM d   1     -16.440   4.682 -11.979  0.00  0.00    -0.077 A 
ATOM    100  C49 3EM d   1     -15.234   4.977 -11.392  0.00  0.00    -0.082 A 
ATOM    101  H38 3EM d   1     -16.659   5.036 -12.980  0.00  0.00     0.084 H 
ATOM    102  C50 3EM d   1     -14.981   4.546 -10.096  0.00  0.00    -0.083 A 
ATOM    103  H39 3EM d   1     -14.485   5.542 -11.936  0.00  0.00     0.083 H 
ATOM    104  C51 3EM d   1     -15.928   3.798  -9.399  0.00  0.00    -0.082 A 
ATOM    105  H40 3EM d   1     -14.038   4.794  -9.622  0.00  0.00     0.083 H 
ATOM    106  C52 3EM d   1     -17.138   3.486  -9.990  0.00  0.00    -0.077 A 
ATOM    107  H41 3EM d   1     -15.715   3.460  -8.391  0.00  0.00     0.083 H 
ATOM    108  H42 3EM d   1     -17.884   2.909  -9.456  0.00  0.00     0.084 H 
ENDBRANCH  95  98
ENDBRANCH   1  95
TORSDOF 26
