REMARK WARNING: 32 MAX_TORS EXCEEDED!!!
REMARK  51 active torsions:
REMARK  status: ('A' for Active; 'I' for Inactive)
REMARK    1  A    between atoms: N_1  and  CA_2 
REMARK    2  A    between atoms: CA_2  and  C_3 
REMARK    3  A    between atoms: CA_2  and  CB_5 
REMARK       I    between atoms: C_3  and  N_6 
REMARK    4  A    between atoms: N_6  and  CA_7 
REMARK    5  A    between atoms: CA_7  and  C_8 
REMARK    6  A    between atoms: CA_7  and  CB_10 
REMARK       I    between atoms: C_8  and  N_17 
REMARK    7  A    between atoms: CB_10  and  CG_11 
REMARK    8  A    between atoms: CG_11  and  CD_12 
REMARK    9  A    between atoms: CD_12  and  NE_13 
REMARK       I    between atoms: NE_13  and  CZ_14 
REMARK       I    between atoms: CZ_14  and  NH1_15 
REMARK       I    between atoms: CZ_14  and  NH2_16 
REMARK   10  A    between atoms: N_17  and  CA_18 
REMARK   11  A    between atoms: CA_18  and  C_19 
REMARK   12  A    between atoms: CA_18  and  CB_21 
REMARK       I    between atoms: C_19  and  N_24 
REMARK   13  A    between atoms: CB_21  and  OG1_22 
REMARK   14  A    between atoms: CB_21  and  CG2_23 
REMARK   15  A    between atoms: N_24  and  CA_25 
REMARK   16  A    between atoms: CA_25  and  C_26 
REMARK   17  A    between atoms: CA_25  and  CB_28 
REMARK       I    between atoms: C_26  and  N_33 
REMARK   18  A    between atoms: CB_28  and  CG_29 
REMARK   19  A    between atoms: CG_29  and  CD_30 
REMARK   20  A    between atoms: CD_30  and  CE_31 
REMARK   21  A    between atoms: CE_31  and  NZ_32 
REMARK   22  A    between atoms: N_33  and  CA_34 
REMARK   23  A    between atoms: CA_34  and  C_35 
REMARK   24  A    between atoms: CA_34  and  CB_37 
REMARK       I    between atoms: C_35  and  N_42 
REMARK   25  A    between atoms: CB_37  and  CG_38 
REMARK   26  A    between atoms: CG_38  and  CD_39 
REMARK       I    between atoms: CD_39  and  NE2_41 
REMARK   27  A    between atoms: N_42  and  CA_43 
REMARK   28  A    between atoms: CA_43  and  C_44 
REMARK   29  A    between atoms: CA_43  and  CB_46 
REMARK       I    between atoms: C_44  and  N_49 
REMARK   30  A    between atoms: CB_46  and  OG1_47 
REMARK   31  A    between atoms: CB_46  and  CG2_48 
REMARK   32  A    between atoms: N_49  and  CA_50 
REMARK   33  A    between atoms: CA_50  and  C_51 
REMARK   34  A    between atoms: CA_50  and  CB_53 
REMARK       I    between atoms: C_51  and  N_54 
REMARK   35  A    between atoms: N_54  and  CA_55 
REMARK   36  A    between atoms: CA_55  and  C_56 
REMARK   37  A    between atoms: CA_55  and  CB_58 
REMARK       I    between atoms: C_56  and  N_65 
REMARK   38  A    between atoms: CB_58  and  CG_59 
REMARK   39  A    between atoms: CG_59  and  CD_60 
REMARK   40  A    between atoms: CD_60  and  NE_61 
REMARK       I    between atoms: NE_61  and  CZ_62 
REMARK       I    between atoms: CZ_62  and  NH1_63 
REMARK   41  A    between atoms: N_65  and  CA_66 
REMARK   42  A    between atoms: CA_66  and  C_67 
REMARK   43  A    between atoms: CA_66  and  CB_69 
REMARK       I    between atoms: C_67  and  N_74 
REMARK   44  A    between atoms: CB_69  and  CG_70 
REMARK   45  A    between atoms: CG_70  and  CD_71 
REMARK   46  A    between atoms: CD_71  and  CE_72 
REMARK   47  A    between atoms: CE_72  and  NZ_73 
REMARK   48  A    between atoms: N_74  and  CA_75 
REMARK   49  A    between atoms: CA_75  and  C_76 
REMARK   50  A    between atoms: CA_75  and  CB_78 
REMARK   51  A    between atoms: CB_78  and  OG_79 
ROOT
ATOM      1  CA  GLN d   1      12.746  97.745  10.169  0.00  0.00     0.090 C 
ATOM      2  H   GLN d   1      13.530  98.477  10.412  0.00  0.00     0.087 H 
ENDROOT
BRANCH   1   3
ATOM      3  N   GLN d   1      12.357  97.913   8.783  0.00  0.00    -0.346 N 
ATOM      4  C   LYS d   1      12.939  98.814   8.001  0.00  0.00     0.241 C 
ATOM      5  O   LYS d   1      13.803  99.605   8.402  0.00  0.00    -0.271 OA
ATOM      6  H   GLN d   1      11.632  97.336   8.406  0.00  0.00     0.163 HD
BRANCH   4   7
ATOM      7  CA  LYS d   1      12.445  98.836   6.555  0.00  0.00     0.089 C 
ATOM      8  H   LYS d   1      11.364  99.037   6.574  0.00  0.00     0.087 H 
BRANCH   7   9
ATOM      9  N   LYS d   1      13.077  99.892   5.774  0.00  0.00    -0.346 N 
ATOM     10  C   THR d   1      12.335 100.701   5.024  0.00  0.00     0.243 C 
ATOM     11  O   THR d   1      11.137 100.501   4.806  0.00  0.00    -0.271 OA
ATOM     12  H   LYS d   1      14.070 100.008   5.802  0.00  0.00     0.163 HD
BRANCH  10  13
ATOM     13  CA  THR d   1      13.038 101.905   4.422  0.00  0.00     0.113 C 
ATOM     14  H   THR d   1      14.124 101.737   4.460  0.00  0.00     0.091 H 
BRANCH  13  15
ATOM     15  N   THR d   1      12.653 102.102   3.029  0.00  0.00    -0.344 N 
ATOM     16  C   ARG d   1      13.528 102.397   2.072  0.00  0.00     0.241 C 
ATOM     17  O   ARG d   1      14.748 102.397   2.242  0.00  0.00    -0.271 OA
ATOM     18  H   THR d   1      11.688 102.011   2.783  0.00  0.00     0.163 HD
BRANCH  16  19
ATOM     19  CA  ARG d   1      12.918 102.729   0.716  0.00  0.00     0.089 C 
ATOM     20  H   ARG d   1      11.981 103.276   0.898  0.00  0.00     0.087 H 
BRANCH  19  21
ATOM     21  N   ARG d   1      13.773 103.578  -0.102  0.00  0.00    -0.346 N 
ATOM     22  C   ALA d   1      13.997 104.852   0.202  0.00  0.00     0.248 C 
ATOM     23  O   ALA d   1      13.535 105.402   1.199  0.00  0.00    -0.271 OA
ATOM     24  H   ARG d   1      14.204 103.191  -0.917  0.00  0.00     0.163 HD
BRANCH  22  25
ATOM     25  CA  ALA d   1      14.880 105.613  -0.763  0.00  0.00     0.172 C 
ATOM     26  H   ALA d   1      14.323 106.490  -1.126  0.00  0.00     0.098 H 
BRANCH  25  27
ATOM     27  N   ALA d   1      16.083 106.081  -0.092  0.00  0.00    -0.067 N 
ATOM     28  H   ALA d   1      16.659 106.585  -0.748  0.00  0.00     0.275 HD
ATOM     29  H   ALA d   1      16.596 105.291   0.268  0.00  0.00     0.275 HD
ATOM     30  H   ALA d   1      15.828 106.691   0.669  0.00  0.00     0.275 HD
ENDBRANCH  25  27
BRANCH  25  31
ATOM     31  CB  ALA d   1      15.235 104.732  -1.970  0.00  0.00    -0.042 C 
ATOM     32  H   ALA d   1      14.311 104.391  -2.460  0.00  0.00     0.030 H 
ATOM     33  H   ALA d   1      15.813 103.860  -1.630  0.00  0.00     0.030 H 
ATOM     34  H   ALA d   1      15.835 105.314  -2.685  0.00  0.00     0.030 H 
ENDBRANCH  25  31
ENDBRANCH  22  25
ENDBRANCH  19  21
BRANCH  19  35
ATOM     35  CB  ARG d   1      12.583 101.450  -0.037  0.00  0.00    -0.036 C 
ATOM     36  H   ARG d   1      12.034 100.779   0.640  0.00  0.00     0.036 H 
ATOM     37  H   ARG d   1      13.523 100.969  -0.347  0.00  0.00     0.036 H 
BRANCH  35  38
ATOM     38  CG  ARG d   1      11.734 101.692  -1.272  0.00  0.00    -0.048 C 
ATOM     39  H   ARG d   1      12.285 102.340  -1.969  0.00  0.00     0.035 H 
ATOM     40  H   ARG d   1      10.796 102.185  -0.976  0.00  0.00     0.035 H 
BRANCH  38  41
ATOM     41  CD  ARG d   1      11.412 100.378  -1.960  0.00  0.00     0.009 C 
ATOM     42  H   ARG d   1      12.333  99.968  -2.401  0.00  0.00     0.064 H 
ATOM     43  H   ARG d   1      10.674 100.560  -2.755  0.00  0.00     0.064 H 
BRANCH  41  44
ATOM     44  NE  ARG d   1      10.865  99.410  -1.014  0.00  0.00    -0.227 N 
ATOM     45  CZ  ARG d   1      10.884  98.094  -1.200  0.00  0.00     0.665 C 
ATOM     46  NH1 ARG d   1      11.433  97.588  -2.298  0.00  0.00    -0.235 N 
ATOM     47  NH2 ARG d   1      10.361  97.286  -0.286  0.00  0.00    -0.235 N 
ATOM     48  H   ARG d   1      11.448  96.568  -2.443  0.00  0.00     0.174 HD
ATOM     49  H   ARG d   1      11.844  98.215  -3.005  0.00  0.00     0.174 HD
ATOM     50  H   ARG d   1       9.935  97.679   0.566  0.00  0.00     0.174 HD
ATOM     51  H   ARG d   1      10.381  96.266  -0.428  0.00  0.00     0.174 HD
ATOM     52  H   ARG d   1      10.438  99.769  -0.148  0.00  0.00     0.177 HD
ENDBRANCH  41  44
ENDBRANCH  38  41
ENDBRANCH  35  38
ENDBRANCH  19  35
ENDBRANCH  16  19
ENDBRANCH  13  15
BRANCH  13  53
ATOM     53  CB  THR d   1      12.696 103.146   5.266  0.00  0.00     0.060 C 
ATOM     54  H   THR d   1      11.758 103.575   4.884  0.00  0.00     0.086 H 
BRANCH  53  55
ATOM     55  OG1 THR d   1      13.733 104.131   5.130  0.00  0.00    -0.393 OA
ATOM     56  H   THR d   1      13.515 104.893   5.653  0.00  0.00     0.210 HD
ENDBRANCH  53  55
BRANCH  53  57
ATOM     57  CG2 THR d   1      12.485 102.774   6.746  0.00  0.00    -0.050 C 
ATOM     58  H   THR d   1      12.243 103.680   7.321  0.00  0.00     0.031 H 
ATOM     59  H   THR d   1      13.405 102.322   7.145  0.00  0.00     0.031 H 
ATOM     60  H   THR d   1      11.657 102.055   6.829  0.00  0.00     0.031 H 
ENDBRANCH  53  57
ENDBRANCH  13  53
ENDBRANCH  10  13
ENDBRANCH   7   9
BRANCH   7  61
ATOM     61  CB  LYS d   1      12.662  97.470   5.895  0.00  0.00    -0.038 C 
ATOM     62  H   LYS d   1      12.480  97.580   4.816  0.00  0.00     0.036 H 
ATOM     63  H   LYS d   1      11.932  96.766   6.320  0.00  0.00     0.036 H 
BRANCH  61  64
ATOM     64  CG  LYS d   1      14.039  96.883   6.079  0.00  0.00    -0.061 C 
ATOM     65  H   LYS d   1      14.249  96.788   7.154  0.00  0.00     0.033 H 
ATOM     66  H   LYS d   1      14.780  97.552   5.618  0.00  0.00     0.033 H 
BRANCH  64  67
ATOM     67  CD  LYS d   1      14.134  95.513   5.430  0.00  0.00    -0.043 C 
ATOM     68  H   LYS d   1      13.835  95.596   4.375  0.00  0.00     0.035 H 
ATOM     69  H   LYS d   1      13.454  94.823   5.951  0.00  0.00     0.035 H 
BRANCH  67  70
ATOM     70  CE  LYS d   1      15.545  94.960   5.500  0.00  0.00     0.080 C 
ATOM     71  H   LYS d   1      15.860  94.909   6.553  0.00  0.00     0.075 H 
ATOM     72  H   LYS d   1      16.221  95.629   4.947  0.00  0.00     0.075 H 
BRANCH  70  73
ATOM     73  NZ  LYS d   1      15.615  93.596   4.905  0.00  0.00    -0.079 N 
ATOM     74  H   LYS d   1      16.561  93.252   4.964  0.00  0.00     0.274 HD
ATOM     75  H   LYS d   1      15.332  93.636   3.938  0.00  0.00     0.274 HD
ATOM     76  H   LYS d   1      15.000  92.977   5.410  0.00  0.00     0.274 HD
ENDBRANCH  70  73
ENDBRANCH  67  70
ENDBRANCH  64  67
ENDBRANCH  61  64
ENDBRANCH   7  61
ENDBRANCH   4   7
ENDBRANCH   1   3
BRANCH   1  77
ATOM     77  C   GLN d   1      13.308  96.339  10.355  0.00  0.00     0.241 C 
ATOM     78  O   GLN d   1      12.736  95.366   9.862  0.00  0.00    -0.271 OA
ATOM     79  N   THR d   1      14.417  96.242  11.085  0.00  0.00    -0.344 N 
ATOM     80  H   THR d   1      14.747  97.057  11.562  0.00  0.00     0.163 HD
BRANCH  79  81
ATOM     81  CA  THR d   1      15.177  94.997  11.223  0.00  0.00     0.113 C 
ATOM     82  H   THR d   1      15.248  94.537  10.226  0.00  0.00     0.091 H 
BRANCH  81  83
ATOM     83  C   THR d   1      14.542  93.987  12.168  0.00  0.00     0.243 C 
ATOM     84  O   THR d   1      13.786  94.355  13.069  0.00  0.00    -0.271 OA
ATOM     85  N   ALA d   1      14.884  92.715  11.982  0.00  0.00    -0.346 N 
ATOM     86  H   ALA d   1      15.491  92.478  11.223  0.00  0.00     0.163 HD
BRANCH  85  87
ATOM     87  CA  ALA d   1      14.393  91.653  12.863  0.00  0.00     0.086 C 
ATOM     88  H   ALA d   1      13.408  91.953  13.250  0.00  0.00     0.086 H 
BRANCH  87  89
ATOM     89  C   ALA d   1      15.334  91.457  14.047  0.00  0.00     0.240 C 
ATOM     90  O   ALA d   1      16.517  91.188  13.848  0.00  0.00    -0.271 OA
ATOM     91  N   ARG d   1      14.812  91.585  15.270  0.00  0.00    -0.346 N 
ATOM     92  H   ARG d   1      13.829  91.736  15.370  0.00  0.00     0.163 HD
BRANCH  91  93
ATOM     93  CA  ARG d   1      15.654  91.508  16.470  0.00  0.00     0.089 C 
ATOM     94  H   ARG d   1      16.419  92.296  16.410  0.00  0.00     0.087 H 
BRANCH  93  95
ATOM     95  C   ARG d   1      16.335  90.154  16.489  0.00  0.00     0.241 C 
ATOM     96  O   ARG d   1      15.811  89.183  15.930  0.00  0.00    -0.271 OA
ATOM     97  N   LYS d   1      17.502  90.093  17.124  0.00  0.00    -0.346 N 
ATOM     98  H   LYS d   1      17.770  90.840  17.733  0.00  0.00     0.163 HD
BRANCH  97  99
ATOM     99  CA  LYS d   1      18.397  88.956  16.948  0.00  0.00     0.089 C 
ATOM    100  H   LYS d   1      18.025  88.359  16.103  0.00  0.00     0.087 H 
BRANCH  99 101
ATOM    101  C   LYS d   1      18.464  88.038  18.171  0.00  0.00     0.241 C 
ATOM    102  O   LYS d   1      18.304  88.482  19.311  0.00  0.00    -0.271 OA
ATOM    103  N   SER d   1      18.736  86.761  17.913  0.00  0.00    -0.343 N 
ATOM    104  H   SER d   1      18.883  86.488  16.962  0.00  0.00     0.163 HD
BRANCH 103 105
ATOM    105  CA  SER d   1      18.830  85.738  18.954  0.00  0.00     0.116 C 
ATOM    106  H   SER d   1      17.873  85.715  19.496  0.00  0.00     0.093 H 
BRANCH 105 107
ATOM    107  C   SER d   1      19.941  86.029  19.967  0.00  0.00     0.198 C 
ATOM    108  O   SER d   1      19.718  86.676  20.990  0.00  0.00    -0.646 OA
ATOM    109  O1  SER d   1      21.105  85.598  19.749  0.00  0.00    -0.646 OA
ENDBRANCH 105 107
BRANCH 105 110
ATOM    110  CB  SER d   1      19.060  84.367  18.312  0.00  0.00     0.045 C 
ATOM    111  H   SER d   1      18.961  83.590  19.084  0.00  0.00     0.077 H 
ATOM    112  H   SER d   1      20.075  84.337  17.890  0.00  0.00     0.077 H 
BRANCH 110 113
ATOM    113  OG  SER d   1      18.121  84.109  17.275  0.00  0.00    -0.398 OA
ATOM    114  H   SER d   1      18.292  83.253  16.900  0.00  0.00     0.209 HD
ENDBRANCH 110 113
ENDBRANCH 105 110
ENDBRANCH 103 105
ENDBRANCH  99 101
BRANCH  99 115
ATOM    115  CB  LYS d   1      19.793  89.482  16.598  0.00  0.00    -0.038 C 
ATOM    116  H   LYS d   1      20.298  88.741  15.960  0.00  0.00     0.036 H 
ATOM    117  H   LYS d   1      20.363  89.613  17.530  0.00  0.00     0.036 H 
BRANCH 115 118
ATOM    118  CG  LYS d   1      19.754  90.822  15.855  0.00  0.00    -0.061 C 
ATOM    119  H   LYS d   1      19.016  91.472  16.348  0.00  0.00     0.033 H 
ATOM    120  H   LYS d   1      19.442  90.635  14.817  0.00  0.00     0.033 H 
BRANCH 118 121
ATOM    121  CD  LYS d   1      21.099  91.548  15.832  0.00  0.00    -0.043 C 
ATOM    122  H   LYS d   1      21.520  91.538  16.848  0.00  0.00     0.035 H 
ATOM    123  H   LYS d   1      20.930  92.588  15.515  0.00  0.00     0.035 H 
BRANCH 121 124
ATOM    124  CE  LYS d   1      22.105  90.910  14.884  0.00  0.00     0.080 C 
ATOM    125  H   LYS d   1      21.607  90.701  13.926  0.00  0.00     0.075 H 
ATOM    126  H   LYS d   1      22.460  89.967  15.326  0.00  0.00     0.075 H 
BRANCH 124 127
ATOM    127  NZ  LYS d   1      23.287  91.803  14.631  0.00  0.00    -0.079 N 
ATOM    128  H   LYS d   1      23.926  91.344  14.001  0.00  0.00     0.274 HD
ATOM    129  H   LYS d   1      23.755  91.996  15.503  0.00  0.00     0.274 HD
ATOM    130  H   LYS d   1      22.973  92.668  14.220  0.00  0.00     0.274 HD
ENDBRANCH 124 127
ENDBRANCH 121 124
ENDBRANCH 118 121
ENDBRANCH 115 118
ENDBRANCH  99 115
ENDBRANCH  97  99
ENDBRANCH  93  95
BRANCH  93 131
ATOM    131  CB  ARG d   1      14.861  91.706  17.769  0.00  0.00    -0.036 C 
ATOM    132  H   ARG d   1      14.221  92.592  17.648  0.00  0.00     0.036 H 
ATOM    133  H   ARG d   1      15.578  91.880  18.585  0.00  0.00     0.036 H 
BRANCH 131 134
ATOM    134  CG  ARG d   1      13.975  90.532  18.160  0.00  0.00    -0.048 C 
ATOM    135  H   ARG d   1      14.578  89.612  18.159  0.00  0.00     0.035 H 
ATOM    136  H   ARG d   1      13.160  90.438  17.427  0.00  0.00     0.035 H 
BRANCH 134 137
ATOM    137  CD  ARG d   1      13.376  90.730  19.544  0.00  0.00     0.009 C 
ATOM    138  H   ARG d   1      14.183  90.993  20.243  0.00  0.00     0.064 H 
ATOM    139  H   ARG d   1      12.906  89.788  19.863  0.00  0.00     0.064 H 
BRANCH 137 140
ATOM    140  NE  ARG d   1      12.370  91.787  19.573  0.00  0.00    -0.227 N 
ATOM    141  CZ  ARG d   1      11.745  92.196  20.673  0.00  0.00     0.665 C 
ATOM    142  NH1 ARG d   1      12.028  91.642  21.846  0.00  0.00    -0.235 N 
ATOM    143  NH2 ARG d   1      10.837  93.163  20.602  0.00  0.00    -0.235 N 
ATOM    144  H   ARG d   1      11.542  91.961  22.697  0.00  0.00     0.174 HD
ATOM    145  H   ARG d   1      12.733  90.894  21.905  0.00  0.00     0.174 HD
ATOM    146  H   ARG d   1      10.615  93.595  19.694  0.00  0.00     0.174 HD
ATOM    147  H   ARG d   1      10.355  93.481  21.455  0.00  0.00     0.174 HD
ATOM    148  H   ARG d   1      12.128  92.246  18.683  0.00  0.00     0.177 HD
ENDBRANCH 137 140
ENDBRANCH 134 137
ENDBRANCH 131 134
ENDBRANCH  93 131
ENDBRANCH  91  93
ENDBRANCH  87  89
BRANCH  87 149
ATOM    149  CB  ALA d   1      14.229  90.349  12.094  0.00  0.00    -0.049 C 
ATOM    150  H   ALA d   1      13.860  89.567  12.774  0.00  0.00     0.030 H 
ATOM    151  H   ALA d   1      15.200  90.044  11.677  0.00  0.00     0.030 H 
ATOM    152  H   ALA d   1      13.508  90.494  11.276  0.00  0.00     0.030 H 
ENDBRANCH  87 149
ENDBRANCH  85  87
ENDBRANCH  81  83
BRANCH  81 153
ATOM    153  CB  THR d   1      16.588  95.289  11.735  0.00  0.00     0.060 C 
ATOM    154  H   THR d   1      17.106  94.342  11.944  0.00  0.00     0.086 H 
BRANCH 153 155
ATOM    155  OG1 THR d   1      16.487  96.065  12.935  0.00  0.00    -0.393 OA
ATOM    156  H   THR d   1      17.358  96.253  13.263  0.00  0.00     0.210 HD
ENDBRANCH 153 155
BRANCH 153 157
ATOM    157  CG2 THR d   1      17.379  96.084  10.702  0.00  0.00    -0.050 C 
ATOM    158  H   THR d   1      18.389  96.284  11.088  0.00  0.00     0.031 H 
ATOM    159  H   THR d   1      16.868  97.037  10.503  0.00  0.00     0.031 H 
ATOM    160  H   THR d   1      17.451  95.505   9.770  0.00  0.00     0.031 H 
ENDBRANCH 153 157
ENDBRANCH  81 153
ENDBRANCH  79  81
ENDBRANCH   1  77
BRANCH   1 161
ATOM    161  CB  GLN d   1      11.553  97.986  11.092  0.00  0.00    -0.030 C 
ATOM    162  H   GLN d   1      11.129  97.009  11.368  0.00  0.00     0.037 H 
ATOM    163  H   GLN d   1      10.802  98.569  10.539  0.00  0.00     0.037 H 
BRANCH 161 164
ATOM    164  CG  GLN d   1      11.892  98.740  12.376  0.00  0.00     0.011 C 
ATOM    165  H   GLN d   1      12.837  98.344  12.775  0.00  0.00     0.047 H 
ATOM    166  H   GLN d   1      11.086  98.570  13.105  0.00  0.00     0.047 H 
BRANCH 164 167
ATOM    167  CD  GLN d   1      12.046 100.243  12.165  0.00  0.00     0.215 C 
ATOM    168  OE1 GLN d   1      12.005 100.731  11.035  0.00  0.00    -0.274 OA
ATOM    169  NE2 GLN d   1      12.212 100.985  13.262  0.00  0.00    -0.370 N 
ATOM    170  H   GLN d   1      12.318 101.976  13.184  0.00  0.00     0.159 HD
ATOM    171  H   GLN d   1      12.230 100.550  14.162  0.00  0.00     0.159 HD
ENDBRANCH 164 167
ENDBRANCH 161 164
ENDBRANCH   1 161
TORSDOF 51
