REMARK  18 active torsions:
REMARK  status: ('A' for Active; 'I' for Inactive)
REMARK    1  A    between atoms: C1_1  and  S1_2 
REMARK    2  A    between atoms: C1_1  and  C2_3 
REMARK    3  A    between atoms: S1_2  and  PA_17 
REMARK    4  A    between atoms: C2_3  and  C3_4 
REMARK    5  A    between atoms: C3_4  and  C4_5 
REMARK    6  A    between atoms: C3_4  and  C5_6 
REMARK    7  A    between atoms: C5_6  and  C6_7 
REMARK    8  A    between atoms: C6_7  and  C7_8 
REMARK    9  A    between atoms: C7_8  and  C8_9 
REMARK   10  A    between atoms: C8_9  and  C10_10 
REMARK   11  A    between atoms: C8_9  and  C9_11 
REMARK   12  A    between atoms: C10_10  and  C11_12 
REMARK   13  A    between atoms: C11_12  and  C12_13 
REMARK   14  A    between atoms: C12_13  and  C13_14 
REMARK   15  A    between atoms: C13_14  and  C14_15 
REMARK   16  A    between atoms: C13_14  and  C15_16 
REMARK   17  A    between atoms: PA_17  and  O3A_20 
REMARK   18  A    between atoms: O3A_20  and  PB_21 
ROOT
ATOM      1  C7  FPS d   1      26.995   0.410   8.660  0.00  0.00    -0.062 C 
ATOM      2  H11 FPS d   1      27.920   0.760   9.142  0.00  0.00     0.033 H 
ATOM      3  H12 FPS d   1      26.805   1.005   7.755  0.00  0.00     0.033 H 
ENDROOT
BRANCH   1   4
ATOM      4  C6  FPS d   1      25.820   0.646   9.646  0.00  0.00    -0.061 C 
ATOM      5  H9  FPS d   1      25.456  -0.293  10.088  0.00  0.00     0.033 H 
ATOM      6  H10 FPS d   1      26.088   1.349  10.448  0.00  0.00     0.033 H 
BRANCH   4   7
ATOM      7  C5  FPS d   1      24.847   1.228   8.700  0.00  0.00    -0.045 C 
ATOM      8  H7  FPS d   1      25.369   1.871   7.976  0.00  0.00     0.039 H 
ATOM      9  H8  FPS d   1      24.322   0.424   8.164  0.00  0.00     0.039 H 
BRANCH   7  10
ATOM     10  C3  FPS d   1      23.862   2.043   9.488  0.00  0.00    -0.087 C 
BRANCH  10  11
ATOM     11  C2  FPS d   1      22.529   1.518   9.233  0.00  0.00    -0.092 C 
ATOM     12  H3  FPS d   1      22.385   0.663   8.574  0.00  0.00     0.078 H 
BRANCH  11  13
ATOM     13  C1  FPS d   1      21.411   2.148   9.865  0.00  0.00     0.003 C 
ATOM     14  H1  FPS d   1      21.707   2.762  10.728  0.00  0.00     0.055 H 
ATOM     15  H2  FPS d   1      20.821   2.758   9.165  0.00  0.00     0.055 H 
BRANCH  13  16
ATOM     16  S1  FPS d   1      20.541   0.613  10.362  0.00  0.00    -0.038 SA
BRANCH  16  17
ATOM     17  PA  FPS d   1      19.845   1.321  12.116  0.00  0.00     0.326 P 
ATOM     18  O1A FPS d   1      19.301   2.793  12.043  0.00  0.00    -0.638 OA
ATOM     19  O2A FPS d   1      20.926   1.194  13.187  0.00  0.00    -0.638 OA
BRANCH  17  20
ATOM     20  O3A FPS d   1      18.616   0.363  12.432  0.00  0.00    -0.188 OA
BRANCH  20  21
ATOM     21  PB  FPS d   1      17.194   0.585  13.085  0.00  0.00     0.430 P 
ATOM     22  O1B FPS d   1      17.502   0.849  14.586  0.00  0.00    -0.616 OA
ATOM     23  O2B FPS d   1      16.610   1.945  12.472  0.00  0.00    -0.616 OA
ATOM     24  O3B FPS d   1      16.342  -0.568  12.759  0.00  0.00    -0.616 OA
ENDBRANCH  20  21
ENDBRANCH  17  20
ENDBRANCH  16  17
ENDBRANCH  13  16
ENDBRANCH  11  13
ENDBRANCH  10  11
BRANCH  10  25
ATOM     25  C4  FPS d   1      24.137   3.330  10.387  0.00  0.00    -0.055 C 
ATOM     26  H4  FPS d   1      25.219   3.525  10.428  0.00  0.00     0.033 H 
ATOM     27  H5  FPS d   1      23.758   3.155  11.405  0.00  0.00     0.033 H 
ATOM     28  H6  FPS d   1      23.624   4.199   9.949  0.00  0.00     0.033 H 
ENDBRANCH  10  25
ENDBRANCH   7  10
ENDBRANCH   4   7
ENDBRANCH   1   4
BRANCH   1  29
ATOM     29  C8  FPS d   1      27.203  -1.033   8.238  0.00  0.00    -0.058 C 
ATOM     30  H13 FPS d   1      27.887  -1.208   9.081  0.00  0.00     0.039 H 
BRANCH  29  31
ATOM     31  C10 FPS d   1      28.240  -1.381   7.264  0.00  0.00    -0.062 C 
ATOM     32  H14 FPS d   1      27.912  -1.045   6.269  0.00  0.00     0.033 H 
ATOM     33  H15 FPS d   1      28.363  -2.474   7.260  0.00  0.00     0.033 H 
BRANCH  31  34
ATOM     34  C11 FPS d   1      29.585  -0.746   7.569  0.00  0.00    -0.064 C 
ATOM     35  H19 FPS d   1      29.824  -0.816   8.640  0.00  0.00     0.033 H 
ATOM     36  H20 FPS d   1      29.608   0.308   7.256  0.00  0.00     0.033 H 
BRANCH  34  37
ATOM     37  C12 FPS d   1      30.524  -1.575   6.749  0.00  0.00    -0.062 C 
ATOM     38  H21 FPS d   1      29.959  -2.425   6.340  0.00  0.00     0.033 H 
ATOM     39  H22 FPS d   1      31.317  -1.948   7.413  0.00  0.00     0.033 H 
BRANCH  37  40
ATOM     40  C13 FPS d   1      31.178  -0.856   5.601  0.00  0.00    -0.061 C 
ATOM     41  H23 FPS d   1      32.005  -0.480   6.221  0.00  0.00     0.038 H 
BRANCH  40  42
ATOM     42  C14 FPS d   1      32.083  -1.617   4.672  0.00  0.00    -0.073 C 
ATOM     43  H24 FPS d   1      32.469  -0.937   3.898  0.00  0.00     0.028 H 
ATOM     44  H25 FPS d   1      31.518  -2.432   4.196  0.00  0.00     0.028 H 
ATOM     45  H26 FPS d   1      32.924  -2.038   5.243  0.00  0.00     0.028 H 
ENDBRANCH  40  42
BRANCH  40  46
ATOM     46  C15 FPS d   1      30.732   0.518   5.196  0.00  0.00    -0.073 C 
ATOM     47  H27 FPS d   1      30.080   0.937   5.977  0.00  0.00     0.028 H 
ATOM     48  H28 FPS d   1      30.177   0.459   4.248  0.00  0.00     0.028 H 
ATOM     49  H29 FPS d   1      31.612   1.166   5.066  0.00  0.00     0.028 H 
ENDBRANCH  40  46
ENDBRANCH  37  40
ENDBRANCH  34  37
ENDBRANCH  31  34
ENDBRANCH  29  31
BRANCH  29  50
ATOM     50  C9  FPS d   1      26.258  -2.129   8.716  0.00  0.00    -0.073 C 
ATOM     51  H16 FPS d   1      25.544  -1.708   9.439  0.00  0.00     0.028 H 
ATOM     52  H17 FPS d   1      26.839  -2.929   9.198  0.00  0.00     0.028 H 
ATOM     53  H18 FPS d   1      25.709  -2.541   7.856  0.00  0.00     0.028 H 
ENDBRANCH  29  50
ENDBRANCH   1  29
TORSDOF 18
