REMARK WARNING: 32 MAX_TORS EXCEEDED!!!
REMARK  41 active torsions:
REMARK  status: ('A' for Active; 'I' for Inactive)
REMARK    1  A    between atoms: N_1  and  CA_2 
REMARK    2  A    between atoms: CA_2  and  C_3 
REMARK    3  A    between atoms: CA_2  and  CB_5 
REMARK       I    between atoms: C_3  and  N_12 
REMARK    4  A    between atoms: CB_5  and  CG_6 
REMARK    5  A    between atoms: N_12  and  CA_13 
REMARK    6  A    between atoms: CA_13  and  C_14 
REMARK    7  A    between atoms: CA_13  and  CB_16 
REMARK       I    between atoms: C_14  and  N_20 
REMARK    8  A    between atoms: CB_16  and  CG_17 
REMARK       I    between atoms: CG_17  and  ND2_19 
REMARK    9  A    between atoms: N_20  and  CA_21 
REMARK   10  A    between atoms: CA_21  and  C_22 
REMARK   11  A    between atoms: CA_21  and  CB_24 
REMARK       I    between atoms: C_22  and  N_28 
REMARK   12  A    between atoms: CB_24  and  CG1_25 
REMARK   13  A    between atoms: CB_24  and  CG2_26 
REMARK   14  A    between atoms: CG1_25  and  CD1_27 
REMARK   15  A    between atoms: N_28  and  CA_29 
REMARK   16  A    between atoms: CA_29  and  C_30 
REMARK   17  A    between atoms: CA_29  and  CB_32 
REMARK       I    between atoms: C_30  and  N_35 
REMARK   18  A    between atoms: CB_32  and  CG1_33 
REMARK   19  A    between atoms: CB_32  and  CG2_34 
REMARK   20  A    between atoms: N_35  and  CA_36 
REMARK   21  A    between atoms: CA_36  and  C_37 
REMARK       I    between atoms: C_37  and  N_39 
REMARK   22  A    between atoms: N_39  and  CA_40 
REMARK   23  A    between atoms: CA_40  and  C_41 
REMARK   24  A    between atoms: CA_40  and  CB_43 
REMARK       I    between atoms: C_41  and  N_46 
REMARK   25  A    between atoms: CB_43  and  OG1_44 
REMARK   26  A    between atoms: CB_43  and  CG2_45 
REMARK   27  A    between atoms: N_46  and  CA_47 
REMARK   28  A    between atoms: CA_47  and  C_48 
REMARK   29  A    between atoms: CA_47  and  CB_50 
REMARK       I    between atoms: C_48  and  N_53 
REMARK   30  A    between atoms: CB_50  and  OG1_51 
REMARK   31  A    between atoms: CB_50  and  CG2_52 
REMARK   32  A    between atoms: N_53  and  CA_54 
REMARK   33  A    between atoms: CA_54  and  C_55 
REMARK   34  A    between atoms: CA_54  and  CB_57 
REMARK       I    between atoms: C_55  and  N_65 
REMARK   35  A    between atoms: CB_57  and  CG_58 
REMARK   36  A    between atoms: CZ_63  and  OH_64 
REMARK   37  A    between atoms: CA_66  and  C_67 
REMARK       I    between atoms: C_67  and  N_72 
REMARK   38  A    between atoms: N_72  and  CA_73 
REMARK   39  A    between atoms: CA_73  and  C_74 
REMARK   40  A    between atoms: CA_73  and  CB_76 
REMARK   41  A    between atoms: CB_76  and  SG_77 
ROOT
ATOM      1  C   GLY d   1      11.647 110.321 102.585  0.00  0.00     0.236 C 
ATOM      2  O   GLY d   1      12.494 109.980 101.749  0.00  0.00    -0.272 OA
ATOM      3  N   THR d   1      11.122 109.513 103.504  0.00  0.00    -0.344 N 
ATOM      4  H   THR d   1      10.440 109.888 104.132  0.00  0.00     0.163 HD
ENDROOT
BRANCH   1   5
ATOM      5  CA  GLY d   1      11.123 111.760 102.612  0.00  0.00     0.069 C 
ATOM      6  H   GLY d   1      10.273 111.824 101.917  0.00  0.00     0.078 H 
ATOM      7  H   GLY d   1      10.778 111.976 103.634  0.00  0.00     0.078 H 
BRANCH   5   8
ATOM      8  N   GLY d   1      12.086 112.782 102.238  0.00  0.00    -0.351 N 
ATOM      9  C   VAL d   1      13.259 112.943 102.850  0.00  0.00     0.241 C 
ATOM     10  O   VAL d   1      13.592 112.273 103.779  0.00  0.00    -0.271 OA
ATOM     11  H   GLY d   1      11.857 113.396 101.483  0.00  0.00     0.163 HD
BRANCH   9  12
ATOM     12  CA  VAL d   1      14.190 114.039 102.327  0.00  0.00     0.092 C 
ATOM     13  H   VAL d   1      13.632 114.667 101.617  0.00  0.00     0.088 H 
BRANCH  12  14
ATOM     14  N   VAL d   1      14.640 114.870 103.429  0.00  0.00    -0.346 N 
ATOM     15  C   ILE d   1      14.008 115.975 103.782  0.00  0.00     0.241 C 
ATOM     16  O   ILE d   1      13.080 116.437 103.132  0.00  0.00    -0.271 OA
ATOM     17  H   VAL d   1      15.456 114.597 103.938  0.00  0.00     0.163 HD
BRANCH  15  18
ATOM     18  CA  ILE d   1      14.509 116.676 105.057  0.00  0.00     0.092 C 
ATOM     19  H   ILE d   1      13.628 116.990 105.636  0.00  0.00     0.088 H 
BRANCH  18  20
ATOM     20  N   ILE d   1      15.288 115.800 105.886  0.00  0.00    -0.346 N 
ATOM     21  C   ASN d   1      14.734 114.962 106.742  0.00  0.00     0.241 C 
ATOM     22  O   ASN d   1      13.515 114.812 106.873  0.00  0.00    -0.271 OA
ATOM     23  H   ILE d   1      16.285 115.826 105.812  0.00  0.00     0.163 HD
BRANCH  21  24
ATOM     24  CA  ASN d   1      15.705 114.099 107.551  0.00  0.00     0.097 C 
ATOM     25  H   ASN d   1      16.667 114.626 107.632  0.00  0.00     0.088 H 
BRANCH  24  26
ATOM     26  N   ASN d   1      15.172 113.886 108.881  0.00  0.00    -0.346 N 
ATOM     27  C   PHE d   1      15.967 113.711 109.913  0.00  0.00     0.249 C 
ATOM     28  O   PHE d   1      17.114 113.351 109.795  0.00  0.00    -0.271 OA
ATOM     29  H   ASN d   1      14.181 113.872 109.016  0.00  0.00     0.163 HD
BRANCH  27  30
ATOM     30  CA  PHE d   1      15.342 113.887 111.283  0.00  0.00     0.179 C 
ATOM     31  H   PHE d   1      14.248 113.796 111.209  0.00  0.00     0.099 H 
BRANCH  30  32
ATOM     32  N   PHE d   1      15.852 112.849 112.174  0.00  0.00    -0.066 N 
ATOM     33  H   PHE d   1      15.441 112.959 113.088  0.00  0.00     0.275 HD
ATOM     34  H   PHE d   1      16.854 112.929 112.245  0.00  0.00     0.275 HD
ATOM     35  H   PHE d   1      15.613 111.942 111.805  0.00  0.00     0.275 HD
ENDBRANCH  30  32
BRANCH  30  36
ATOM     36  CB  PHE d   1      15.702 115.284 111.798  0.00  0.00    -0.006 C 
ATOM     37  H   PHE d   1      16.796 115.350 111.897  0.00  0.00     0.043 H 
ATOM     38  H   PHE d   1      15.236 115.424 112.784  0.00  0.00     0.043 H 
BRANCH  36  39
ATOM     39  CG  PHE d   1      15.235 116.391 110.884  0.00  0.00    -0.056 A 
ATOM     40  CD1 PHE d   1      13.945 116.892 110.994  0.00  0.00    -0.077 A 
ATOM     41  CE1 PHE d   1      13.489 117.886 110.125  0.00  0.00    -0.082 A 
ATOM     42  H   PHE d   1      13.284 116.508 111.763  0.00  0.00     0.084 H 
ATOM     43  CZ  PHE d   1      14.333 118.378 109.133  0.00  0.00    -0.083 A 
ATOM     44  H   PHE d   1      12.481 118.273 110.223  0.00  0.00     0.083 H 
ATOM     45  CE2 PHE d   1      15.625 117.880 109.001  0.00  0.00    -0.082 A 
ATOM     46  H   PHE d   1      13.982 119.152 108.461  0.00  0.00     0.083 H 
ATOM     47  CD2 PHE d   1      16.070 116.887 109.864  0.00  0.00    -0.077 A 
ATOM     48  H   PHE d   1      16.281 118.265 108.229  0.00  0.00     0.083 H 
ATOM     49  H   PHE d   1      17.072 116.489 109.751  0.00  0.00     0.084 H 
ENDBRANCH  36  39
ENDBRANCH  30  36
ENDBRANCH  27  30
ENDBRANCH  24  26
BRANCH  24  50
ATOM     50  CB  ASN d   1      15.935 112.760 106.857  0.00  0.00     0.036 C 
ATOM     51  H   ASN d   1      15.007 112.468 106.344  0.00  0.00     0.051 H 
ATOM     52  H   ASN d   1      16.184 112.008 107.621  0.00  0.00     0.051 H 
BRANCH  50  53
ATOM     53  CG  ASN d   1      17.069 112.803 105.827  0.00  0.00     0.217 C 
ATOM     54  OD1 ASN d   1      17.956 111.923 105.820  0.00  0.00    -0.274 OA
ATOM     55  ND2 ASN d   1      17.036 113.794 104.941  0.00  0.00    -0.370 N 
ATOM     56  H   ASN d   1      17.752 113.868 104.247  0.00  0.00     0.159 HD
ATOM     57  H   ASN d   1      16.295 114.465 104.969  0.00  0.00     0.159 HD
ENDBRANCH  50  53
ENDBRANCH  24  50
ENDBRANCH  21  24
ENDBRANCH  18  20
BRANCH  18  58
ATOM     58  CB  ILE d   1      15.308 117.921 104.699  0.00  0.00    -0.030 C 
ATOM     59  H   ILE d   1      15.740 118.342 105.619  0.00  0.00     0.043 H 
BRANCH  58  60
ATOM     60  CG1 ILE d   1      14.372 118.962 104.067  0.00  0.00    -0.063 C 
ATOM     61  H   ILE d   1      13.888 118.507 103.190  0.00  0.00     0.033 H 
ATOM     62  H   ILE d   1      14.976 119.823 103.747  0.00  0.00     0.033 H 
BRANCH  60  63
ATOM     63  CD1 ILE d   1      13.294 119.457 105.004  0.00  0.00    -0.076 C 
ATOM     64  H   ILE d   1      12.667 120.196 104.484  0.00  0.00     0.027 H 
ATOM     65  H   ILE d   1      13.759 119.926 105.883  0.00  0.00     0.027 H 
ATOM     66  H   ILE d   1      12.671 118.610 105.327  0.00  0.00     0.027 H 
ENDBRANCH  60  63
ENDBRANCH  58  60
BRANCH  58  67
ATOM     67  CG2 ILE d   1      16.434 117.582 103.749  0.00  0.00    -0.071 C 
ATOM     68  H   ILE d   1      17.095 116.836 104.215  0.00  0.00     0.028 H 
ATOM     69  H   ILE d   1      17.009 118.492 103.523  0.00  0.00     0.028 H 
ATOM     70  H   ILE d   1      16.017 117.171 102.818  0.00  0.00     0.028 H 
ENDBRANCH  58  67
ENDBRANCH  18  58
ENDBRANCH  15  18
ENDBRANCH  12  14
BRANCH  12  71
ATOM     71  CB  VAL d   1      15.380 113.424 101.600  0.00  0.00    -0.033 C 
ATOM     72  H   VAL d   1      16.037 112.955 102.347  0.00  0.00     0.042 H 
BRANCH  71  73
ATOM     73  CG1 VAL d   1      14.923 112.355 100.639  0.00  0.00    -0.071 C 
ATOM     74  H   VAL d   1      15.796 111.925 100.126  0.00  0.00     0.028 H 
ATOM     75  H   VAL d   1      14.242 112.796  99.896  0.00  0.00     0.028 H 
ATOM     76  H   VAL d   1      14.398 111.564 101.194  0.00  0.00     0.028 H 
ENDBRANCH  71  73
BRANCH  71  77
ATOM     77  CG2 VAL d   1      16.170 114.500 100.884  0.00  0.00    -0.071 C 
ATOM     78  H   VAL d   1      16.489 115.264 101.608  0.00  0.00     0.028 H 
ATOM     79  H   VAL d   1      15.539 114.967 100.113  0.00  0.00     0.028 H 
ATOM     80  H   VAL d   1      17.056 114.051 100.410  0.00  0.00     0.028 H 
ENDBRANCH  71  77
ENDBRANCH  12  71
ENDBRANCH   9  12
ENDBRANCH   5   8
ENDBRANCH   1   5
BRANCH   3  81
ATOM     81  CA  THR d   1      11.490 108.115 103.639  0.00  0.00     0.113 C 
ATOM     82  H   THR d   1      12.333 107.911 102.963  0.00  0.00     0.091 H 
BRANCH  81  83
ATOM     83  C   THR d   1      10.333 107.137 103.326  0.00  0.00     0.243 C 
ATOM     84  O   THR d   1       9.135 107.495 103.289  0.00  0.00    -0.271 OA
ATOM     85  N   THR d   1      10.675 105.863 103.191  0.00  0.00    -0.344 N 
ATOM     86  H   THR d   1      11.633 105.608 103.063  0.00  0.00     0.163 HD
BRANCH  85  87
ATOM     87  CA  THR d   1       9.642 104.839 103.231  0.00  0.00     0.113 C 
ATOM     88  H   THR d   1       8.681 105.294 102.949  0.00  0.00     0.091 H 
BRANCH  87  89
ATOM     89  C   THR d   1       9.566 104.346 104.656  0.00  0.00     0.243 C 
ATOM     90  O   THR d   1      10.460 104.566 105.456  0.00  0.00    -0.271 OA
ATOM     91  N   TYR d   1       8.442 103.761 105.015  0.00  0.00    -0.346 N 
ATOM     92  H   TYR d   1       7.710 103.638 104.345  0.00  0.00     0.163 HD
BRANCH  91  93
ATOM     93  CA  TYR d   1       8.257 103.290 106.385  0.00  0.00     0.093 C 
ATOM     94  H   TYR d   1       8.821 103.923 107.086  0.00  0.00     0.088 H 
BRANCH  93  95
ATOM     95  C   TYR d   1       8.736 101.837 106.506  0.00  0.00     0.243 C 
ATOM     96  O   TYR d   1       8.399 101.067 105.633  0.00  0.00    -0.271 OA
ATOM     97  N   PRO d   1       9.537 101.498 107.550  0.00  0.00    -0.337 N 
ATOM     98  CA  PRO d   1      10.048 100.130 107.811  0.00  0.00     0.091 C 
ATOM     99  CD  PRO d   1      10.122 102.454 108.498  0.00  0.00    -0.001 C 
ATOM    100  CB  PRO d   1      11.186 100.346 108.827  0.00  0.00    -0.036 C 
ATOM    101  H   PRO d   1      10.422  99.684 106.878  0.00  0.00     0.087 H 
ATOM    102  CG  PRO d   1      11.430 101.806 108.862  0.00  0.00    -0.048 C 
ATOM    103  H   PRO d   1      12.093  99.815 108.504  0.00  0.00     0.036 H 
ATOM    104  H   PRO d   1      10.884  99.985 109.821  0.00  0.00     0.036 H 
ATOM    105  H   PRO d   1      12.208 102.081 108.135  0.00  0.00     0.035 H 
ATOM    106  H   PRO d   1      11.743 102.117 109.870  0.00  0.00     0.035 H 
ATOM    107  H   PRO d   1       9.481 102.576 109.383  0.00  0.00     0.064 H 
ATOM    108  H   PRO d   1      10.284 103.433 108.024  0.00  0.00     0.064 H 
BRANCH  98 109
ATOM    109  C   PRO d   1       9.028  99.185 108.450  0.00  0.00     0.241 C 
ATOM    110  O   PRO d   1       9.301  98.023 108.521  0.00  0.00    -0.271 OA
ATOM    111  N   CYS d   1       7.879  99.681 108.909  0.00  0.00    -0.344 N 
ATOM    112  H   CYS d   1       7.603 100.608 108.655  0.00  0.00     0.163 HD
BRANCH 111 113
ATOM    113  CA  CYS d   1       7.027  98.892 109.771  0.00  0.00     0.104 C 
ATOM    114  H   CYS d   1       7.475  97.890 109.834  0.00  0.00     0.090 H 
BRANCH 113 115
ATOM    115  C   CYS d   1       5.612  98.717 109.239  0.00  0.00     0.197 C 
ATOM    116  O   CYS d   1       4.793  98.253 110.031  0.00  0.00    -0.646 OA
ATOM    117  OXT CYS d   1       5.288  98.972 108.054  0.00  0.00    -0.646 OA
ENDBRANCH 113 115
BRANCH 113 118
ATOM    118  CB  CYS d   1       6.988  99.475 111.191  0.00  0.00     0.003 C 
ATOM    119  H   CYS d   1       6.323  98.850 111.805  0.00  0.00     0.052 H 
ATOM    120  H   CYS d   1       6.583 100.496 111.136  0.00  0.00     0.052 H 
BRANCH 118 121
ATOM    121  SG  CYS d   1       8.614  99.545 111.996  0.00  0.00    -0.180 SA
ATOM    122  H   CYS d   1       8.514  99.936 112.920  0.00  0.00     0.101 HD
ENDBRANCH 118 121
ENDBRANCH 113 118
ENDBRANCH 111 113
ENDBRANCH  98 109
ENDBRANCH  93  95
BRANCH  93 123
ATOM    123  CB  TYR d   1       6.790 103.379 106.672  0.00  0.00    -0.014 C 
ATOM    124  H   TYR d   1       6.290 102.618 106.056  0.00  0.00     0.043 H 
ATOM    125  H   TYR d   1       6.456 104.380 106.361  0.00  0.00     0.043 H 
BRANCH 123 126
ATOM    126  CG  TYR d   1       6.326 103.173 108.116  0.00  0.00    -0.056 A 
ATOM    127  CD1 TYR d   1       6.874 103.887 109.148  0.00  0.00    -0.074 A 
ATOM    128  CE1 TYR d   1       6.432 103.712 110.422  0.00  0.00    -0.051 A 
ATOM    129  H   TYR d   1       7.667 104.598 108.948  0.00  0.00     0.084 H 
ATOM    130  CZ  TYR d   1       5.416 102.828 110.681  0.00  0.00     0.065 A 
ATOM    131  H   TYR d   1       6.883 104.272 111.234  0.00  0.00     0.087 H 
ATOM    132  CE2 TYR d   1       4.860 102.064 109.688  0.00  0.00    -0.051 A 
ATOM    133  CD2 TYR d   1       5.300 102.260 108.406  0.00  0.00    -0.074 A 
ATOM    134  H   TYR d   1       4.096 101.328 109.910  0.00  0.00     0.087 H 
ATOM    135  H   TYR d   1       4.846 101.698 107.598  0.00  0.00     0.084 H 
BRANCH 130 136
ATOM    136  OH  TYR d   1       4.995 102.650 111.973  0.00  0.00    -0.361 OA
ATOM    137  H   TYR d   1       5.467 103.245 112.543  0.00  0.00     0.217 HD
ENDBRANCH 130 136
ENDBRANCH 123 126
ENDBRANCH  93 123
ENDBRANCH  91  93
ENDBRANCH  87  89
BRANCH  87 138
ATOM    138  CB  THR d   1       9.915 103.659 102.277  0.00  0.00     0.060 C 
ATOM    139  H   THR d   1       9.191 102.854 102.472  0.00  0.00     0.086 H 
BRANCH 138 140
ATOM    140  OG1 THR d   1      11.229 103.183 102.492  0.00  0.00    -0.393 OA
ATOM    141  H   THR d   1      11.850 103.882 102.322  0.00  0.00     0.210 HD
ENDBRANCH 138 140
BRANCH 138 142
ATOM    142  CG2 THR d   1       9.794 104.110 100.844  0.00  0.00    -0.050 C 
ATOM    143  H   THR d   1       9.991 103.260 100.174  0.00  0.00     0.031 H 
ATOM    144  H   THR d   1      10.525 104.908 100.648  0.00  0.00     0.031 H 
ATOM    145  H   THR d   1       8.778 104.491 100.664  0.00  0.00     0.031 H 
ENDBRANCH 138 142
ENDBRANCH  87 138
ENDBRANCH  85  87
ENDBRANCH  81  83
BRANCH  81 146
ATOM    146  CB  THR d   1      11.890 107.813 105.081  0.00  0.00     0.060 C 
ATOM    147  H   THR d   1      12.076 106.734 105.189  0.00  0.00     0.086 H 
BRANCH 146 148
ATOM    148  OG1 THR d   1      10.788 108.201 105.922  0.00  0.00    -0.393 OA
ATOM    149  H   THR d   1      10.617 109.129 105.810  0.00  0.00     0.210 HD
ENDBRANCH 146 148
BRANCH 146 150
ATOM    150  CG2 THR d   1      13.152 108.573 105.486  0.00  0.00    -0.050 C 
ATOM    151  H   THR d   1      13.408 108.330 106.528  0.00  0.00     0.031 H 
ATOM    152  H   THR d   1      12.974 109.655 105.395  0.00  0.00     0.031 H 
ATOM    153  H   THR d   1      13.983 108.281 104.827  0.00  0.00     0.031 H 
ENDBRANCH 146 150
ENDBRANCH  81 146
ENDBRANCH   3  81
TORSDOF 41
