REMARK WARNING: 32 MAX_TORS EXCEEDED!!!
REMARK  46 active torsions:
REMARK  status: ('A' for Active; 'I' for Inactive)
REMARK    1  A    between atoms: N_1  and  CA_2 
REMARK    2  A    between atoms: CA_2  and  C_3 
REMARK    3  A    between atoms: CA_2  and  CB_5 
REMARK       I    between atoms: C_3  and  N_12 
REMARK    4  A    between atoms: CB_5  and  CG_6 
REMARK    5  A    between atoms: N_12  and  CA_13 
REMARK    6  A    between atoms: CA_13  and  C_14 
REMARK    7  A    between atoms: CA_13  and  CB_16 
REMARK       I    between atoms: C_14  and  N_18 
REMARK    8  A    between atoms: CB_16  and  OG_17 
REMARK    9  A    between atoms: N_18  and  CA_19 
REMARK   10  A    between atoms: CA_19  and  C_20 
REMARK   11  A    between atoms: CA_19  and  CB_22 
REMARK       I    between atoms: C_20  and  N_26 
REMARK   12  A    between atoms: CB_22  and  CG1_23 
REMARK   13  A    between atoms: CB_22  and  CG2_24 
REMARK   14  A    between atoms: CG1_23  and  CD1_25 
REMARK   15  A    between atoms: N_26  and  CA_27 
REMARK   16  A    between atoms: CA_27  and  C_28 
REMARK   17  A    between atoms: CA_27  and  CB_30 
REMARK       I    between atoms: C_28  and  N_33 
REMARK   18  A    between atoms: CB_30  and  CG1_31 
REMARK   19  A    between atoms: CB_30  and  CG2_32 
REMARK   20  A    between atoms: N_33  and  CA_34 
REMARK   21  A    between atoms: CA_34  and  C_35 
REMARK       I    between atoms: C_35  and  N_37 
REMARK   22  A    between atoms: N_37  and  CA_38 
REMARK   23  A    between atoms: CA_38  and  C_39 
REMARK   24  A    between atoms: CA_38  and  CB_41 
REMARK       I    between atoms: C_39  and  N_43 
REMARK   25  A    between atoms: CB_41  and  OG_42 
REMARK   26  A    between atoms: N_43  and  CA_44 
REMARK   27  A    between atoms: CA_44  and  C_45 
REMARK   28  A    between atoms: CA_44  and  CB_47 
REMARK       I    between atoms: C_45  and  N_51 
REMARK   29  A    between atoms: CB_47  and  CG_48 
REMARK   30  A    between atoms: CG_48  and  CD1_49 
REMARK   31  A    between atoms: CG_48  and  CD2_50 
REMARK   32  A    between atoms: CA_52  and  C_53 
REMARK       I    between atoms: C_53  and  N_58 
REMARK   33  A    between atoms: N_58  and  CA_59 
REMARK   34  A    between atoms: CA_59  and  C_60 
REMARK   35  A    between atoms: CA_59  and  CB_62 
REMARK       I    between atoms: C_60  and  N_69 
REMARK   36  A    between atoms: CB_62  and  CG_63 
REMARK   37  A    between atoms: CG_63  and  CD_64 
REMARK   38  A    between atoms: CD_64  and  NE_65 
REMARK       I    between atoms: NE_65  and  CZ_66 
REMARK       I    between atoms: CZ_66  and  NH1_67 
REMARK   39  A    between atoms: N_69  and  CA_70 
REMARK   40  A    between atoms: CA_70  and  C_71 
REMARK   41  A    between atoms: CA_70  and  CB_73 
REMARK       I    between atoms: C_71  and  N_77 
REMARK   42  A    between atoms: CB_73  and  CG_74 
REMARK   43  A    between atoms: N_77  and  CA_78 
REMARK   44  A    between atoms: CA_78  and  C_79 
REMARK   45  A    between atoms: CA_78  and  CB_81 
REMARK   46  A    between atoms: CB_81  and  SG_82 
ROOT
ATOM      1  CA  SER d   1      32.110  40.534 214.447  0.00  0.00     0.109 C 
ATOM      2  H   SER d   1      31.116  40.608 213.983  0.00  0.00     0.090 H 
ENDROOT
BRANCH   1   3
ATOM      3  N   SER d   1      32.532  39.146 214.360  0.00  0.00    -0.344 N 
ATOM      4  C   GLY d   1      32.293  38.399 213.294  0.00  0.00     0.236 C 
ATOM      5  O   GLY d   1      31.684  38.809 212.321  0.00  0.00    -0.272 OA
ATOM      6  H   SER d   1      33.020  38.741 215.133  0.00  0.00     0.163 HD
BRANCH   4   7
ATOM      7  CA  GLY d   1      32.800  36.973 213.362  0.00  0.00     0.069 C 
ATOM      8  H   GLY d   1      33.729  36.903 212.778  0.00  0.00     0.078 H 
ATOM      9  H   GLY d   1      33.008  36.724 214.413  0.00  0.00     0.078 H 
BRANCH   7  10
ATOM     10  N   GLY d   1      31.852  36.012 212.839  0.00  0.00    -0.351 N 
ATOM     11  C   VAL d   1      30.662  35.855 213.399  0.00  0.00     0.241 C 
ATOM     12  O   VAL d   1      30.271  36.554 214.322  0.00  0.00    -0.271 OA
ATOM     13  H   GLY d   1      32.099  35.459 212.043  0.00  0.00     0.163 HD
BRANCH  11  14
ATOM     14  CA  VAL d   1      29.783  34.749 212.829  0.00  0.00     0.092 C 
ATOM     15  H   VAL d   1      30.395  34.115 212.171  0.00  0.00     0.088 H 
BRANCH  14  16
ATOM     16  N   VAL d   1      29.245  33.912 213.894  0.00  0.00    -0.346 N 
ATOM     17  C   ILE d   1      29.827  32.774 214.259  0.00  0.00     0.241 C 
ATOM     18  O   ILE d   1      30.819  32.326 213.701  0.00  0.00    -0.271 OA
ATOM     19  H   VAL d   1      28.412  34.203 214.365  0.00  0.00     0.163 HD
BRANCH  17  20
ATOM     20  CA  ILE d   1      29.168  32.016 215.409  0.00  0.00     0.092 C 
ATOM     21  H   ILE d   1      29.953  31.767 216.138  0.00  0.00     0.088 H 
BRANCH  20  22
ATOM     22  N   ILE d   1      28.192  32.846 216.088  0.00  0.00    -0.346 N 
ATOM     23  C   SER d   1      28.554  33.831 216.894  0.00  0.00     0.243 C 
ATOM     24  O   SER d   1      29.718  34.043 217.211  0.00  0.00    -0.271 OA
ATOM     25  H   ILE d   1      27.218  32.669 215.943  0.00  0.00     0.163 HD
BRANCH  23  26
ATOM     26  CA  SER d   1      27.428  34.715 217.406  0.00  0.00     0.109 C 
ATOM     27  H   SER d   1      26.484  34.169 217.261  0.00  0.00     0.090 H 
BRANCH  26  28
ATOM     28  N   SER d   1      27.550  35.000 218.827  0.00  0.00    -0.344 N 
ATOM     29  C   PHE d   1      26.514  34.862 219.641  0.00  0.00     0.249 C 
ATOM     30  O   PHE d   1      25.379  34.639 219.241  0.00  0.00    -0.271 OA
ATOM     31  H   SER d   1      28.429  35.304 219.195  0.00  0.00     0.163 HD
BRANCH  29  32
ATOM     32  CA  PHE d   1      26.792  35.016 221.125  0.00  0.00     0.179 C 
ATOM     33  H   PHE d   1      27.787  35.468 221.253  0.00  0.00     0.099 H 
BRANCH  32  34
ATOM     34  N   PHE d   1      25.805  35.889 221.750  0.00  0.00    -0.066 N 
ATOM     35  H   PHE d   1      26.009  35.977 222.733  0.00  0.00     0.275 HD
ATOM     36  H   PHE d   1      24.885  35.495 221.631  0.00  0.00     0.275 HD
ATOM     37  H   PHE d   1      25.839  36.799 221.317  0.00  0.00     0.275 HD
ENDBRANCH  32  34
BRANCH  32  38
ATOM     38  CB  PHE d   1      26.789  33.636 221.788  0.00  0.00    -0.006 C 
ATOM     39  H   PHE d   1      25.751  33.274 221.831  0.00  0.00     0.043 H 
ATOM     40  H   PHE d   1      27.183  33.741 222.810  0.00  0.00     0.043 H 
BRANCH  38  41
ATOM     41  CG  PHE d   1      27.617  32.616 221.064  0.00  0.00    -0.056 A 
ATOM     42  CD1 PHE d   1      28.949  32.440 221.374  0.00  0.00    -0.077 A 
ATOM     43  CE1 PHE d   1      29.713  31.509 220.709  0.00  0.00    -0.082 A 
ATOM     44  H   PHE d   1      29.401  33.044 222.153  0.00  0.00     0.084 H 
ATOM     45  CZ  PHE d   1      29.150  30.741 219.720  0.00  0.00    -0.083 A 
ATOM     46  H   PHE d   1      30.759  31.382 220.966  0.00  0.00     0.083 H 
ATOM     47  CE2 PHE d   1      27.822  30.905 219.398  0.00  0.00    -0.082 A 
ATOM     48  H   PHE d   1      29.750  30.007 219.194  0.00  0.00     0.083 H 
ATOM     49  CD2 PHE d   1      27.063  31.838 220.069  0.00  0.00    -0.077 A 
ATOM     50  H   PHE d   1      27.374  30.301 218.617  0.00  0.00     0.083 H 
ATOM     51  H   PHE d   1      26.017  31.962 219.812  0.00  0.00     0.084 H 
ENDBRANCH  38  41
ENDBRANCH  32  38
ENDBRANCH  29  32
ENDBRANCH  26  28
BRANCH  26  52
ATOM     52  CB  SER d   1      27.354  36.000 216.587  0.00  0.00     0.044 C 
ATOM     53  H   SER d   1      28.278  36.578 216.737  0.00  0.00     0.077 H 
ATOM     54  H   SER d   1      26.491  36.594 216.923  0.00  0.00     0.077 H 
BRANCH  52  55
ATOM     55  OG  SER d   1      27.208  35.707 215.214  0.00  0.00    -0.398 OA
ATOM     56  H   SER d   1      26.409  35.210 215.081  0.00  0.00     0.209 HD
ENDBRANCH  52  55
ENDBRANCH  26  52
ENDBRANCH  23  26
ENDBRANCH  20  22
BRANCH  20  57
ATOM     57  CB  ILE d   1      28.562  30.694 214.917  0.00  0.00    -0.030 C 
ATOM     58  H   ILE d   1      27.889  30.310 215.697  0.00  0.00     0.043 H 
BRANCH  57  59
ATOM     59  CG1 ILE d   1      29.666  29.667 214.688  0.00  0.00    -0.063 C 
ATOM     60  H   ILE d   1      30.178  29.910 213.745  0.00  0.00     0.033 H 
ATOM     61  H   ILE d   1      29.205  28.672 214.608  0.00  0.00     0.033 H 
BRANCH  59  62
ATOM     62  CD1 ILE d   1      30.692  29.631 215.794  0.00  0.00    -0.076 C 
ATOM     63  H   ILE d   1      31.454  28.872 215.563  0.00  0.00     0.027 H 
ATOM     64  H   ILE d   1      30.198  29.378 216.744  0.00  0.00     0.027 H 
ATOM     65  H   ILE d   1      31.172  30.617 215.881  0.00  0.00     0.027 H 
ENDBRANCH  59  62
ENDBRANCH  57  59
BRANCH  57  66
ATOM     66  CG2 ILE d   1      27.750  30.909 213.656  0.00  0.00    -0.071 C 
ATOM     67  H   ILE d   1      26.963  31.653 213.849  0.00  0.00     0.028 H 
ATOM     68  H   ILE d   1      27.289  29.958 213.350  0.00  0.00     0.028 H 
ATOM     69  H   ILE d   1      28.409  31.272 212.853  0.00  0.00     0.028 H 
ENDBRANCH  57  66
ENDBRANCH  20  57
ENDBRANCH  17  20
ENDBRANCH  14  16
BRANCH  14  70
ATOM     70  CB  VAL d   1      28.664  35.391 211.990  0.00  0.00    -0.033 C 
ATOM     71  H   VAL d   1      28.013  35.968 212.663  0.00  0.00     0.042 H 
BRANCH  70  72
ATOM     72  CG1 VAL d   1      29.251  36.341 210.964  0.00  0.00    -0.071 C 
ATOM     73  H   VAL d   1      28.439  36.791 210.374  0.00  0.00     0.028 H 
ATOM     74  H   VAL d   1      29.927  35.787 210.296  0.00  0.00     0.028 H 
ATOM     75  H   VAL d   1      29.813  37.135 211.478  0.00  0.00     0.028 H 
ENDBRANCH  70  72
BRANCH  70  76
ATOM     76  CG2 VAL d   1      27.825  34.322 211.314  0.00  0.00    -0.071 C 
ATOM     77  H   VAL d   1      27.410  33.645 212.076  0.00  0.00     0.028 H 
ATOM     78  H   VAL d   1      28.454  33.748 210.618  0.00  0.00     0.028 H 
ATOM     79  H   VAL d   1      27.003  34.797 210.759  0.00  0.00     0.028 H 
ENDBRANCH  70  76
ENDBRANCH  14  70
ENDBRANCH  11  14
ENDBRANCH   7  10
ENDBRANCH   4   7
ENDBRANCH   1   3
BRANCH   1  80
ATOM     80  C   SER d   1      33.037  41.486 213.705  0.00  0.00     0.243 C 
ATOM     81  O   SER d   1      34.216  41.207 213.521  0.00  0.00    -0.271 OA
ATOM     82  N   LEU d   1      32.485  42.613 213.278  0.00  0.00    -0.346 N 
ATOM     83  H   LEU d   1      31.490  42.709 213.315  0.00  0.00     0.163 HD
BRANCH  82  84
ATOM     84  CA  LEU d   1      33.278  43.714 212.758  0.00  0.00     0.090 C 
ATOM     85  H   LEU d   1      34.023  43.316 212.054  0.00  0.00     0.087 H 
BRANCH  84  86
ATOM     86  C   LEU d   1      34.001  44.406 213.905  0.00  0.00     0.243 C 
ATOM     87  O   LEU d   1      33.527  44.366 215.042  0.00  0.00    -0.271 OA
ATOM     88  N   PRO d   1      35.200  45.062 213.573  0.00  0.00    -0.337 N 
ATOM     89  CA  PRO d   1      35.805  45.771 214.719  0.00  0.00     0.091 C 
ATOM     90  CD  PRO d   1      36.182  45.216 212.391  0.00  0.00    -0.001 C 
ATOM     91  CB  PRO d   1      37.040  46.441 214.119  0.00  0.00    -0.036 C 
ATOM     92  H   PRO d   1      36.086  45.067 215.517  0.00  0.00     0.087 H 
ATOM     93  CG  PRO d   1      37.478  45.503 213.067  0.00  0.00    -0.048 C 
ATOM     94  H   PRO d   1      37.824  46.569 214.880  0.00  0.00     0.036 H 
ATOM     95  H   PRO d   1      36.783  47.420 213.688  0.00  0.00     0.036 H 
ATOM     96  H   PRO d   1      37.921  44.592 213.496  0.00  0.00     0.035 H 
ATOM     97  H   PRO d   1      38.197  45.972 212.380  0.00  0.00     0.035 H 
ATOM     98  H   PRO d   1      35.885  46.048 211.736  0.00  0.00     0.064 H 
ATOM     99  H   PRO d   1      36.240  44.289 211.802  0.00  0.00     0.064 H 
BRANCH  89 100
ATOM    100  C   PRO d   1      34.838  46.817 215.271  0.00  0.00     0.241 C 
ATOM    101  O   PRO d   1      34.175  47.520 214.513  0.00  0.00    -0.271 OA
ATOM    102  N   ARG d   1      34.770  46.908 216.597  0.00  0.00    -0.346 N 
ATOM    103  H   ARG d   1      35.535  46.561 217.140  0.00  0.00     0.163 HD
BRANCH 102 104
ATOM    104  CA  ARG d   1      33.629  47.491 217.292  0.00  0.00     0.089 C 
ATOM    105  H   ARG d   1      32.745  46.931 216.952  0.00  0.00     0.087 H 
BRANCH 104 106
ATOM    106  C   ARG d   1      33.340  48.961 216.983  0.00  0.00     0.241 C 
ATOM    107  O   ARG d   1      32.182  49.343 216.826  0.00  0.00    -0.271 OA
ATOM    108  N   ASP d   1      34.378  49.782 216.894  0.00  0.00    -0.346 N 
ATOM    109  H   ASP d   1      35.302  49.440 217.067  0.00  0.00     0.163 HD
BRANCH 108 110
ATOM    110  CA  ASP d   1      34.173  51.180 216.544  0.00  0.00     0.098 C 
ATOM    111  H   ASP d   1      33.193  51.251 216.050  0.00  0.00     0.088 H 
BRANCH 110 112
ATOM    112  C   ASP d   1      35.214  51.670 215.550  0.00  0.00     0.241 C 
ATOM    113  O   ASP d   1      36.408  51.708 215.839  0.00  0.00    -0.271 OA
ATOM    114  N   CYS d   1      34.731  52.034 214.370  0.00  0.00    -0.344 N 
ATOM    115  H   CYS d   1      33.740  52.024 214.235  0.00  0.00     0.163 HD
BRANCH 114 116
ATOM    116  CA  CYS d   1      35.576  52.446 213.268  0.00  0.00     0.104 C 
ATOM    117  H   CYS d   1      36.150  53.338 213.560  0.00  0.00     0.090 H 
BRANCH 116 118
ATOM    118  C   CYS d   1      34.716  52.776 212.055  0.00  0.00     0.197 C 
ATOM    119  O   CYS d   1      33.678  53.427 212.179  0.00  0.00    -0.646 OA
ATOM    120  OXT CYS d   1      35.038  52.408 210.924  0.00  0.00    -0.646 OA
ENDBRANCH 116 118
BRANCH 116 121
ATOM    121  CB  CYS d   1      36.538  51.312 212.927  0.00  0.00     0.003 C 
ATOM    122  H   CYS d   1      36.327  50.977 211.901  0.00  0.00     0.052 H 
ATOM    123  H   CYS d   1      36.357  50.484 213.628  0.00  0.00     0.052 H 
BRANCH 121 124
ATOM    124  SG  CYS d   1      38.278  51.765 213.026  0.00  0.00    -0.180 SA
ATOM    125  H   CYS d   1      38.846  50.967 212.788  0.00  0.00     0.101 HD
ENDBRANCH 121 124
ENDBRANCH 116 121
ENDBRANCH 114 116
ENDBRANCH 110 112
BRANCH 110 126
ATOM    126  CB  ASP d   1      34.120  52.070 217.786  0.00  0.00     0.043 C 
ATOM    127  H   ASP d   1      34.740  52.961 217.609  0.00  0.00     0.052 H 
ATOM    128  H   ASP d   1      34.522  51.508 218.642  0.00  0.00     0.052 H 
BRANCH 126 129
ATOM    129  CG  ASP d   1      32.707  52.516 218.116  0.00  0.00     0.175 C 
ATOM    130  OD1 ASP d   1      31.779  52.153 217.364  0.00  0.00    -0.648 OA
ATOM    131  OD2 ASP d   1      32.519  53.225 219.125  0.00  0.00    -0.648 OA
ENDBRANCH 126 129
ENDBRANCH 110 126
ENDBRANCH 108 110
ENDBRANCH 104 106
BRANCH 104 132
ATOM    132  CB  ARG d   1      33.754  47.259 218.807  0.00  0.00    -0.036 C 
ATOM    133  H   ARG d   1      34.416  46.394 218.963  0.00  0.00     0.036 H 
ATOM    134  H   ARG d   1      32.752  47.028 219.197  0.00  0.00     0.036 H 
BRANCH 132 135
ATOM    135  CG  ARG d   1      34.311  48.424 219.612  0.00  0.00    -0.048 C 
ATOM    136  H   ARG d   1      34.141  49.359 219.059  0.00  0.00     0.035 H 
ATOM    137  H   ARG d   1      35.391  48.277 219.760  0.00  0.00     0.035 H 
BRANCH 135 138
ATOM    138  CD  ARG d   1      33.631  48.516 220.967  0.00  0.00     0.009 C 
ATOM    139  H   ARG d   1      33.141  47.555 221.182  0.00  0.00     0.064 H 
ATOM    140  H   ARG d   1      32.874  49.314 220.929  0.00  0.00     0.064 H 
BRANCH 138 141
ATOM    141  NE  ARG d   1      34.572  48.813 222.041  0.00  0.00    -0.227 N 
ATOM    142  CZ  ARG d   1      35.768  48.248 222.167  0.00  0.00     0.665 C 
ATOM    143  NH1 ARG d   1      36.553  48.583 223.181  0.00  0.00    -0.235 N 
ATOM    144  NH2 ARG d   1      36.180  47.350 221.284  0.00  0.00    -0.235 N 
ATOM    145  H   ARG d   1      37.480  48.146 223.280  0.00  0.00     0.174 HD
ATOM    146  H   ARG d   1      36.236  49.280 223.870  0.00  0.00     0.174 HD
ATOM    147  H   ARG d   1      35.572  47.087 220.495  0.00  0.00     0.174 HD
ATOM    148  H   ARG d   1      37.108  46.915 221.387  0.00  0.00     0.174 HD
ATOM    149  H   ARG d   1      34.291  49.507 222.749  0.00  0.00     0.177 HD
ENDBRANCH 138 141
ENDBRANCH 135 138
ENDBRANCH 132 135
ENDBRANCH 104 132
ENDBRANCH 102 104
ENDBRANCH  89 100
ENDBRANCH  84  86
BRANCH  84 150
ATOM    150  CB  LEU d   1      32.388  44.708 212.020  0.00  0.00    -0.035 C 
ATOM    151  H   LEU d   1      32.953  45.643 211.893  0.00  0.00     0.037 H 
ATOM    152  H   LEU d   1      31.500  44.898 212.641  0.00  0.00     0.037 H 
BRANCH 150 153
ATOM    153  CG  LEU d   1      31.916  44.249 210.645  0.00  0.00    -0.059 C 
ATOM    154  H   LEU d   1      31.848  43.151 210.657  0.00  0.00     0.038 H 
BRANCH 153 155
ATOM    155  CD1 LEU d   1      30.537  44.799 210.327  0.00  0.00    -0.073 C 
ATOM    156  H   LEU d   1      30.224  44.452 209.331  0.00  0.00     0.028 H 
ATOM    157  H   LEU d   1      30.569  45.898 210.338  0.00  0.00     0.028 H 
ATOM    158  H   LEU d   1      29.818  44.445 211.081  0.00  0.00     0.028 H 
ENDBRANCH 153 155
BRANCH 153 159
ATOM    159  CD2 LEU d   1      32.922  44.647 209.580  0.00  0.00    -0.073 C 
ATOM    160  H   LEU d   1      33.909  44.236 209.836  0.00  0.00     0.028 H 
ATOM    161  H   LEU d   1      32.985  45.744 209.526  0.00  0.00     0.028 H 
ATOM    162  H   LEU d   1      32.601  44.250 208.606  0.00  0.00     0.028 H 
ENDBRANCH 153 159
ENDBRANCH 150 153
ENDBRANCH  84 150
ENDBRANCH  82  84
ENDBRANCH   1  80
BRANCH   1 163
ATOM    163  CB  SER d   1      31.986  40.960 215.908  0.00  0.00     0.044 C 
ATOM    164  H   SER d   1      31.412  40.201 216.459  0.00  0.00     0.077 H 
ATOM    165  H   SER d   1      31.462  41.926 215.960  0.00  0.00     0.077 H 
BRANCH 163 166
ATOM    166  OG  SER d   1      33.263  41.092 216.494  0.00  0.00    -0.398 OA
ATOM    167  H   SER d   1      33.717  40.259 216.452  0.00  0.00     0.209 HD
ENDBRANCH 163 166
ENDBRANCH   1 163
TORSDOF 46
