REMARK  6 active torsions:
REMARK  status: ('A' for Active; 'I' for Inactive)
REMARK    1  A    between atoms: C8_4  and  C21_5 
REMARK    2  A    between atoms: C25_7  and  O27_8 
REMARK    3  A    between atoms: O27_8  and  C28_9 
REMARK    4  A    between atoms: C7_15  and  C6_16 
REMARK    5  A    between atoms: C13_23  and  N14_24 
REMARK    6  A    between atoms: C10_26  and  C11_28 
ROOT
ATOM      1  F17 990 d   1      24.849  22.384  10.056  0.00  0.00    -0.206 F 
ATOM      2  C16 990 d   1      26.037  22.990  10.246  0.00  0.00     0.117 A 
ATOM      3  C18 990 d   1      26.339  23.505  11.506  0.00  0.00    -0.033 A 
ATOM      4  C8  990 d   1      27.560  24.135  11.713  0.00  0.00     0.004 A 
ATOM      5  C19 990 d   1      26.929  23.099   9.189  0.00  0.00    -0.045 A 
ATOM      6  C20 990 d   1      28.149  23.739   9.393  0.00  0.00    -0.071 A 
ATOM      7  C7  990 d   1      28.475  24.253  10.657  0.00  0.00    -0.022 A 
ATOM      8  H   990 d   1      25.627  23.415  12.318  0.00  0.00     0.089 H 
ATOM      9  H   990 d   1      26.679  22.691   8.216  0.00  0.00     0.088 H 
ATOM     10  H   990 d   1      28.849  23.840   8.572  0.00  0.00     0.084 H 
ENDROOT
BRANCH   7  11
ATOM     11  C6  990 d   1      29.807  24.918  10.792  0.00  0.00     0.044 C 
ATOM     12  N9  990 d   1      30.042  25.817   9.663  0.00  0.00    -0.348 N 
ATOM     13  C1  990 d   1      31.225  26.358   9.413  0.00  0.00     0.256 C 
ATOM     14  H   990 d   1      29.278  26.032   9.055  0.00  0.00     0.163 HD
ATOM     15  O2  990 d   1      31.355  27.207   8.527  0.00  0.00    -0.268 OA
ATOM     16  C3  990 d   1      32.446  25.807  10.103  0.00  0.00     0.082 A 
ATOM     17  C4  990 d   1      32.300  24.578  10.728  0.00  0.00     0.073 A 
ATOM     18  C10 990 d   1      33.707  26.423  10.085  0.00  0.00     0.067 A 
ATOM     19  C5  990 d   1      30.944  23.883  10.757  0.00  0.00    -0.000 C 
ATOM     20  N15 990 d   1      33.365  23.999  11.336  0.00  0.00    -0.067 NA
ATOM     21  H   990 d   1      30.838  23.259   9.857  0.00  0.00     0.045 H 
ATOM     22  H   990 d   1      30.882  23.248  11.653  0.00  0.00     0.045 H 
ATOM     23  C13 990 d   1      34.580  24.606  11.294  0.00  0.00     0.720 A 
ATOM     24  N12 990 d   1      34.738  25.819  10.702  0.00  0.00    -0.067 NA
ATOM     25  H   990 d   1      29.837  25.480  11.737  0.00  0.00     0.080 H 
BRANCH  23  26
ATOM     26  N14 990 d   1      35.634  23.991  11.884  0.00  0.00    -0.231 N 
ATOM     27  H   990 d   1      35.509  23.072  12.331  0.00  0.00     0.174 HD
ATOM     28  H   990 d   1      36.559  24.443  11.885  0.00  0.00     0.174 HD
ENDBRANCH  23  26
BRANCH  18  29
ATOM     29  C11 990 d   1      33.988  27.763   9.450  0.00  0.00    -0.034 C 
ATOM     30  H   990 d   1      33.069  28.147   8.982  0.00  0.00     0.035 H 
ATOM     31  H   990 d   1      34.769  27.649   8.684  0.00  0.00     0.035 H 
ATOM     32  H   990 d   1      34.330  28.469  10.221  0.00  0.00     0.035 H 
ENDBRANCH  18  29
ENDBRANCH   7  11
BRANCH   4  33
ATOM     33  C21 990 d   1      27.835  24.674  13.075  0.00  0.00     0.070 A 
ATOM     34  N26 990 d   1      29.077  24.550  13.597  0.00  0.00    -0.224 NA
ATOM     35  C25 990 d   1      29.374  25.023  14.837  0.00  0.00     0.164 A 
ATOM     36  C24 990 d   1      28.394  25.648  15.619  0.00  0.00    -0.032 A 
ATOM     37  C23 990 d   1      27.119  25.783  15.093  0.00  0.00    -0.077 A 
ATOM     38  H   990 d   1      28.627  26.017  16.611  0.00  0.00     0.090 H 
ATOM     39  C22 990 d   1      26.832  25.283  13.819  0.00  0.00    -0.054 A 
ATOM     40  H   990 d   1      26.344  26.276  15.669  0.00  0.00     0.083 H 
ATOM     41  H   990 d   1      25.831  25.370  13.413  0.00  0.00     0.087 H 
BRANCH  35  42
ATOM     42  O27 990 d   1      30.643  24.883  15.327  0.00  0.00    -0.339 OA
BRANCH  42  43
ATOM     43  C28 990 d   1      31.653  24.315  14.480  0.00  0.00     0.012 C 
ATOM     44  H   990 d   1      32.608  24.274  15.024  0.00  0.00     0.067 H 
ATOM     45  H   990 d   1      31.770  24.937  13.581  0.00  0.00     0.067 H 
ATOM     46  H   990 d   1      31.355  23.298  14.186  0.00  0.00     0.067 H 
ENDBRANCH  42  43
ENDBRANCH  35  42
ENDBRANCH   4  33
TORSDOF 6
