REMARK  10 active torsions:
REMARK  status: ('A' for Active; 'I' for Inactive)
REMARK    1  A    between atoms: C1_1  and  C2_2 
REMARK    2  A    between atoms: C1_1  and  O1_6 
REMARK    3  A    between atoms: C2_2  and  C3_3 
REMARK    4  A    between atoms: C3_3  and  C4_4 
REMARK    5  A    between atoms: C3_3  and  O3_8 
REMARK    6  A    between atoms: C4_4  and  C5_5 
REMARK    7  A    between atoms: C4_4  and  O4_9 
REMARK    8  A    between atoms: C5_5  and  O5_10 
REMARK    9  A    between atoms: O1_6  and  P1_11 
REMARK   10  A    between atoms: O5_10  and  P2_12 
ROOT
ATOM      1  C3  XBP d   1       6.441   5.719  47.413  0.00  0.00     0.121 C 
ATOM      2  H   XBP d   1       6.663   5.410  46.381  0.00  0.00     0.099 H 
ENDROOT
BRANCH   1   3
ATOM      3  C2  XBP d   1       5.686   4.630  48.096  0.00  0.00     0.181 C 
ATOM      4  O2  XBP d   1       4.668   4.955  48.747  0.00  0.00    -0.293 OA
BRANCH   3   5
ATOM      5  C1  XBP d   1       6.111   3.207  48.060  0.00  0.00     0.090 C 
ATOM      6  H   XBP d   1       5.229   2.583  48.269  0.00  0.00     0.087 H 
ATOM      7  H   XBP d   1       6.862   3.056  48.849  0.00  0.00     0.087 H 
BRANCH   5   8
ATOM      8  O1  XBP d   1       6.723   2.736  46.722  0.00  0.00    -0.275 OA
BRANCH   8   9
ATOM      9  P1  XBP d   1       6.312   1.160  46.151  0.00  0.00     0.422 P 
ATOM     10  O1P XBP d   1       7.457   0.927  45.251  0.00  0.00    -0.617 OA
ATOM     11  O2P XBP d   1       6.415   0.367  47.406  0.00  0.00    -0.617 OA
ATOM     12  O3P XBP d   1       4.936   1.290  45.620  0.00  0.00    -0.617 OA
ENDBRANCH   8   9
ENDBRANCH   5   8
ENDBRANCH   3   5
ENDBRANCH   1   3
BRANCH   1  13
ATOM     13  C4  XBP d   1       7.760   5.928  48.160  0.00  0.00     0.088 C 
ATOM     14  H   XBP d   1       8.422   5.077  47.940  0.00  0.00     0.090 H 
BRANCH  13  15
ATOM     15  C5  XBP d   1       8.482   7.241  47.795  0.00  0.00     0.059 C 
ATOM     16  H   XBP d   1       9.467   7.247  48.285  0.00  0.00     0.079 H 
ATOM     17  H   XBP d   1       7.882   8.085  48.166  0.00  0.00     0.079 H 
BRANCH  15  18
ATOM     18  O5  XBP d   1       8.672   7.401  46.400  0.00  0.00    -0.280 OA
BRANCH  18  19
ATOM     19  P2  XBP d   1       8.150   8.744  45.635  0.00  0.00     0.422 P 
ATOM     20  O4P XBP d   1       8.857   8.727  44.319  0.00  0.00    -0.617 OA
ATOM     21  O5P XBP d   1       8.531   9.904  46.522  0.00  0.00    -0.617 OA
ATOM     22  O6P XBP d   1       6.665   8.572  45.498  0.00  0.00    -0.617 OA
ENDBRANCH  18  19
ENDBRANCH  15  18
ENDBRANCH  13  15
BRANCH  13  23
ATOM     23  O4  XBP d   1       7.510   6.008  49.586  0.00  0.00    -0.390 OA
ATOM     24  H   XBP d   1       8.336   6.090  50.047  0.00  0.00     0.210 HD
ENDBRANCH  13  23
ENDBRANCH   1  13
BRANCH   1  25
ATOM     25  O3  XBP d   1       5.657   6.914  47.367  0.00  0.00    -0.385 OA
ATOM     26  H   XBP d   1       6.146   7.596  46.921  0.00  0.00     0.210 HD
ENDBRANCH   1  25
TORSDOF 10
