REMARK  10 active torsions:
REMARK  status: ('A' for Active; 'I' for Inactive)
REMARK    1  A    between atoms: C1_1  and  C2_2 
REMARK    2  A    between atoms: C1_1  and  O1_6 
REMARK    3  A    between atoms: C2_2  and  C3_3 
REMARK    4  A    between atoms: C3_3  and  C4_4 
REMARK    5  A    between atoms: C3_3  and  O3_8 
REMARK    6  A    between atoms: C4_4  and  C5_5 
REMARK    7  A    between atoms: C4_4  and  O4_9 
REMARK    8  A    between atoms: C5_5  and  O5_10 
REMARK    9  A    between atoms: O1_6  and  P1_11 
REMARK   10  A    between atoms: O5_10  and  P2_12 
ROOT
ATOM      1  C3  XBP d   1      -1.251  30.873  47.030  0.00  0.00     0.121 C 
ATOM      2  H   XBP d   1      -0.992  31.389  46.093  0.00  0.00     0.099 H 
ENDROOT
BRANCH   1   3
ATOM      3  C2  XBP d   1      -0.116  30.001  47.480  0.00  0.00     0.181 C 
ATOM      4  O2  XBP d   1      -0.339  28.834  47.836  0.00  0.00    -0.293 OA
BRANCH   3   5
ATOM      5  C1  XBP d   1       1.314  30.522  47.593  0.00  0.00     0.090 C 
ATOM      6  H   XBP d   1       1.995  29.659  47.569  0.00  0.00     0.087 H 
ATOM      7  H   XBP d   1       1.413  31.040  48.558  0.00  0.00     0.087 H 
BRANCH   5   8
ATOM      8  O1  XBP d   1       1.717  31.447  46.538  0.00  0.00    -0.275 OA
BRANCH   8   9
ATOM      9  P1  XBP d   1       3.240  31.403  45.924  0.00  0.00     0.422 P 
ATOM     10  O1P XBP d   1       3.165  30.257  44.929  0.00  0.00    -0.617 OA
ATOM     11  O2P XBP d   1       4.139  31.140  47.114  0.00  0.00    -0.617 OA
ATOM     12  O3P XBP d   1       3.433  32.766  45.312  0.00  0.00    -0.617 OA
ENDBRANCH   8   9
ENDBRANCH   5   8
ENDBRANCH   3   5
ENDBRANCH   1   3
BRANCH   1  13
ATOM     13  C4  XBP d   1      -1.511  31.907  48.127  0.00  0.00     0.088 C 
ATOM     14  H   XBP d   1      -0.705  32.655  48.098  0.00  0.00     0.090 H 
BRANCH  13  15
ATOM     15  C5  XBP d   1      -2.846  32.612  47.992  0.00  0.00     0.059 C 
ATOM     16  H   XBP d   1      -2.890  33.428  48.728  0.00  0.00     0.079 H 
ATOM     17  H   XBP d   1      -3.649  31.889  48.198  0.00  0.00     0.079 H 
BRANCH  15  18
ATOM     18  O5  XBP d   1      -3.047  33.160  46.687  0.00  0.00    -0.280 OA
BRANCH  18  19
ATOM     19  P2  XBP d   1      -4.385  32.792  45.872  0.00  0.00     0.422 P 
ATOM     20  O4P XBP d   1      -4.464  33.819  44.789  0.00  0.00    -0.617 OA
ATOM     21  O5P XBP d   1      -5.553  32.837  46.837  0.00  0.00    -0.617 OA
ATOM     22  O6P XBP d   1      -4.219  31.404  45.322  0.00  0.00    -0.617 OA
ENDBRANCH  18  19
ENDBRANCH  15  18
ENDBRANCH  13  15
BRANCH  13  23
ATOM     23  O4  XBP d   1      -1.525  31.253  49.408  0.00  0.00    -0.390 OA
ATOM     24  H   XBP d   1      -1.638  31.902  50.092  0.00  0.00     0.210 HD
ENDBRANCH  13  23
ENDBRANCH   1  13
BRANCH   1  25
ATOM     25  O3  XBP d   1      -2.384  30.019  46.812  0.00  0.00    -0.385 OA
ATOM     26  H   XBP d   1      -3.131  30.546  46.552  0.00  0.00     0.210 HD
ENDBRANCH   1  25
TORSDOF 10
