REMARK  4 active torsions:
REMARK  status: ('A' for Active; 'I' for Inactive)
REMARK    1  A    between atoms: C4_5  and  C6_8 
REMARK    2  A    between atoms: C6_8  and  N_9 
REMARK    3  A    between atoms: C9_11  and  C10_12 
REMARK    4  A    between atoms: C7_16  and  C11_17 
ROOT
ATOM      1  C6  M81 d   1     -19.911  17.477 -19.886  0.00  0.00     0.043 C 
ATOM      2  H5  M81 d   1     -19.666  18.006 -20.819  0.00  0.00     0.074 H 
ATOM      3  H6  M81 d   1     -19.172  17.735 -19.113  0.00  0.00     0.074 H 
ENDROOT
BRANCH   1   4
ATOM      4  C4  M81 d   1     -19.839  15.990 -20.143  0.00  0.00    -0.017 A 
ATOM      5  C3  M81 d   1     -18.624  15.358 -20.374  0.00  0.00     0.042 A 
ATOM      6 CL   M81 d   1     -17.165  16.297 -20.395  0.00  0.00    -0.084 Cl
ATOM      7  C2  M81 d   1     -18.533  13.987 -20.567  0.00  0.00    -0.061 A 
ATOM      8  C1  M81 d   1     -19.682  13.217 -20.504  0.00  0.00    -0.081 A 
ATOM      9  H1  M81 d   1     -17.573  13.524 -20.765  0.00  0.00     0.086 H 
ATOM     10  C   M81 d   1     -20.903  13.819 -20.309  0.00  0.00    -0.082 A 
ATOM     11  H2  M81 d   1     -19.619  12.140 -20.608  0.00  0.00     0.083 H 
ATOM     12  C5  M81 d   1     -20.984  15.192 -20.152  0.00  0.00    -0.074 A 
ATOM     13  H4  M81 d   1     -21.804  13.217 -20.278  0.00  0.00     0.083 H 
ATOM     14  H3  M81 d   1     -21.956  15.657 -20.034  0.00  0.00     0.084 H 
ENDBRANCH   1   4
BRANCH   1  15
ATOM     15  N   M81 d   1     -21.232  17.918 -19.433  0.00  0.00    -0.258 N 
ATOM     16  N1  M81 d   1     -22.153  18.264 -20.380  0.00  0.00    -0.165 NA
ATOM     17  C9  M81 d   1     -23.251  18.583 -19.677  0.00  0.00     0.155 A 
ATOM     18  C8  M81 d   1     -23.043  18.437 -18.310  0.00  0.00    -0.013 A 
ATOM     19  C7  M81 d   1     -21.743  18.017 -18.173  0.00  0.00     0.132 A 
ATOM     20  H7  M81 d   1     -23.762  18.618 -17.513  0.00  0.00     0.091 H 
BRANCH  17  21
ATOM     21  C10 M81 d   1     -24.519  19.080 -20.343  0.00  0.00     0.230 C 
ATOM     22  O1  M81 d   1     -24.739  18.652 -21.499  0.00  0.00    -0.643 OA
ATOM     23  O   M81 d   1     -25.245  19.882 -19.700  0.00  0.00    -0.643 OA
ENDBRANCH  17  21
BRANCH  19  24
ATOM     24  C11 M81 d   1     -21.038  17.731 -16.852  0.00  0.00     0.228 C 
ATOM     25  O2  M81 d   1     -19.846  17.334 -16.882  0.00  0.00    -0.643 OA
ATOM     26  O3  M81 d   1     -21.724  17.920 -15.813  0.00  0.00    -0.643 OA
ENDBRANCH  19  24
ENDBRANCH   1  15
TORSDOF 4
