REMARK  4 active torsions:
REMARK  status: ('A' for Active; 'I' for Inactive)
REMARK    1  A    between atoms: C5_6  and  C6_8 
REMARK    2  A    between atoms: C6_8  and  N_9 
REMARK    3  A    between atoms: C9_11  and  C10_12 
REMARK    4  A    between atoms: C7_16  and  C11_17 
ROOT
ATOM      1  C6  MZS d   1     -21.268  14.455 -19.150  0.00  0.00     0.041 C 
ATOM      2  H5  MZS d   1     -21.358  14.442 -18.054  0.00  0.00     0.074 H 
ATOM      3  H6  MZS d   1     -21.713  13.539 -19.565  0.00  0.00     0.074 H 
ENDROOT
BRANCH   1   4
ATOM      4  C5  MZS d   1     -19.801  14.484 -19.512  0.00  0.00    -0.038 A 
ATOM      5  C4  MZS d   1     -19.152  13.339 -19.964  0.00  0.00    -0.072 A 
ATOM      6  C3  MZS d   1     -17.808  13.363 -20.292  0.00  0.00    -0.045 A 
ATOM      7  H3  MZS d   1     -19.708  12.414 -20.061  0.00  0.00     0.084 H 
ATOM      8  C2  MZS d   1     -17.144  14.554 -20.201  0.00  0.00     0.116 A 
ATOM      9  H2  MZS d   1     -17.296  12.463 -20.612  0.00  0.00     0.088 H 
ATOM     10  F   MZS d   1     -15.853  14.612 -20.603  0.00  0.00    -0.206 F 
ATOM     11  C1  MZS d   1     -17.738  15.704 -19.765  0.00  0.00    -0.045 A 
ATOM     12  C   MZS d   1     -19.066  15.655 -19.393  0.00  0.00    -0.072 A 
ATOM     13  H1  MZS d   1     -17.180  16.632 -19.712  0.00  0.00     0.088 H 
ATOM     14  H4  MZS d   1     -19.543  16.546 -19.001  0.00  0.00     0.084 H 
ENDBRANCH   1   4
BRANCH   1  15
ATOM     15  N   MZS d   1     -22.013  15.610 -19.665  0.00  0.00    -0.258 N 
ATOM     16  N1  MZS d   1     -21.935  16.794 -18.974  0.00  0.00    -0.165 NA
ATOM     17  C9  MZS d   1     -22.778  17.615 -19.625  0.00  0.00     0.155 A 
ATOM     18  C8  MZS d   1     -23.349  16.988 -20.728  0.00  0.00    -0.013 A 
ATOM     19  C7  MZS d   1     -22.870  15.700 -20.722  0.00  0.00     0.132 A 
ATOM     20  H7  MZS d   1     -24.036  17.428 -21.449  0.00  0.00     0.091 H 
BRANCH  17  21
ATOM     21  C10 MZS d   1     -23.179  19.004 -19.122  0.00  0.00     0.230 C 
ATOM     22  O1  MZS d   1     -23.405  19.858 -20.010  0.00  0.00    -0.643 OA
ATOM     23  O   MZS d   1     -23.296  19.184 -17.883  0.00  0.00    -0.643 OA
ENDBRANCH  17  21
BRANCH  19  24
ATOM     24  C11 MZS d   1     -23.328  14.569 -21.665  0.00  0.00     0.228 C 
ATOM     25  O2  MZS d   1     -23.373  13.390 -21.234  0.00  0.00    -0.643 OA
ATOM     26  O3  MZS d   1     -23.677  14.925 -22.812  0.00  0.00    -0.643 OA
ENDBRANCH  19  24
ENDBRANCH   1  15
TORSDOF 4
