REMARK  7 active torsions:
REMARK  status: ('A' for Active; 'I' for Inactive)
REMARK       I    between atoms: C13_2  and  N2_3 
REMARK    1  A    between atoms: C13_2  and  C12_4 
REMARK    2  A    between atoms: C14_6  and  N3_7 
REMARK    3  A    between atoms: C4_11  and  C1_12 
REMARK    4  A    between atoms: C1_12  and  C3_13 
REMARK    5  A    between atoms: C1_12  and  C2_14 
REMARK    6  A    between atoms: C1_12  and  C_15 
REMARK    7  A    between atoms: C5_17  and  C6_19 
ROOT
ATOM      1  C12 D41 d   1     110.924  87.778  27.781  0.00  0.00     0.078 A 
ATOM      2  C11 D41 d   1     110.807  89.144  27.822  0.00  0.00    -0.048 A 
ATOM      3  C14 D41 d   1     110.312  87.076  26.601  0.00  0.00     0.139 A 
ATOM      4  N4  D41 d   1     109.635  87.719  25.656  0.00  0.00    -0.210 NA
ATOM      5  C15 D41 d   1     109.522  89.077  25.750  0.00  0.00     0.166 A 
ATOM      6  N5  D41 d   1     108.828  89.662  24.730  0.00  0.00    -0.212 NA
ATOM      7  C4  D41 d   1     108.693  90.984  24.816  0.00  0.00     0.136 A 
ATOM      8  C10 D41 d   1     110.075  89.825  26.821  0.00  0.00     0.044 A 
ATOM      9  C5  D41 d   1     109.850  91.243  26.768  0.00  0.00     0.099 A 
ATOM     10  N   D41 d   1     109.166  91.808  25.755  0.00  0.00    -0.230 NA
ATOM     11  H3  D41 d   1     111.276  89.703  28.623  0.00  0.00     0.086 H 
ENDROOT
BRANCH   7  12
ATOM     12  C1  D41 d   1     107.884  91.622  23.653  0.00  0.00     0.011 C 
BRANCH  12  13
ATOM     13  C3  D41 d   1     107.808  93.151  23.751  0.00  0.00    -0.063 C 
ATOM     14  H6  D41 d   1     107.226  93.544  22.905  0.00  0.00     0.029 H 
ATOM     15  H7  D41 d   1     108.824  93.571  23.724  0.00  0.00     0.029 H 
ATOM     16  H8  D41 d   1     107.320  93.434  24.695  0.00  0.00     0.029 H 
ENDBRANCH  12  13
BRANCH  12  17
ATOM     17  C2  D41 d   1     106.449  91.071  23.618  0.00  0.00    -0.063 C 
ATOM     18  H9  D41 d   1     106.479  89.974  23.548  0.00  0.00     0.029 H 
ATOM     19  H10 D41 d   1     105.920  91.480  22.744  0.00  0.00     0.029 H 
ATOM     20  H11 D41 d   1     105.921  91.365  24.537  0.00  0.00     0.029 H 
ENDBRANCH  12  17
BRANCH  12  21
ATOM     21  C   D41 d   1     108.540  91.276  22.311  0.00  0.00    -0.063 C 
ATOM     22  H12 D41 d   1     109.572  91.656  22.299  0.00  0.00     0.029 H 
ATOM     23  H13 D41 d   1     107.969  91.740  21.493  0.00  0.00     0.029 H 
ATOM     24  H14 D41 d   1     108.550  90.184  22.178  0.00  0.00     0.029 H 
ENDBRANCH  12  21
ENDBRANCH   7  12
BRANCH   9  25
ATOM     25  C6  D41 d   1     110.336  92.247  27.724  0.00  0.00     0.062 A 
ATOM     26  N1  D41 d   1     110.033  93.558  27.448  0.00  0.00    -0.364 N 
ATOM     27  C9  D41 d   1     110.567  94.363  28.400  0.00  0.00    -0.022 A 
ATOM     28  H15 D41 d   1     109.483  93.881  26.639  0.00  0.00     0.165 HD
ATOM     29  C8  D41 d   1     111.208  93.584  29.315  0.00  0.00    -0.066 A 
ATOM     30  H16 D41 d   1     110.495  95.449  28.428  0.00  0.00     0.111 H 
ATOM     31  C7  D41 d   1     111.103  92.252  28.878  0.00  0.00    -0.054 A 
ATOM     32  H17 D41 d   1     111.709  93.929  30.218  0.00  0.00     0.085 H 
ATOM     33  H18 D41 d   1     111.545  91.381  29.360  0.00  0.00     0.087 H 
ENDBRANCH   9  25
BRANCH   3  34
ATOM     34  N3  D41 d   1     110.405  85.744  26.517  0.00  0.00    -0.383 N 
ATOM     35  H4  D41 d   1     109.991  85.248  25.715  0.00  0.00     0.157 HD
ATOM     36  H5  D41 d   1     110.891  85.214  27.255  0.00  0.00     0.157 HD
ENDBRANCH   3  34
BRANCH   1  37
ATOM     37  C13 D41 d   1     111.681  87.046  28.850  0.00  0.00     0.253 C 
ATOM     38  O   D41 d   1     112.176  85.938  28.599  0.00  0.00    -0.268 OA
ATOM     39  N2  D41 d   1     111.788  87.609  30.052  0.00  0.00    -0.366 N 
ATOM     40  H1  D41 d   1     111.377  88.505  30.223  0.00  0.00     0.159 HD
ATOM     41  H2  D41 d   1     112.279  87.136  30.784  0.00  0.00     0.159 HD
ENDBRANCH   1  37
TORSDOF 7
