REMARK  3 active torsions:
REMARK  status: ('A' for Active; 'I' for Inactive)
REMARK       I    between atoms: C10_2  and  N1_3 
REMARK    1  A    between atoms: C10_2  and  C6_4 
REMARK    2  A    between atoms: C8_7  and  O_8 
REMARK    3  A    between atoms: C1_14  and  C_15 
ROOT
ATOM      1  C6  JCF d   1      19.278  95.612  14.019  0.00  0.00     0.035 A 
ATOM      2  C5  JCF d   1      20.646  95.747  14.057  0.00  0.00    -0.055 A 
ATOM      3  C7  JCF d   1      18.552  96.103  12.931  0.00  0.00    -0.033 A 
ATOM      4  C8  JCF d   1      19.193  96.745  11.898  0.00  0.00     0.096 A 
ATOM      5  C9  JCF d   1      20.606  96.910  11.922  0.00  0.00     0.100 A 
ATOM      6  C4  JCF d   1      21.336  96.413  13.026  0.00  0.00    -0.004 A 
ATOM      7  C3  JCF d   1      22.739  96.561  12.988  0.00  0.00    -0.069 A 
ATOM      8  C2  JCF d   1      23.332  97.172  11.924  0.00  0.00    -0.059 A 
ATOM      9  N   JCF d   1      21.220  97.513  10.844  0.00  0.00    -0.250 NA
ATOM     10  C1  JCF d   1      22.544  97.635  10.854  0.00  0.00     0.031 A 
ATOM     11  H3  JCF d   1      21.201  95.335  14.892  0.00  0.00     0.086 H 
ATOM     12  H4  JCF d   1      17.476  95.977  12.901  0.00  0.00     0.089 H 
ATOM     13  H6  JCF d   1      23.345  96.188  13.806  0.00  0.00     0.085 H 
ATOM     14  H7  JCF d   1      24.408  97.301  11.902  0.00  0.00     0.086 H 
ENDROOT
BRANCH   1  15
ATOM     15  C10 JCF d   1      18.511  94.975  15.155  0.00  0.00     0.249 C 
ATOM     16  O1  JCF d   1      17.344  94.607  14.973  0.00  0.00    -0.268 OA
ATOM     17  N1  JCF d   1      19.111  94.860  16.328  0.00  0.00    -0.366 N 
ATOM     18  H1  JCF d   1      20.056  95.168  16.439  0.00  0.00     0.159 HD
ATOM     19  H2  JCF d   1      18.620  94.465  17.104  0.00  0.00     0.159 HD
ENDBRANCH   1  15
BRANCH   4  20
ATOM     20  O   JCF d   1      18.484  97.160  10.822  0.00  0.00    -0.358 OA
ATOM     21  H5  JCF d   1      18.070  96.411  10.409  0.00  0.00     0.217 HD
ENDBRANCH   4  20
BRANCH  10  22
ATOM     22  C   JCF d   1      23.170  98.361   9.700  0.00  0.00    -0.035 C 
ATOM     23  H8  JCF d   1      22.391  98.637   8.975  0.00  0.00     0.035 H 
ATOM     24  H9  JCF d   1      23.909  97.708   9.213  0.00  0.00     0.035 H 
ATOM     25  H10 JCF d   1      23.669  99.270  10.066  0.00  0.00     0.035 H 
ENDBRANCH  10  22
TORSDOF 3
