REMARK  2 active torsions:
REMARK  status: ('A' for Active; 'I' for Inactive)
REMARK       I    between atoms: C_1  and  N_2 
REMARK       I    between atoms: N1_5  and  C_1 
REMARK    1  A    between atoms: C1_4  and  C3_9 
REMARK    2  A    between atoms: C2_7  and  N4_12 
ROOT
ATOM      1  C   9MJ d   1      18.197  94.011  14.465  0.00  0.00     0.356 C 
ATOM      2  N   9MJ d   1      19.099  93.831  15.428  0.00  0.00    -0.350 N 
ATOM      3  O   9MJ d   1      17.021  93.582  14.498  0.00  0.00    -0.245 OA
ATOM      4  C1  9MJ d   1      19.930  95.729  12.018  0.00  0.00     0.223 A 
ATOM      5  N1  9MJ d   1      18.659  94.684  13.337  0.00  0.00    -0.005 N 
ATOM      6  C2  9MJ d   1      17.936  95.035  12.210  0.00  0.00     0.727 A 
ATOM      7  N2  9MJ d   1      19.951  95.145  13.209  0.00  0.00    -0.124 NA
ATOM      8  N3  9MJ d   1      18.727  95.675  11.338  0.00  0.00    -0.039 NA
ATOM      9  H1  9MJ d   1      20.020  94.206  15.326  0.00  0.00     0.160 HD
ATOM     10  H2  9MJ d   1      18.855  93.321  16.253  0.00  0.00     0.160 HD
ENDROOT
BRANCH   4  11
ATOM     11  C3  9MJ d   1      21.117  96.346  11.461  0.00  0.00     0.125 A 
ATOM     12  O1  9MJ d   1      21.012  96.922  10.227  0.00  0.00    -0.319 OA
ATOM     13  C4  9MJ d   1      22.262  97.413   9.923  0.00  0.00     0.019 A 
ATOM     14  C5  9MJ d   1      23.107  97.182  10.916  0.00  0.00    -0.059 A 
ATOM     15  H3  9MJ d   1      22.520  97.921   8.995  0.00  0.00     0.123 H 
ATOM     16  C6  9MJ d   1      22.383  96.458  11.916  0.00  0.00    -0.045 A 
ATOM     17  H6  9MJ d   1      24.152  97.485  10.963  0.00  0.00     0.086 H 
ATOM     18  H7  9MJ d   1      22.775  96.074  12.857  0.00  0.00     0.088 H 
ENDBRANCH   4  11
BRANCH   6  19
ATOM     19  N4  9MJ d   1      16.648  94.755  12.035  0.00  0.00    -0.231 N 
ATOM     20  H4  9MJ d   1      16.171  95.046  11.170  0.00  0.00     0.174 HD
ATOM     21  H5  9MJ d   1      16.128  94.247  12.764  0.00  0.00     0.174 HD
ENDBRANCH   6  19
TORSDOF 2
