REMARK  2 active torsions:
REMARK  status: ('A' for Active; 'I' for Inactive)
REMARK    1  A    between atoms: C02_2  and  C04_4 
REMARK    2  A    between atoms: C11_11  and  O12_12 
ROOT
ATOM      1  C04 8HC d   1     111.503  94.467  24.468  0.00  0.00     0.134 A 
ATOM      2  N05 8HC d   1     111.746  93.174  24.617  0.00  0.00    -0.238 NA
ATOM      3  C06 8HC d   1     112.206  92.742  25.832  0.00  0.00     0.101 A 
ATOM      4  C07 8HC d   1     112.402  93.619  26.927  0.00  0.00    -0.004 A 
ATOM      5  C08 8HC d   1     112.850  93.073  28.157  0.00  0.00    -0.071 A 
ATOM      6  C09 8HC d   1     113.091  91.732  28.280  0.00  0.00    -0.079 A 
ATOM      7  C10 8HC d   1     112.908  90.872  27.207  0.00  0.00    -0.049 A 
ATOM      8  C11 8HC d   1     112.460  91.353  25.996  0.00  0.00     0.095 A 
ATOM      9  C13 8HC d   1     112.122  94.986  26.700  0.00  0.00    -0.068 A 
ATOM     10  C14 8HC d   1     111.683  95.410  25.481  0.00  0.00    -0.048 A 
ATOM     11  H1  8HC d   1     113.003  93.725  29.009  0.00  0.00     0.084 H 
ATOM     12  H2  8HC d   1     113.430  91.335  29.230  0.00  0.00     0.083 H 
ATOM     13  H3  8HC d   1     113.119  89.815  27.322  0.00  0.00     0.087 H 
ATOM     14  H5  8HC d   1     112.257  95.703  27.502  0.00  0.00     0.085 H 
ATOM     15  H6  8HC d   1     111.478  96.459  25.302  0.00  0.00     0.087 H 
ENDROOT
BRANCH   1  16
ATOM     16  C02 8HC d   1     111.001  94.899  23.115  0.00  0.00     0.229 C 
ATOM     17  O01 8HC d   1     110.738  96.076  22.854  0.00  0.00    -0.643 OA
ATOM     18  O03 8HC d   1     110.869  93.927  22.256  0.00  0.00    -0.643 OA
ENDBRANCH   1  16
BRANCH   8  19
ATOM     19  O12 8HC d   1     112.233  90.516  24.951  0.00  0.00    -0.358 OA
ATOM     20  H4  8HC d   1     111.930  91.019  24.204  0.00  0.00     0.217 HD
ENDBRANCH   8  19
TORSDOF 2
