REMARK  5 active torsions:
REMARK  status: ('A' for Active; 'I' for Inactive)
REMARK    1  A    between atoms: O1_1  and  C4_2 
REMARK    2  A    between atoms: C1_7  and  O_8 
REMARK    3  A    between atoms: O_8  and  C_9 
REMARK    4  A    between atoms: C8_11  and  C9_12 
REMARK    5  A    between atoms: C6_13  and  C7_15 
ROOT
ATOM      1  C4  I6G d   1     112.329  90.675  25.909  0.00  0.00     0.097 A 
ATOM      2  C3  I6G d   1     113.028  90.376  27.061  0.00  0.00    -0.046 A 
ATOM      3  C2  I6G d   1     113.339  91.365  27.984  0.00  0.00    -0.046 A 
ATOM      4  C5  I6G d   1     111.972  92.022  25.627  0.00  0.00     0.121 A 
ATOM      5  C10 I6G d   1     112.251  93.012  26.570  0.00  0.00     0.122 A 
ATOM      6  C1  I6G d   1     112.924  92.665  27.780  0.00  0.00     0.099 A 
ATOM      7  N1  I6G d   1     111.855  94.304  26.359  0.00  0.00    -0.247 NA
ATOM      8  C8  I6G d   1     111.184  94.578  25.257  0.00  0.00     0.056 A 
ATOM      9  C6  I6G d   1     110.865  93.539  24.304  0.00  0.00     0.056 A 
ATOM     10  N   I6G d   1     111.239  92.291  24.513  0.00  0.00    -0.247 NA
ATOM     11  H2  I6G d   1     113.338  89.354  27.248  0.00  0.00     0.087 H 
ATOM     12  H3  I6G d   1     113.911  91.115  28.870  0.00  0.00     0.087 H 
ENDROOT
BRANCH   6  13
ATOM     13  O   I6G d   1     113.240  93.720  28.588  0.00  0.00    -0.353 OA
BRANCH  13  14
ATOM     14  C   I6G d   1     114.410  93.620  29.403  0.00  0.00     0.010 C 
ATOM     15  H4  I6G d   1     114.527  94.542  29.991  0.00  0.00     0.066 H 
ATOM     16  H5  I6G d   1     115.293  93.480  28.762  0.00  0.00     0.066 H 
ATOM     17  H6  I6G d   1     114.311  92.761  30.083  0.00  0.00     0.066 H 
ENDBRANCH  13  14
ENDBRANCH   6  13
BRANCH   1  18
ATOM     18  O1  I6G d   1     112.049  89.705  25.002  0.00  0.00    -0.358 OA
ATOM     19  H1  I6G d   1     111.566  90.082  24.276  0.00  0.00     0.217 HD
ENDBRANCH   1  18
BRANCH   8  20
ATOM     20  C9  I6G d   1     110.764  96.001  25.046  0.00  0.00    -0.034 C 
ATOM     21  H7  I6G d   1     110.218  96.085  24.095  0.00  0.00     0.035 H 
ATOM     22  H8  I6G d   1     111.655  96.645  25.015  0.00  0.00     0.035 H 
ATOM     23  H9  I6G d   1     110.111  96.317  25.873  0.00  0.00     0.035 H 
ENDBRANCH   8  20
BRANCH   9  24
ATOM     24  C7  I6G d   1     110.086  93.819  23.055  0.00  0.00    -0.034 C 
ATOM     25  H10 I6G d   1     109.963  92.887  22.483  0.00  0.00     0.035 H 
ATOM     26  H11 I6G d   1     110.627  94.556  22.443  0.00  0.00     0.035 H 
ATOM     27  H12 I6G d   1     109.097  94.219  23.322  0.00  0.00     0.035 H 
ENDBRANCH   9  24
TORSDOF 5
