REMARK  8 active torsions:
REMARK  status: ('A' for Active; 'I' for Inactive)
REMARK    1  A    between atoms: C10_10  and  C19_19 
REMARK    2  A    between atoms: C11_11  and  O2_25 
REMARK    3  A    between atoms: C13_13  and  C18_18 
REMARK    4  A    between atoms: C16_16  and  C22_22 
REMARK    5  A    between atoms: C17_17  and  C20_20 
REMARK    6  A    between atoms: C17_17  and  O3_26 
REMARK    7  A    between atoms: C20_20  and  C21_21 
REMARK    8  A    between atoms: C21_21  and  O5_28 
ROOT
ATOM      1  C1  DEX d   1       0.055 -15.119   1.398  0.00  0.00    -0.084 C 
ATOM      2  C2  DEX d   1       1.391 -15.048   1.426  0.00  0.00    -0.037 C 
ATOM      3  C3  DEX d   1       2.062 -14.238   0.393  0.00  0.00     0.172 C 
ATOM      4  C4  DEX d   1       1.260 -13.614  -0.696  0.00  0.00    -0.031 C 
ATOM      5  C5  DEX d   1      -0.081 -13.738  -0.685  0.00  0.00    -0.061 C 
ATOM      6  C6  DEX d   1      -0.882 -13.123  -1.808  0.00  0.00    -0.043 C 
ATOM      7  C7  DEX d   1      -1.949 -14.068  -2.353  0.00  0.00    -0.055 C 
ATOM      8  C8  DEX d   1      -2.723 -14.754  -1.231  0.00  0.00    -0.011 C 
ATOM      9  C9  DEX d   1      -1.774 -15.479  -0.250  0.00  0.00     0.147 C 
ATOM     10  C10 DEX d   1      -0.845 -14.432   0.417  0.00  0.00     0.036 C 
ATOM     11  C11 DEX d   1      -2.487 -16.449   0.726  0.00  0.00     0.072 C 
ATOM     12  C12 DEX d   1      -3.579 -17.296   0.087  0.00  0.00    -0.028 C 
ATOM     13  C13 DEX d   1      -4.593 -16.449  -0.686  0.00  0.00     0.001 C 
ATOM     14  C14 DEX d   1      -3.827 -15.675  -1.751  0.00  0.00    -0.037 C 
ATOM     15  C15 DEX d   1      -4.885 -15.131  -2.683  0.00  0.00    -0.054 C 
ATOM     16  C16 DEX d   1      -5.986 -16.173  -2.633  0.00  0.00    -0.020 C 
ATOM     17  C17 DEX d   1      -5.580 -17.224  -1.575  0.00  0.00     0.131 C 
ATOM     18  F1  DEX d   1      -1.001 -16.330  -1.011  0.00  0.00    -0.238 F 
ATOM     19  O1  DEX d   1       3.281 -14.131   0.428  0.00  0.00    -0.289 OA
ATOM     20  H1  DEX d   1      -0.423 -15.734   2.159  0.00  0.00     0.078 H 
ATOM     21  H2  DEX d   1       1.965 -15.572   2.188  0.00  0.00     0.089 H 
ATOM     22  H3  DEX d   1       1.754 -13.062  -1.494  0.00  0.00     0.090 H 
ATOM     23  H4  DEX d   1      -0.196 -12.857  -2.626  0.00  0.00     0.039 H 
ATOM     24  H5  DEX d   1      -1.375 -12.214  -1.433  0.00  0.00     0.039 H 
ATOM     25  H6  DEX d   1      -1.462 -14.836  -2.971  0.00  0.00     0.034 H 
ATOM     26  H7  DEX d   1      -2.653 -13.492  -2.971  0.00  0.00     0.034 H 
ATOM     27  H8  DEX d   1      -3.223 -13.958  -0.660  0.00  0.00     0.045 H 
ATOM     28  H9  DEX d   1      -1.712 -17.143   1.083  0.00  0.00     0.088 H 
ATOM     29  H10 DEX d   1      -4.108 -17.847   0.878  0.00  0.00     0.038 H 
ATOM     30  H11 DEX d   1      -3.112 -18.010  -0.607  0.00  0.00     0.038 H 
ATOM     31  H12 DEX d   1      -3.278 -16.424  -2.340  0.00  0.00     0.042 H 
ATOM     32  H13 DEX d   1      -4.491 -15.027  -3.705  0.00  0.00     0.034 H 
ATOM     33  H14 DEX d   1      -5.253 -14.156  -2.331  0.00  0.00     0.034 H 
ATOM     34  H15 DEX d   1      -6.912 -15.697  -2.279  0.00  0.00     0.044 H 
ENDROOT
BRANCH  17  35
ATOM     35  C20 DEX d   1      -6.737 -17.825  -0.775  0.00  0.00     0.185 C 
ATOM     36  O4  DEX d   1      -7.839 -17.305  -0.713  0.00  0.00    -0.292 OA
BRANCH  35  37
ATOM     37  C21 DEX d   1      -6.522 -19.118  -0.020  0.00  0.00     0.074 C 
ATOM     38  H22 DEX d   1      -5.571 -19.081   0.531  0.00  0.00     0.086 H 
ATOM     39  H23 DEX d   1      -6.508 -19.967  -0.719  0.00  0.00     0.086 H 
BRANCH  37  40
ATOM     40  O5  DEX d   1      -7.611 -19.250   0.889  0.00  0.00    -0.393 OA
ATOM     41  H29 DEX d   1      -8.427 -19.274   0.403  0.00  0.00     0.209 HD
ENDBRANCH  37  40
ENDBRANCH  35  37
ENDBRANCH  17  35
BRANCH  17  42
ATOM     42  O3  DEX d   1      -4.943 -18.342  -2.210  0.00  0.00    -0.381 OA
ATOM     43  H28 DEX d   1      -4.698 -18.981  -1.552  0.00  0.00     0.211 HD
ENDBRANCH  17  42
BRANCH  13  44
ATOM     44  C18 DEX d   1      -5.370 -15.543   0.289  0.00  0.00    -0.065 C 
ATOM     45  H16 DEX d   1      -4.660 -14.991   0.922  0.00  0.00     0.028 H 
ATOM     46  H17 DEX d   1      -6.023 -16.161   0.923  0.00  0.00     0.028 H 
ATOM     47  H18 DEX d   1      -5.982 -14.830  -0.282  0.00  0.00     0.028 H 
ENDBRANCH  13  44
BRANCH  16  48
ATOM     48  C22 DEX d   1      -6.254 -16.666  -4.043  0.00  0.00    -0.070 C 
ATOM     49  H24 DEX d   1      -6.531 -15.815  -4.683  0.00  0.00     0.028 H 
ATOM     50  H25 DEX d   1      -7.078 -17.395  -4.026  0.00  0.00     0.028 H 
ATOM     51  H26 DEX d   1      -5.348 -17.145  -4.442  0.00  0.00     0.028 H 
ENDBRANCH  16  48
BRANCH  11  52
ATOM     52  O2  DEX d   1      -3.027 -15.801   1.872  0.00  0.00    -0.392 OA
ATOM     53  H27 DEX d   1      -3.333 -16.455   2.490  0.00  0.00     0.210 HD
ENDBRANCH  11  52
BRANCH  10  54
ATOM     54  C19 DEX d   1      -1.543 -13.333   1.229  0.00  0.00    -0.059 C 
ATOM     55  H19 DEX d   1      -0.788 -12.654   1.651  0.00  0.00     0.029 H 
ATOM     56  H20 DEX d   1      -2.122 -13.791   2.045  0.00  0.00     0.029 H 
ATOM     57  H21 DEX d   1      -2.220 -12.766   0.573  0.00  0.00     0.029 H 
ENDBRANCH  10  54
TORSDOF 8
