REMARK  7 active torsions:
REMARK  status: ('A' for Active; 'I' for Inactive)
REMARK    1  A    between atoms: C1_1  and  C2_2 
REMARK    2  A    between atoms: C4_4  and  O40_34 
REMARK    3  A    between atoms: C15_10  and  C26_20 
REMARK    4  A    between atoms: C17_12  and  C20_14 
REMARK    5  A    between atoms: C26_20  and  C28_22 
REMARK    6  A    between atoms: C28_22  and  O29_23 
REMARK    7  A    between atoms: C38_32  and  C39_33 
ROOT
ATOM      1  C2  CV7 d   1     -27.131   1.526   2.210  0.00  0.00     0.004 C 
ATOM      2  C3  CV7 d   1     -28.283   1.754   1.225  0.00  0.00    -0.030 C 
ATOM      3  C4  CV7 d   1     -28.238   3.119   0.549  0.00  0.00     0.041 C 
ATOM      4  C6  CV7 d   1     -28.119   4.311   1.523  0.00  0.00    -0.011 C 
ATOM      5  C8  CV7 d   1     -27.122   4.077   2.692  0.00  0.00    -0.042 C 
ATOM      6  C10 CV7 d   1     -27.215   2.648   3.241  0.00  0.00    -0.037 C 
ATOM      7  C12 CV7 d   1     -26.344   2.158   4.382  0.00  0.00    -0.033 C 
ATOM      8  C13 CV7 d   1     -26.552   0.645   4.384  0.00  0.00     0.080 C 
ATOM      9  C15 CV7 d   1     -27.304   0.286   3.107  0.00  0.00     0.160 C 
ATOM     10  O16 CV7 d   1     -28.672   0.086   3.516  0.00  0.00    -0.339 OA
ATOM     11  C17 CV7 d   1     -28.631  -0.213   4.907  0.00  0.00     0.137 C 
ATOM     12  O19 CV7 d   1     -27.421   0.295   5.456  0.00  0.00    -0.352 OA
ATOM     13  C30 CV7 d   1     -27.385   5.132   3.774  0.00  0.00    -0.057 C 
ATOM     14  C31 CV7 d   1     -27.279   6.560   3.237  0.00  0.00    -0.043 C 
ATOM     15  C32 CV7 d   1     -28.080   6.708   1.979  0.00  0.00    -0.064 A 
ATOM     16  C33 CV7 d   1     -28.973   7.701   1.898  0.00  0.00    -0.031 A 
ATOM     17  C34 CV7 d   1     -29.805   7.839   0.668  0.00  0.00     0.172 A 
ATOM     18  O35 CV7 d   1     -30.593   8.761   0.551  0.00  0.00    -0.289 OA
ATOM     19  C36 CV7 d   1     -29.712   6.836  -0.417  0.00  0.00    -0.037 A 
ATOM     20  C37 CV7 d   1     -28.805   5.865  -0.269  0.00  0.00    -0.087 A 
ATOM     21  C38 CV7 d   1     -27.859   5.695   0.883  0.00  0.00     0.004 A 
ATOM     22  H4  CV7 d   1     -29.233   1.667   1.773  0.00  0.00     0.038 H 
ATOM     23  H5  CV7 d   1     -28.236   0.978   0.447  0.00  0.00     0.038 H 
ATOM     24  H6  CV7 d   1     -29.199   3.250   0.030  0.00  0.00     0.083 H 
ATOM     25  H7  CV7 d   1     -29.113   4.388   1.988  0.00  0.00     0.046 H 
ATOM     26  H8  CV7 d   1     -26.101   4.221   2.311  0.00  0.00     0.041 H 
ATOM     27  H9  CV7 d   1     -28.240   2.615   3.640  0.00  0.00     0.042 H 
ATOM     28  H10 CV7 d   1     -26.667   2.598   5.337  0.00  0.00     0.037 H 
ATOM     29  H11 CV7 d   1     -25.288   2.407   4.202  0.00  0.00     0.037 H 
ATOM     30  H12 CV7 d   1     -25.592   0.113   4.455  0.00  0.00     0.088 H 
ATOM     31  H13 CV7 d   1     -28.681  -1.304   5.035  0.00  0.00     0.129 H 
ATOM     32  H28 CV7 d   1     -26.648   5.003   4.580  0.00  0.00     0.034 H 
ATOM     33  H29 CV7 d   1     -28.398   4.981   4.176  0.00  0.00     0.034 H 
ATOM     34  H30 CV7 d   1     -26.224   6.789   3.024  0.00  0.00     0.039 H 
ATOM     35  H31 CV7 d   1     -27.661   7.261   3.994  0.00  0.00     0.039 H 
ATOM     36  H32 CV7 d   1     -29.091   8.402   2.723  0.00  0.00     0.090 H 
ATOM     37  H33 CV7 d   1     -30.353   6.887  -1.296  0.00  0.00     0.089 H 
ATOM     38  H34 CV7 d   1     -28.747   5.123  -1.064  0.00  0.00     0.078 H 
ENDROOT
BRANCH  11  39
ATOM     39  C20 CV7 d   1     -29.738   0.435   5.698  0.00  0.00    -0.006 C 
ATOM     40  C21 CV7 d   1     -30.707   1.270   4.899  0.00  0.00    -0.057 C 
ATOM     41  C22 CV7 d   1     -31.690   1.971   5.818  0.00  0.00    -0.065 C 
ATOM     42  H15 CV7 d   1     -31.261   0.619   4.207  0.00  0.00     0.033 H 
ATOM     43  H16 CV7 d   1     -30.148   2.024   4.325  0.00  0.00     0.033 H 
ATOM     44  C23 CV7 d   1     -32.391   1.003   6.745  0.00  0.00    -0.065 C 
ATOM     45  H17 CV7 d   1     -32.445   2.485   5.205  0.00  0.00     0.033 H 
ATOM     46  H18 CV7 d   1     -31.145   2.710   6.423  0.00  0.00     0.033 H 
ATOM     47  C24 CV7 d   1     -31.409   0.106   7.475  0.00  0.00    -0.065 C 
ATOM     48  H19 CV7 d   1     -33.074   0.375   6.153  0.00  0.00     0.033 H 
ATOM     49  H20 CV7 d   1     -32.968   1.575   7.486  0.00  0.00     0.033 H 
ATOM     50  C25 CV7 d   1     -30.487  -0.602   6.501  0.00  0.00    -0.057 C 
ATOM     51  H21 CV7 d   1     -31.969  -0.646   8.051  0.00  0.00     0.033 H 
ATOM     52  H22 CV7 d   1     -30.805   0.718   8.161  0.00  0.00     0.033 H 
ATOM     53  H23 CV7 d   1     -29.772  -1.227   7.056  0.00  0.00     0.033 H 
ATOM     54  H24 CV7 d   1     -31.080  -1.236   5.825  0.00  0.00     0.033 H 
ATOM     55  H14 CV7 d   1     -29.252   1.118   6.411  0.00  0.00     0.047 H 
ENDBRANCH  11  39
BRANCH   9  56
ATOM     56  C26 CV7 d   1     -26.808  -1.027   2.500  0.00  0.00     0.188 C 
ATOM     57  O27 CV7 d   1     -25.721  -1.495   2.802  0.00  0.00    -0.292 OA
BRANCH  56  58
ATOM     58  C28 CV7 d   1     -27.694  -1.774   1.523  0.00  0.00     0.074 C 
ATOM     59  H25 CV7 d   1     -28.235  -1.055   0.890  0.00  0.00     0.086 H 
ATOM     60  H26 CV7 d   1     -28.416  -2.392   2.077  0.00  0.00     0.086 H 
BRANCH  58  61
ATOM     61  O29 CV7 d   1     -26.874  -2.610   0.706  0.00  0.00    -0.393 OA
ATOM     62  H27 CV7 d   1     -26.407  -3.228   1.256  0.00  0.00     0.209 HD
ENDBRANCH  58  61
ENDBRANCH  56  58
ENDBRANCH   9  56
BRANCH   1  63
ATOM     63  C1  CV7 d   1     -25.768   1.455   1.495  0.00  0.00    -0.065 C 
ATOM     64  H1  CV7 d   1     -25.644   2.340   0.854  0.00  0.00     0.028 H 
ATOM     65  H2  CV7 d   1     -25.725   0.546   0.877  0.00  0.00     0.028 H 
ATOM     66  H3  CV7 d   1     -24.962   1.428   2.243  0.00  0.00     0.028 H 
ENDBRANCH   1  63
BRANCH   3  67
ATOM     67  O40 CV7 d   1     -27.220   3.093  -0.455  0.00  0.00    -0.395 OA
ATOM     68  H38 CV7 d   1     -27.351   2.339  -1.018  0.00  0.00     0.210 HD
ENDBRANCH   3  67
BRANCH  21  69
ATOM     69  C39 CV7 d   1     -26.455   5.908   0.297  0.00  0.00    -0.062 C 
ATOM     70  H35 CV7 d   1     -26.385   6.920  -0.128  0.00  0.00     0.029 H 
ATOM     71  H36 CV7 d   1     -26.271   5.165  -0.493  0.00  0.00     0.029 H 
ATOM     72  H37 CV7 d   1     -25.704   5.792   1.092  0.00  0.00     0.029 H 
ENDBRANCH  21  69
TORSDOF 7
