REMARK  12 active torsions:
REMARK  status: ('A' for Active; 'I' for Inactive)
REMARK    1  A    between atoms: S8_2  and  C7_1 
REMARK    2  A    between atoms: C7_1  and  C4_3 
REMARK    3  A    between atoms: N9_18  and  S8_2 
REMARK       I    between atoms: C11_20  and  N21_11 
REMARK    4  A    between atoms: C22_12  and  C26_13 
REMARK       I    between atoms: C26_13  and  N27_29 
REMARK    5  A    between atoms: C10_19  and  N9_18 
REMARK    6  A    between atoms: C10_19  and  C11_20 
REMARK    7  A    between atoms: C10_19  and  C14_22 
REMARK    8  A    between atoms: C14_22  and  C15_23 
REMARK    9  A    between atoms: N27_29  and  C28_30 
REMARK   10  A    between atoms: C28_30  and  C29_31 
REMARK   11  A    between atoms: C35_34  and  C37_35 
REMARK   12  A    between atoms: C37_35  and  N39_36 
ROOT
ATOM      1  N21 S49 d   1      18.584 -13.778  21.747  0.00  0.00    -0.337 N 
ATOM      2  C22 S49 d   1      18.510 -12.458  21.115  0.00  0.00     0.091 C 
ATOM      3  C23 S49 d   1      19.663 -12.416  20.122  0.00  0.00    -0.036 C 
ATOM      4  C24 S49 d   1      20.504 -13.651  20.368  0.00  0.00    -0.048 C 
ATOM      5  C25 S49 d   1      19.660 -14.608  21.194  0.00  0.00    -0.001 C 
ATOM      6  C11 S49 d   1      17.692 -14.098  22.683  0.00  0.00     0.244 C 
ATOM      7  O31 S49 d   1      16.828 -13.307  23.051  0.00  0.00    -0.271 OA
ATOM      8  H8  S49 d   1      18.616 -11.666  21.871  0.00  0.00     0.087 H 
ATOM      9  H9  S49 d   1      20.266 -11.510  20.282  0.00  0.00     0.036 H 
ATOM     10  H10 S49 d   1      19.276 -12.422  19.093  0.00  0.00     0.036 H 
ATOM     11  H11 S49 d   1      21.418 -13.382  20.919  0.00  0.00     0.035 H 
ATOM     12  H12 S49 d   1      20.777 -14.119  19.410  0.00  0.00     0.035 H 
ATOM     13  H13 S49 d   1      19.247 -15.406  20.560  0.00  0.00     0.064 H 
ATOM     14  H14 S49 d   1      20.259 -15.054  22.002  0.00  0.00     0.064 H 
ENDROOT
BRANCH   6  15
ATOM     15  C10 S49 d   1      17.764 -15.456  23.326  0.00  0.00     0.100 C 
ATOM     16  H16 S49 d   1      18.398 -16.111  22.710  0.00  0.00     0.088 H 
BRANCH  15  17
ATOM     17  N9  S49 d   1      16.437 -16.037  23.448  0.00  0.00    -0.305 N 
ATOM     18  H15 S49 d   1      16.023 -16.089  24.357  0.00  0.00     0.173 HD
BRANCH  17  19
ATOM     19  S8  S49 d   1      15.601 -16.601  22.194  0.00  0.00     0.231 S 
ATOM     20  O12 S49 d   1      16.482 -17.338  21.340  0.00  0.00    -0.206 OA
ATOM     21  O13 S49 d   1      14.524 -17.368  22.749  0.00  0.00    -0.206 OA
BRANCH  19  22
ATOM     22  C7  S49 d   1      14.935 -15.298  21.371  0.00  0.00     0.070 C 
ATOM     23  H1  S49 d   1      15.747 -14.741  20.881  0.00  0.00     0.066 H 
ATOM     24  H2  S49 d   1      14.430 -14.646  22.099  0.00  0.00     0.066 H 
BRANCH  22  25
ATOM     25  C4  S49 d   1      13.931 -15.711  20.317  0.00  0.00    -0.043 A 
ATOM     26  C5  S49 d   1      14.352 -16.110  19.050  0.00  0.00    -0.076 A 
ATOM     27  C6  S49 d   1      13.413 -16.490  18.091  0.00  0.00    -0.082 A 
ATOM     28  H3  S49 d   1      15.409 -16.125  18.810  0.00  0.00     0.084 H 
ATOM     29  C1  S49 d   1      12.056 -16.465  18.396  0.00  0.00    -0.083 A 
ATOM     30  H4  S49 d   1      13.741 -16.805  17.107  0.00  0.00     0.083 H 
ATOM     31  C2  S49 d   1      11.638 -16.059  19.660  0.00  0.00    -0.082 A 
ATOM     32  H5  S49 d   1      11.326 -16.761  17.651  0.00  0.00     0.083 H 
ATOM     33  C3  S49 d   1      12.572 -15.678  20.619  0.00  0.00    -0.076 A 
ATOM     34  H6  S49 d   1      10.581 -16.040  19.898  0.00  0.00     0.083 H 
ATOM     35  H7  S49 d   1      12.242 -15.356  21.600  0.00  0.00     0.084 H 
ENDBRANCH  22  25
ENDBRANCH  19  22
ENDBRANCH  17  19
ENDBRANCH  15  17
BRANCH  15  36
ATOM     36  C14 S49 d   1      18.353 -15.350  24.738  0.00  0.00    -0.013 C 
ATOM     37  H17 S49 d   1      18.374 -16.356  25.183  0.00  0.00     0.043 H 
ATOM     38  H18 S49 d   1      17.703 -14.697  25.339  0.00  0.00     0.043 H 
BRANCH  36  39
ATOM     39  C15 S49 d   1      19.760 -14.783  24.763  0.00  0.00    -0.056 A 
ATOM     40  C16 S49 d   1      19.974 -13.519  25.301  0.00  0.00    -0.077 A 
ATOM     41  C17 S49 d   1      21.254 -12.980  25.335  0.00  0.00    -0.082 A 
ATOM     42  H19 S49 d   1      19.139 -12.952  25.695  0.00  0.00     0.084 H 
ATOM     43  C18 S49 d   1      22.338 -13.700  24.840  0.00  0.00    -0.083 A 
ATOM     44  H21 S49 d   1      21.410 -11.991  25.750  0.00  0.00     0.083 H 
ATOM     45  C19 S49 d   1      22.125 -14.966  24.308  0.00  0.00    -0.082 A 
ATOM     46  H23 S49 d   1      23.336 -13.278  24.869  0.00  0.00     0.083 H 
ATOM     47  C20 S49 d   1      20.842 -15.510  24.266  0.00  0.00    -0.077 A 
ATOM     48  H22 S49 d   1      22.963 -15.535  23.923  0.00  0.00     0.083 H 
ATOM     49  H20 S49 d   1      20.685 -16.497  23.847  0.00  0.00     0.084 H 
ENDBRANCH  36  39
ENDBRANCH  15  36
ENDBRANCH   6  15
BRANCH   2  50
ATOM     50  C26 S49 d   1      17.219 -12.276  20.371  0.00  0.00     0.240 C 
ATOM     51  O30 S49 d   1      16.746 -13.193  19.712  0.00  0.00    -0.271 OA
ATOM     52  N27 S49 d   1      16.610 -11.098  20.480  0.00  0.00    -0.355 N 
ATOM     53  H24 S49 d   1      17.044 -10.395  21.044  0.00  0.00     0.162 HD
BRANCH  52  54
ATOM     54  C28 S49 d   1      15.351 -10.770  19.829  0.00  0.00     0.019 C 
ATOM     55  H25 S49 d   1      15.134 -11.516  19.050  0.00  0.00     0.071 H 
ATOM     56  H26 S49 d   1      15.422  -9.772  19.371  0.00  0.00     0.071 H 
BRANCH  54  57
ATOM     57  C29 S49 d   1      14.245 -10.776  20.857  0.00  0.00    -0.040 A 
ATOM     58  C33 S49 d   1      13.914  -9.619  21.546  0.00  0.00    -0.074 A 
ATOM     59  C34 S49 d   1      12.902  -9.643  22.494  0.00  0.00    -0.069 A 
ATOM     60  H27 S49 d   1      14.446  -8.696  21.344  0.00  0.00     0.084 H 
ATOM     61  C35 S49 d   1      12.220 -10.815  22.765  0.00  0.00     0.007 A 
ATOM     62  H28 S49 d   1      12.643  -8.735  23.027  0.00  0.00     0.085 H 
ATOM     63  C36 S49 d   1      12.551 -11.975  22.075  0.00  0.00    -0.069 A 
ATOM     64  C32 S49 d   1      13.561 -11.950  21.127  0.00  0.00    -0.074 A 
ATOM     65  H33 S49 d   1      12.020 -12.898  22.278  0.00  0.00     0.085 H 
ATOM     66  H34 S49 d   1      13.818 -12.857  20.592  0.00  0.00     0.084 H 
BRANCH  61  67
ATOM     67  C37 S49 d   1      11.128 -10.813  23.791  0.00  0.00     0.102 C 
ATOM     68  N38 S49 d   1      10.829  -9.731  24.374  0.00  0.00    -0.385 N 
ATOM     69  H31 S49 d   1      11.338  -8.865  24.145  0.00  0.00     0.157 HD
ATOM     70  H32 S49 d   1      10.077  -9.716  25.078  0.00  0.00     0.157 HD
BRANCH  67  71
ATOM     71  N39 S49 d   1      10.502 -11.884  24.071  0.00  0.00    -0.385 N 
ATOM     72  H29 S49 d   1       9.753 -11.873  24.778  0.00  0.00     0.157 HD
ATOM     73  H30 S49 d   1      10.744 -12.763  23.591  0.00  0.00     0.157 HD
ENDBRANCH  67  71
ENDBRANCH  61  67
ENDBRANCH  54  57
ENDBRANCH  52  54
ENDBRANCH   2  50
TORSDOF 12
