REMARK  14 active torsions:
REMARK  status: ('A' for Active; 'I' for Inactive)
REMARK    1  A    between atoms: C3_3  and  C2_2 
REMARK    2  A    between atoms: N1_4  and  C3_3 
REMARK       I    between atoms: C9_12  and  N1_4 
REMARK    3  A    between atoms: C6_7  and  C7_8 
REMARK    4  A    between atoms: C7_8  and  N2_9 
REMARK    5  A    between atoms: C10_13  and  C9_12 
REMARK    6  A    between atoms: C10_13  and  C11_14 
REMARK    7  A    between atoms: N4_15  and  C10_13 
REMARK       I    between atoms: C14_17  and  N4_15 
REMARK    8  A    between atoms: C15_18  and  C14_17 
REMARK    9  A    between atoms: C16_19  and  C15_18 
REMARK   10  A    between atoms: C15_18  and  N5_20 
REMARK   11  A    between atoms: C27_35  and  C16_19 
REMARK   12  A    between atoms: N5_20  and  S1_22 
REMARK   13  A    between atoms: S1_22  and  C17_23 
REMARK   14  A    between atoms: C17_23  and  C21_29 
ROOT
ATOM      1  C15 3ZD d   1      17.673 -16.899  23.646  0.00  0.00     0.100 C 
ATOM      2  H17 3ZD d   1      18.232 -17.620  23.031  0.00  0.00     0.088 H 
ENDROOT
BRANCH   1   3
ATOM      3  C14 3ZD d   1      17.679 -15.581  22.973  0.00  0.00     0.242 C 
ATOM      4  N4  3ZD d   1      18.613 -15.309  22.061  0.00  0.00    -0.346 N 
ATOM      5  H16 3ZD d   1      19.315 -15.991  21.854  0.00  0.00     0.163 HD
ATOM      6  O2  3ZD d   1      16.796 -14.758  23.261  0.00  0.00    -0.271 OA
BRANCH   4   7
ATOM      7  C10 3ZD d   1      18.623 -14.033  21.364  0.00  0.00     0.086 C 
ATOM      8  H12 3ZD d   1      18.736 -13.198  22.071  0.00  0.00     0.086 H 
BRANCH   7   9
ATOM      9  C9  3ZD d   1      17.296 -13.840  20.585  0.00  0.00     0.240 C 
ATOM     10  N1  3ZD d   1      16.753 -12.566  20.718  0.00  0.00    -0.355 N 
ATOM     11  H4  3ZD d   1      17.211 -11.862  21.261  0.00  0.00     0.162 HD
ATOM     12  O1  3ZD d   1      16.789 -14.769  19.924  0.00  0.00    -0.271 OA
BRANCH  10  13
ATOM     13  C3  3ZD d   1      15.428 -12.281  20.003  0.00  0.00     0.019 C 
ATOM     14  H2  3ZD d   1      15.491 -11.304  19.501  0.00  0.00     0.071 H 
ATOM     15  H3  3ZD d   1      15.245 -13.066  19.255  0.00  0.00     0.071 H 
BRANCH  13  16
ATOM     16  C2  3ZD d   1      14.312 -12.260  20.966  0.00  0.00    -0.040 A 
ATOM     17  C1  3ZD d   1      13.745 -13.426  21.476  0.00  0.00    -0.074 A 
ATOM     18  C8  3ZD d   1      12.708 -13.448  22.381  0.00  0.00    -0.069 A 
ATOM     19  H1  3ZD d   1      14.146 -14.375  21.139  0.00  0.00     0.084 H 
ATOM     20  C6  3ZD d   1      12.158 -12.236  22.855  0.00  0.00     0.007 A 
ATOM     21  H9  3ZD d   1      12.313 -14.395  22.730  0.00  0.00     0.085 H 
ATOM     22  C5  3ZD d   1      12.745 -11.095  22.340  0.00  0.00    -0.069 A 
ATOM     23  C4  3ZD d   1      13.767 -11.041  21.446  0.00  0.00    -0.074 A 
ATOM     24  H6  3ZD d   1      12.350 -10.146  22.685  0.00  0.00     0.085 H 
ATOM     25  H5  3ZD d   1      14.157 -10.088  21.107  0.00  0.00     0.084 H 
BRANCH  20  26
ATOM     26  C7  3ZD d   1      11.069 -12.191  23.812  0.00  0.00     0.102 C 
ATOM     27  N3  3ZD d   1      10.388 -13.322  24.116  0.00  0.00    -0.385 N 
ATOM     28  H10 3ZD d   1      10.636 -14.211  23.659  0.00  0.00     0.157 HD
ATOM     29  H11 3ZD d   1       9.622 -13.293  24.804  0.00  0.00     0.157 HD
BRANCH  26  30
ATOM     30  N2  3ZD d   1      10.723 -11.078  24.415  0.00  0.00    -0.385 N 
ATOM     31  H7  3ZD d   1       9.945 -11.078  25.090  0.00  0.00     0.157 HD
ATOM     32  H8  3ZD d   1      11.229 -10.204  24.213  0.00  0.00     0.157 HD
ENDBRANCH  26  30
ENDBRANCH  20  26
ENDBRANCH  13  16
ENDBRANCH  10  13
ENDBRANCH   7   9
BRANCH   7  33
ATOM     33  C11 3ZD d   1      19.909 -14.158  20.471  0.00  0.00    -0.049 C 
ATOM     34  H13 3ZD d   1      20.791 -14.291  21.115  0.00  0.00     0.030 H 
ATOM     35  H14 3ZD d   1      20.028 -13.245  19.870  0.00  0.00     0.030 H 
ATOM     36  H15 3ZD d   1      19.808 -15.026  19.803  0.00  0.00     0.030 H 
ENDBRANCH   7  33
ENDBRANCH   4   7
ENDBRANCH   1   3
BRANCH   1  37
ATOM     37  C16 3ZD d   1      18.335 -16.711  25.071  0.00  0.00    -0.013 C 
ATOM     38  H18 3ZD d   1      18.438 -17.702  25.537  0.00  0.00     0.043 H 
ATOM     39  H19 3ZD d   1      17.668 -16.086  25.682  0.00  0.00     0.043 H 
BRANCH  37  40
ATOM     40  C27 3ZD d   1      19.674 -16.070  25.039  0.00  0.00    -0.056 A 
ATOM     41  C26 3ZD d   1      19.892 -14.798  25.610  0.00  0.00    -0.077 A 
ATOM     42  C25 3ZD d   1      21.147 -14.211  25.558  0.00  0.00    -0.082 A 
ATOM     43  H30 3ZD d   1      19.073 -14.277  26.092  0.00  0.00     0.084 H 
ATOM     44  C24 3ZD d   1      22.236 -14.869  24.943  0.00  0.00    -0.083 A 
ATOM     45  H29 3ZD d   1      21.295 -13.231  25.997  0.00  0.00     0.083 H 
ATOM     46  C29 3ZD d   1      22.035 -16.114  24.395  0.00  0.00    -0.082 A 
ATOM     47  H28 3ZD d   1      23.213 -14.400  24.904  0.00  0.00     0.083 H 
ATOM     48  C28 3ZD d   1      20.764 -16.737  24.419  0.00  0.00    -0.077 A 
ATOM     49  H32 3ZD d   1      22.869 -16.630  23.934  0.00  0.00     0.083 H 
ATOM     50  H31 3ZD d   1      20.624 -17.713  23.969  0.00  0.00     0.084 H 
ENDBRANCH  37  40
ENDBRANCH   1  37
BRANCH   1  51
ATOM     51  N5  3ZD d   1      16.386 -17.421  23.956  0.00  0.00    -0.305 N 
ATOM     52  H20 3ZD d   1      15.959 -17.277  24.849  0.00  0.00     0.173 HD
BRANCH  51  53
ATOM     53  S1  3ZD d   1      15.640 -18.273  22.765  0.00  0.00     0.231 S 
ATOM     54  O4  3ZD d   1      16.685 -19.247  22.318  0.00  0.00    -0.206 OA
ATOM     55  O5  3ZD d   1      14.409 -18.847  23.377  0.00  0.00    -0.206 OA
BRANCH  53  56
ATOM     56  C17 3ZD d   1      15.154 -17.070  21.438  0.00  0.00     0.070 C 
ATOM     57  H21 3ZD d   1      16.018 -16.890  20.782  0.00  0.00     0.066 H 
ATOM     58  H22 3ZD d   1      14.846 -16.123  21.906  0.00  0.00     0.066 H 
BRANCH  56  59
ATOM     59  C21 3ZD d   1      14.069 -17.579  20.654  0.00  0.00    -0.043 A 
ATOM     60  C20 3ZD d   1      14.330 -18.385  19.541  0.00  0.00    -0.076 A 
ATOM     61  C19 3ZD d   1      13.238 -18.864  18.793  0.00  0.00    -0.082 A 
ATOM     62  H25 3ZD d   1      15.347 -18.634  19.262  0.00  0.00     0.084 H 
ATOM     63  C18 3ZD d   1      11.907 -18.563  19.121  0.00  0.00    -0.083 A 
ATOM     64  H24 3ZD d   1      13.433 -19.490  17.930  0.00  0.00     0.083 H 
ATOM     65  C23 3ZD d   1      11.652 -17.764  20.218  0.00  0.00    -0.082 A 
ATOM     66  H23 3ZD d   1      11.091 -18.952  18.522  0.00  0.00     0.083 H 
ATOM     67  C22 3ZD d   1      12.726 -17.272  20.985  0.00  0.00    -0.076 A 
ATOM     68  H27 3ZD d   1      10.631 -17.517  20.487  0.00  0.00     0.083 H 
ATOM     69  H26 3ZD d   1      12.521 -16.646  21.846  0.00  0.00     0.084 H 
ENDBRANCH  56  59
ENDBRANCH  53  56
ENDBRANCH  51  53
ENDBRANCH   1  51
TORSDOF 14
