REMARK  14 active torsions:
REMARK  status: ('A' for Active; 'I' for Inactive)
REMARK    1  A    between atoms: S_2  and  C20_4 
REMARK    2  A    between atoms: S_2  and  N4_11 
REMARK    3  A    between atoms: C20_4  and  C21_5 
REMARK    4  A    between atoms: N4_11  and  C12_12 
REMARK    5  A    between atoms: C12_12  and  C13_13 
REMARK    6  A    between atoms: C12_12  and  C11_20 
REMARK    7  A    between atoms: C13_13  and  C14_14 
REMARK       I    between atoms: C11_20  and  N_22 
REMARK    8  A    between atoms: N_22  and  C_23 
REMARK    9  A    between atoms: N_22  and  C1_24 
REMARK   10  A    between atoms: C1_24  and  C2_25 
REMARK       I    between atoms: C2_25  and  N1_27 
REMARK   11  A    between atoms: N1_27  and  C3_28 
REMARK   12  A    between atoms: C3_28  and  C4_29 
REMARK   13  A    between atoms: C7_32  and  C10_33 
REMARK   14  A    between atoms: C10_33  and  N3_34 
ROOT
ATOM      1  C12 6V2 d   1      61.966  -8.718 166.109  0.00  0.00     0.100 C 
ATOM      2  H9  6V2 d   1      62.591  -9.411 165.526  0.00  0.00     0.088 H 
ENDROOT
BRANCH   1   3
ATOM      3  N4  6V2 d   1      60.593  -9.202 166.215  0.00  0.00    -0.305 N 
ATOM      4  H8  6V2 d   1      60.117  -9.019 167.075  0.00  0.00     0.173 HD
BRANCH   3   5
ATOM      5  S   6V2 d   1      59.763 -10.005 165.080  0.00  0.00     0.231 S 
ATOM      6  O3  6V2 d   1      60.702 -10.834 164.384  0.00  0.00    -0.206 OA
ATOM      7  O2  6V2 d   1      58.649 -10.610 165.742  0.00  0.00    -0.206 OA
BRANCH   5   8
ATOM      8  C20 6V2 d   1      59.107  -8.790 163.952  0.00  0.00     0.070 C 
ATOM      9  H1  6V2 d   1      59.922  -8.429 163.308  0.00  0.00     0.066 H 
ATOM     10  H2  6V2 d   1      58.700  -7.950 164.534  0.00  0.00     0.066 H 
BRANCH   8  11
ATOM     11  C21 6V2 d   1      58.014  -9.351 163.082  0.00  0.00    -0.043 A 
ATOM     12  C26 6V2 d   1      58.314 -10.200 162.031  0.00  0.00    -0.076 A 
ATOM     13  C25 6V2 d   1      57.307 -10.721 161.236  0.00  0.00    -0.082 A 
ATOM     14  H3  6V2 d   1      59.347 -10.460 161.828  0.00  0.00     0.084 H 
ATOM     15  C24 6V2 d   1      55.991 -10.399 161.485  0.00  0.00    -0.083 A 
ATOM     16  H4  6V2 d   1      57.555 -11.384 160.415  0.00  0.00     0.083 H 
ATOM     17  C23 6V2 d   1      55.682  -9.554 162.529  0.00  0.00    -0.082 A 
ATOM     18  H5  6V2 d   1      55.203 -10.808 160.863  0.00  0.00     0.083 H 
ATOM     19  C22 6V2 d   1      56.688  -9.032 163.323  0.00  0.00    -0.076 A 
ATOM     20  H6  6V2 d   1      54.648  -9.297 162.729  0.00  0.00     0.083 H 
ATOM     21  H7  6V2 d   1      56.436  -8.367 164.141  0.00  0.00     0.084 H 
ENDBRANCH   8  11
ENDBRANCH   5   8
ENDBRANCH   3   5
ENDBRANCH   1   3
BRANCH   1  22
ATOM     22  C13 6V2 d   1      62.545  -8.532 167.520  0.00  0.00    -0.013 C 
ATOM     23  H10 6V2 d   1      62.608  -9.518 168.004  0.00  0.00     0.043 H 
ATOM     24  H11 6V2 d   1      61.866  -7.884 168.094  0.00  0.00     0.043 H 
BRANCH  22  25
ATOM     25  C14 6V2 d   1      63.918  -7.908 167.524  0.00  0.00    -0.056 A 
ATOM     26  C19 6V2 d   1      64.109  -6.621 167.998  0.00  0.00    -0.077 A 
ATOM     27  C18 6V2 d   1      65.363  -6.037 167.976  0.00  0.00    -0.082 A 
ATOM     28  H12 6V2 d   1      63.266  -6.064 168.391  0.00  0.00     0.084 H 
ATOM     29  C17 6V2 d   1      66.445  -6.736 167.487  0.00  0.00    -0.083 A 
ATOM     30  H13 6V2 d   1      65.495  -5.026 168.345  0.00  0.00     0.083 H 
ATOM     31  C16 6V2 d   1      66.272  -8.021 167.024  0.00  0.00    -0.082 A 
ATOM     32  H14 6V2 d   1      67.427  -6.277 167.467  0.00  0.00     0.083 H 
ATOM     33  C15 6V2 d   1      65.017  -8.605 167.042  0.00  0.00    -0.077 A 
ATOM     34  H15 6V2 d   1      67.121  -8.577 166.644  0.00  0.00     0.083 H 
ATOM     35  H16 6V2 d   1      64.891  -9.617 166.676  0.00  0.00     0.084 H 
ENDBRANCH  22  25
ENDBRANCH   1  22
BRANCH   1  36
ATOM     36  C11 6V2 d   1      61.850  -7.359 165.416  0.00  0.00     0.243 C 
ATOM     37  O1  6V2 d   1      60.967  -6.586 165.750  0.00  0.00    -0.271 OA
ATOM     38  N   6V2 d   1      62.746  -7.013 164.467  0.00  0.00    -0.346 N 
BRANCH  38  39
ATOM     39  C   6V2 d   1      63.823  -7.880 164.004  0.00  0.00    -0.015 C 
ATOM     40  H17 6V2 d   1      64.406  -7.359 163.230  0.00  0.00     0.056 H 
ATOM     41  H18 6V2 d   1      63.396  -8.802 163.583  0.00  0.00     0.056 H 
ATOM     42  H19 6V2 d   1      64.480  -8.133 164.850  0.00  0.00     0.056 H 
ENDBRANCH  38  39
BRANCH  38  43
ATOM     43  C1  6V2 d   1      62.662  -5.695 163.859  0.00  0.00     0.071 C 
ATOM     44  H20 6V2 d   1      63.520  -5.555 163.185  0.00  0.00     0.078 H 
ATOM     45  H21 6V2 d   1      62.689  -4.931 164.650  0.00  0.00     0.078 H 
BRANCH  43  46
ATOM     46  C2  6V2 d   1      61.377  -5.542 163.066  0.00  0.00     0.235 C 
ATOM     47  O   6V2 d   1      60.909  -6.478 162.423  0.00  0.00    -0.272 OA
ATOM     48  N1  6V2 d   1      60.794  -4.350 163.128  0.00  0.00    -0.355 N 
ATOM     49  H22 6V2 d   1      61.230  -3.611 163.642  0.00  0.00     0.162 HD
BRANCH  48  50
ATOM     50  C3  6V2 d   1      59.526  -4.109 162.455  0.00  0.00     0.019 C 
ATOM     51  H23 6V2 d   1      59.361  -4.912 161.721  0.00  0.00     0.071 H 
ATOM     52  H24 6V2 d   1      59.585  -3.142 161.934  0.00  0.00     0.071 H 
BRANCH  50  53
ATOM     53  C4  6V2 d   1      58.350  -4.074 163.401  0.00  0.00    -0.040 A 
ATOM     54  C9  6V2 d   1      57.855  -2.867 163.862  0.00  0.00    -0.074 A 
ATOM     55  C8  6V2 d   1      56.827  -2.824 164.785  0.00  0.00    -0.069 A 
ATOM     56  H25 6V2 d   1      58.280  -1.940 163.494  0.00  0.00     0.084 H 
ATOM     57  C7  6V2 d   1      56.255  -3.994 165.269  0.00  0.00     0.007 A 
ATOM     58  H26 6V2 d   1      56.462  -1.865 165.136  0.00  0.00     0.085 H 
ATOM     59  C6  6V2 d   1      56.742  -5.211 164.795  0.00  0.00    -0.069 A 
ATOM     60  C5  6V2 d   1      57.774  -5.244 163.873  0.00  0.00    -0.074 A 
ATOM     61  H31 6V2 d   1      56.309  -6.139 165.151  0.00  0.00     0.085 H 
ATOM     62  H32 6V2 d   1      58.138  -6.200 163.514  0.00  0.00     0.084 H 
BRANCH  57  63
ATOM     63  C10 6V2 d   1      55.160  -3.937 166.260  0.00  0.00     0.102 C 
ATOM     64  N2  6V2 d   1      54.488  -5.064 166.521  0.00  0.00    -0.385 N 
ATOM     65  H29 6V2 d   1      54.745  -5.939 166.042  0.00  0.00     0.157 HD
ATOM     66  H30 6V2 d   1      53.714  -5.056 167.201  0.00  0.00     0.157 HD
BRANCH  63  67
ATOM     67  N3  6V2 d   1      54.817  -2.860 166.873  0.00  0.00    -0.385 N 
ATOM     68  H27 6V2 d   1      54.045  -2.879 167.555  0.00  0.00     0.157 HD
ATOM     69  H28 6V2 d   1      55.314  -1.978 166.682  0.00  0.00     0.157 HD
ENDBRANCH  63  67
ENDBRANCH  57  63
ENDBRANCH  50  53
ENDBRANCH  48  50
ENDBRANCH  43  46
ENDBRANCH  38  43
ENDBRANCH   1  36
TORSDOF 14
