REMARK  16 active torsions:
REMARK  status: ('A' for Active; 'I' for Inactive)
REMARK    1  A    between atoms: S_2  and  C22_4 
REMARK    2  A    between atoms: S_2  and  N4_11 
REMARK    3  A    between atoms: C22_4  and  C23_5 
REMARK    4  A    between atoms: N4_11  and  C14_12 
REMARK    5  A    between atoms: C14_12  and  C15_13 
REMARK    6  A    between atoms: C14_12  and  C13_20 
REMARK    7  A    between atoms: C15_13  and  C16_14 
REMARK       I    between atoms: C13_20  and  N3_22 
REMARK    8  A    between atoms: N3_22  and  C12_23 
REMARK    9  A    between atoms: N3_22  and  C2_24 
REMARK   10  A    between atoms: C2_24  and  C1_25 
REMARK   11  A    between atoms: C2_24  and  C3_27 
REMARK   12  A    between atoms: C1_25  and  C_26 
REMARK       I    between atoms: C3_27  and  N_29 
REMARK   13  A    between atoms: N_29  and  C4_30 
REMARK   14  A    between atoms: C4_30  and  C5_31 
REMARK   15  A    between atoms: C8_34  and  C9_35 
REMARK   16  A    between atoms: C9_35  and  N2_36 
ROOT
ATOM      1  C13 D6J d   1     144.610 -13.330  94.518  0.00  0.00     0.243 C 
ATOM      2  O1  D6J d   1     143.857 -12.415  94.801  0.00  0.00    -0.271 OA
ATOM      3  N3  D6J d   1     145.464 -13.254  93.476  0.00  0.00    -0.341 N 
ENDROOT
BRANCH   3   4
ATOM      4  C12 D6J d   1     146.302 -14.358  93.012  0.00  0.00    -0.015 C 
ATOM      5  H17 D6J d   1     146.124 -15.243  93.641  0.00  0.00     0.056 H 
ATOM      6  H18 D6J d   1     147.361 -14.068  93.079  0.00  0.00     0.056 H 
ATOM      7  H19 D6J d   1     146.052 -14.594  91.967  0.00  0.00     0.056 H 
ENDBRANCH   3   4
BRANCH   3   8
ATOM      8  C2  D6J d   1     145.558 -11.974  92.760  0.00  0.00     0.091 C 
ATOM      9  H20 D6J d   1     145.708 -11.186  93.512  0.00  0.00     0.087 H 
BRANCH   8  10
ATOM     10  C1  D6J d   1     146.758 -11.926  91.815  0.00  0.00    -0.041 C 
ATOM     11  H21 D6J d   1     146.643 -12.719  91.062  0.00  0.00     0.036 H 
ATOM     12  H22 D6J d   1     147.673 -12.105  92.400  0.00  0.00     0.036 H 
BRANCH  10  13
ATOM     13  C   D6J d   1     146.891 -10.616  91.111  0.00  0.00    -0.074 C 
ATOM     14  H23 D6J d   1     147.769 -10.643  90.448  0.00  0.00     0.027 H 
ATOM     15  H24 D6J d   1     147.016  -9.813  91.852  0.00  0.00     0.027 H 
ATOM     16  H25 D6J d   1     145.987 -10.427  90.514  0.00  0.00     0.027 H 
ENDBRANCH  10  13
ENDBRANCH   8  10
BRANCH   8  17
ATOM     17  C3  D6J d   1     144.241 -11.675  92.038  0.00  0.00     0.240 C 
ATOM     18  O   D6J d   1     143.683 -12.535  91.358  0.00  0.00    -0.271 OA
ATOM     19  N   D6J d   1     143.745 -10.445  92.208  0.00  0.00    -0.355 N 
ATOM     20  H26 D6J d   1     144.217  -9.819  92.829  0.00  0.00     0.162 HD
BRANCH  19  21
ATOM     21  C4  D6J d   1     142.545  -9.979  91.526  0.00  0.00     0.019 C 
ATOM     22  H27 D6J d   1     142.332 -10.660  90.689  0.00  0.00     0.071 H 
ATOM     23  H28 D6J d   1     142.735  -8.968  91.136  0.00  0.00     0.071 H 
BRANCH  21  24
ATOM     24  C5  D6J d   1     141.331  -9.927  92.423  0.00  0.00    -0.040 A 
ATOM     25  C11 D6J d   1     140.752 -11.094  92.887  0.00  0.00    -0.074 A 
ATOM     26  C10 D6J d   1     139.673 -11.063  93.752  0.00  0.00    -0.069 A 
ATOM     27  H29 D6J d   1     141.151 -12.050  92.567  0.00  0.00     0.084 H 
ATOM     28  C8  D6J d   1     139.144  -9.850  94.182  0.00  0.00     0.007 A 
ATOM     29  H30 D6J d   1     139.235 -11.992  94.098  0.00  0.00     0.085 H 
ATOM     30  C7  D6J d   1     139.719  -8.676  93.708  0.00  0.00    -0.069 A 
ATOM     31  C6  D6J d   1     140.794  -8.717  92.836  0.00  0.00    -0.074 A 
ATOM     32  H35 D6J d   1     139.321  -7.718  94.025  0.00  0.00     0.085 H 
ATOM     33  H36 D6J d   1     141.222  -7.790  92.471  0.00  0.00     0.084 H 
BRANCH  28  34
ATOM     34  C9  D6J d   1     138.013  -9.842  95.131  0.00  0.00     0.102 C 
ATOM     35  N1  D6J d   1     137.285 -10.854  95.431  0.00  0.00    -0.385 N 
ATOM     36  H33 D6J d   1     137.476 -11.771  95.002  0.00  0.00     0.157 HD
ATOM     37  H34 D6J d   1     136.510 -10.750  96.101  0.00  0.00     0.157 HD
BRANCH  34  38
ATOM     38  N2  D6J d   1     137.706  -8.685  95.727  0.00  0.00    -0.385 N 
ATOM     39  H31 D6J d   1     136.923  -8.642  96.395  0.00  0.00     0.157 HD
ATOM     40  H32 D6J d   1     138.252  -7.837  95.518  0.00  0.00     0.157 HD
ENDBRANCH  34  38
ENDBRANCH  28  34
ENDBRANCH  21  24
ENDBRANCH  19  21
ENDBRANCH   8  17
ENDBRANCH   3   8
BRANCH   1  41
ATOM     41  C14 D6J d   1     144.529 -14.623  95.320  0.00  0.00     0.100 C 
ATOM     42  H9  D6J d   1     145.095 -15.370  94.744  0.00  0.00     0.088 H 
BRANCH  41  43
ATOM     43  N4  D6J d   1     143.210 -15.198  95.535  0.00  0.00    -0.305 N 
ATOM     44  H8  D6J d   1     142.767 -15.116  96.428  0.00  0.00     0.173 HD
BRANCH  43  45
ATOM     45  S   D6J d   1     142.461 -15.971  94.324  0.00  0.00     0.231 S 
ATOM     46  O3  D6J d   1     143.446 -16.799  93.693  0.00  0.00    -0.206 OA
ATOM     47  O2  D6J d   1     141.298 -16.576  94.894  0.00  0.00    -0.206 OA
BRANCH  45  48
ATOM     48  C22 D6J d   1     141.963 -14.764  93.110  0.00  0.00     0.070 C 
ATOM     49  H1  D6J d   1     142.831 -14.515  92.482  0.00  0.00     0.066 H 
ATOM     50  H2  D6J d   1     141.616 -13.860  93.632  0.00  0.00     0.066 H 
BRANCH  48  51
ATOM     51  C23 D6J d   1     140.858 -15.266  92.228  0.00  0.00    -0.043 A 
ATOM     52  C28 D6J d   1     141.136 -16.049  91.118  0.00  0.00    -0.076 A 
ATOM     53  C27 D6J d   1     140.116 -16.514  90.308  0.00  0.00    -0.082 A 
ATOM     54  H3  D6J d   1     142.164 -16.299  90.882  0.00  0.00     0.084 H 
ATOM     55  C26 D6J d   1     138.805 -16.204  90.597  0.00  0.00    -0.083 A 
ATOM     56  H4  D6J d   1     140.349 -17.124  89.443  0.00  0.00     0.083 H 
ATOM     57  C25 D6J d   1     138.515 -15.424  91.695  0.00  0.00    -0.082 A 
ATOM     58  H5  D6J d   1     138.006 -16.572  89.964  0.00  0.00     0.083 H 
ATOM     59  C24 D6J d   1     139.534 -14.959  92.505  0.00  0.00    -0.076 A 
ATOM     60  H6  D6J d   1     137.485 -15.174  91.924  0.00  0.00     0.083 H 
ATOM     61  H7  D6J d   1     139.296 -14.347  93.367  0.00  0.00     0.084 H 
ENDBRANCH  48  51
ENDBRANCH  45  48
ENDBRANCH  43  45
ENDBRANCH  41  43
BRANCH  41  62
ATOM     62  C15 D6J d   1     145.240 -14.446  96.669  0.00  0.00    -0.013 C 
ATOM     63  H10 D6J d   1     145.363 -15.440  97.123  0.00  0.00     0.043 H 
ATOM     64  H11 D6J d   1     144.601 -13.825  97.313  0.00  0.00     0.043 H 
BRANCH  62  65
ATOM     65  C16 D6J d   1     146.600 -13.795  96.591  0.00  0.00    -0.056 A 
ATOM     66  C21 D6J d   1     146.795 -12.503  97.055  0.00  0.00    -0.077 A 
ATOM     67  C20 D6J d   1     148.040 -11.906  96.986  0.00  0.00    -0.082 A 
ATOM     68  H12 D6J d   1     145.961 -11.954  97.477  0.00  0.00     0.084 H 
ATOM     69  C19 D6J d   1     149.113 -12.597  96.462  0.00  0.00    -0.083 A 
ATOM     70  H13 D6J d   1     148.174 -10.892  97.345  0.00  0.00     0.083 H 
ATOM     71  C18 D6J d   1     148.937 -13.886  96.014  0.00  0.00    -0.082 A 
ATOM     72  H14 D6J d   1     150.088 -12.127  96.404  0.00  0.00     0.083 H 
ATOM     73  C17 D6J d   1     147.690 -14.483  96.081  0.00  0.00    -0.077 A 
ATOM     74  H15 D6J d   1     149.778 -14.436  95.607  0.00  0.00     0.083 H 
ATOM     75  H16 D6J d   1     147.564 -15.501  95.730  0.00  0.00     0.084 H 
ENDBRANCH  62  65
ENDBRANCH  41  62
ENDBRANCH   1  41
TORSDOF 16
