REMARK  3 active torsions:
REMARK  status: ('A' for Active; 'I' for Inactive)
REMARK    1  A    between atoms: CAP_18  and  C2_2 
REMARK    2  A    between atoms: CAJ_16  and  CAI_15 
REMARK    3  A    between atoms: CAQ_19  and  CAU_20 
ROOT
ATOM      1  N1  2ZI d   1     -37.467 -11.243  13.025  0.00  0.00    -0.307 N 
ATOM      2  C2  2ZI d   1     -38.251 -12.023  12.143  0.00  0.00     0.141 A 
ATOM      3  N3  2ZI d   1     -39.094 -12.963  12.643  0.00  0.00    -0.229 NA
ATOM      4  C4  2ZI d   1     -39.191 -13.143  14.000  0.00  0.00     0.081 A 
ATOM      5  C5  2ZI d   1     -38.398 -12.379  14.911  0.00  0.00     0.061 A 
ATOM      6  C6  2ZI d   1     -37.519 -11.408  14.400  0.00  0.00     0.259 A 
ATOM      7  O6  2ZI d   1     -36.745 -10.699  15.071  0.00  0.00    -0.267 OA
ATOM      8  CAJ 2ZI d   1     -40.057 -14.143  14.481  0.00  0.00    -0.032 A 
ATOM      9  CAK 2ZI d   1     -38.522 -12.598  16.282  0.00  0.00    -0.065 A 
ATOM     10  CAC 2ZI d   1     -40.170 -14.360  15.864  0.00  0.00    -0.075 A 
ATOM     11  CAD 2ZI d   1     -39.412 -13.577  16.751  0.00  0.00    -0.081 A 
ATOM     12  H1  2ZI d   1     -36.855 -10.550  12.644  0.00  0.00     0.170 HD
ATOM     13  H9  2ZI d   1     -37.934 -12.015  16.982  0.00  0.00     0.085 H 
ATOM     14  H10 2ZI d   1     -40.837 -15.126  16.244  0.00  0.00     0.084 H 
ATOM     15  H11 2ZI d   1     -39.517 -13.732  17.819  0.00  0.00     0.083 H 
ENDROOT
BRANCH   2  16
ATOM     16  CAP 2ZI d   1     -38.195 -11.763  10.746  0.00  0.00     0.010 A 
ATOM     17  CAE 2ZI d   1     -38.774 -12.643   9.805  0.00  0.00    -0.069 A 
ATOM     18  CAG 2ZI d   1     -38.790 -12.313   8.425  0.00  0.00    -0.067 A 
ATOM     19  H2  2ZI d   1     -39.209 -13.578  10.140  0.00  0.00     0.085 H 
ATOM     20  CAQ 2ZI d   1     -38.261 -11.122   7.936  0.00  0.00     0.048 A 
ATOM     21  H4  2ZI d   1     -39.230 -13.014   7.726  0.00  0.00     0.084 H 
ATOM     22  CAH 2ZI d   1     -37.724 -10.226   8.876  0.00  0.00    -0.067 A 
ATOM     23  CAF 2ZI d   1     -37.693 -10.534  10.242  0.00  0.00    -0.069 A 
ATOM     24  H5  2ZI d   1     -37.325  -9.277   8.537  0.00  0.00     0.084 H 
ATOM     25  H3  2ZI d   1     -37.274  -9.813  10.935  0.00  0.00     0.085 H 
BRANCH  20  26
ATOM     26  CAU 2ZI d   1     -38.261 -10.827   6.488  0.00  0.00     0.417 C 
ATOM     27  FAB 2ZI d   1     -38.416  -9.545   6.290  0.00  0.00    -0.166 F 
ATOM     28  FAC 2ZI d   1     -39.223 -11.518   5.797  0.00  0.00    -0.166 F 
ATOM     29  FAD 2ZI d   1     -37.187 -11.169   5.936  0.00  0.00    -0.166 F 
ENDBRANCH  20  26
ENDBRANCH   2  16
BRANCH   8  30
ATOM     30  CAI 2ZI d   1     -40.827 -14.904  13.584  0.00  0.00    -0.049 C 
ATOM     31  H6  2ZI d   1     -41.435 -15.628  14.146  0.00  0.00     0.033 H 
ATOM     32  H7  2ZI d   1     -40.161 -15.442  12.894  0.00  0.00     0.033 H 
ATOM     33  H8  2ZI d   1     -41.488 -14.237  13.011  0.00  0.00     0.033 H 
ENDBRANCH   8  30
TORSDOF 3
