REMARK  3 active torsions:
REMARK  status: ('A' for Active; 'I' for Inactive)
REMARK    1  A    between atoms: CAB_3  and  CAA_4 
REMARK    2  A    between atoms: CAE_7  and  CAH_8 
REMARK    3  A    between atoms: CAO_11  and  CAP_12 
ROOT
ATOM      1  CAH M3W d   1     -39.051 -11.776  12.301  0.00  0.00     0.141 A 
ATOM      2  NAI M3W d   1     -39.859 -12.749  12.816  0.00  0.00    -0.229 NA
ATOM      3  CAJ M3W d   1     -39.889 -13.019  14.151  0.00  0.00     0.081 A 
ATOM      4  CAO M3W d   1     -40.752 -14.034  14.610  0.00  0.00    -0.032 A 
ATOM      5  CAN M3W d   1     -40.816 -14.327  15.979  0.00  0.00    -0.075 A 
ATOM      6  CAM M3W d   1     -40.018 -13.612  16.873  0.00  0.00    -0.081 A 
ATOM      7  CAL M3W d   1     -39.149 -12.600  16.418  0.00  0.00    -0.065 A 
ATOM      8  CAK M3W d   1     -39.093 -12.288  15.069  0.00  0.00     0.061 A 
ATOM      9  CAQ M3W d   1     -38.244 -11.305  14.588  0.00  0.00     0.259 A 
ATOM     10  OAR M3W d   1     -37.493 -10.658  15.316  0.00  0.00    -0.267 OA
ATOM     11  NAS M3W d   1     -38.251 -11.035  13.205  0.00  0.00    -0.307 N 
ATOM     12  H11 M3W d   1     -41.480 -15.103  16.341  0.00  0.00     0.084 H 
ATOM     13  H12 M3W d   1     -40.067 -13.838  17.932  0.00  0.00     0.083 H 
ATOM     14  H13 M3W d   1     -38.524 -12.065  17.124  0.00  0.00     0.085 H 
ATOM     15  H14 M3W d   1     -37.674 -10.299  12.851  0.00  0.00     0.170 HD
ENDROOT
BRANCH   1  16
ATOM     16  CAE M3W d   1     -39.067 -11.472  10.905  0.00  0.00     0.010 A 
ATOM     17  CAD M3W d   1     -39.847 -12.239  10.032  0.00  0.00    -0.069 A 
ATOM     18  CAC M3W d   1     -39.901 -11.947   8.663  0.00  0.00    -0.076 A 
ATOM     19  H1  M3W d   1     -40.419 -13.073  10.422  0.00  0.00     0.085 H 
ATOM     20  CAB M3W d   1     -39.208 -10.861   8.126  0.00  0.00    -0.062 A 
ATOM     21  H2  M3W d   1     -40.492 -12.577   8.008  0.00  0.00     0.084 H 
ATOM     22  CAG M3W d   1     -38.442 -10.067   8.985  0.00  0.00    -0.076 A 
ATOM     23  CAF M3W d   1     -38.372 -10.372  10.345  0.00  0.00    -0.069 A 
ATOM     24  H6  M3W d   1     -37.901  -9.213   8.594  0.00  0.00     0.084 H 
ATOM     25  H7  M3W d   1     -37.767  -9.748  10.993  0.00  0.00     0.085 H 
BRANCH  20  26
ATOM     26  CAA M3W d   1     -39.296 -10.584   6.748  0.00  0.00    -0.051 C 
ATOM     27  H3  M3W d   1     -38.688  -9.698   6.513  0.00  0.00     0.033 H 
ATOM     28  H4  M3W d   1     -40.345 -10.390   6.479  0.00  0.00     0.033 H 
ATOM     29  H5  M3W d   1     -38.924 -11.447   6.176  0.00  0.00     0.033 H 
ENDBRANCH  20  26
ENDBRANCH   1  16
BRANCH   4  30
ATOM     30  CAP M3W d   1     -41.567 -14.771  13.707  0.00  0.00    -0.049 C 
ATOM     31  H8  M3W d   1     -42.160 -15.509  14.267  0.00  0.00     0.033 H 
ATOM     32  H9  M3W d   1     -40.929 -15.291  12.978  0.00  0.00     0.033 H 
ATOM     33  H10 M3W d   1     -42.243 -14.083  13.178  0.00  0.00     0.033 H 
ENDBRANCH   4  30
TORSDOF 3
