REMARK  2 active torsions:
REMARK  status: ('A' for Active; 'I' for Inactive)
REMARK    1  A    between atoms: CAB_3  and  CAA_4 
REMARK    2  A    between atoms: CAE_7  and  CAH_8 
ROOT
ATOM      1  CAH SZ5 d   1     -38.823 -11.874  12.201  0.00  0.00     0.141 A 
ATOM      2  NAI SZ5 d   1     -39.638 -12.826  12.685  0.00  0.00    -0.230 NA
ATOM      3  CAJ SZ5 d   1     -39.676 -13.117  13.997  0.00  0.00     0.074 A 
ATOM      4  CAO SZ5 d   1     -40.546 -14.130  14.427  0.00  0.00    -0.054 A 
ATOM      5  CAN SZ5 d   1     -40.631 -14.424  15.779  0.00  0.00    -0.081 A 
ATOM      6  CAM SZ5 d   1     -39.876 -13.703  16.708  0.00  0.00    -0.082 A 
ATOM      7  CAL SZ5 d   1     -39.030 -12.668  16.274  0.00  0.00    -0.065 A 
ATOM      8  CAK SZ5 d   1     -38.933 -12.379  14.924  0.00  0.00     0.061 A 
ATOM      9  CAP SZ5 d   1     -38.045 -11.397  14.449  0.00  0.00     0.259 A 
ATOM     10  OAQ SZ5 d   1     -37.289 -10.742  15.176  0.00  0.00    -0.267 OA
ATOM     11  NAR SZ5 d   1     -38.024 -11.146  13.095  0.00  0.00    -0.307 N 
ATOM     12  H8  SZ5 d   1     -41.146 -14.678  13.709  0.00  0.00     0.087 H 
ATOM     13  H9  SZ5 d   1     -41.287 -15.218  16.118  0.00  0.00     0.083 H 
ATOM     14  H10 SZ5 d   1     -39.943 -13.942  17.763  0.00  0.00     0.083 H 
ATOM     15  H11 SZ5 d   1     -38.455 -12.098  16.995  0.00  0.00     0.085 H 
ATOM     16  H12 SZ5 d   1     -37.425 -10.428  12.741  0.00  0.00     0.170 HD
ENDROOT
BRANCH   1  17
ATOM     17  CAE SZ5 d   1     -38.811 -11.587  10.808  0.00  0.00     0.010 A 
ATOM     18  CAD SZ5 d   1     -39.425 -12.444   9.891  0.00  0.00    -0.069 A 
ATOM     19  CAC SZ5 d   1     -39.453 -12.128   8.526  0.00  0.00    -0.076 A 
ATOM     20  H1  SZ5 d   1     -39.884 -13.362  10.239  0.00  0.00     0.085 H 
ATOM     21  CAB SZ5 d   1     -38.886 -10.969   8.036  0.00  0.00    -0.062 A 
ATOM     22  H2  SZ5 d   1     -39.933 -12.813   7.836  0.00  0.00     0.084 H 
ATOM     23  CAG SZ5 d   1     -38.315 -10.082   8.937  0.00  0.00    -0.076 A 
ATOM     24  CAF SZ5 d   1     -38.280 -10.380  10.299  0.00  0.00    -0.069 A 
ATOM     25  H6  SZ5 d   1     -37.893  -9.150   8.579  0.00  0.00     0.084 H 
ATOM     26  H7  SZ5 d   1     -37.834  -9.668  10.984  0.00  0.00     0.085 H 
BRANCH  21  27
ATOM     27  CAA SZ5 d   1     -38.927 -10.683   6.636  0.00  0.00    -0.051 C 
ATOM     28  H3  SZ5 d   1     -38.427  -9.722   6.443  0.00  0.00     0.033 H 
ATOM     29  H4  SZ5 d   1     -39.974 -10.624   6.304  0.00  0.00     0.033 H 
ATOM     30  H5  SZ5 d   1     -38.411 -11.482   6.083  0.00  0.00     0.033 H 
ENDBRANCH  21  27
ENDBRANCH   1  17
TORSDOF 2
