REMARK  2 active torsions:
REMARK  status: ('A' for Active; 'I' for Inactive)
REMARK    1  A    between atoms: CAB_2  and  CAE_5 
REMARK    2  A    between atoms: CAH_8  and  CAK_11 
ROOT
ATOM      1  CAK 06R d   1     -39.073 -11.659  12.097  0.00  0.00     0.141 A 
ATOM      2  NAL 06R d   1     -39.912 -12.626  12.568  0.00  0.00    -0.230 NA
ATOM      3  CAM 06R d   1     -39.971 -12.917  13.895  0.00  0.00     0.074 A 
ATOM      4  CAN 06R d   1     -40.862 -13.930  14.284  0.00  0.00    -0.054 A 
ATOM      5  CAO 06R d   1     -40.980 -14.245  15.650  0.00  0.00    -0.081 A 
ATOM      6  CAP 06R d   1     -40.203 -13.539  16.583  0.00  0.00    -0.082 A 
ATOM      7  CAQ 06R d   1     -39.283 -12.547  16.194  0.00  0.00    -0.065 A 
ATOM      8  CAR 06R d   1     -39.168 -12.220  14.856  0.00  0.00     0.061 A 
ATOM      9  CAS 06R d   1     -38.299 -11.213  14.421  0.00  0.00     0.259 A 
ATOM     10  OAT 06R d   1     -37.549 -10.574  15.173  0.00  0.00    -0.267 OA
ATOM     11  NAU 06R d   1     -38.267 -10.939  13.044  0.00  0.00    -0.307 N 
ATOM     12  H5  06R d   1     -41.450 -14.461  13.544  0.00  0.00     0.087 H 
ATOM     13  H6  06R d   1     -41.661 -15.022  15.978  0.00  0.00     0.083 H 
ATOM     14  H7  06R d   1     -40.315 -13.765  17.637  0.00  0.00     0.083 H 
ATOM     15  H8  06R d   1     -38.672 -12.045  16.935  0.00  0.00     0.085 H 
ATOM     16  H9  06R d   1     -37.661 -10.217  12.710  0.00  0.00     0.170 HD
ENDROOT
BRANCH   1  17
ATOM     17  CAH 06R d   1     -39.052 -11.361  10.684  0.00  0.00     0.010 A 
ATOM     18  CAG 06R d   1     -39.773 -12.157   9.768  0.00  0.00    -0.069 A 
ATOM     19  CAF 06R d   1     -39.766 -11.867   8.378  0.00  0.00    -0.067 A 
ATOM     20  H2  06R d   1     -40.342 -13.005  10.132  0.00  0.00     0.085 H 
ATOM     21  CAE 06R d   1     -39.079 -10.761   7.849  0.00  0.00     0.048 A 
ATOM     22  H1  06R d   1     -40.308 -12.520   7.703  0.00  0.00     0.084 H 
ATOM     23  CAJ 06R d   1     -38.381  -9.961   8.773  0.00  0.00    -0.067 A 
ATOM     24  CAI 06R d   1     -38.358 -10.256  10.148  0.00  0.00    -0.069 A 
ATOM     25  H4  06R d   1     -37.844  -9.090   8.414  0.00  0.00     0.084 H 
ATOM     26  H3  06R d   1     -37.791  -9.616  10.815  0.00  0.00     0.085 H 
BRANCH  21  27
ATOM     27  CAB 06R d   1     -39.067 -10.443   6.429  0.00  0.00     0.417 C 
ATOM     28  FAA 06R d   1     -39.394  -9.072   6.227  0.00  0.00    -0.166 F 
ATOM     29  FAC 06R d   1     -39.953 -11.179   5.674  0.00  0.00    -0.166 F 
ATOM     30  FAD 06R d   1     -37.758 -10.751   5.860  0.00  0.00    -0.166 F 
ENDBRANCH  21  27
ENDBRANCH   1  17
TORSDOF 2
