REMARK  6 active torsions:
REMARK  status: ('A' for Active; 'I' for Inactive)
REMARK    1  A    between atoms: CAX_6  and  CAW_7 
REMARK    2  A    between atoms: CAW_7  and  OAV_8 
REMARK    3  A    between atoms: OAV_8  and  CAB_9 
REMARK       I    between atoms: CAB_9  and  NAC_11 
REMARK    4  A    between atoms: NAC_11  and  CAD_12 
REMARK    5  A    between atoms: CAD_12  and  CAE_13 
REMARK    6  A    between atoms: CAH_18  and  CAK_19 
ROOT
ATOM      1  CAE RJN d   1     -55.530 -42.190  21.323  0.00  0.00    -0.040 A 
ATOM      2  CAJ RJN d   1     -56.599 -42.895  20.773  0.00  0.00    -0.074 A 
ATOM      3  CAI RJN d   1     -56.829 -42.890  19.399  0.00  0.00    -0.069 A 
ATOM      4  CAF RJN d   1     -54.709 -41.439  20.463  0.00  0.00    -0.074 A 
ATOM      5  CAG RJN d   1     -54.946 -41.428  19.090  0.00  0.00    -0.069 A 
ATOM      6  CAH RJN d   1     -56.018 -42.155  18.530  0.00  0.00     0.010 A 
ATOM      7  H11 RJN d   1     -57.261 -43.455  21.424  0.00  0.00     0.084 H 
ATOM      8  H12 RJN d   1     -57.653 -43.468  18.996  0.00  0.00     0.085 H 
ATOM      9  H13 RJN d   1     -53.886 -40.864  20.871  0.00  0.00     0.084 H 
ATOM     10  H14 RJN d   1     -54.296 -40.852  18.441  0.00  0.00     0.085 H 
ENDROOT
BRANCH   1  11
ATOM     11  CAD RJN d   1     -55.343 -42.193  22.723  0.00  0.00     0.021 C 
ATOM     12  H9  RJN d   1     -55.747 -43.115  23.165  0.00  0.00     0.071 H 
ATOM     13  H10 RJN d   1     -54.275 -42.105  22.971  0.00  0.00     0.071 H 
BRANCH  11  14
ATOM     14  NAC RJN d   1     -56.095 -41.003  23.214  0.00  0.00    -0.333 N 
ATOM     15  CAB RJN d   1     -56.561 -40.841  24.455  0.00  0.00     0.361 C 
ATOM     16  OAA RJN d   1     -56.336 -41.723  25.292  0.00  0.00    -0.239 OA
ATOM     17  H8  RJN d   1     -56.264 -40.265  22.560  0.00  0.00     0.165 HD
BRANCH  15  18
ATOM     18  OAV RJN d   1     -57.268 -39.674  24.750  0.00  0.00    -0.299 OA
BRANCH  18  19
ATOM     19  CAW RJN d   1     -57.778 -39.444  26.112  0.00  0.00     0.054 C 
ATOM     20  H6  RJN d   1     -58.878 -39.473  26.102  0.00  0.00     0.082 H 
ATOM     21  H7  RJN d   1     -57.397 -40.227  26.784  0.00  0.00     0.082 H 
BRANCH  19  22
ATOM     22  CAX RJN d   1     -57.346 -38.187  26.565  0.00  0.00    -0.034 A 
ATOM     23  CAY RJN d   1     -58.150 -37.043  26.469  0.00  0.00    -0.075 A 
ATOM     24  CAZ RJN d   1     -57.684 -35.811  26.939  0.00  0.00    -0.082 A 
ATOM     25  H1  RJN d   1     -59.138 -37.114  26.028  0.00  0.00     0.084 H 
ATOM     26  CBA RJN d   1     -56.418 -35.705  27.515  0.00  0.00    -0.083 A 
ATOM     27  H2  RJN d   1     -58.312 -34.931  26.855  0.00  0.00     0.083 H 
ATOM     28  CBB RJN d   1     -55.618 -36.838  27.629  0.00  0.00    -0.082 A 
ATOM     29  H3  RJN d   1     -56.060 -34.746  27.872  0.00  0.00     0.083 H 
ATOM     30  CBC RJN d   1     -56.083 -38.068  27.161  0.00  0.00    -0.075 A 
ATOM     31  H4  RJN d   1     -54.635 -36.765  28.081  0.00  0.00     0.083 H 
ATOM     32  H5  RJN d   1     -55.456 -38.947  27.260  0.00  0.00     0.084 H 
ENDBRANCH  19  22
ENDBRANCH  18  19
ENDBRANCH  15  18
ENDBRANCH  11  14
ENDBRANCH   1  11
BRANCH   6  33
ATOM     33  CAK RJN d   1     -56.307 -42.190  17.143  0.00  0.00     0.141 A 
ATOM     34  NAL RJN d   1     -57.250 -43.058  16.719  0.00  0.00    -0.230 NA
ATOM     35  CAM RJN d   1     -57.580 -43.147  15.412  0.00  0.00     0.074 A 
ATOM     36  CAR RJN d   1     -58.556 -44.095  15.034  0.00  0.00    -0.054 A 
ATOM     37  CAN RJN d   1     -56.959 -42.330  14.434  0.00  0.00     0.061 A 
ATOM     38  CAQ RJN d   1     -58.911 -44.231  13.690  0.00  0.00    -0.081 A 
ATOM     39  H15 RJN d   1     -59.029 -44.716  15.786  0.00  0.00     0.087 H 
ATOM     40  CAP RJN d   1     -58.285 -43.411  12.739  0.00  0.00    -0.082 A 
ATOM     41  H16 RJN d   1     -59.657 -44.957  13.387  0.00  0.00     0.083 H 
ATOM     42  CAO RJN d   1     -57.309 -42.467  13.106  0.00  0.00    -0.065 A 
ATOM     43  H17 RJN d   1     -58.560 -43.507  11.695  0.00  0.00     0.083 H 
ATOM     44  H18 RJN d   1     -56.835 -41.851  12.351  0.00  0.00     0.085 H 
ATOM     45  CAS RJN d   1     -56.000 -41.431  14.825  0.00  0.00     0.259 A 
ATOM     46  OAT RJN d   1     -55.451 -40.712  14.017  0.00  0.00    -0.267 OA
ATOM     47  NAU RJN d   1     -55.665 -41.355  16.178  0.00  0.00    -0.307 N 
ATOM     48  H19 RJN d   1     -54.965 -40.706  16.476  0.00  0.00     0.170 HD
ENDBRANCH   6  33
TORSDOF 6
