REMARK  3 active torsions:
REMARK  status: ('A' for Active; 'I' for Inactive)
REMARK    1  A    between atoms: CAA_1  and  OAB_2 
REMARK    2  A    between atoms: OAB_2  and  CAC_3 
REMARK    3  A    between atoms: CAQ_17  and  CAR_18 
ROOT
ATOM      1  CAC BJ4 d   1     -56.612 -44.634  14.900  0.00  0.00     0.098 A 
ATOM      2  CAD BJ4 d   1     -56.820 -44.755  13.525  0.00  0.00    -0.048 A 
ATOM      3  CAE BJ4 d   1     -56.063 -43.974  12.638  0.00  0.00    -0.079 A 
ATOM      4  CAF BJ4 d   1     -55.133 -43.044  13.118  0.00  0.00    -0.065 A 
ATOM      5  CAG BJ4 d   1     -54.919 -42.931  14.473  0.00  0.00     0.064 A 
ATOM      6  CAH BJ4 d   1     -55.651 -43.724  15.374  0.00  0.00     0.108 A 
ATOM      7  NAI BJ4 d   1     -55.410 -43.627  16.707  0.00  0.00    -0.227 NA
ATOM      8  CAJ BJ4 d   1     -54.502 -42.760  17.216  0.00  0.00     0.141 A 
ATOM      9  NAK BJ4 d   1     -53.792 -41.934  16.319  0.00  0.00    -0.307 N 
ATOM     10  CAL BJ4 d   1     -53.997 -41.988  14.974  0.00  0.00     0.259 A 
ATOM     11  OAM BJ4 d   1     -53.366 -41.192  14.251  0.00  0.00    -0.267 OA
ATOM     12  CAN BJ4 d   1     -54.254 -42.702  18.596  0.00  0.00     0.010 A 
ATOM     13  CAO BJ4 d   1     -55.078 -43.398  19.488  0.00  0.00    -0.069 A 
ATOM     14  CAP BJ4 d   1     -54.820 -43.395  20.861  0.00  0.00    -0.076 A 
ATOM     15  CAQ BJ4 d   1     -53.728 -42.718  21.380  0.00  0.00    -0.062 A 
ATOM     16  CAS BJ4 d   1     -52.871 -42.061  20.509  0.00  0.00    -0.076 A 
ATOM     17  CAT BJ4 d   1     -53.111 -42.060  19.128  0.00  0.00    -0.069 A 
ATOM     18  H4  BJ4 d   1     -57.562 -45.448  13.145  0.00  0.00     0.087 H 
ATOM     19  H5  BJ4 d   1     -56.200 -44.092  11.569  0.00  0.00     0.083 H 
ATOM     20  H6  BJ4 d   1     -54.584 -42.416  12.426  0.00  0.00     0.085 H 
ATOM     21  H7  BJ4 d   1     -53.118 -41.290  16.682  0.00  0.00     0.170 HD
ATOM     22  H8  BJ4 d   1     -55.931 -43.949  19.107  0.00  0.00     0.085 H 
ATOM     23  H9  BJ4 d   1     -55.484 -43.930  21.530  0.00  0.00     0.084 H 
ATOM     24  H13 BJ4 d   1     -52.004 -41.542  20.902  0.00  0.00     0.084 H 
ATOM     25  H14 BJ4 d   1     -52.415 -41.563  18.462  0.00  0.00     0.085 H 
ENDROOT
BRANCH   1  26
ATOM     26  OAB BJ4 d   1     -57.267 -45.350  15.868  0.00  0.00    -0.354 OA
BRANCH  26  27
ATOM     27  CAA BJ4 d   1     -58.446 -46.088  15.427  0.00  0.00     0.010 C 
ATOM     28  H1  BJ4 d   1     -58.886 -46.621  16.283  0.00  0.00     0.066 H 
ATOM     29  H2  BJ4 d   1     -58.156 -46.814  14.653  0.00  0.00     0.066 H 
ATOM     30  H3  BJ4 d   1     -59.185 -45.386  15.013  0.00  0.00     0.066 H 
ENDBRANCH  26  27
ENDBRANCH   1  26
BRANCH  15  31
ATOM     31  CAR BJ4 d   1     -53.480 -42.713  22.771  0.00  0.00    -0.051 C 
ATOM     32  H10 BJ4 d   1     -52.574 -42.125  22.980  0.00  0.00     0.033 H 
ATOM     33  H11 BJ4 d   1     -53.336 -43.746  23.122  0.00  0.00     0.033 H 
ATOM     34  H12 BJ4 d   1     -54.337 -42.264  23.295  0.00  0.00     0.033 H 
ENDBRANCH  15  31
TORSDOF 3
