REMARK  4 active torsions:
REMARK  status: ('A' for Active; 'I' for Inactive)
REMARK    1  A    between atoms: CAA_1  and  OAB_2 
REMARK    2  A    between atoms: OAB_2  and  CAC_3 
REMARK    3  A    between atoms: CAJ_13  and  CAN_14 
REMARK    4  A    between atoms: CAQ_17  and  CAT_18 
ROOT
ATOM      1  CAC ECZ d   1     -56.998 -44.692  14.960  0.00  0.00     0.098 A 
ATOM      2  CAH ECZ d   1     -56.043 -43.772  15.438  0.00  0.00     0.108 A 
ATOM      3  NAI ECZ d   1     -55.821 -43.727  16.790  0.00  0.00    -0.227 NA
ATOM      4  CAD ECZ d   1     -57.242 -44.823  13.592  0.00  0.00    -0.048 A 
ATOM      5  CAE ECZ d   1     -56.499 -44.050  12.701  0.00  0.00    -0.079 A 
ATOM      6  CAF ECZ d   1     -55.559 -43.125  13.166  0.00  0.00    -0.065 A 
ATOM      7  CAG ECZ d   1     -55.302 -42.993  14.520  0.00  0.00     0.064 A 
ATOM      8  CAL ECZ d   1     -54.382 -42.051  14.997  0.00  0.00     0.259 A 
ATOM      9  OAM ECZ d   1     -53.722 -41.285  14.268  0.00  0.00    -0.267 OA
ATOM     10  NAK ECZ d   1     -54.180 -42.029  16.371  0.00  0.00    -0.307 N 
ATOM     11  CAJ ECZ d   1     -54.906 -42.840  17.280  0.00  0.00     0.141 A 
ATOM     12  H4  ECZ d   1     -57.995 -45.513  13.229  0.00  0.00     0.087 H 
ATOM     13  H5  ECZ d   1     -56.652 -44.167  11.634  0.00  0.00     0.083 H 
ATOM     14  H6  ECZ d   1     -55.025 -42.503  12.457  0.00  0.00     0.085 H 
ATOM     15  H7  ECZ d   1     -53.487 -41.409  16.738  0.00  0.00     0.170 HD
ENDROOT
BRANCH  11  16
ATOM     16  CAN ECZ d   1     -54.628 -42.779  18.664  0.00  0.00     0.010 A 
ATOM     17  CAO ECZ d   1     -53.467 -42.123  19.174  0.00  0.00    -0.069 A 
ATOM     18  CAP ECZ d   1     -53.177 -42.110  20.536  0.00  0.00    -0.067 A 
ATOM     19  H8  ECZ d   1     -52.796 -41.623  18.485  0.00  0.00     0.085 H 
ATOM     20  CAQ ECZ d   1     -54.004 -42.789  21.449  0.00  0.00     0.048 A 
ATOM     21  H9  ECZ d   1     -52.307 -41.572  20.895  0.00  0.00     0.084 H 
ATOM     22  CAR ECZ d   1     -55.128 -43.453  20.943  0.00  0.00    -0.067 A 
ATOM     23  CAS ECZ d   1     -55.415 -43.474  19.560  0.00  0.00    -0.069 A 
ATOM     24  H10 ECZ d   1     -55.794 -43.963  21.629  0.00  0.00     0.084 H 
ATOM     25  H11 ECZ d   1     -56.264 -44.043  19.198  0.00  0.00     0.085 H 
BRANCH  20  26
ATOM     26  CAT ECZ d   1     -53.712 -42.786  22.860  0.00  0.00     0.417 C 
ATOM     27  FAV ECZ d   1     -52.386 -43.077  23.066  0.00  0.00    -0.166 F 
ATOM     28  FAW ECZ d   1     -54.436 -43.705  23.523  0.00  0.00    -0.166 F 
ATOM     29  FAU ECZ d   1     -54.020 -41.562  23.448  0.00  0.00    -0.166 F 
ENDBRANCH  20  26
ENDBRANCH  11  16
BRANCH   1  30
ATOM     30  OAB ECZ d   1     -57.626 -45.408  15.932  0.00  0.00    -0.354 OA
BRANCH  30  31
ATOM     31  CAA ECZ d   1     -58.811 -46.173  15.473  0.00  0.00     0.010 C 
ATOM     32  H1  ECZ d   1     -59.249 -46.716  16.323  0.00  0.00     0.066 H 
ATOM     33  H2  ECZ d   1     -58.506 -46.891  14.697  0.00  0.00     0.066 H 
ATOM     34  H3  ECZ d   1     -59.557 -45.479  15.058  0.00  0.00     0.066 H 
ENDBRANCH  30  31
ENDBRANCH   1  30
TORSDOF 4
