REMARK  3 active torsions:
REMARK  status: ('A' for Active; 'I' for Inactive)
REMARK    1  A    between atoms: CAB_3  and  CAA_4 
REMARK    2  A    between atoms: CAE_7  and  CAH_8 
REMARK    3  A    between atoms: CAO_11  and  OAP_12 
ROOT
ATOM      1  CAH VT3 d   1     -38.744 -11.933  12.097  0.00  0.00     0.141 A 
ATOM      2  NAI VT3 d   1     -39.517 -12.938  12.606  0.00  0.00    -0.227 NA
ATOM      3  CAJ VT3 d   1     -39.578 -13.168  13.929  0.00  0.00     0.108 A 
ATOM      4  CAO VT3 d   1     -40.401 -14.175  14.398  0.00  0.00     0.095 A 
ATOM      5  CAN VT3 d   1     -40.520 -14.406  15.775  0.00  0.00    -0.049 A 
ATOM      6  CAM VT3 d   1     -39.795 -13.621  16.674  0.00  0.00    -0.079 A 
ATOM      7  CAL VT3 d   1     -38.957 -12.584  16.205  0.00  0.00    -0.065 A 
ATOM      8  CAK VT3 d   1     -38.848 -12.373  14.841  0.00  0.00     0.064 A 
ATOM      9  CAQ VT3 d   1     -37.977 -11.396  14.331  0.00  0.00     0.259 A 
ATOM     10  OAR VT3 d   1     -37.234 -10.737  15.048  0.00  0.00    -0.267 OA
ATOM     11  NAS VT3 d   1     -37.935 -11.176  12.971  0.00  0.00    -0.307 N 
ATOM     12  H9  VT3 d   1     -41.172 -15.191  16.141  0.00  0.00     0.087 H 
ATOM     13  H10 VT3 d   1     -39.876 -13.808  17.739  0.00  0.00     0.083 H 
ATOM     14  H11 VT3 d   1     -38.408 -11.963  16.903  0.00  0.00     0.085 H 
ATOM     15  H12 VT3 d   1     -37.326 -10.474  12.601  0.00  0.00     0.170 HD
ENDROOT
BRANCH   1  16
ATOM     16  CAE VT3 d   1     -38.679 -11.673  10.702  0.00  0.00     0.010 A 
ATOM     17  CAD VT3 d   1     -38.125 -10.470  10.199  0.00  0.00    -0.069 A 
ATOM     18  CAC VT3 d   1     -38.068 -10.205   8.828  0.00  0.00    -0.076 A 
ATOM     19  H1  VT3 d   1     -37.735  -9.736  10.895  0.00  0.00     0.085 H 
ATOM     20  CAB VT3 d   1     -38.607 -11.116   7.925  0.00  0.00    -0.062 A 
ATOM     21  H2  VT3 d   1     -37.605  -9.293   8.469  0.00  0.00     0.084 H 
ATOM     22  CAG VT3 d   1     -39.216 -12.271   8.413  0.00  0.00    -0.076 A 
ATOM     23  CAF VT3 d   1     -39.243 -12.563   9.787  0.00  0.00    -0.069 A 
ATOM     24  H6  VT3 d   1     -39.679 -12.960   7.716  0.00  0.00     0.084 H 
ATOM     25  H7  VT3 d   1     -39.702 -13.480  10.137  0.00  0.00     0.085 H 
BRANCH  20  26
ATOM     26  CAA VT3 d   1     -38.571 -10.866   6.546  0.00  0.00    -0.051 C 
ATOM     27  H3  VT3 d   1     -39.045 -11.701   6.010  0.00  0.00     0.033 H 
ATOM     28  H4  VT3 d   1     -37.526 -10.766   6.219  0.00  0.00     0.033 H 
ATOM     29  H5  VT3 d   1     -39.114  -9.935   6.328  0.00  0.00     0.033 H 
ENDBRANCH  20  26
ENDBRANCH   1  16
BRANCH   4  30
ATOM     30  OAP VT3 d   1     -41.069 -14.916  13.443  0.00  0.00    -0.358 OA
ATOM     31  H8  VT3 d   1     -41.602 -15.575  13.871  0.00  0.00     0.217 HD
ENDBRANCH   4  30
TORSDOF 3
