REMARK  3 active torsions:
REMARK  status: ('A' for Active; 'I' for Inactive)
REMARK    1  A    between atoms: CAP_3  and  CAS_4 
REMARK    2  A    between atoms: CAM_10  and  CAI_11 
REMARK    3  A    between atoms: CAB_14  and  OAA_15 
ROOT
ATOM      1  CAI IY5 d   1     -54.581 -42.916  17.280  0.00  0.00     0.141 A 
ATOM      2  NAH IY5 d   1     -55.497 -43.792  16.781  0.00  0.00    -0.227 NA
ATOM      3  CAG IY5 d   1     -55.730 -43.889  15.453  0.00  0.00     0.108 A 
ATOM      4  CAB IY5 d   1     -56.691 -44.795  14.962  0.00  0.00     0.095 A 
ATOM      5  CAC IY5 d   1     -56.933 -44.947  13.598  0.00  0.00    -0.049 A 
ATOM      6  CAD IY5 d   1     -56.197 -44.176  12.705  0.00  0.00    -0.079 A 
ATOM      7  CAE IY5 d   1     -55.246 -43.262  13.175  0.00  0.00    -0.065 A 
ATOM      8  CAF IY5 d   1     -55.001 -43.111  14.532  0.00  0.00     0.064 A 
ATOM      9  CAK IY5 d   1     -54.039 -42.187  15.014  0.00  0.00     0.259 A 
ATOM     10  OAL IY5 d   1     -53.385 -41.437  14.298  0.00  0.00    -0.267 OA
ATOM     11  NAJ IY5 d   1     -53.842 -42.100  16.378  0.00  0.00    -0.307 N 
ATOM     12  H6  IY5 d   1     -57.678 -45.650  13.242  0.00  0.00     0.087 H 
ATOM     13  H7  IY5 d   1     -56.360 -44.283  11.639  0.00  0.00     0.083 H 
ATOM     14  H8  IY5 d   1     -54.690 -42.661  12.464  0.00  0.00     0.085 H 
ATOM     15  H9  IY5 d   1     -53.169 -41.453  16.738  0.00  0.00     0.170 HD
ENDROOT
BRANCH   1  16
ATOM     16  CAM IY5 d   1     -54.334 -42.827  18.673  0.00  0.00     0.010 A 
ATOM     17  CAN IY5 d   1     -55.165 -43.463  19.592  0.00  0.00    -0.069 A 
ATOM     18  CAO IY5 d   1     -54.895 -43.393  20.960  0.00  0.00    -0.067 A 
ATOM     19  H1  IY5 d   1     -56.029 -44.017  19.242  0.00  0.00     0.085 H 
ATOM     20  CAP IY5 d   1     -53.780 -42.710  21.474  0.00  0.00     0.048 A 
ATOM     21  H2  IY5 d   1     -55.571 -43.884  21.651  0.00  0.00     0.084 H 
ATOM     22  CAQ IY5 d   1     -52.937 -42.087  20.544  0.00  0.00    -0.067 A 
ATOM     23  CAR IY5 d   1     -53.199 -42.155  19.186  0.00  0.00    -0.069 A 
ATOM     24  H3  IY5 d   1     -52.066 -41.544  20.893  0.00  0.00     0.084 H 
ATOM     25  H4  IY5 d   1     -52.514 -41.679  18.494  0.00  0.00     0.085 H 
BRANCH  20  26
ATOM     26  CAS IY5 d   1     -53.508 -42.635  22.893  0.00  0.00     0.417 C 
ATOM     27  FAU IY5 d   1     -54.131 -43.607  23.588  0.00  0.00    -0.166 F 
ATOM     28  FAV IY5 d   1     -53.899 -41.413  23.456  0.00  0.00    -0.166 F 
ATOM     29  FAT IY5 d   1     -52.206 -42.771  23.100  0.00  0.00    -0.166 F 
ENDBRANCH  20  26
ENDBRANCH   1  16
BRANCH   4  30
ATOM     30  OAA IY5 d   1     -57.384 -45.511  15.868  0.00  0.00    -0.358 OA
ATOM     31  H5  IY5 d   1     -57.996 -46.081  15.418  0.00  0.00     0.217 HD
ENDBRANCH   4  30
TORSDOF 3
