REMARK  16 active torsions:
REMARK  status: ('A' for Active; 'I' for Inactive)
REMARK    1  A    between atoms: C22_6  and  C21_7 
REMARK    2  A    between atoms: C21_7  and  C14_8 
REMARK    3  A    between atoms: C14_8  and  C15_9 
REMARK    4  A    between atoms: C14_8  and  N13_17 
REMARK       I    between atoms: C15_9  and  N17_11 
REMARK    5  A    between atoms: N17_11  and  C18_12 
REMARK    6  A    between atoms: C18_12  and  C19_13 
REMARK    7  A    between atoms: C19_13  and  C20_14 
REMARK    8  A    between atoms: C20_14  and  C26_15 
REMARK    9  A    between atoms: C20_14  and  C27_16 
REMARK       I    between atoms: N13_17  and  C11_18 
REMARK       I    between atoms: C11_18  and  N10_20 
REMARK   10  A    between atoms: N10_20  and  C6_21 
REMARK   11  A    between atoms: C6_21  and  C7_22 
REMARK   12  A    between atoms: C6_21  and  C5_25 
REMARK   13  A    between atoms: C5_25  and  C4_26 
REMARK   14  A    between atoms: C4_26  and  C3_27 
REMARK   15  A    between atoms: C3_27  and  C2_28 
REMARK   16  A    between atoms: C2_28  and  N1_29 
ROOT
ATOM      1  C14 FH9 d   1      66.508  39.110  43.922  0.00  0.00     0.091 C 
ATOM      2  H14 FH9 d   1      66.368  38.069  43.596  0.00  0.00     0.087 H 
ENDROOT
BRANCH   1   3
ATOM      3  C21 FH9 d   1      67.960  39.189  44.499  0.00  0.00    -0.035 C 
ATOM      4  H12 FH9 d   1      67.981  38.544  45.390  0.00  0.00     0.037 H 
ATOM      5  H13 FH9 d   1      68.628  38.774  43.730  0.00  0.00     0.037 H 
BRANCH   3   6
ATOM      6  C22 FH9 d   1      68.564  40.558  44.924  0.00  0.00    -0.052 C 
ATOM      7  C23 FH9 d   1      69.094  41.449  43.773  0.00  0.00    -0.062 C 
ATOM      8  C24 FH9 d   1      69.921  42.644  44.303  0.00  0.00    -0.065 C 
ATOM      9  H1  FH9 d   1      69.731  40.839  43.116  0.00  0.00     0.033 H 
ATOM     10  H2  FH9 d   1      68.239  41.835  43.199  0.00  0.00     0.033 H 
ATOM     11  C25 FH9 d   1      69.183  43.434  45.411  0.00  0.00    -0.065 C 
ATOM     12  H3  FH9 d   1      70.132  43.325  43.466  0.00  0.00     0.033 H 
ATOM     13  H4  FH9 d   1      70.868  42.263  44.713  0.00  0.00     0.033 H 
ATOM     14  C28 FH9 d   1      68.688  42.522  46.558  0.00  0.00    -0.065 C 
ATOM     15  H5  FH9 d   1      68.315  43.942  44.964  0.00  0.00     0.033 H 
ATOM     16  H6  FH9 d   1      69.871  44.184  45.828  0.00  0.00     0.033 H 
ATOM     17  C29 FH9 d   1      67.833  41.340  46.044  0.00  0.00    -0.062 C 
ATOM     18  H7  FH9 d   1      68.080  43.123  47.250  0.00  0.00     0.033 H 
ATOM     19  H8  FH9 d   1      69.562  42.120  47.092  0.00  0.00     0.033 H 
ATOM     20  H9  FH9 d   1      66.884  41.730  45.647  0.00  0.00     0.033 H 
ATOM     21  H10 FH9 d   1      67.627  40.657  46.881  0.00  0.00     0.033 H 
ATOM     22  H11 FH9 d   1      69.491  40.247  45.428  0.00  0.00     0.040 H 
ENDBRANCH   3   6
ENDBRANCH   1   3
BRANCH   1  23
ATOM     23  C15 FH9 d   1      66.285  39.977  42.664  0.00  0.00     0.240 C 
ATOM     24  O16 FH9 d   1      66.832  39.672  41.604  0.00  0.00    -0.271 OA
ATOM     25  N17 FH9 d   1      65.406  40.977  42.791  0.00  0.00    -0.359 N 
ATOM     26  H15 FH9 d   1      64.987  41.131  43.686  0.00  0.00     0.162 HD
BRANCH  25  27
ATOM     27  C18 FH9 d   1      65.026  41.862  41.676  0.00  0.00    -0.004 C 
ATOM     28  H16 FH9 d   1      64.029  41.576  41.310  0.00  0.00     0.064 H 
ATOM     29  H17 FH9 d   1      65.759  41.756  40.863  0.00  0.00     0.064 H 
BRANCH  27  30
ATOM     30  C19 FH9 d   1      64.994  43.330  42.142  0.00  0.00    -0.048 C 
ATOM     31  H18 FH9 d   1      65.867  43.503  42.788  0.00  0.00     0.035 H 
ATOM     32  H19 FH9 d   1      64.072  43.485  42.722  0.00  0.00     0.035 H 
BRANCH  30  33
ATOM     33  C20 FH9 d   1      65.026  44.376  41.001  0.00  0.00    -0.060 C 
ATOM     34  H20 FH9 d   1      64.968  45.347  41.515  0.00  0.00     0.038 H 
BRANCH  33  35
ATOM     35  C26 FH9 d   1      63.801  44.348  40.075  0.00  0.00    -0.073 C 
ATOM     36  H21 FH9 d   1      63.910  45.120  39.299  0.00  0.00     0.028 H 
ATOM     37  H22 FH9 d   1      62.892  44.545  40.663  0.00  0.00     0.028 H 
ATOM     38  H23 FH9 d   1      63.723  43.359  39.599  0.00  0.00     0.028 H 
ENDBRANCH  33  35
BRANCH  33  39
ATOM     39  C27 FH9 d   1      66.349  44.419  40.225  0.00  0.00    -0.073 C 
ATOM     40  H24 FH9 d   1      67.190  44.438  40.934  0.00  0.00     0.028 H 
ATOM     41  H25 FH9 d   1      66.378  45.323  39.599  0.00  0.00     0.028 H 
ATOM     42  H26 FH9 d   1      66.428  43.527  39.586  0.00  0.00     0.028 H 
ENDBRANCH  33  39
ENDBRANCH  30  33
ENDBRANCH  27  30
ENDBRANCH  25  27
ENDBRANCH   1  23
BRANCH   1  43
ATOM     43  N13 FH9 d   1      65.494  39.356  44.969  0.00  0.00    -0.330 N 
ATOM     44  C11 FH9 d   1      64.334  38.694  45.029  0.00  0.00     0.317 C 
ATOM     45  O12 FH9 d   1      64.052  37.791  44.234  0.00  0.00    -0.247 OA
ATOM     46  N10 FH9 d   1      63.516  39.055  46.024  0.00  0.00    -0.329 N 
ATOM     47  H28 FH9 d   1      63.815  39.789  46.633  0.00  0.00     0.165 HD
ATOM     48  H27 FH9 d   1      65.684  40.049  45.664  0.00  0.00     0.165 HD
BRANCH  46  49
ATOM     49  C6  FH9 d   1      62.199  38.437  46.279  0.00  0.00     0.098 C 
ATOM     50  H29 FH9 d   1      62.324  37.345  46.311  0.00  0.00     0.089 H 
BRANCH  49  51
ATOM     51  C7  FH9 d   1      61.207  38.786  45.159  0.00  0.00     0.196 C 
ATOM     52  O8  FH9 d   1      61.186  39.968  44.748  0.00  0.00    -0.646 OA
ATOM     53  O9  FH9 d   1      60.503  37.849  44.730  0.00  0.00    -0.646 OA
ENDBRANCH  49  51
BRANCH  49  54
ATOM     54  C5  FH9 d   1      61.648  38.909  47.626  0.00  0.00    -0.036 C 
ATOM     55  H30 FH9 d   1      60.985  39.771  47.459  0.00  0.00     0.036 H 
ATOM     56  H31 FH9 d   1      62.487  39.211  48.270  0.00  0.00     0.036 H 
BRANCH  54  57
ATOM     57  C4  FH9 d   1      60.857  37.801  48.325  0.00  0.00    -0.061 C 
ATOM     58  H32 FH9 d   1      61.554  37.145  48.867  0.00  0.00     0.033 H 
ATOM     59  H33 FH9 d   1      60.313  37.214  47.571  0.00  0.00     0.033 H 
BRANCH  57  60
ATOM     60  C3  FH9 d   1      59.857  38.398  49.315  0.00  0.00    -0.043 C 
ATOM     61  H34 FH9 d   1      59.244  39.151  48.797  0.00  0.00     0.035 H 
ATOM     62  H35 FH9 d   1      60.408  38.877  50.138  0.00  0.00     0.035 H 
BRANCH  60  63
ATOM     63  C2  FH9 d   1      58.942  37.319  49.889  0.00  0.00     0.080 C 
ATOM     64  H36 FH9 d   1      58.623  37.611  50.901  0.00  0.00     0.075 H 
ATOM     65  H37 FH9 d   1      59.488  36.365  49.938  0.00  0.00     0.075 H 
BRANCH  63  66
ATOM     66  N1  FH9 d   1      57.758  37.161  49.030  0.00  0.00    -0.079 N 
ATOM     67  H38 FH9 d   1      57.158  36.448  49.413  0.00  0.00     0.274 HD
ATOM     68  H39 FH9 d   1      58.049  36.893  48.103  0.00  0.00     0.274 HD
ATOM     69  H40 FH9 d   1      57.256  38.034  48.985  0.00  0.00     0.274 HD
ENDBRANCH  63  66
ENDBRANCH  60  63
ENDBRANCH  57  60
ENDBRANCH  54  57
ENDBRANCH  49  54
ENDBRANCH  46  49
ENDBRANCH   1  43
TORSDOF 16
