REMARK  15 active torsions:
REMARK  status: ('A' for Active; 'I' for Inactive)
REMARK    1  A    between atoms: C1_1  and  N2_2 
REMARK    2  A    between atoms: C1_1  and  C3_3 
REMARK    3  A    between atoms: C1_1  and  C9_9 
REMARK       I    between atoms: N2_2  and  C4_4 
REMARK       I    between atoms: C3_3  and  N8_8 
REMARK       I    between atoms: C4_4  and  N5_5 
REMARK    4  A    between atoms: N5_5  and  C16_16 
REMARK    5  A    between atoms: N8_8  and  C25_25 
REMARK    6  A    between atoms: C9_9  and  C10_10 
REMARK    7  A    between atoms: C16_16  and  C17_17 
REMARK    8  A    between atoms: C16_16  and  C20_20 
REMARK    9  A    between atoms: C20_20  and  C21_21 
REMARK   10  A    between atoms: C21_21  and  C22_22 
REMARK   11  A    between atoms: C22_22  and  C23_23 
REMARK   12  A    between atoms: C23_23  and  N24_24 
REMARK   13  A    between atoms: C27_27  and  C34_34 
REMARK   14  A    between atoms: C29_29  and  C32_32 
REMARK   15  A    between atoms: C29_29  and  C33_33 
ROOT
ATOM      1  C1  GWX d   1      65.928  38.433  43.554  0.00  0.00     0.091 C 
ATOM      2  H1  GWX d   1      66.052  37.399  43.199  0.00  0.00     0.087 H 
ENDROOT
BRANCH   1   3
ATOM      3  N2  GWX d   1      64.934  38.382  44.629  0.00  0.00    -0.330 N 
ATOM      4  C4  GWX d   1      63.668  37.826  44.488  0.00  0.00     0.317 C 
ATOM      5  N5  GWX d   1      62.921  37.866  45.686  0.00  0.00    -0.329 N 
ATOM      6  O6  GWX d   1      63.227  37.360  43.418  0.00  0.00    -0.247 OA
ATOM      7  H3  GWX d   1      63.333  38.297  46.489  0.00  0.00     0.165 HD
ATOM      8  H2  GWX d   1      65.181  38.770  45.517  0.00  0.00     0.165 HD
BRANCH   5   9
ATOM      9  C16 GWX d   1      61.576  37.308  45.809  0.00  0.00     0.098 C 
ATOM     10  H18 GWX d   1      61.572  36.226  45.611  0.00  0.00     0.089 H 
BRANCH   9  11
ATOM     11  C17 GWX d   1      60.666  38.052  44.818  0.00  0.00     0.196 C 
ATOM     12  O18 GWX d   1      60.712  39.230  44.530  0.00  0.00    -0.646 OA
ATOM     13  O19 GWX d   1      59.778  37.247  44.210  0.00  0.00    -0.646 OA
ENDBRANCH   9  11
BRANCH   9  14
ATOM     14  C20 GWX d   1      61.091  37.615  47.247  0.00  0.00    -0.036 C 
ATOM     15  H19 GWX d   1      61.017  38.706  47.371  0.00  0.00     0.036 H 
ATOM     16  H20 GWX d   1      61.825  37.214  47.962  0.00  0.00     0.036 H 
BRANCH  14  17
ATOM     17  C21 GWX d   1      59.738  36.997  47.537  0.00  0.00    -0.061 C 
ATOM     18  H21 GWX d   1      59.816  35.910  47.388  0.00  0.00     0.033 H 
ATOM     19  H22 GWX d   1      59.009  37.413  46.826  0.00  0.00     0.033 H 
BRANCH  17  20
ATOM     20  C22 GWX d   1      59.232  37.248  48.936  0.00  0.00    -0.043 C 
ATOM     21  H23 GWX d   1      59.530  38.262  49.240  0.00  0.00     0.035 H 
ATOM     22  H24 GWX d   1      59.692  36.512  49.612  0.00  0.00     0.035 H 
BRANCH  20  23
ATOM     23  C23 GWX d   1      57.724  37.133  49.050  0.00  0.00     0.080 C 
ATOM     24  H25 GWX d   1      57.283  38.090  48.733  0.00  0.00     0.075 H 
ATOM     25  H26 GWX d   1      57.474  36.946  50.105  0.00  0.00     0.075 H 
BRANCH  23  26
ATOM     26  N24 GWX d   1      57.125  36.068  48.246  0.00  0.00    -0.079 N 
ATOM     27  H27 GWX d   1      56.126  36.065  48.383  0.00  0.00     0.274 HD
ATOM     28  H28 GWX d   1      57.505  35.179  48.529  0.00  0.00     0.274 HD
ATOM     29  H29 GWX d   1      57.330  36.226  47.272  0.00  0.00     0.274 HD
ENDBRANCH  23  26
ENDBRANCH  20  23
ENDBRANCH  17  20
ENDBRANCH  14  17
ENDBRANCH   9  14
ENDBRANCH   5   9
ENDBRANCH   1   3
BRANCH   1  30
ATOM     30  C3  GWX d   1      65.478  39.259  42.322  0.00  0.00     0.240 C 
ATOM     31  O7  GWX d   1      65.945  39.027  41.208  0.00  0.00    -0.271 OA
ATOM     32  N8  GWX d   1      64.546  40.278  42.550  0.00  0.00    -0.354 N 
ATOM     33  H4  GWX d   1      64.207  40.413  43.481  0.00  0.00     0.162 HD
BRANCH  32  34
ATOM     34  C25 GWX d   1      64.038  41.164  41.481  0.00  0.00     0.020 C 
ATOM     35  C26 GWX d   1      62.558  41.679  41.724  0.00  0.00    -0.041 C 
ATOM     36  C28 GWX d   1      62.691  43.208  41.557  0.00  0.00    -0.045 C 
ATOM     37  H31 GWX d   1      62.210  41.420  42.735  0.00  0.00     0.036 H 
ATOM     38  H32 GWX d   1      61.866  41.259  40.980  0.00  0.00     0.036 H 
ATOM     39  C29 GWX d   1      63.781  43.348  40.458  0.00  0.00    -0.035 C 
ATOM     40  C30 GWX d   1      63.386  43.757  42.818  0.00  0.00    -0.060 C 
ATOM     41  H33 GWX d   1      61.740  43.711  41.325  0.00  0.00     0.041 H 
ATOM     42  C27 GWX d   1      64.828  42.530  41.279  0.00  0.00    -0.016 C 
ATOM     43  C31 GWX d   1      64.849  43.306  42.624  0.00  0.00    -0.055 C 
ATOM     44  H36 GWX d   1      65.521  44.175  42.564  0.00  0.00     0.034 H 
ATOM     45  H37 GWX d   1      65.169  42.651  43.448  0.00  0.00     0.034 H 
ATOM     46  H34 GWX d   1      62.954  43.320  43.731  0.00  0.00     0.033 H 
ATOM     47  H35 GWX d   1      63.312  44.853  42.866  0.00  0.00     0.033 H 
ATOM     48  H30 GWX d   1      64.076  40.586  40.546  0.00  0.00     0.073 H 
BRANCH  39  49
ATOM     49  C32 GWX d   1      64.186  44.807  40.147  0.00  0.00    -0.068 C 
ATOM     50  H38 GWX d   1      64.957  44.814  39.363  0.00  0.00     0.028 H 
ATOM     51  H39 GWX d   1      64.584  45.279  41.057  0.00  0.00     0.028 H 
ATOM     52  H40 GWX d   1      63.305  45.366  39.799  0.00  0.00     0.028 H 
ENDBRANCH  39  49
BRANCH  39  53
ATOM     53  C33 GWX d   1      63.390  42.731  39.096  0.00  0.00    -0.068 C 
ATOM     54  H41 GWX d   1      63.088  41.683  39.241  0.00  0.00     0.028 H 
ATOM     55  H42 GWX d   1      64.252  42.773  38.414  0.00  0.00     0.028 H 
ATOM     56  H43 GWX d   1      62.552  43.298  38.664  0.00  0.00     0.028 H 
ENDBRANCH  39  53
BRANCH  42  57
ATOM     57  C34 GWX d   1      66.242  42.367  40.692  0.00  0.00    -0.066 C 
ATOM     58  H44 GWX d   1      66.183  41.814  39.743  0.00  0.00     0.028 H 
ATOM     59  H45 GWX d   1      66.872  41.811  41.402  0.00  0.00     0.028 H 
ATOM     60  H46 GWX d   1      66.681  43.359  40.512  0.00  0.00     0.028 H 
ENDBRANCH  42  57
ENDBRANCH  32  34
ENDBRANCH   1  30
BRANCH   1  61
ATOM     61  C9  GWX d   1      67.317  38.889  44.092  0.00  0.00    -0.035 C 
ATOM     62  H5  GWX d   1      68.069  38.537  43.370  0.00  0.00     0.037 H 
ATOM     63  H6  GWX d   1      67.467  38.381  45.056  0.00  0.00     0.037 H 
BRANCH  61  64
ATOM     64  C10 GWX d   1      67.593  40.374  44.328  0.00  0.00    -0.052 C 
ATOM     65  C11 GWX d   1      69.089  40.644  44.474  0.00  0.00    -0.062 C 
ATOM     66  C12 GWX d   1      69.411  42.114  44.747  0.00  0.00    -0.065 C 
ATOM     67  H8  GWX d   1      69.591  40.343  43.543  0.00  0.00     0.033 H 
ATOM     68  H9  GWX d   1      69.474  40.041  45.310  0.00  0.00     0.033 H 
ATOM     69  C13 GWX d   1      68.665  42.631  45.969  0.00  0.00    -0.065 C 
ATOM     70  H10 GWX d   1      69.120  42.712  43.871  0.00  0.00     0.033 H 
ATOM     71  H11 GWX d   1      70.493  42.217  44.919  0.00  0.00     0.033 H 
ATOM     72  C14 GWX d   1      67.168  42.385  45.837  0.00  0.00    -0.065 C 
ATOM     73  H12 GWX d   1      68.845  43.712  46.070  0.00  0.00     0.033 H 
ATOM     74  H13 GWX d   1      69.037  42.112  46.864  0.00  0.00     0.033 H 
ATOM     75  C15 GWX d   1      66.863  40.911  45.561  0.00  0.00    -0.062 C 
ATOM     76  H14 GWX d   1      66.778  42.992  45.007  0.00  0.00     0.033 H 
ATOM     77  H15 GWX d   1      66.673  42.683  46.773  0.00  0.00     0.033 H 
ATOM     78  H16 GWX d   1      67.169  40.319  46.436  0.00  0.00     0.033 H 
ATOM     79  H17 GWX d   1      65.780  40.800  45.404  0.00  0.00     0.033 H 
ATOM     80  H7  GWX d   1      67.228  40.925  43.449  0.00  0.00     0.040 H 
ENDBRANCH  61  64
ENDBRANCH   1  61
TORSDOF 15
