REMARK  6 active torsions:
REMARK  status: ('A' for Active; 'I' for Inactive)
REMARK    1  A    between atoms: O1_1  and  C10_2 
REMARK    2  A    between atoms: C10_2  and  C11_3 
REMARK    3  A    between atoms: C10_2  and  C4_13 
REMARK    4  A    between atoms: C17_8  and  C18_9 
REMARK    5  A    between atoms: C1_22  and  O_23 
REMARK    6  A    between atoms: O_23  and  C_24 
ROOT
ATOM      1  C11 QI9 d   1      -1.964   2.471 -45.001  0.00  0.00     0.133 C 
ATOM      2  N1  QI9 d   1      -0.458   2.135 -44.974  0.00  0.00    -0.063 N 
ATOM      3  C15 QI9 d   1       0.091   1.838 -46.379  0.00  0.00     0.084 C 
ATOM      4  C14 QI9 d   1      -0.085   3.073 -47.265  0.00  0.00    -0.038 C 
ATOM      5  C16 QI9 d   1       0.324   3.437 -44.412  0.00  0.00     0.091 C 
ATOM      6  C17 QI9 d   1      -0.033   4.629 -45.295  0.00  0.00    -0.011 C 
ATOM      7  C13 QI9 d   1      -0.855   4.160 -46.511  0.00  0.00    -0.043 C 
ATOM      8  C12 QI9 d   1      -2.188   3.542 -46.081  0.00  0.00    -0.031 C 
ATOM      9  H3  QI9 d   1      -2.201   2.945 -44.037  0.00  0.00     0.089 H 
ATOM     10  H4  QI9 d   1      -0.299   1.341 -44.374  0.00  0.00     0.280 HD
ATOM     11  H5  QI9 d   1      -0.459   0.991 -46.816  0.00  0.00     0.076 H 
ATOM     12  H6  QI9 d   1       1.159   1.585 -46.310  0.00  0.00     0.076 H 
ATOM     13  H7  QI9 d   1      -0.644   2.794 -48.170  0.00  0.00     0.036 H 
ATOM     14  H8  QI9 d   1       0.905   3.460 -47.550  0.00  0.00     0.036 H 
ATOM     15  H9  QI9 d   1       1.409   3.262 -44.445  0.00  0.00     0.077 H 
ATOM     16  H10 QI9 d   1       0.016   3.637 -43.375  0.00  0.00     0.077 H 
ATOM     17  H11 QI9 d   1       0.899   5.086 -45.659  0.00  0.00     0.049 H 
ATOM     18  H15 QI9 d   1      -1.041   5.019 -47.173  0.00  0.00     0.041 H 
ATOM     19  H16 QI9 d   1      -2.839   4.332 -45.678  0.00  0.00     0.036 H 
ATOM     20  H17 QI9 d   1      -2.671   3.079 -46.955  0.00  0.00     0.036 H 
ENDROOT
BRANCH   1  21
ATOM     21  C10 QI9 d   1      -2.900   1.219 -45.086  0.00  0.00     0.089 C 
ATOM     22  H2  QI9 d   1      -2.630   0.526 -44.276  0.00  0.00     0.093 H 
BRANCH  21  23
ATOM     23  O1  QI9 d   1      -2.713   0.543 -46.304  0.00  0.00    -0.389 OA
ATOM     24  H1  QI9 d   1      -3.288  -0.212 -46.337  0.00  0.00     0.210 HD
ENDBRANCH  21  23
BRANCH  21  25
ATOM     25  C4  QI9 d   1      -4.317   1.656 -44.867  0.00  0.00    -0.014 A 
ATOM     26  C5  QI9 d   1      -5.172   1.841 -45.975  0.00  0.00    -0.057 A 
ATOM     27  C6  QI9 d   1      -6.477   2.255 -45.762  0.00  0.00     0.004 A 
ATOM     28  H18 QI9 d   1      -4.811   1.661 -46.981  0.00  0.00     0.086 H 
ATOM     29  N   QI9 d   1      -7.026   2.512 -44.544  0.00  0.00    -0.260 NA
ATOM     30  H19 QI9 d   1      -7.109   2.384 -46.633  0.00  0.00     0.114 H 
ATOM     31  C7  QI9 d   1      -6.194   2.341 -43.448  0.00  0.00     0.067 A 
ATOM     32  C3  QI9 d   1      -4.820   1.913 -43.564  0.00  0.00     0.004 A 
ATOM     33  C8  QI9 d   1      -6.748   2.606 -42.175  0.00  0.00    -0.052 A 
ATOM     34  C2  QI9 d   1      -4.066   1.769 -42.386  0.00  0.00    -0.038 A 
ATOM     35  C1  QI9 d   1      -4.658   2.042 -41.153  0.00  0.00     0.069 A 
ATOM     36  H20 QI9 d   1      -3.032   1.448 -42.436  0.00  0.00     0.089 H 
ATOM     37  C9  QI9 d   1      -5.974   2.455 -41.026  0.00  0.00    -0.049 A 
ATOM     38  H22 QI9 d   1      -6.395   2.658 -40.048  0.00  0.00     0.087 H 
ATOM     39  H21 QI9 d   1      -7.780   2.928 -42.092  0.00  0.00     0.087 H 
BRANCH  35  40
ATOM     40  O   QI9 d   1      -3.829   1.871 -40.056  0.00  0.00    -0.356 OA
BRANCH  40  41
ATOM     41  C   QI9 d   1      -2.763   2.773 -39.940  0.00  0.00     0.010 C 
ATOM     42  H23 QI9 d   1      -2.181   2.538 -39.037  0.00  0.00     0.066 H 
ATOM     43  H24 QI9 d   1      -3.156   3.798 -39.867  0.00  0.00     0.066 H 
ATOM     44  H25 QI9 d   1      -2.115   2.691 -40.825  0.00  0.00     0.066 H 
ENDBRANCH  40  41
ENDBRANCH  35  40
ENDBRANCH  21  25
ENDBRANCH   1  21
BRANCH   6  45
ATOM     45  C18 QI9 d   1      -0.790   5.657 -44.513  0.00  0.00    -0.106 C 
ATOM     46  C19 QI9 d   1      -0.451   6.940 -44.450  0.00  0.00    -0.124 C 
ATOM     47  H13 QI9 d   1      -1.049   7.633 -43.860  0.00  0.00     0.066 H 
ATOM     48  H14 QI9 d   1       0.425   7.299 -44.988  0.00  0.00     0.066 H 
ATOM     49  H12 QI9 d   1      -1.672   5.333 -43.962  0.00  0.00     0.076 H 
ENDBRANCH   6  45
TORSDOF 6
