REMARK  9 active torsions:
REMARK  status: ('A' for Active; 'I' for Inactive)
REMARK    1  A    between atoms: C01_1  and  O05_2 
REMARK    2  A    between atoms: O05_2  and  C06_3 
REMARK    3  A    between atoms: C11_6  and  C20_11 
REMARK    4  A    between atoms: C14_8  and  O15_9 
REMARK    5  A    between atoms: O15_9  and  C16_10 
REMARK    6  A    between atoms: N23_13  and  C24_14 
REMARK    7  A    between atoms: C33_19  and  C36_22 
REMARK       I    between atoms: C36_22  and  N38_24 
REMARK    8  A    between atoms: N45_27  and  S52_30 
REMARK    9  A    between atoms: S52_30  and  C53_31 
ROOT
ATOM      1  C20 N1D d   1       1.081  14.410  10.588  0.00  0.00    -0.014 C 
ATOM      2  C21 N1D d   1       0.213  13.660   9.882  0.00  0.00    -0.009 C 
ATOM      3  N23 N1D d   1      -1.029  13.357  10.311  0.00  0.00    -0.328 N 
ATOM      4  C28 N1D d   1      -1.498  13.681  11.592  0.00  0.00     0.254 C 
ATOM      5  O29 N1D d   1      -2.601  13.262  11.911  0.00  0.00    -0.267 OA
ATOM      6  C30 N1D d   1      -0.637  14.554  12.415  0.00  0.00     0.026 C 
ATOM      7  C31 N1D d   1      -0.845  15.141  13.701  0.00  0.00    -0.068 C 
ATOM      8  C33 N1D d   1       0.156  15.993  14.088  0.00  0.00     0.086 C 
ATOM      9  S34 N1D d   1       1.535  15.813  13.052  0.00  0.00    -0.136 SA
ATOM     10  C35 N1D d   1       0.622  14.879  11.914  0.00  0.00     0.050 C 
ATOM     11  H10 N1D d   1       0.531  13.278   8.913  0.00  0.00     0.112 H 
ATOM     12  H14 N1D d   1      -1.718  14.931  14.317  0.00  0.00     0.080 H 
ATOM     13  H15 N1D d   1      -0.261  16.899  13.624  0.00  0.00     0.077 H 
ATOM     14  H16 N1D d   1       0.240  15.794  11.438  0.00  0.00     0.072 H 
ENDROOT
BRANCH   8  15
ATOM     15  C36 N1D d   1       0.308  16.608  15.447  0.00  0.00     0.237 C 
ATOM     16  O37 N1D d   1       1.371  16.463  16.037  0.00  0.00    -0.272 OA
ATOM     17  N38 N1D d   1      -0.737  17.289  15.994  0.00  0.00    -0.348 N 
ATOM     18  C39 N1D d   1      -0.581  17.925  17.314  0.00  0.00     0.013 C 
ATOM     19  C49 N1D d   1      -2.039  17.592  15.367  0.00  0.00     0.013 C 
ATOM     20  C42 N1D d   1      -1.739  17.571  18.226  0.00  0.00     0.020 C 
ATOM     21  H17 N1D d   1      -0.545  19.017  17.186  0.00  0.00     0.066 H 
ATOM     22  H18 N1D d   1       0.357  17.578  17.772  0.00  0.00     0.066 H 
ATOM     23  N45 N1D d   1      -2.993  17.965  17.574  0.00  0.00    -0.308 N 
ATOM     24  H19 N1D d   1      -1.635  18.107  19.181  0.00  0.00     0.067 H 
ATOM     25  H20 N1D d   1      -1.744  16.487  18.413  0.00  0.00     0.067 H 
ATOM     26  C46 N1D d   1      -3.186  17.257  16.298  0.00  0.00     0.020 C 
ATOM     27  H21 N1D d   1      -4.136  17.573  15.841  0.00  0.00     0.067 H 
ATOM     28  H22 N1D d   1      -3.209  16.172  16.479  0.00  0.00     0.067 H 
ATOM     29  H23 N1D d   1      -2.140  17.000  14.445  0.00  0.00     0.066 H 
ATOM     30  H24 N1D d   1      -2.078  18.663  15.121  0.00  0.00     0.066 H 
BRANCH  23  31
ATOM     31  S52 N1D d   1      -4.313  18.125  18.532  0.00  0.00     0.224 S 
ATOM     32  O57 N1D d   1      -3.973  19.058  19.559  0.00  0.00    -0.206 OA
ATOM     33  O58 N1D d   1      -5.415  18.437  17.674  0.00  0.00    -0.206 OA
BRANCH  31  34
ATOM     34  C53 N1D d   1      -4.613  16.569  19.275  0.00  0.00     0.032 C 
ATOM     35  H25 N1D d   1      -5.496  16.639  19.928  0.00  0.00     0.051 H 
ATOM     36  H26 N1D d   1      -3.738  16.273  19.872  0.00  0.00     0.051 H 
ATOM     37  H27 N1D d   1      -4.794  15.818  18.492  0.00  0.00     0.051 H 
ENDBRANCH  31  34
ENDBRANCH  23  31
ENDBRANCH   8  15
BRANCH   1  38
ATOM     38  C11 N1D d   1       2.394  14.792  10.025  0.00  0.00    -0.024 A 
ATOM     39  C09 N1D d   1       3.111  13.864   9.279  0.00  0.00    -0.070 A 
ATOM     40  C07 N1D d   1       4.151  14.254   8.467  0.00  0.00    -0.047 A 
ATOM     41  H5  N1D d   1       2.846  12.815   9.338  0.00  0.00     0.085 H 
ATOM     42  C06 N1D d   1       4.537  15.581   8.431  0.00  0.00     0.101 A 
ATOM     43  H4  N1D d   1       4.667  13.522   7.856  0.00  0.00     0.087 H 
ATOM     44  C14 N1D d   1       3.863  16.522   9.231  0.00  0.00     0.102 A 
ATOM     45  C12 N1D d   1       2.776  16.130   9.987  0.00  0.00    -0.037 A 
ATOM     46  H6  N1D d   1       2.218  16.867  10.553  0.00  0.00     0.089 H 
BRANCH  42  47
ATOM     47  O05 N1D d   1       5.722  16.005   7.900  0.00  0.00    -0.353 OA
BRANCH  47  48
ATOM     48  C01 N1D d   1       6.914  15.390   8.391  0.00  0.00     0.010 C 
ATOM     49  H1  N1D d   1       7.787  15.823   7.881  0.00  0.00     0.066 H 
ATOM     50  H2  N1D d   1       6.875  14.308   8.197  0.00  0.00     0.066 H 
ATOM     51  H3  N1D d   1       6.998  15.565   9.474  0.00  0.00     0.066 H 
ENDBRANCH  47  48
ENDBRANCH  42  47
BRANCH  44  52
ATOM     52  O15 N1D d   1       4.385  17.787   9.224  0.00  0.00    -0.353 OA
BRANCH  52  53
ATOM     53  C16 N1D d   1       3.560  18.839   8.733  0.00  0.00     0.010 C 
ATOM     54  H7  N1D d   1       4.108  19.791   8.788  0.00  0.00     0.066 H 
ATOM     55  H8  N1D d   1       2.648  18.906   9.344  0.00  0.00     0.066 H 
ATOM     56  H9  N1D d   1       3.286  18.633   7.688  0.00  0.00     0.066 H 
ENDBRANCH  52  53
ENDBRANCH  44  52
ENDBRANCH   1  38
BRANCH   3  57
ATOM     57  C24 N1D d   1      -1.904  12.561   9.450  0.00  0.00    -0.012 C 
ATOM     58  H11 N1D d   1      -1.407  12.386   8.484  0.00  0.00     0.057 H 
ATOM     59  H12 N1D d   1      -2.847  13.102   9.285  0.00  0.00     0.057 H 
ATOM     60  H13 N1D d   1      -2.115  11.596   9.934  0.00  0.00     0.057 H 
ENDBRANCH   3  57
TORSDOF 9
