REMARK  8 active torsions:
REMARK  status: ('A' for Active; 'I' for Inactive)
REMARK    1  A    between atoms: C17_8  and  N1_9 
REMARK       I    between atoms: N1_9  and  C16_10 
REMARK    2  A    between atoms: C16_10  and  C14_12 
REMARK    3  A    between atoms: N_19  and  C10_20 
REMARK    4  A    between atoms: C8_22  and  C4_23 
REMARK    5  A    between atoms: C6_27  and  O1_28 
REMARK    6  A    between atoms: O1_28  and  C7_29 
REMARK    7  A    between atoms: C1_30  and  O_31 
REMARK    8  A    between atoms: O_31  and  C_32 
ROOT
ATOM      1  C14 TVU d   1      -0.387  15.320  14.313  0.00  0.00     0.074 A 
ATOM      2  C13 TVU d   1      -1.400  14.593  13.758  0.00  0.00    -0.044 A 
ATOM      3  S   TVU d   1       1.003  15.361  13.268  0.00  0.00    -0.083 SA
ATOM      4  C15 TVU d   1       0.175  14.430  12.051  0.00  0.00     0.034 A 
ATOM      5  C12 TVU d   1      -1.097  14.085  12.466  0.00  0.00     0.052 A 
ATOM      6  C11 TVU d   1      -1.957  13.329  11.569  0.00  0.00     0.258 A 
ATOM      7  O2  TVU d   1      -3.065  12.916  11.885  0.00  0.00    -0.267 OA
ATOM      8  N   TVU d   1      -1.462  13.036  10.303  0.00  0.00    -0.327 N 
ATOM      9  C9  TVU d   1      -0.217  13.407   9.912  0.00  0.00    -0.006 A 
ATOM     10  C8  TVU d   1       0.655  14.068  10.711  0.00  0.00     0.008 A 
ATOM     11  H11 TVU d   1      -2.351  14.419  14.258  0.00  0.00     0.087 H 
ATOM     12  H15 TVU d   1       0.099  13.160   8.900  0.00  0.00     0.113 H 
ENDROOT
BRANCH   1  13
ATOM     13  C16 TVU d   1      -0.288  16.094  15.571  0.00  0.00     0.258 C 
ATOM     14  N1  TVU d   1      -1.378  16.103  16.361  0.00  0.00    -0.352 N 
ATOM     15  H10 TVU d   1      -2.143  15.504  16.125  0.00  0.00     0.163 HD
ATOM     16  O3  TVU d   1       0.760  16.672  15.863  0.00  0.00    -0.267 OA
BRANCH  14  17
ATOM     17  C17 TVU d   1      -1.495  16.949  17.549  0.00  0.00     0.014 C 
ATOM     18  C18 TVU d   1      -2.458  16.348  18.565  0.00  0.00    -0.034 C 
ATOM     19  C19 TVU d   1      -3.962  16.420  18.241  0.00  0.00     0.030 C 
ATOM     20  H3  TVU d   1      -2.195  15.286  18.681  0.00  0.00     0.037 H 
ATOM     21  H4  TVU d   1      -2.300  16.871  19.520  0.00  0.00     0.037 H 
ATOM     22  S1  TVU d   1      -4.484  18.084  17.966  0.00  0.00     0.144 S 
ATOM     23  H1  TVU d   1      -4.162  15.828  17.335  0.00  0.00     0.056 H 
ATOM     24  H2  TVU d   1      -4.530  16.002  19.085  0.00  0.00     0.056 H 
ATOM     25  O5  TVU d   1      -5.822  18.085  17.441  0.00  0.00    -0.228 OA
ATOM     26  O4  TVU d   1      -4.210  18.872  19.136  0.00  0.00    -0.228 OA
ATOM     27  C20 TVU d   1      -3.351  18.520  16.685  0.00  0.00     0.030 C 
ATOM     28  C21 TVU d   1      -1.909  18.363  17.174  0.00  0.00    -0.034 C 
ATOM     29  H5  TVU d   1      -3.522  19.566  16.390  0.00  0.00     0.056 H 
ATOM     30  H6  TVU d   1      -3.514  17.863  15.818  0.00  0.00     0.056 H 
ATOM     31  H7  TVU d   1      -1.781  19.000  18.061  0.00  0.00     0.037 H 
ATOM     32  H8  TVU d   1      -1.240  18.711  16.373  0.00  0.00     0.037 H 
ATOM     33  H9  TVU d   1      -0.502  17.003  18.020  0.00  0.00     0.072 H 
ENDBRANCH  14  17
ENDBRANCH   1  13
BRANCH  10  34
ATOM     34  C4  TVU d   1       2.032  14.346  10.227  0.00  0.00    -0.020 A 
ATOM     35  C3  TVU d   1       2.658  15.559  10.499  0.00  0.00    -0.069 A 
ATOM     36  C2  TVU d   1       3.942  15.813  10.052  0.00  0.00    -0.047 A 
ATOM     37  H16 TVU d   1       2.132  16.316  11.069  0.00  0.00     0.085 H 
ATOM     38  C1  TVU d   1       4.612  14.855   9.306  0.00  0.00     0.101 A 
ATOM     39  H17 TVU d   1       4.423  16.757  10.284  0.00  0.00     0.087 H 
ATOM     40  C6  TVU d   1       3.977  13.637   8.998  0.00  0.00     0.102 A 
ATOM     41  C5  TVU d   1       2.703  13.388   9.471  0.00  0.00    -0.037 A 
ATOM     42  H18 TVU d   1       2.223  12.441   9.252  0.00  0.00     0.089 H 
BRANCH  38  43
ATOM     43  O   TVU d   1       5.897  14.982   8.855  0.00  0.00    -0.353 OA
BRANCH  43  44
ATOM     44  C   TVU d   1       6.872  15.464   9.774  0.00  0.00     0.010 C 
ATOM     45  H22 TVU d   1       7.852  15.514   9.276  0.00  0.00     0.066 H 
ATOM     46  H23 TVU d   1       6.933  14.783  10.635  0.00  0.00     0.066 H 
ATOM     47  H24 TVU d   1       6.585  16.468  10.120  0.00  0.00     0.066 H 
ENDBRANCH  43  44
ENDBRANCH  38  43
BRANCH  40  48
ATOM     48  O1  TVU d   1       4.689  12.783   8.199  0.00  0.00    -0.353 OA
BRANCH  48  49
ATOM     49  C7  TVU d   1       3.958  11.925   7.325  0.00  0.00     0.010 C 
ATOM     50  H19 TVU d   1       4.660  11.302   6.751  0.00  0.00     0.066 H 
ATOM     51  H20 TVU d   1       3.357  12.533   6.633  0.00  0.00     0.066 H 
ATOM     52  H21 TVU d   1       3.294  11.278   7.917  0.00  0.00     0.066 H 
ENDBRANCH  48  49
ENDBRANCH  40  48
ENDBRANCH  10  34
BRANCH   8  53
ATOM     53  C10 TVU d   1      -2.345  12.315   9.387  0.00  0.00    -0.011 C 
ATOM     54  H12 TVU d   1      -1.827  12.153   8.430  0.00  0.00     0.057 H 
ATOM     55  H13 TVU d   1      -3.256  12.906   9.215  0.00  0.00     0.057 H 
ATOM     56  H14 TVU d   1      -2.616  11.344   9.827  0.00  0.00     0.057 H 
ENDBRANCH   8  53
TORSDOF 8
