REMARK  6 active torsions:
REMARK  status: ('A' for Active; 'I' for Inactive)
REMARK    1  A    between atoms: C01_1  and  N05_2 
REMARK    2  A    between atoms: C08_4  and  C09_5 
REMARK    3  A    between atoms: C16_9  and  C19_11 
REMARK    4  A    between atoms: C25_17  and  C31_22 
REMARK    5  A    between atoms: C31_22  and  N32_23 
REMARK    6  A    between atoms: N34_24  and  C36_25 
ROOT
ATOM      1  N05 XZB d   1      -0.679  11.261  10.234  0.00  0.00    -0.327 N 
ATOM      2  C06 XZB d   1       0.539  11.690   9.826  0.00  0.00    -0.006 A 
ATOM      3  C08 XZB d   1       1.319  12.541  10.558  0.00  0.00     0.008 A 
ATOM      4  C23 XZB d   1       0.779  13.005  11.790  0.00  0.00     0.034 A 
ATOM      5  S24 XZB d   1       1.562  14.065  12.929  0.00  0.00    -0.085 SA
ATOM      6  C25 XZB d   1       0.208  14.005  14.006  0.00  0.00     0.050 A 
ATOM      7  C26 XZB d   1      -0.776  13.159  13.529  0.00  0.00    -0.046 A 
ATOM      8  C28 XZB d   1      -0.481  12.562  12.281  0.00  0.00     0.051 A 
ATOM      9  C29 XZB d   1      -1.249  11.651  11.446  0.00  0.00     0.258 A 
ATOM     10  O30 XZB d   1      -2.362  11.264  11.758  0.00  0.00    -0.267 OA
ATOM     11  H4  XZB d   1       0.916  11.339   8.866  0.00  0.00     0.113 H 
ATOM     12  H9  XZB d   1      -1.702  12.968  14.069  0.00  0.00     0.087 H 
ENDROOT
BRANCH   6  13
ATOM     13  C31 XZB d   1       0.116  14.788  15.274  0.00  0.00     0.112 C 
ATOM     14  N34 XZB d   1      -1.083  15.203  15.488  0.00  0.00    -0.371 N 
ATOM     15  H12 XZB d   1      -1.780  14.891  14.797  0.00  0.00     0.161 HD
BRANCH  13  16
ATOM     16  N32 XZB d   1       1.096  15.106  15.966  0.00  0.00    -0.385 N 
ATOM     17  H10 XZB d   1       0.961  15.648  16.831  0.00  0.00     0.157 HD
ATOM     18  H11 XZB d   1       2.044  14.828  15.675  0.00  0.00     0.157 HD
ENDBRANCH  13  16
BRANCH  14  19
ATOM     19  C36 XZB d   1      -1.609  16.045  16.555  0.00  0.00     0.012 C 
ATOM     20  C38 XZB d   1      -2.311  17.227  15.931  0.00  0.00    -0.034 C 
ATOM     21  C41 XZB d   1      -2.776  18.237  16.966  0.00  0.00     0.030 C 
ATOM     22  H14 XZB d   1      -3.187  16.864  15.374  0.00  0.00     0.037 H 
ATOM     23  H15 XZB d   1      -1.617  17.725  15.239  0.00  0.00     0.037 H 
ATOM     24  S44 XZB d   1      -3.948  17.463  18.035  0.00  0.00     0.144 S 
ATOM     25  H16 XZB d   1      -3.247  19.093  16.461  0.00  0.00     0.056 H 
ATOM     26  H17 XZB d   1      -1.915  18.586  17.554  0.00  0.00     0.056 H 
ATOM     27  O45 XZB d   1      -4.228  18.337  19.138  0.00  0.00    -0.228 OA
ATOM     28  O46 XZB d   1      -5.058  16.996  17.255  0.00  0.00    -0.228 OA
ATOM     29  C47 XZB d   1      -3.027  16.075  18.616  0.00  0.00     0.030 C 
ATOM     30  C50 XZB d   1      -2.543  15.246  17.432  0.00  0.00    -0.034 C 
ATOM     31  H18 XZB d   1      -3.668  15.454  19.259  0.00  0.00     0.056 H 
ATOM     32  H19 XZB d   1      -2.160  16.428  19.194  0.00  0.00     0.056 H 
ATOM     33  H20 XZB d   1      -2.012  14.359  17.808  0.00  0.00     0.037 H 
ATOM     34  H21 XZB d   1      -3.412  14.929  16.837  0.00  0.00     0.037 H 
ATOM     35  H13 XZB d   1      -0.775  16.411  17.172  0.00  0.00     0.072 H 
ENDBRANCH  14  19
ENDBRANCH   6  13
BRANCH   3  36
ATOM     36  C09 XZB d   1       2.665  12.940  10.038  0.00  0.00    -0.022 A 
ATOM     37  C10 XZB d   1       3.487  11.996   9.406  0.00  0.00    -0.072 A 
ATOM     38  C12 XZB d   1       4.737  12.366   8.915  0.00  0.00    -0.081 A 
ATOM     39  H5  XZB d   1       3.148  10.972   9.299  0.00  0.00     0.084 H 
ATOM     40  C14 XZB d   1       5.152  13.686   9.002  0.00  0.00    -0.068 A 
ATOM     41  H6  XZB d   1       5.385  11.622   8.465  0.00  0.00     0.083 H 
ATOM     42  C16 XZB d   1       4.332  14.647   9.599  0.00  0.00     0.048 A 
ATOM     43  H7  XZB d   1       6.118  13.974   8.604  0.00  0.00     0.084 H 
ATOM     44  C17 XZB d   1       3.099  14.268  10.120  0.00  0.00    -0.058 A 
ATOM     45  H8  XZB d   1       2.467  15.010  10.595  0.00  0.00     0.086 H 
BRANCH  42  46
ATOM     46  C19 XZB d   1       4.780  16.073   9.709  0.00  0.00     0.417 C 
ATOM     47  F20 XZB d   1       4.691  16.578  10.951  0.00  0.00    -0.166 F 
ATOM     48  F21 XZB d   1       4.027  16.863   9.009  0.00  0.00    -0.166 F 
ATOM     49  F22 XZB d   1       6.032  16.223   9.237  0.00  0.00    -0.166 F 
ENDBRANCH  42  46
ENDBRANCH   3  36
BRANCH   1  50
ATOM     50  C01 XZB d   1      -1.467  10.345   9.372  0.00  0.00    -0.011 C 
ATOM     51  H1  XZB d   1      -0.899  10.124   8.456  0.00  0.00     0.057 H 
ATOM     52  H2  XZB d   1      -2.421  10.823   9.105  0.00  0.00     0.057 H 
ATOM     53  H3  XZB d   1      -1.665   9.409   9.916  0.00  0.00     0.057 H 
ENDBRANCH   1  50
TORSDOF 6
