REMARK  7 active torsions:
REMARK  status: ('A' for Active; 'I' for Inactive)
REMARK    1  A    between atoms: C01_1  and  C05_2 
REMARK    2  A    between atoms: C05_2  and  N08_3 
REMARK    3  A    between atoms: C11_5  and  C12_6 
REMARK    4  A    between atoms: C19_10  and  C22_12 
REMARK    5  A    between atoms: C28_18  and  C34_23 
REMARK    6  A    between atoms: C34_23  and  N35_24 
REMARK    7  A    between atoms: N37_25  and  C39_26 
ROOT
ATOM      1  N08 H1B d   1      -1.007  11.868   9.940  0.00  0.00    -0.323 N 
ATOM      2  C09 H1B d   1       0.213  12.348   9.536  0.00  0.00    -0.005 A 
ATOM      3  C11 H1B d   1       0.972  13.205  10.259  0.00  0.00     0.008 A 
ATOM      4  C26 H1B d   1       0.408  13.636  11.515  0.00  0.00     0.034 A 
ATOM      5  S27 H1B d   1       1.140  14.729  12.654  0.00  0.00    -0.085 SA
ATOM      6  C28 H1B d   1      -0.218  14.609  13.711  0.00  0.00     0.050 A 
ATOM      7  C29 H1B d   1      -1.161  13.756  13.225  0.00  0.00    -0.046 A 
ATOM      8  C31 H1B d   1      -0.849  13.164  11.986  0.00  0.00     0.051 A 
ATOM      9  C32 H1B d   1      -1.595  12.236  11.151  0.00  0.00     0.259 A 
ATOM     10  O33 H1B d   1      -2.698  11.805  11.498  0.00  0.00    -0.267 OA
ATOM     11  H6  H1B d   1       0.596  12.018   8.571  0.00  0.00     0.113 H 
ATOM     12  H11 H1B d   1      -2.089  13.547  13.755  0.00  0.00     0.087 H 
ENDROOT
BRANCH   6  13
ATOM     13  C34 H1B d   1      -0.384  15.360  14.937  0.00  0.00     0.112 C 
ATOM     14  N37 H1B d   1      -1.555  15.806  15.151  0.00  0.00    -0.371 N 
ATOM     15  H14 H1B d   1      -2.266  15.543  14.454  0.00  0.00     0.161 HD
BRANCH  13  16
ATOM     16  N35 H1B d   1       0.704  15.684  15.657  0.00  0.00    -0.385 N 
ATOM     17  H12 H1B d   1       0.602  16.218  16.532  0.00  0.00     0.157 HD
ATOM     18  H13 H1B d   1       1.639  15.398  15.334  0.00  0.00     0.157 HD
ENDBRANCH  13  16
BRANCH  14  19
ATOM     19  C39 H1B d   1      -2.023  16.633  16.242  0.00  0.00     0.012 C 
ATOM     20  C41 H1B d   1      -2.800  17.796  15.673  0.00  0.00    -0.034 C 
ATOM     21  C44 H1B d   1      -3.267  18.740  16.761  0.00  0.00     0.030 C 
ATOM     22  H16 H1B d   1      -3.678  17.410  15.135  0.00  0.00     0.037 H 
ATOM     23  H17 H1B d   1      -2.155  18.348  14.974  0.00  0.00     0.037 H 
ATOM     24  S47 H1B d   1      -4.455  17.949  17.799  0.00  0.00     0.144 S 
ATOM     25  H18 H1B d   1      -3.724  19.627  16.299  0.00  0.00     0.056 H 
ATOM     26  H19 H1B d   1      -2.403  19.047  17.369  0.00  0.00     0.056 H 
ATOM     27  O48 H1B d   1      -5.551  17.491  16.994  0.00  0.00    -0.228 OA
ATOM     28  O49 H1B d   1      -4.750  18.803  18.912  0.00  0.00    -0.228 OA
ATOM     29  C50 H1B d   1      -3.534  16.554  18.368  0.00  0.00     0.030 C 
ATOM     30  C53 H1B d   1      -2.864  15.815  17.206  0.00  0.00    -0.034 C 
ATOM     31  H20 H1B d   1      -4.215  15.863  18.887  0.00  0.00     0.056 H 
ATOM     32  H21 H1B d   1      -2.758  16.898  19.068  0.00  0.00     0.056 H 
ATOM     33  H22 H1B d   1      -2.210  15.044  17.640  0.00  0.00     0.037 H 
ATOM     34  H23 H1B d   1      -3.660  15.333  16.620  0.00  0.00     0.037 H 
ATOM     35  H15 H1B d   1      -1.153  17.025  16.790  0.00  0.00     0.072 H 
ENDBRANCH  14  19
ENDBRANCH   6  13
BRANCH   3  36
ATOM     36  C12 H1B d   1       2.297  13.651   9.717  0.00  0.00    -0.022 A 
ATOM     37  C13 H1B d   1       3.139  12.743   9.079  0.00  0.00    -0.072 A 
ATOM     38  C15 H1B d   1       4.367  13.153   8.579  0.00  0.00    -0.081 A 
ATOM     39  H7  H1B d   1       2.833  11.709   8.972  0.00  0.00     0.084 H 
ATOM     40  C17 H1B d   1       4.756  14.471   8.697  0.00  0.00    -0.068 A 
ATOM     41  H8  H1B d   1       5.021  12.437   8.095  0.00  0.00     0.083 H 
ATOM     42  C19 H1B d   1       3.925  15.396   9.315  0.00  0.00     0.048 A 
ATOM     43  H9  H1B d   1       5.716  14.787   8.305  0.00  0.00     0.084 H 
ATOM     44  C20 H1B d   1       2.701  14.979   9.832  0.00  0.00    -0.058 A 
ATOM     45  H10 H1B d   1       2.056  15.695  10.329  0.00  0.00     0.086 H 
BRANCH  42  46
ATOM     46  C22 H1B d   1       4.335  16.831   9.428  0.00  0.00     0.417 C 
ATOM     47  F23 H1B d   1       5.598  17.039   9.031  0.00  0.00    -0.166 F 
ATOM     48  F24 H1B d   1       4.197  17.313  10.672  0.00  0.00    -0.166 F 
ATOM     49  F25 H1B d   1       3.564  17.602   8.710  0.00  0.00    -0.166 F 
ENDBRANCH  42  46
ENDBRANCH   3  36
BRANCH   1  50
ATOM     50  C05 H1B d   1      -1.755  10.955   9.070  0.00  0.00    -0.001 C 
ATOM     51  H4  H1B d   1      -1.069  10.464   8.364  0.00  0.00     0.064 H 
ATOM     52  H5  H1B d   1      -2.264  10.192   9.677  0.00  0.00     0.064 H 
BRANCH  50  53
ATOM     53  C01 H1B d   1      -2.776  11.773   8.311  0.00  0.00    -0.061 C 
ATOM     54  H1  H1B d   1      -3.355  11.113   7.648  0.00  0.00     0.029 H 
ATOM     55  H2  H1B d   1      -2.261  12.537   7.710  0.00  0.00     0.029 H 
ATOM     56  H3  H1B d   1      -3.455  12.264   9.023  0.00  0.00     0.029 H 
ENDBRANCH  50  53
ENDBRANCH   1  50
TORSDOF 7
