REMARK  8 active torsions:
REMARK  status: ('A' for Active; 'I' for Inactive)
REMARK    1  A    between atoms: C17_8  and  N1_9 
REMARK       I    between atoms: N1_9  and  C16_10 
REMARK    2  A    between atoms: C16_10  and  C14_12 
REMARK    3  A    between atoms: N_19  and  C10_20 
REMARK    4  A    between atoms: C8_22  and  C4_23 
REMARK    5  A    between atoms: C6_27  and  O1_28 
REMARK    6  A    between atoms: O1_28  and  C7_29 
REMARK    7  A    between atoms: C1_30  and  O_31 
REMARK    8  A    between atoms: O_31  and  C_32 
ROOT
ATOM      1  C14 TVU d   1      25.615  -5.224  16.776  0.00  0.00     0.074 A 
ATOM      2  C13 TVU d   1      26.275  -4.266  17.471  0.00  0.00    -0.044 A 
ATOM      3  S   TVU d   1      23.982  -5.393  17.328  0.00  0.00    -0.083 SA
ATOM      4  C15 TVU d   1      24.187  -4.132  18.488  0.00  0.00     0.034 A 
ATOM      5  C12 TVU d   1      25.467  -3.627  18.449  0.00  0.00     0.052 A 
ATOM      6  C11 TVU d   1      25.901  -2.537  19.266  0.00  0.00     0.258 A 
ATOM      7  O2  TVU d   1      27.020  -2.036  19.233  0.00  0.00    -0.267 OA
ATOM      8  N   TVU d   1      24.909  -2.023  20.104  0.00  0.00    -0.327 N 
ATOM      9  C9  TVU d   1      23.649  -2.526  20.139  0.00  0.00    -0.006 A 
ATOM     10  C8  TVU d   1      23.217  -3.558  19.372  0.00  0.00     0.008 A 
ATOM     11  H11 TVU d   1      27.320  -4.012  17.297  0.00  0.00     0.087 H 
ATOM     12  H15 TVU d   1      22.938  -2.071  20.828  0.00  0.00     0.113 H 
ENDROOT
BRANCH   1  13
ATOM     13  C16 TVU d   1      26.032  -6.110  15.670  0.00  0.00     0.258 C 
ATOM     14  N1  TVU d   1      27.273  -5.943  15.186  0.00  0.00    -0.352 N 
ATOM     15  H10 TVU d   1      27.811  -5.152  15.477  0.00  0.00     0.163 HD
ATOM     16  O3  TVU d   1      25.283  -7.008  15.282  0.00  0.00    -0.267 OA
BRANCH  14  17
ATOM     17  C17 TVU d   1      27.853  -6.899  14.238  0.00  0.00     0.014 C 
ATOM     18  C18 TVU d   1      27.332  -6.660  12.838  0.00  0.00    -0.034 C 
ATOM     19  C19 TVU d   1      27.782  -5.343  12.227  0.00  0.00     0.030 C 
ATOM     20  H3  TVU d   1      27.684  -7.479  12.193  0.00  0.00     0.037 H 
ATOM     21  H4  TVU d   1      26.233  -6.668  12.872  0.00  0.00     0.037 H 
ATOM     22  S1  TVU d   1      29.535  -5.241  12.039  0.00  0.00     0.144 S 
ATOM     23  H1  TVU d   1      27.315  -5.237  11.237  0.00  0.00     0.056 H 
ATOM     24  H2  TVU d   1      27.450  -4.521  12.879  0.00  0.00     0.056 H 
ATOM     25  O5  TVU d   1      29.982  -6.238  11.112  0.00  0.00    -0.228 OA
ATOM     26  O4  TVU d   1      29.892  -3.873  11.781  0.00  0.00    -0.228 OA
ATOM     27  C20 TVU d   1      30.071  -5.675  13.664  0.00  0.00     0.030 C 
ATOM     28  C21 TVU d   1      29.374  -6.879  14.260  0.00  0.00    -0.034 C 
ATOM     29  H5  TVU d   1      29.892  -4.814  14.325  0.00  0.00     0.056 H 
ATOM     30  H6  TVU d   1      31.149  -5.889  13.623  0.00  0.00     0.056 H 
ATOM     31  H7  TVU d   1      29.688  -6.953  15.312  0.00  0.00     0.037 H 
ATOM     32  H8  TVU d   1      29.722  -7.766  13.710  0.00  0.00     0.037 H 
ATOM     33  H9  TVU d   1      27.532  -7.905  14.547  0.00  0.00     0.072 H 
ENDBRANCH  14  17
ENDBRANCH   1  13
BRANCH  10  34
ATOM     34  C4  TVU d   1      21.809  -4.028  19.488  0.00  0.00    -0.020 A 
ATOM     35  C3  TVU d   1      21.172  -4.034  20.727  0.00  0.00    -0.069 A 
ATOM     36  C2  TVU d   1      19.885  -4.521  20.867  0.00  0.00    -0.047 A 
ATOM     37  H16 TVU d   1      21.694  -3.650  21.596  0.00  0.00     0.085 H 
ATOM     38  C1  TVU d   1      19.207  -4.999  19.754  0.00  0.00     0.101 A 
ATOM     39  H17 TVU d   1      19.408  -4.529  21.841  0.00  0.00     0.087 H 
ATOM     40  C6  TVU d   1      19.836  -4.984  18.487  0.00  0.00     0.102 A 
ATOM     41  C5  TVU d   1      21.126  -4.487  18.364  0.00  0.00    -0.037 A 
ATOM     42  H18 TVU d   1      21.603  -4.456  17.391  0.00  0.00     0.089 H 
BRANCH  38  43
ATOM     43  O   TVU d   1      17.934  -5.503  19.791  0.00  0.00    -0.353 OA
BRANCH  43  44
ATOM     44  C   TVU d   1      17.190  -5.335  21.000  0.00  0.00     0.010 C 
ATOM     45  H22 TVU d   1      16.194  -5.786  20.883  0.00  0.00     0.066 H 
ATOM     46  H23 TVU d   1      17.083  -4.262  21.219  0.00  0.00     0.066 H 
ATOM     47  H24 TVU d   1      17.721  -5.827  21.828  0.00  0.00     0.066 H 
ENDBRANCH  43  44
ENDBRANCH  38  43
BRANCH  40  48
ATOM     48  O1  TVU d   1      19.109  -5.505  17.449  0.00  0.00    -0.353 OA
BRANCH  48  49
ATOM     49  C7  TVU d   1      19.698  -5.506  16.156  0.00  0.00     0.010 C 
ATOM     50  H19 TVU d   1      18.998  -5.953  15.435  0.00  0.00     0.066 H 
ATOM     51  H20 TVU d   1      20.628  -6.094  16.177  0.00  0.00     0.066 H 
ATOM     52  H21 TVU d   1      19.924  -4.472  15.855  0.00  0.00     0.066 H 
ENDBRANCH  48  49
ENDBRANCH  40  48
ENDBRANCH  10  34
BRANCH   8  53
ATOM     53  C10 TVU d   1      25.271  -0.903  20.968  0.00  0.00    -0.011 C 
ATOM     54  H12 TVU d   1      24.398  -0.605  21.567  0.00  0.00     0.057 H 
ATOM     55  H13 TVU d   1      25.598  -0.054  20.350  0.00  0.00     0.057 H 
ATOM     56  H14 TVU d   1      26.089  -1.206  21.638  0.00  0.00     0.057 H 
ENDBRANCH   8  53
TORSDOF 8
