REMARK  6 active torsions:
REMARK  status: ('A' for Active; 'I' for Inactive)
REMARK    1  A    between atoms: C01_1  and  N05_2 
REMARK    2  A    between atoms: C08_4  and  C09_5 
REMARK    3  A    between atoms: C16_9  and  C19_11 
REMARK    4  A    between atoms: C25_17  and  C31_22 
REMARK    5  A    between atoms: C31_22  and  N34_24 
REMARK    6  A    between atoms: N34_24  and  C36_25 
ROOT
ATOM      1  N05 5V2 d   1      24.906  48.710   1.129  0.00  0.00    -0.327 N 
ATOM      2  C06 5V2 d   1      26.158  49.209   1.082  0.00  0.00    -0.006 A 
ATOM      3  C08 5V2 d   1      26.527  50.152   0.193  0.00  0.00     0.008 A 
ATOM      4  C23 5V2 d   1      25.493  50.640  -0.730  0.00  0.00     0.034 A 
ATOM      5  S24 5V2 d   1      25.664  51.817  -1.987  0.00  0.00    -0.085 SA
ATOM      6  C25 5V2 d   1      24.021  51.670  -2.420  0.00  0.00     0.050 A 
ATOM      7  C26 5V2 d   1      23.397  50.759  -1.657  0.00  0.00    -0.046 A 
ATOM      8  C28 5V2 d   1      24.209  50.123  -0.698  0.00  0.00     0.051 A 
ATOM      9  C29 5V2 d   1      23.919  49.113   0.247  0.00  0.00     0.258 A 
ATOM     10  O30 5V2 d   1      22.738  48.646   0.306  0.00  0.00    -0.267 OA
ATOM     11  H4  5V2 d   1      26.898  48.836   1.788  0.00  0.00     0.113 H 
ATOM     12  H9  5V2 d   1      22.339  50.528  -1.771  0.00  0.00     0.087 H 
ENDROOT
BRANCH   6  13
ATOM     13  C31 5V2 d   1      23.439  52.482  -3.510  0.00  0.00     0.112 C 
ATOM     14  N32 5V2 d   1      23.912  53.591  -3.718  0.00  0.00    -0.385 N 
ATOM     15  H10 5V2 d   1      23.529  54.181  -4.470  0.00  0.00     0.157 HD
ATOM     16  H11 5V2 d   1      24.693  53.934  -3.141  0.00  0.00     0.157 HD
BRANCH  13  17
ATOM     17  N34 5V2 d   1      22.330  51.921  -4.084  0.00  0.00    -0.371 N 
ATOM     18  H12 5V2 d   1      22.001  51.029  -3.688  0.00  0.00     0.161 HD
BRANCH  17  19
ATOM     19  C36 5V2 d   1      21.582  52.460  -5.187  0.00  0.00     0.012 C 
ATOM     20  C38 5V2 d   1      21.688  51.489  -6.338  0.00  0.00    -0.034 C 
ATOM     21  C41 5V2 d   1      21.005  52.053  -7.553  0.00  0.00     0.030 C 
ATOM     22  H14 5V2 d   1      21.208  50.539  -6.059  0.00  0.00     0.037 H 
ATOM     23  H15 5V2 d   1      22.749  51.310  -6.567  0.00  0.00     0.037 H 
ATOM     24  S44 5V2 d   1      19.278  52.115  -7.251  0.00  0.00     0.144 S 
ATOM     25  H16 5V2 d   1      21.206  51.410  -8.422  0.00  0.00     0.056 H 
ATOM     26  H17 5V2 d   1      21.382  53.067  -7.752  0.00  0.00     0.056 H 
ATOM     27  O45 5V2 d   1      18.627  52.732  -8.371  0.00  0.00    -0.228 OA
ATOM     28  O46 5V2 d   1      18.824  50.815  -6.848  0.00  0.00    -0.228 OA
ATOM     29  C47 5V2 d   1      19.204  53.207  -5.867  0.00  0.00     0.030 C 
ATOM     30  C50 5V2 d   1      20.136  52.689  -4.772  0.00  0.00    -0.034 C 
ATOM     31  H18 5V2 d   1      18.173  53.248  -5.485  0.00  0.00     0.056 H 
ATOM     32  H19 5V2 d   1      19.521  54.214  -6.175  0.00  0.00     0.056 H 
ATOM     33  H20 5V2 d   1      20.132  53.421  -3.951  0.00  0.00     0.037 H 
ATOM     34  H21 5V2 d   1      19.733  51.731  -4.411  0.00  0.00     0.037 H 
ATOM     35  H13 5V2 d   1      22.018  53.424  -5.489  0.00  0.00     0.072 H 
ENDBRANCH  17  19
ENDBRANCH  13  17
ENDBRANCH   6  13
BRANCH   3  36
ATOM     36  C09 5V2 d   1      27.892  50.732   0.220  0.00  0.00    -0.022 A 
ATOM     37  C10 5V2 d   1      28.585  50.840   1.423  0.00  0.00    -0.072 A 
ATOM     38  C12 5V2 d   1      29.835  51.435   1.463  0.00  0.00    -0.081 A 
ATOM     39  H5  5V2 d   1      28.143  50.456   2.335  0.00  0.00     0.084 H 
ATOM     40  C14 5V2 d   1      30.380  51.962   0.313  0.00  0.00    -0.068 A 
ATOM     41  H6  5V2 d   1      30.383  51.486   2.397  0.00  0.00     0.083 H 
ATOM     42  C16 5V2 d   1      29.683  51.899  -0.885  0.00  0.00     0.048 A 
ATOM     43  H7  5V2 d   1      31.358  52.428   0.344  0.00  0.00     0.084 H 
ATOM     44  C17 5V2 d   1      28.440  51.281  -0.925  0.00  0.00    -0.058 A 
ATOM     45  H8  5V2 d   1      27.895  51.228  -1.861  0.00  0.00     0.086 H 
BRANCH  42  46
ATOM     46  C19 5V2 d   1      30.232  52.506  -2.127  0.00  0.00     0.417 C 
ATOM     47  F20 5V2 d   1      29.478  53.551  -2.531  0.00  0.00    -0.166 F 
ATOM     48  F21 5V2 d   1      30.293  51.663  -3.109  0.00  0.00    -0.166 F 
ATOM     49  F22 5V2 d   1      31.488  52.968  -1.968  0.00  0.00    -0.166 F 
ENDBRANCH  42  46
ENDBRANCH   3  36
BRANCH   1  50
ATOM     50  C01 5V2 d   1      24.556  47.667   2.095  0.00  0.00    -0.011 C 
ATOM     51  H1  5V2 d   1      25.428  47.446   2.728  0.00  0.00     0.057 H 
ATOM     52  H2  5V2 d   1      24.253  46.756   1.558  0.00  0.00     0.057 H 
ATOM     53  H3  5V2 d   1      23.724  48.015   2.725  0.00  0.00     0.057 H 
ENDBRANCH   1  50
TORSDOF 6
