REMARK  9 active torsions:
REMARK  status: ('A' for Active; 'I' for Inactive)
REMARK    1  A    between atoms: C01_1  and  O05_2 
REMARK    2  A    between atoms: O05_2  and  C06_3 
REMARK    3  A    between atoms: C11_6  and  C20_11 
REMARK    4  A    between atoms: C14_8  and  O15_9 
REMARK    5  A    between atoms: O15_9  and  C16_10 
REMARK    6  A    between atoms: N23_13  and  C24_14 
REMARK    7  A    between atoms: C33_19  and  C36_22 
REMARK       I    between atoms: C36_22  and  N38_24 
REMARK    8  A    between atoms: N45_27  and  S52_30 
REMARK    9  A    between atoms: S52_30  and  C53_31 
ROOT
ATOM      1  C20 N1D d   1      26.360  50.478   0.294  0.00  0.00     0.008 A 
ATOM      2  C21 N1D d   1      25.918  49.462   1.071  0.00  0.00    -0.006 A 
ATOM      3  N23 N1D d   1      24.680  48.935   0.976  0.00  0.00    -0.327 N 
ATOM      4  C28 N1D d   1      23.734  49.395   0.060  0.00  0.00     0.258 A 
ATOM      5  O29 N1D d   1      22.592  48.889   0.047  0.00  0.00    -0.267 OA
ATOM      6  C30 N1D d   1      24.121  50.525  -0.799  0.00  0.00     0.052 A 
ATOM      7  C31 N1D d   1      23.401  51.225  -1.824  0.00  0.00    -0.044 A 
ATOM      8  C33 N1D d   1      24.126  52.226  -2.422  0.00  0.00     0.074 A 
ATOM      9  S34 N1D d   1      25.726  52.325  -1.774  0.00  0.00    -0.083 SA
ATOM     10  C35 N1D d   1      25.429  51.024  -0.663  0.00  0.00     0.034 A 
ATOM     11  H10 N1D d   1      26.599  49.047   1.813  0.00  0.00     0.113 H 
ATOM     12  H14 N1D d   1      22.376  50.985  -2.102  0.00  0.00     0.087 H 
ENDROOT
BRANCH   8  13
ATOM     13  C36 N1D d   1      24.015  53.260  -3.511  0.00  0.00     0.260 C 
ATOM     14  O37 N1D d   1      25.004  53.934  -3.762  0.00  0.00    -0.267 OA
ATOM     15  N38 N1D d   1      22.876  53.390  -4.232  0.00  0.00    -0.345 N 
ATOM     16  C39 N1D d   1      22.850  54.389  -5.307  0.00  0.00     0.010 C 
ATOM     17  C49 N1D d   1      21.576  52.737  -4.159  0.00  0.00     0.010 C 
ATOM     18  C42 N1D d   1      21.822  55.458  -5.010  0.00  0.00     0.008 C 
ATOM     19  H15 N1D d   1      22.594  53.894  -6.255  0.00  0.00     0.066 H 
ATOM     20  H16 N1D d   1      23.843  54.855  -5.393  0.00  0.00     0.066 H 
ATOM     21  N45 N1D d   1      20.491  54.831  -4.822  0.00  0.00    -0.208 NA
ATOM     22  H17 N1D d   1      21.777  56.166  -5.850  0.00  0.00     0.059 H 
ATOM     23  H18 N1D d   1      22.107  55.995  -4.093  0.00  0.00     0.059 H 
ATOM     24  C46 N1D d   1      20.510  53.755  -3.814  0.00  0.00     0.008 C 
ATOM     25  H19 N1D d   1      19.528  53.260  -3.792  0.00  0.00     0.059 H 
ATOM     26  H20 N1D d   1      20.726  54.187  -2.825  0.00  0.00     0.059 H 
ATOM     27  H21 N1D d   1      21.602  51.958  -3.383  0.00  0.00     0.066 H 
ATOM     28  H22 N1D d   1      21.342  52.279  -5.131  0.00  0.00     0.066 H 
BRANCH  21  29
ATOM     29  S52 N1D d   1      19.237  55.866  -4.688  0.00  0.00     0.207 S 
ATOM     30  O57 N1D d   1      19.434  56.602  -3.482  0.00  0.00    -0.212 OA
ATOM     31  O58 N1D d   1      18.045  55.095  -4.822  0.00  0.00    -0.212 OA
BRANCH  29  32
ATOM     32  C53 N1D d   1      19.325  56.982  -6.036  0.00  0.00     0.028 C 
ATOM     33  H23 N1D d   1      18.491  57.696  -5.976  0.00  0.00     0.050 H 
ATOM     34  H24 N1D d   1      19.261  56.422  -6.981  0.00  0.00     0.050 H 
ATOM     35  H25 N1D d   1      20.279  57.529  -5.998  0.00  0.00     0.050 H 
ENDBRANCH  29  32
ENDBRANCH  21  29
ENDBRANCH   8  13
BRANCH   1  36
ATOM     36  C11 N1D d   1      27.735  51.004   0.498  0.00  0.00    -0.020 A 
ATOM     37  C09 N1D d   1      28.295  51.016   1.775  0.00  0.00    -0.069 A 
ATOM     38  C07 N1D d   1      29.572  51.493   1.990  0.00  0.00    -0.047 A 
ATOM     39  H5  N1D d   1      27.717  50.644   2.613  0.00  0.00     0.085 H 
ATOM     40  C06 N1D d   1      30.313  51.966   0.922  0.00  0.00     0.101 A 
ATOM     41  H4  N1D d   1      29.992  51.497   2.989  0.00  0.00     0.087 H 
ATOM     42  C14 N1D d   1      29.752  51.969  -0.370  0.00  0.00     0.102 A 
ATOM     43  C12 N1D d   1      28.486  51.459  -0.577  0.00  0.00    -0.037 A 
ATOM     44  H6  N1D d   1      28.078  51.414  -1.580  0.00  0.00     0.089 H 
BRANCH  40  45
ATOM     45  O05 N1D d   1      31.581  52.469   1.026  0.00  0.00    -0.353 OA
BRANCH  45  46
ATOM     46  C01 N1D d   1      32.159  52.545   2.332  0.00  0.00     0.010 C 
ATOM     47  H1  N1D d   1      33.173  52.966   2.260  0.00  0.00     0.066 H 
ATOM     48  H2  N1D d   1      32.211  51.537   2.769  0.00  0.00     0.066 H 
ATOM     49  H3  N1D d   1      31.538  53.191   2.971  0.00  0.00     0.066 H 
ENDBRANCH  45  46
ENDBRANCH  40  45
BRANCH  42  50
ATOM     50  O15 N1D d   1      30.542  52.457  -1.370  0.00  0.00    -0.353 OA
BRANCH  50  51
ATOM     51  C16 N1D d   1      30.226  52.045  -2.696  0.00  0.00     0.010 C 
ATOM     52  H7  N1D d   1      30.933  52.506  -3.401  0.00  0.00     0.066 H 
ATOM     53  H8  N1D d   1      29.202  52.361  -2.944  0.00  0.00     0.066 H 
ATOM     54  H9  N1D d   1      30.299  50.950  -2.767  0.00  0.00     0.066 H 
ENDBRANCH  50  51
ENDBRANCH  42  50
ENDBRANCH   1  36
BRANCH   3  55
ATOM     55  C24 N1D d   1      24.289  47.826   1.847  0.00  0.00    -0.011 C 
ATOM     56  H11 N1D d   1      25.126  47.570   2.513  0.00  0.00     0.057 H 
ATOM     57  H12 N1D d   1      24.028  46.952   1.233  0.00  0.00     0.057 H 
ATOM     58  H13 N1D d   1      23.419  48.123   2.450  0.00  0.00     0.057 H 
ENDBRANCH   3  55
TORSDOF 9
