REMARK  4 active torsions:
REMARK  status: ('A' for Active; 'I' for Inactive)
REMARK    1  A    between atoms: C02_2  and  C05_5 
REMARK    2  A    between atoms: C08_8  and  C11_11 
REMARK    3  A    between atoms: C11_11  and  C13_13 
REMARK    4  A    between atoms: C17_17  and  C18_18 
ROOT
ATOM      1  C13 S3N d   1      25.654   9.406  -2.494  0.00  0.00     0.041 C 
ATOM      2  C14 S3N d   1      24.533   8.401  -2.637  0.00  0.00     0.092 C 
ATOM      3  N15 S3N d   1      25.207   7.181  -3.069  0.00  0.00    -0.074 N 
ATOM      4  C16 S3N d   1      26.493   7.601  -3.695  0.00  0.00     0.089 C 
ATOM      5  C17 S3N d   1      26.535   9.128  -3.657  0.00  0.00     0.006 C 
ATOM      6  H5  S3N d   1      26.173   9.287  -1.531  0.00  0.00     0.056 H 
ATOM      7  H6  S3N d   1      23.804   8.733  -3.391  0.00  0.00     0.076 H 
ATOM      8  H7  S3N d   1      24.022   8.246  -1.675  0.00  0.00     0.076 H 
ATOM      9  H8  S3N d   1      24.638   6.689  -3.740  0.00  0.00     0.277 HD
ATOM     10  H9  S3N d   1      25.385   6.583  -2.277  0.00  0.00     0.277 HD
ATOM     11  H10 S3N d   1      26.539   7.248  -4.736  0.00  0.00     0.076 H 
ATOM     12  H11 S3N d   1      27.341   7.186  -3.130  0.00  0.00     0.076 H 
ATOM     13  H12 S3N d   1      26.096   9.600  -4.548  0.00  0.00     0.051 H 
ENDROOT
BRANCH   5  14
ATOM     14  C18 S3N d   1      28.001   9.374  -3.667  0.00  0.00    -0.049 A 
ATOM     15  C19 S3N d   1      28.714   9.350  -2.465  0.00  0.00    -0.050 A 
ATOM     16  C20 S3N d   1      30.123   9.547  -2.419  0.00  0.00     0.045 A 
ATOM     17  H13 S3N d   1      28.177   9.176  -1.539  0.00  0.00     0.087 H 
ATOM     18  C21 S3N d   1      30.809   9.780  -3.584  0.00  0.00     0.058 A 
ATOM     19  N28 S3N d   1      30.774   9.534  -1.117  0.00  0.00    -0.373 N 
ATOM     20  C22 S3N d   1      30.087   9.819  -4.833  0.00  0.00    -0.065 A 
ATOM     21  C24 S3N d   1      32.298   9.980  -3.563  0.00  0.00     0.255 A 
ATOM     22  C23 S3N d   1      28.697   9.626  -4.872  0.00  0.00    -0.075 A 
ATOM     23  H14 S3N d   1      30.627  10.000  -5.756  0.00  0.00     0.085 H 
ATOM     24  H15 S3N d   1      28.163   9.670  -5.815  0.00  0.00     0.084 H 
ATOM     25  O25 S3N d   1      32.917  10.146  -4.596  0.00  0.00    -0.268 OA
ATOM     26  N26 S3N d   1      32.934   9.937  -2.304  0.00  0.00    -0.341 N 
ATOM     27  C27 S3N d   1      32.204   9.716  -1.094  0.00  0.00     0.054 A 
ATOM     28  H16 S3N d   1      33.925  10.065  -2.256  0.00  0.00     0.164 HD
ATOM     29  H17 S3N d   1      32.399  10.584  -0.447  0.00  0.00     0.096 H 
ATOM     30  H18 S3N d   1      32.628   8.812  -0.633  0.00  0.00     0.096 H 
ATOM     31  H19 S3N d   1      30.236   9.400  -0.249  0.00  0.00     0.161 HD
ENDBRANCH   5  14
BRANCH   1  32
ATOM     32  C11 S3N d   1      25.191  10.815  -2.679  0.00  0.00     0.166 C 
ATOM     33  O12 S3N d   1      25.535  11.417  -3.705  0.00  0.00    -0.292 OA
BRANCH  32  34
ATOM     34  C08 S3N d   1      24.332  11.516  -1.640  0.00  0.00     0.010 A 
ATOM     35  C07 S3N d   1      23.867  12.826  -1.824  0.00  0.00    -0.069 A 
ATOM     36  C06 S3N d   1      23.095  13.430  -0.823  0.00  0.00    -0.067 A 
ATOM     37  H2  S3N d   1      24.103  13.367  -2.733  0.00  0.00     0.085 H 
ATOM     38  C05 S3N d   1      22.775  12.709   0.329  0.00  0.00     0.048 A 
ATOM     39  H1  S3N d   1      22.748  14.450  -0.942  0.00  0.00     0.084 H 
ATOM     40  C10 S3N d   1      23.224  11.407   0.495  0.00  0.00    -0.067 A 
ATOM     41  C09 S3N d   1      24.015  10.794  -0.505  0.00  0.00    -0.069 A 
ATOM     42  H4  S3N d   1      22.968  10.858   1.394  0.00  0.00     0.084 H 
ATOM     43  H3  S3N d   1      24.366   9.776  -0.383  0.00  0.00     0.085 H 
BRANCH  38  44
ATOM     44  C02 S3N d   1      21.970  13.368   1.389  0.00  0.00     0.417 C 
ATOM     45  F01 S3N d   1      20.756  12.912   1.436  0.00  0.00    -0.166 F 
ATOM     46  F03 S3N d   1      22.406  13.152   2.597  0.00  0.00    -0.166 F 
ATOM     47  F04 S3N d   1      22.025  14.660   1.266  0.00  0.00    -0.166 F 
ENDBRANCH  38  44
ENDBRANCH  32  34
ENDBRANCH   1  32
TORSDOF 4
