REMARK  4 active torsions:
REMARK  status: ('A' for Active; 'I' for Inactive)
REMARK    1  A    between atoms: C9_11  and  N2_6 
REMARK    2  A    between atoms: C7_9  and  O1_14 
REMARK    3  A    between atoms: O1_14  and  C11_15 
REMARK    4  A    between atoms: C11_15  and  C12_16 
ROOT
ATOM      1  C1  09P d   1      14.282  30.539 -15.249  0.00  0.00     0.096 C 
ATOM      2  N1  09P d   1      14.188  31.374 -14.017  0.00  0.00    -0.074 N 
ATOM      3  C2  09P d   1      15.301  31.340 -13.027  0.00  0.00     0.083 C 
ATOM      4  C3  09P d   1      16.536  32.127 -13.510  0.00  0.00    -0.028 C 
ATOM      5  C4  09P d   1      17.091  31.607 -14.843  0.00  0.00    -0.003 C 
ATOM      6  N2  09P d   1      16.218  32.090 -15.923  0.00  0.00    -0.378 N 
ATOM      7  C5  09P d   1      15.261  31.036 -16.345  0.00  0.00     0.018 C 
ATOM      8  H1  09P d   1      13.278  30.487 -15.695  0.00  0.00     0.078 H 
ATOM      9  H2  09P d   1      14.602  29.531 -14.947  0.00  0.00     0.078 H 
ATOM     10  H3  09P d   1      13.353  31.088 -13.531  0.00  0.00     0.277 HD
ATOM     11  H4  09P d   1      14.091  32.331 -14.317  0.00  0.00     0.277 HD
ATOM     12  H5  09P d   1      15.592  30.293 -12.858  0.00  0.00     0.075 H 
ATOM     13  H6  09P d   1      14.948  31.780 -12.082  0.00  0.00     0.075 H 
ATOM     14  H7  09P d   1      17.324  32.047 -12.747  0.00  0.00     0.037 H 
ATOM     15  H8  09P d   1      16.253  33.182 -13.636  0.00  0.00     0.037 H 
ATOM     16  H9  09P d   1      17.103  30.507 -14.838  0.00  0.00     0.064 H 
ATOM     17  H10 09P d   1      18.113  31.984 -14.993  0.00  0.00     0.064 H 
ATOM     18  H11 09P d   1      14.662  31.436 -17.177  0.00  0.00     0.066 H 
ATOM     19  H12 09P d   1      15.844  30.171 -16.695  0.00  0.00     0.066 H 
ENDROOT
BRANCH   6  20
ATOM     20  C9  09P d   1      16.455  33.247 -16.607  0.00  0.00     0.050 A 
ATOM     21  C8  09P d   1      17.602  34.039 -16.354  0.00  0.00    -0.022 A 
ATOM     22  C7  09P d   1      17.836  35.244 -17.091  0.00  0.00     0.088 A 
ATOM     23  H14 09P d   1      18.310  33.729 -15.594  0.00  0.00     0.091 H 
ATOM     24  C6  09P d   1      16.900  35.630 -18.066  0.00  0.00     0.034 A 
ATOM     25  N3  09P d   1      15.812  34.899 -18.333  0.00  0.00    -0.268 NA
ATOM     26  H13 09P d   1      17.065  36.548 -18.618  0.00  0.00     0.119 H 
ATOM     27  C10 09P d   1      15.603  33.756 -17.626  0.00  0.00     0.027 A 
ATOM     28  H15 09P d   1      14.712  33.185 -17.859  0.00  0.00     0.118 H 
BRANCH  22  29
ATOM     29  O1  09P d   1      18.909  36.088 -16.867  0.00  0.00    -0.350 OA
BRANCH  29  30
ATOM     30  C11 09P d   1      18.868  36.750 -15.598  0.00  0.00     0.023 C 
ATOM     31  H16 09P d   1      18.183  36.217 -14.922  0.00  0.00     0.074 H 
ATOM     32  H17 09P d   1      18.521  37.786 -15.730  0.00  0.00     0.074 H 
BRANCH  30  33
ATOM     33  C12 09P d   1      20.272  36.748 -15.013  0.00  0.00    -0.056 C 
ATOM     34  H18 09P d   1      20.263  37.253 -14.036  0.00  0.00     0.030 H 
ATOM     35  H19 09P d   1      20.954  37.279 -15.694  0.00  0.00     0.030 H 
ATOM     36  H20 09P d   1      20.615  35.711 -14.886  0.00  0.00     0.030 H 
ENDBRANCH  30  33
ENDBRANCH  29  30
ENDBRANCH  22  29
ENDBRANCH   6  20
TORSDOF 4
