REMARK  1 active torsions:
REMARK  status: ('A' for Active; 'I' for Inactive)
REMARK    1  A    between atoms: C2_2  and  N2_8 
ROOT
ATOM      1  N2  09R d   1     -51.464  65.120 -27.965  0.00  0.00    -0.378 N 
ATOM      2  C6  09R d   1     -51.754  64.015 -28.890  0.00  0.00     0.018 C 
ATOM      3  C7  09R d   1     -50.513  63.610 -29.686  0.00  0.00     0.096 C 
ATOM      4  N3  09R d   1     -49.428  63.235 -28.777  0.00  0.00    -0.074 N 
ATOM      5  C8  09R d   1     -48.423  64.284 -28.434  0.00  0.00     0.083 C 
ATOM      6  C9  09R d   1     -48.933  65.648 -27.891  0.00  0.00    -0.028 C 
ATOM      7  C10 09R d   1     -50.363  66.031 -28.344  0.00  0.00    -0.003 C 
ATOM      8  H4  09R d   1     -52.540  64.332 -29.591  0.00  0.00     0.066 H 
ATOM      9  H5  09R d   1     -52.106  63.148 -28.312  0.00  0.00     0.066 H 
ATOM     10  H6  09R d   1     -50.189  64.457 -30.309  0.00  0.00     0.078 H 
ATOM     11  H7  09R d   1     -50.759  62.754 -30.331  0.00  0.00     0.078 H 
ATOM     12  H8  09R d   1     -48.931  62.468 -29.201  0.00  0.00     0.277 HD
ATOM     13  H9  09R d   1     -49.849  62.927 -27.915  0.00  0.00     0.277 HD
ATOM     14  H10 09R d   1     -47.846  64.493 -29.347  0.00  0.00     0.075 H 
ATOM     15  H11 09R d   1     -47.757  63.858 -27.669  0.00  0.00     0.075 H 
ATOM     16  H12 09R d   1     -48.243  66.433 -28.234  0.00  0.00     0.037 H 
ATOM     17  H13 09R d   1     -48.922  65.605 -26.792  0.00  0.00     0.037 H 
ATOM     18  H14 09R d   1     -50.591  67.019 -27.917  0.00  0.00     0.064 H 
ATOM     19  H15 09R d   1     -50.354  66.099 -29.442  0.00  0.00     0.064 H 
ENDROOT
BRANCH   1  20
ATOM     20  C2  09R d   1     -51.988  65.138 -26.682  0.00  0.00     0.048 A 
ATOM     21  C1  09R d   1     -53.217  64.471 -26.431  0.00  0.00     0.029 A 
ATOM     22  N1  09R d   1     -53.881  64.481 -25.266  0.00  0.00    -0.251 NA
ATOM     23  H1  09R d   1     -53.654  63.908 -27.248  0.00  0.00     0.118 H 
ATOM     24  C5  09R d   1     -53.346  65.181 -24.233  0.00  0.00     0.102 A 
ATOM     25  C4  09R d   1     -52.159  65.931 -24.385  0.00  0.00    -0.046 A 
ATOM     26 BR1  09R d   1     -54.230  65.140 -22.739  0.00  0.00    -0.029 Br
ATOM     27  C3  09R d   1     -51.429  65.855 -25.576  0.00  0.00    -0.053 A 
ATOM     28  H3  09R d   1     -51.813  66.566 -23.578  0.00  0.00     0.087 H 
ATOM     29  H2  09R d   1     -50.458  66.330 -25.660  0.00  0.00     0.087 H 
ENDBRANCH   1  20
TORSDOF 1
