REMARK WARNING: 32 MAX_TORS EXCEEDED!!!
REMARK  52 active torsions:
REMARK  status: ('A' for Active; 'I' for Inactive)
REMARK       I    between atoms: C_1  and  N_3 
REMARK    1  A    between atoms: N_3  and  CA_4 
REMARK    2  A    between atoms: CA_4  and  C_5 
REMARK    3  A    between atoms: CA_4  and  CB_7 
REMARK       I    between atoms: C_5  and  N_13 
REMARK    4  A    between atoms: CB_7  and  CG_8 
REMARK    5  A    between atoms: N_13  and  CA_14 
REMARK    6  A    between atoms: CA_14  and  C_15 
REMARK       I    between atoms: C_15  and  N_17 
REMARK    7  A    between atoms: N_17  and  CA_18 
REMARK    8  A    between atoms: CA_18  and  C_19 
REMARK    9  A    between atoms: CA_18  and  CB_21 
REMARK       I    between atoms: C_19  and  N_28 
REMARK   10  A    between atoms: CB_21  and  CG_22 
REMARK   11  A    between atoms: CG_22  and  CD_23 
REMARK   12  A    between atoms: CD_23  and  NE_24 
REMARK       I    between atoms: NE_24  and  CZ_25 
REMARK       I    between atoms: CZ_25  and  NH1_26 
REMARK       I    between atoms: CZ_25  and  NH2_27 
REMARK   13  A    between atoms: N_28  and  CA_29 
REMARK   14  A    between atoms: CA_29  and  C_30 
REMARK       I    between atoms: C_30  and  N_32 
REMARK   15  A    between atoms: N_32  and  CA_33 
REMARK   16  A    between atoms: CA_33  and  C_34 
REMARK   17  A    between atoms: CA_33  and  CB_36 
REMARK       I    between atoms: C_34  and  N_40 
REMARK   18  A    between atoms: CB_36  and  CG_37 
REMARK   19  A    between atoms: N_40  and  CA_41 
REMARK   20  A    between atoms: CA_41  and  C_42 
REMARK   21  A    between atoms: CA_41  and  CB_44 
REMARK       I    between atoms: C_42  and  N_48 
REMARK   22  A    between atoms: CB_44  and  CG_45 
REMARK   23  A    between atoms: CG_45  and  CD1_46 
REMARK   24  A    between atoms: CG_45  and  CD2_47 
REMARK   25  A    between atoms: N_48  and  CA_49 
REMARK   26  A    between atoms: CA_49  and  C_50 
REMARK       I    between atoms: C_50  and  N_52 
REMARK   27  A    between atoms: N_52  and  CA_53 
REMARK   28  A    between atoms: CA_53  and  C_54 
REMARK   29  A    between atoms: CA_53  and  CB_56 
REMARK       I    between atoms: C_54  and  N_63 
REMARK   30  A    between atoms: CB_56  and  CG_57 
REMARK   31  A    between atoms: CG_57  and  CD_58 
REMARK   32  A    between atoms: CD_58  and  NE_59 
REMARK       I    between atoms: NE_59  and  CZ_60 
REMARK       I    between atoms: CZ_60  and  NH1_61 
REMARK   33  A    between atoms: N_63  and  CA_64 
REMARK   34  A    between atoms: CA_64  and  C_65 
REMARK   35  A    between atoms: CA_64  and  CB_67 
REMARK       I    between atoms: C_65  and  N_71 
REMARK   36  A    between atoms: CB_67  and  CG_68 
REMARK   37  A    between atoms: CG_68  and  CD1_69 
REMARK   38  A    between atoms: CG_68  and  CD2_70 
REMARK   39  A    between atoms: N_71  and  CA_72 
REMARK   40  A    between atoms: CA_72  and  C_73 
REMARK   41  A    between atoms: CA_72  and  CB_75 
REMARK       I    between atoms: C_73  and  N_80 
REMARK   42  A    between atoms: CB_75  and  CG_76 
REMARK   43  A    between atoms: CG_76  and  CD_77 
REMARK   44  A    between atoms: CD_77  and  CE_78 
REMARK   45  A    between atoms: CE_78  and  NZ_79 
REMARK   46  A    between atoms: N_80  and  CA_81 
REMARK   47  A    between atoms: CA_81  and  C_82 
REMARK   48  A    between atoms: CA_81  and  CB_84 
REMARK       I    between atoms: C_82  and  N7_89 
REMARK   49  A    between atoms: CB_84  and  CG_85 
REMARK   50  A    between atoms: CG_85  and  CD_86 
REMARK   51  A    between atoms: CD_86  and  CE_87 
REMARK   52  A    between atoms: CE_87  and  NZ_88 
ROOT
ATOM      1  CA  GLY d   1      44.209  32.713  84.901  0.00  0.00     0.069 C 
ATOM      2  H   GLY d   1      44.099  32.431  83.844  0.00  0.00     0.078 H 
ATOM      3  H   GLY d   1      45.206  33.148  85.063  0.00  0.00     0.078 H 
ENDROOT
BRANCH   1   4
ATOM      4  N   GLY d   1      44.121  31.497  85.697  0.00  0.00    -0.351 N 
ATOM      5  C   LEU d   1      44.162  31.508  87.027  0.00  0.00     0.240 C 
ATOM      6  O   LEU d   1      44.213  32.543  87.688  0.00  0.00    -0.271 OA
ATOM      7  H   GLY d   1      44.026  30.620  85.226  0.00  0.00     0.163 HD
BRANCH   5   8
ATOM      8  CA  LEU d   1      44.151  30.150  87.726  0.00  0.00     0.089 C 
ATOM      9  H   LEU d   1      43.173  30.028  88.215  0.00  0.00     0.087 H 
BRANCH   8  10
ATOM     10  N   LEU d   1      44.328  29.032  86.802  0.00  0.00    -0.346 N 
ATOM     11  C   ASP d   1      43.302  28.427  86.208  0.00  0.00     0.241 C 
ATOM     12  O   ASP d   1      42.126  28.731  86.423  0.00  0.00    -0.271 OA
ATOM     13  H   LEU d   1      45.255  28.709  86.609  0.00  0.00     0.163 HD
BRANCH  11  14
ATOM     14  CA  ASP d   1      43.656  27.302  85.233  0.00  0.00     0.098 C 
ATOM     15  H   ASP d   1      42.945  27.340  84.395  0.00  0.00     0.088 H 
BRANCH  14  16
ATOM     16  N   ASP d   1      45.005  27.472  84.693  0.00  0.00    -0.346 N 
ATOM     17  C   GLY d   1      45.288  28.390  83.772  0.00  0.00     0.236 C 
ATOM     18  O   GLY d   1      44.445  29.158  83.313  0.00  0.00    -0.272 OA
ATOM     19  H   ASP d   1      45.738  26.879  85.027  0.00  0.00     0.163 HD
BRANCH  17  20
ATOM     20  CA  GLY d   1      46.732  28.459  83.304  0.00  0.00     0.069 C 
ATOM     21  H   GLY d   1      47.357  28.792  84.146  0.00  0.00     0.078 H 
ATOM     22  H   GLY d   1      47.046  27.453  82.989  0.00  0.00     0.078 H 
BRANCH  20  23
ATOM     23  N   GLY d   1      46.927  29.374  82.193  0.00  0.00    -0.351 N 
ATOM     24  C   ARG d   1      47.303  30.638  82.366  0.00  0.00     0.240 C 
ATOM     25  O   ARG d   1      47.581  31.109  83.469  0.00  0.00    -0.271 OA
ATOM     26  H   GLY d   1      46.773  29.041  81.263  0.00  0.00     0.163 HD
BRANCH  24  27
ATOM     27  CA  ARG d   1      47.373  31.501  81.102  0.00  0.00     0.089 C 
ATOM     28  H   ARG d   1      47.113  30.866  80.243  0.00  0.00     0.087 H 
BRANCH  27  29
ATOM     29  N   ARG d   1      46.425  32.610  81.147  0.00  0.00    -0.346 N 
ATOM     30  C   GLY d   1      45.206  32.502  80.631  0.00  0.00     0.236 C 
ATOM     31  O   GLY d   1      44.792  31.470  80.104  0.00  0.00    -0.272 OA
ATOM     32  H   ARG d   1      46.700  33.471  81.576  0.00  0.00     0.163 HD
BRANCH  30  33
ATOM     33  CA  GLY d   1      44.321  33.729  80.725  0.00  0.00     0.069 C 
ATOM     34  H   GLY d   1      44.194  34.000  81.784  0.00  0.00     0.078 H 
ATOM     35  H   GLY d   1      44.802  34.560  80.189  0.00  0.00     0.078 H 
BRANCH  33  36
ATOM     36  N   GLY d   1      43.017  33.481  80.141  0.00  0.00    -0.351 N 
ATOM     37  C   HIS d   1      42.037  34.376  80.200  0.00  0.00     0.241 C 
ATOM     38  O   HIS d   1      42.164  35.476  80.739  0.00  0.00    -0.271 OA
ATOM     39  H   GLY d   1      42.850  32.609  79.680  0.00  0.00     0.163 HD
BRANCH  37  40
ATOM     40  CA  HIS d   1      40.717  33.968  79.548  0.00  0.00     0.094 C 
ATOM     41  H   HIS d   1      40.934  33.213  78.778  0.00  0.00     0.088 H 
BRANCH  40  42
ATOM     42  N   HIS d   1      39.798  33.376  80.513  0.00  0.00    -0.355 N 
ATOM     43  C   ACE d   1      39.081  32.295  80.224  0.00  0.00     0.169 C 
ATOM     44  O   ACE d   1      38.235  32.270  79.330  0.00  0.00    -0.284 OA
ATOM     45  H   ACE d   1      39.250  31.389  80.805  0.00  0.00     0.180 H 
ATOM     46  H   HIS d   1      39.705  33.795  81.416  0.00  0.00     0.162 HD
ENDBRANCH  40  42
BRANCH  40  47
ATOM     47  CB  HIS d   1      40.076  35.178  78.870  0.00  0.00     0.004 C 
ATOM     48  H   HIS d   1      39.826  35.918  79.644  0.00  0.00     0.046 H 
ATOM     49  H   HIS d   1      39.155  34.848  78.367  0.00  0.00     0.046 H 
BRANCH  47  50
ATOM     50  CG  HIS d   1      40.959  35.834  77.856  0.00  0.00     0.053 A 
ATOM     51  ND1 HIS d   1      41.510  35.147  76.797  0.00  0.00    -0.247 NA
ATOM     52  CE1 HIS d   1      42.244  35.974  76.073  0.00  0.00     0.064 A 
ATOM     53  NE2 HIS d   1      42.191  37.172  76.627  0.00  0.00    -0.359 N 
ATOM     54  H   HIS d   1      42.798  35.712  75.173  0.00  0.00     0.143 H 
ATOM     55  CD2 HIS d   1      41.394  37.111  77.745  0.00  0.00     0.002 A 
ATOM     56  H   HIS d   1      42.669  38.015  76.278  0.00  0.00     0.166 HD
ATOM     57  H   HIS d   1      41.157  37.935  78.416  0.00  0.00     0.114 H 
ENDBRANCH  47  50
ENDBRANCH  40  47
ENDBRANCH  37  40
ENDBRANCH  33  36
ENDBRANCH  30  33
ENDBRANCH  27  29
BRANCH  27  58
ATOM     58  CB  ARG d   1      48.793  32.031  80.895  0.00  0.00    -0.036 C 
ATOM     59  H   ARG d   1      49.182  32.366  81.868  0.00  0.00     0.036 H 
ATOM     60  H   ARG d   1      48.745  32.886  80.205  0.00  0.00     0.036 H 
BRANCH  58  61
ATOM     61  CG  ARG d   1      49.758  31.009  80.322  0.00  0.00    -0.048 C 
ATOM     62  H   ARG d   1      49.325  30.583  79.405  0.00  0.00     0.035 H 
ATOM     63  H   ARG d   1      49.912  30.209  81.061  0.00  0.00     0.035 H 
BRANCH  61  64
ATOM     64  CD  ARG d   1      51.101  31.637  79.988  0.00  0.00     0.009 C 
ATOM     65  H   ARG d   1      51.600  31.926  80.925  0.00  0.00     0.064 H 
ATOM     66  H   ARG d   1      50.931  32.532  79.372  0.00  0.00     0.064 H 
BRANCH  64  67
ATOM     67  NE  ARG d   1      51.969  30.719  79.255  0.00  0.00    -0.227 N 
ATOM     68  CZ  ARG d   1      53.297  30.768  79.283  0.00  0.00     0.665 C 
ATOM     69  NH1 ARG d   1      53.909  31.689  80.015  0.00  0.00    -0.235 N 
ATOM     70  NH2 ARG d   1      54.014  29.897  78.586  0.00  0.00    -0.235 N 
ATOM     71  H   ARG d   1      54.938  31.729  80.038  0.00  0.00     0.174 HD
ATOM     72  H   ARG d   1      53.355  32.365  80.561  0.00  0.00     0.174 HD
ATOM     73  H   ARG d   1      53.542  29.180  78.016  0.00  0.00     0.174 HD
ATOM     74  H   ARG d   1      55.043  29.937  78.614  0.00  0.00     0.174 HD
ATOM     75  H   ARG d   1      51.525  29.988  78.681  0.00  0.00     0.177 HD
ENDBRANCH  64  67
ENDBRANCH  61  64
ENDBRANCH  58  61
ENDBRANCH  27  58
ENDBRANCH  24  27
ENDBRANCH  20  23
ENDBRANCH  17  20
ENDBRANCH  14  16
BRANCH  14  76
ATOM     76  CB  ASP d   1      43.522  25.936  85.915  0.00  0.00     0.043 C 
ATOM     77  H   ASP d   1      44.223  25.896  86.762  0.00  0.00     0.052 H 
ATOM     78  H   ASP d   1      43.781  25.153  85.187  0.00  0.00     0.052 H 
BRANCH  76  79
ATOM     79  CG  ASP d   1      42.118  25.671  86.434  0.00  0.00     0.175 C 
ATOM     80  OD1 ASP d   1      41.227  25.355  85.617  0.00  0.00    -0.648 OA
ATOM     81  OD2 ASP d   1      41.904  25.763  87.660  0.00  0.00    -0.648 OA
ENDBRANCH  76  79
ENDBRANCH  14  76
ENDBRANCH  11  14
ENDBRANCH   8  10
BRANCH   8  82
ATOM     82  CB  LEU d   1      45.235  30.131  88.803  0.00  0.00    -0.035 C 
ATOM     83  H   LEU d   1      45.170  31.080  89.356  0.00  0.00     0.037 H 
ATOM     84  H   LEU d   1      46.208  30.069  88.293  0.00  0.00     0.037 H 
BRANCH  82  85
ATOM     85  CG  LEU d   1      45.178  28.999  89.824  0.00  0.00    -0.059 C 
ATOM     86  H   LEU d   1      45.204  28.039  89.288  0.00  0.00     0.038 H 
BRANCH  85  87
ATOM     87  CD1 LEU d   1      46.379  29.068  90.749  0.00  0.00    -0.073 C 
ATOM     88  H   LEU d   1      46.327  28.247  91.480  0.00  0.00     0.028 H 
ATOM     89  H   LEU d   1      46.379  30.032  91.279  0.00  0.00     0.028 H 
ATOM     90  H   LEU d   1      47.302  28.975  90.159  0.00  0.00     0.028 H 
ENDBRANCH  85  87
BRANCH  85  91
ATOM     91  CD2 LEU d   1      43.882  29.077  90.613  0.00  0.00    -0.073 C 
ATOM     92  H   LEU d   1      43.028  29.025  89.921  0.00  0.00     0.028 H 
ATOM     93  H   LEU d   1      43.847  30.026  91.168  0.00  0.00     0.028 H 
ATOM     94  H   LEU d   1      43.832  28.236  91.321  0.00  0.00     0.028 H 
ENDBRANCH  85  91
ENDBRANCH  82  85
ENDBRANCH   8  82
ENDBRANCH   5   8
ENDBRANCH   1   4
BRANCH   1  95
ATOM     95  C   GLY d   1      43.178  33.790  85.203  0.00  0.00     0.236 C 
ATOM     96  O   GLY d   1      43.532  34.959  85.371  0.00  0.00    -0.272 OA
ATOM     97  N   ARG d   1      41.905  33.406  85.261  0.00  0.00    -0.346 N 
ATOM     98  H   ARG d   1      41.676  32.444  85.110  0.00  0.00     0.163 HD
BRANCH  97  99
ATOM     99  CA  ARG d   1      40.836  34.359  85.540  0.00  0.00     0.089 C 
ATOM    100  H   ARG d   1      40.915  35.181  84.813  0.00  0.00     0.087 H 
BRANCH  99 101
ATOM    101  C   ARG d   1      40.951  34.952  86.943  0.00  0.00     0.241 C 
ATOM    102  O   ARG d   1      40.796  36.159  87.127  0.00  0.00    -0.271 OA
ATOM    103  N   LEU d   1      41.230  34.101  87.927  0.00  0.00    -0.346 N 
ATOM    104  H   LEU d   1      41.398  33.140  87.708  0.00  0.00     0.163 HD
BRANCH 103 105
ATOM    105  CA  LEU d   1      41.297  34.538  89.319  0.00  0.00     0.089 C 
ATOM    106  H   LEU d   1      40.420  35.172  89.519  0.00  0.00     0.087 H 
BRANCH 105 107
ATOM    107  C   LEU d   1      42.548  35.355  89.600  0.00  0.00     0.241 C 
ATOM    108  O   LEU d   1      42.554  36.214  90.481  0.00  0.00    -0.271 OA
ATOM    109  N   LYS d   1      43.608  35.079  88.850  0.00  0.00    -0.346 N 
ATOM    110  H   LYS d   1      43.544  34.354  88.165  0.00  0.00     0.163 HD
BRANCH 109 111
ATOM    111  CA  LYS d   1      44.861  35.804  88.999  0.00  0.00     0.089 C 
ATOM    112  H   LYS d   1      45.116  35.849  90.068  0.00  0.00     0.087 H 
BRANCH 111 113
ATOM    113  C   LYS d   1      44.707  37.230  88.480  0.00  0.00     0.241 C 
ATOM    114  O   LYS d   1      45.405  38.145  88.920  0.00  0.00    -0.271 OA
ATOM    115  N   LYS d   1      43.785  37.402  87.536  0.00  0.00    -0.346 N 
ATOM    116  H   LYS d   1      43.286  36.603  87.200  0.00  0.00     0.163 HD
BRANCH 115 117
ATOM    117  CA  LYS d   1      43.475  38.712  86.973  0.00  0.00     0.089 C 
ATOM    118  H   LYS d   1      44.373  39.342  87.058  0.00  0.00     0.087 H 
BRANCH 117 119
ATOM    119  C   LYS d   1      42.342  39.393  87.740  0.00  0.00     0.238 C 
ATOM    120  O   LYS d   1      41.359  38.755  88.111  0.00  0.00    -0.271 OA
ATOM    121  N7  NHH d   1      42.488  40.692  87.980  0.00  0.00    -0.368 N 
ATOM    122  H   NHH d   1      41.779  41.191  88.478  0.00  0.00     0.159 HD
ATOM    123  H   NHH d   1      43.307  41.170  87.663  0.00  0.00     0.159 HD
ENDBRANCH 117 119
BRANCH 117 124
ATOM    124  CB  LYS d   1      43.114  38.586  85.490  0.00  0.00    -0.038 C 
ATOM    125  H   LYS d   1      42.774  39.569  85.132  0.00  0.00     0.036 H 
ATOM    126  H   LYS d   1      42.296  37.857  85.394  0.00  0.00     0.036 H 
BRANCH 124 127
ATOM    127  CG  LYS d   1      44.271  38.128  84.608  0.00  0.00    -0.061 C 
ATOM    128  H   LYS d   1      44.548  37.101  84.889  0.00  0.00     0.033 H 
ATOM    129  H   LYS d   1      45.129  38.797  84.770  0.00  0.00     0.033 H 
BRANCH 127 130
ATOM    130  CD  LYS d   1      43.900  38.152  83.131  0.00  0.00    -0.043 C 
ATOM    131  H   LYS d   1      43.574  39.167  82.860  0.00  0.00     0.035 H 
ATOM    132  H   LYS d   1      43.077  37.444  82.957  0.00  0.00     0.035 H 
BRANCH 130 133
ATOM    133  CE  LYS d   1      45.083  37.761  82.257  0.00  0.00     0.080 C 
ATOM    134  H   LYS d   1      45.387  36.735  82.510  0.00  0.00     0.075 H 
ATOM    135  H   LYS d   1      45.916  38.451  82.459  0.00  0.00     0.075 H 
BRANCH 133 136
ATOM    136  NZ  LYS d   1      44.753  37.819  80.806  0.00  0.00    -0.079 N 
ATOM    137  H   LYS d   1      45.562  37.553  80.267  0.00  0.00     0.274 HD
ATOM    138  H   LYS d   1      44.479  38.758  80.561  0.00  0.00     0.274 HD
ATOM    139  H   LYS d   1      43.995  37.185  80.608  0.00  0.00     0.274 HD
ENDBRANCH 133 136
ENDBRANCH 130 133
ENDBRANCH 127 130
ENDBRANCH 124 127
ENDBRANCH 117 124
ENDBRANCH 115 117
ENDBRANCH 111 113
BRANCH 111 140
ATOM    140  CB  LYS d   1      45.983  35.072  88.266  0.00  0.00    -0.038 C 
ATOM    141  H   LYS d   1      45.806  35.170  87.185  0.00  0.00     0.036 H 
ATOM    142  H   LYS d   1      45.941  34.010  88.550  0.00  0.00     0.036 H 
BRANCH 140 143
ATOM    143  CG  LYS d   1      47.374  35.583  88.562  0.00  0.00    -0.061 C 
ATOM    144  H   LYS d   1      47.541  35.575  89.649  0.00  0.00     0.033 H 
ATOM    145  H   LYS d   1      47.472  36.611  88.184  0.00  0.00     0.033 H 
BRANCH 143 146
ATOM    146  CD  LYS d   1      48.406  34.700  87.889  0.00  0.00    -0.043 C 
ATOM    147  H   LYS d   1      49.412  35.085  88.113  0.00  0.00     0.035 H 
ATOM    148  H   LYS d   1      48.241  34.715  86.802  0.00  0.00     0.035 H 
BRANCH 146 149
ATOM    149  CE  LYS d   1      48.295  33.269  88.391  0.00  0.00     0.080 C 
ATOM    150  H   LYS d   1      47.305  32.873  88.121  0.00  0.00     0.075 H 
ATOM    151  H   LYS d   1      48.406  33.266  89.485  0.00  0.00     0.075 H 
BRANCH 149 152
ATOM    152  NZ  LYS d   1      49.341  32.394  87.799  0.00  0.00    -0.079 N 
ATOM    153  H   LYS d   1      49.236  31.457  88.154  0.00  0.00     0.274 HD
ATOM    154  H   LYS d   1      50.253  32.746  88.046  0.00  0.00     0.274 HD
ATOM    155  H   LYS d   1      49.244  32.386  86.796  0.00  0.00     0.274 HD
ENDBRANCH 149 152
ENDBRANCH 146 149
ENDBRANCH 143 146
ENDBRANCH 140 143
ENDBRANCH 111 140
ENDBRANCH 109 111
ENDBRANCH 105 107
BRANCH 105 156
ATOM    156  CB  LEU d   1      41.252  33.335  90.263  0.00  0.00    -0.035 C 
ATOM    157  H   LEU d   1      41.746  33.633  91.200  0.00  0.00     0.037 H 
ATOM    158  H   LEU d   1      41.823  32.523  89.789  0.00  0.00     0.037 H 
BRANCH 156 159
ATOM    159  CG  LEU d   1      39.878  32.776  90.628  0.00  0.00    -0.059 C 
ATOM    160  H   LEU d   1      39.386  32.425  89.709  0.00  0.00     0.038 H 
BRANCH 159 161
ATOM    161  CD1 LEU d   1      40.032  31.604  91.574  0.00  0.00    -0.073 C 
ATOM    162  H   LEU d   1      39.039  31.208  91.832  0.00  0.00     0.028 H 
ATOM    163  H   LEU d   1      40.543  31.936  92.490  0.00  0.00     0.028 H 
ATOM    164  H   LEU d   1      40.626  30.816  91.088  0.00  0.00     0.028 H 
ENDBRANCH 159 161
BRANCH 159 165
ATOM    165  CD2 LEU d   1      39.012  33.852  91.259  0.00  0.00    -0.073 C 
ATOM    166  H   LEU d   1      38.909  34.696  90.561  0.00  0.00     0.028 H 
ATOM    167  H   LEU d   1      39.482  34.202  92.190  0.00  0.00     0.028 H 
ATOM    168  H   LEU d   1      38.018  33.438  91.483  0.00  0.00     0.028 H 
ENDBRANCH 159 165
ENDBRANCH 156 159
ENDBRANCH 105 156
ENDBRANCH 103 105
ENDBRANCH  99 101
BRANCH  99 169
ATOM    169  CB  ARG d   1      39.467  33.694  85.374  0.00  0.00    -0.036 C 
ATOM    170  H   ARG d   1      38.692  34.449  85.574  0.00  0.00     0.036 H 
ATOM    171  H   ARG d   1      39.387  32.882  86.112  0.00  0.00     0.036 H 
BRANCH 169 172
ATOM    172  CG  ARG d   1      39.215  33.107  83.992  0.00  0.00    -0.048 C 
ATOM    173  H   ARG d   1      38.976  32.038  84.097  0.00  0.00     0.035 H 
ATOM    174  H   ARG d   1      40.125  33.221  83.385  0.00  0.00     0.035 H 
BRANCH 172 175
ATOM    175  CD  ARG d   1      38.058  33.806  83.286  0.00  0.00     0.009 C 
ATOM    176  H   ARG d   1      37.202  33.855  83.975  0.00  0.00     0.064 H 
ATOM    177  H   ARG d   1      37.781  33.219  82.398  0.00  0.00     0.064 H 
BRANCH 175 178
ATOM    178  NE  ARG d   1      38.398  35.163  82.864  0.00  0.00    -0.227 N 
ATOM    179  CZ  ARG d   1      37.579  35.964  82.187  0.00  0.00     0.665 C 
ATOM    180  NH1 ARG d   1      36.366  35.546  81.853  0.00  0.00    -0.235 N 
ATOM    181  NH2 ARG d   1      37.973  37.183  81.843  0.00  0.00    -0.235 N 
ATOM    182  H   ARG d   1      35.733  36.167  81.329  0.00  0.00     0.174 HD
ATOM    183  H   ARG d   1      36.056  34.600  82.118  0.00  0.00     0.174 HD
ATOM    184  H   ARG d   1      38.915  37.512  82.100  0.00  0.00     0.174 HD
ATOM    185  H   ARG d   1      37.337  37.801  81.318  0.00  0.00     0.174 HD
ATOM    186  H   ARG d   1      39.332  35.523  83.106  0.00  0.00     0.177 HD
ENDBRANCH 175 178
ENDBRANCH 172 175
ENDBRANCH 169 172
ENDBRANCH  99 169
ENDBRANCH  97  99
ENDBRANCH   1  95
TORSDOF 52
