REMARK  12 active torsions:
REMARK  status: ('A' for Active; 'I' for Inactive)
REMARK    1  A    between atoms: P1_1  and  C7_5 
REMARK    2  A    between atoms: C7_5  and  P8_6 
REMARK    3  A    between atoms: C7_5  and  O14_10 
REMARK    4  A    between atoms: C7_5  and  C16_11 
REMARK    5  A    between atoms: C16_11  and  C19_12 
REMARK    6  A    between atoms: C19_12  and  N22_13 
REMARK    7  A    between atoms: N22_13  and  C23_14 
REMARK    8  A    between atoms: N22_13  and  C39_19 
REMARK    9  A    between atoms: C23_14  and  C26_15 
REMARK   10  A    between atoms: C26_15  and  C29_16 
REMARK   11  A    between atoms: C29_16  and  C32_17 
REMARK   12  A    between atoms: C32_17  and  C35_18 
ROOT
ATOM      1  N22 BFQ d   1      12.874  24.899  -6.825  0.00  0.00    -0.075 N 
ATOM      2  H6  BFQ d   1      12.866  24.431  -5.932  0.00  0.00     0.279 HD
ENDROOT
BRANCH   1   3
ATOM      3  C19 BFQ d   1      13.609  24.134  -7.844  0.00  0.00     0.087 C 
ATOM      4  H4  BFQ d   1      13.646  24.751  -8.754  0.00  0.00     0.076 H 
ATOM      5  H5  BFQ d   1      14.630  23.978  -7.465  0.00  0.00     0.076 H 
BRANCH   3   6
ATOM      6  C16 BFQ d   1      13.056  22.766  -8.242  0.00  0.00     0.012 C 
ATOM      7  H2  BFQ d   1      12.021  22.921  -8.582  0.00  0.00     0.042 H 
ATOM      8  H3  BFQ d   1      13.667  22.401  -9.081  0.00  0.00     0.042 H 
BRANCH   6   9
ATOM      9  C7  BFQ d   1      13.024  21.673  -7.207  0.00  0.00     0.286 C 
BRANCH   9  10
ATOM     10  P1  BFQ d   1      14.515  21.573  -6.158  0.00  0.00     0.310 P 
ATOM     11  O2  BFQ d   1      15.699  21.301  -7.062  0.00  0.00    -0.637 OA
ATOM     12  O3  BFQ d   1      14.242  20.395  -5.250  0.00  0.00    -0.637 OA
ATOM     13  O5  BFQ d   1      14.739  22.940  -5.499  0.00  0.00    -0.637 OA
ENDBRANCH   9  10
BRANCH   9  14
ATOM     14  P8  BFQ d   1      12.912  20.036  -8.061  0.00  0.00     0.310 P 
ATOM     15  O9  BFQ d   1      14.068  19.847  -8.982  0.00  0.00    -0.637 OA
ATOM     16  O10 BFQ d   1      11.719  20.087  -8.949  0.00  0.00    -0.637 OA
ATOM     17  O12 BFQ d   1      12.640  18.963  -7.033  0.00  0.00    -0.637 OA
ENDBRANCH   9  14
BRANCH   9  18
ATOM     18  O14 BFQ d   1      11.940  21.908  -6.370  0.00  0.00    -0.365 OA
ATOM     19  H1  BFQ d   1      11.147  21.965  -6.890  0.00  0.00     0.212 HD
ENDBRANCH   9  18
ENDBRANCH   6   9
ENDBRANCH   3   6
ENDBRANCH   1   3
BRANCH   1  20
ATOM     20  C23 BFQ d   1      13.596  26.194  -6.741  0.00  0.00     0.083 C 
ATOM     21  H7  BFQ d   1      14.482  26.057  -6.103  0.00  0.00     0.075 H 
ATOM     22  H8  BFQ d   1      12.926  26.937  -6.284  0.00  0.00     0.075 H 
BRANCH  20  23
ATOM     23  C26 BFQ d   1      14.058  26.732  -8.106  0.00  0.00    -0.042 C 
ATOM     24  H9  BFQ d   1      13.166  26.879  -8.733  0.00  0.00     0.035 H 
ATOM     25  H10 BFQ d   1      14.710  25.975  -8.567  0.00  0.00     0.035 H 
BRANCH  23  26
ATOM     26  C29 BFQ d   1      14.814  28.031  -8.062  0.00  0.00    -0.064 C 
ATOM     27  H11 BFQ d   1      15.204  28.213  -7.050  0.00  0.00     0.033 H 
ATOM     28  H12 BFQ d   1      14.160  28.865  -8.358  0.00  0.00     0.033 H 
BRANCH  26  29
ATOM     29  C32 BFQ d   1      15.958  27.880  -9.050  0.00  0.00    -0.069 C 
ATOM     30  H13 BFQ d   1      15.594  27.275  -9.893  0.00  0.00     0.032 H 
ATOM     31  H14 BFQ d   1      16.772  27.345  -8.539  0.00  0.00     0.032 H 
BRANCH  29  32
ATOM     32  C35 BFQ d   1      16.523  29.135  -9.607  0.00  0.00    -0.077 C 
ATOM     33  H15 BFQ d   1      17.338  28.892 -10.304  0.00  0.00     0.027 H 
ATOM     34  H16 BFQ d   1      16.914  29.756  -8.788  0.00  0.00     0.027 H 
ATOM     35  H17 BFQ d   1      15.735  29.686 -10.142  0.00  0.00     0.027 H 
ENDBRANCH  29  32
ENDBRANCH  26  29
ENDBRANCH  23  26
ENDBRANCH  20  23
ENDBRANCH   1  20
BRANCH   1  36
ATOM     36  C39 BFQ d   1      11.507  25.066  -7.331  0.00  0.00     0.066 C 
ATOM     37  H18 BFQ d   1      11.011  24.085  -7.377  0.00  0.00     0.068 H 
ATOM     38  H19 BFQ d   1      11.540  25.508  -8.338  0.00  0.00     0.068 H 
ATOM     39  H20 BFQ d   1      10.945  25.730  -6.658  0.00  0.00     0.068 H 
ENDBRANCH   1  36
TORSDOF 12
