REMARK WARNING: 32 MAX_TORS EXCEEDED!!!
REMARK  37 active torsions:
REMARK  status: ('A' for Active; 'I' for Inactive)
REMARK    1  A    between atoms: C_1  and  CH3_3 
REMARK       I    between atoms: N_4  and  C_1 
REMARK    2  A    between atoms: CA_5  and  N_4 
REMARK    3  A    between atoms: C_6  and  CA_5 
REMARK    4  A    between atoms: CA_5  and  CB_8 
REMARK       I    between atoms: N_11  and  C_6 
REMARK    5  A    between atoms: CB_8  and  OG1_9 
REMARK    6  A    between atoms: CB_8  and  CG2_10 
REMARK    7  A    between atoms: CA_12  and  N_11 
REMARK    8  A    between atoms: C_13  and  CA_12 
REMARK    9  A    between atoms: CA_12  and  CB_15 
REMARK       I    between atoms: N_17  and  C_13 
REMARK   10  A    between atoms: CB_15  and  OG_16 
REMARK   11  A    between atoms: CA_18  and  N_17 
REMARK   12  A    between atoms: C_19  and  CA_18 
REMARK   13  A    between atoms: CA_18  and  CB_21 
REMARK       I    between atoms: NAC_33  and  C_19 
REMARK   14  A    between atoms: CB_21  and  CG_22 
REMARK   15  A    between atoms: CAF_30  and  CAA_31 
REMARK   16  A    between atoms: CAF_30  and  NAC_33 
REMARK   17  A    between atoms: CA_41  and  CB_44 
REMARK   18  A    between atoms: CB_44  and  CG_45 
REMARK   19  A    between atoms: CG_45  and  CD_46 
REMARK   20  A    between atoms: CA_50  and  CB_53 
REMARK   21  A    between atoms: CB_53  and  CG_54 
REMARK   22  A    between atoms: CZ_59  and  OH_60 
REMARK   23  A    between atoms: CA_62  and  CB_65 
REMARK   24  A    between atoms: CB_65  and  CG_66 
REMARK   25  A    between atoms: CA_76  and  CB_79 
REMARK   26  A    between atoms: CB_79  and  CG_80 
REMARK   27  A    between atoms: CZ_85  and  OH_86 
REMARK   28  A    between atoms: CA_88  and  CB_91 
REMARK   29  A    between atoms: CB_91  and  CG_92 
REMARK   30  A    between atoms: CG_92  and  CD1_93 
REMARK   31  A    between atoms: CG_92  and  CD2_94 
REMARK   32  A    between atoms: CA_96  and  CB_99 
REMARK   33  A    between atoms: CB_99  and  CG_100 
REMARK   34  A    between atoms: CG_100  and  CD1_101 
REMARK   35  A    between atoms: CG_100  and  CD2_102 
REMARK   36  A    between atoms: CA_106  and  C_103 
REMARK       I    between atoms: C_103  and  N_112 
REMARK   37  A    between atoms: CA_106  and  CB1_111 
ROOT
ATOM      1  OAD 0EH d   1       4.379  20.653 129.724  0.00  0.00    -0.271 OA
ATOM      2  CAE 0EH d   1       3.786  19.919 130.564  0.00  0.00     0.246 C 
ATOM      3  CAF 0EH d   1       2.567  19.148 130.084  0.00  0.00     0.110 C 
ATOM      4  CAB 0EH d   1       2.415  19.459 128.595  0.00  0.00    -0.033 C 
ATOM      5  CAO 0EH d   1       1.153  19.040 127.840  0.00  0.00    -0.062 C 
ATOM      6  CAP 0EH d   1       1.189  19.586 126.398  0.00  0.00    -0.065 C 
ATOM      7  CAQ 0EH d   1       2.055  20.848 126.311  0.00  0.00    -0.065 C 
ATOM      8  CAR 0EH d   1       1.894  21.686 125.067  0.00  0.00    -0.062 C 
ATOM      9  CAS 0EH d   1       2.265  23.128 125.401  0.00  0.00    -0.050 C 
ATOM     10  CAT 0EH d   1       3.754  23.431 125.308  0.00  0.00    -0.107 C 
ATOM     11  H   0EH d   1       3.262  18.978 128.084  0.00  0.00     0.037 H 
ATOM     12  H   0EH d   1       2.497  20.551 128.491  0.00  0.00     0.037 H 
ATOM     13  H   0EH d   1       0.270  19.441 128.358  0.00  0.00     0.033 H 
ATOM     14  H   0EH d   1       1.094  17.942 127.811  0.00  0.00     0.033 H 
ATOM     15  H   0EH d   1       0.165  19.830 126.080  0.00  0.00     0.033 H 
ATOM     16  H   0EH d   1       1.607  18.817 125.732  0.00  0.00     0.033 H 
ATOM     17  H   0EH d   1       3.108  20.536 126.371  0.00  0.00     0.033 H 
ATOM     18  H   0EH d   1       1.811  21.482 127.176  0.00  0.00     0.033 H 
ATOM     19  H   0EH d   1       0.850  21.642 124.723  0.00  0.00     0.033 H 
ATOM     20  H   0EH d   1       2.557  21.306 124.276  0.00  0.00     0.033 H 
ATOM     21  H   0EH d   1       1.934  23.339 126.429  0.00  0.00     0.038 H 
ATOM     22  H   0EH d   1       1.735  23.791 124.701  0.00  0.00     0.038 H 
ATOM     23  H   0EH d   1       4.489  22.834 125.846  0.00  0.00     0.076 H 
ATOM     24  N   GLU d   1       4.414  19.793 131.752  0.00  0.00    -0.346 N 
ATOM     25  CA  GLU d   1       5.616  20.543 132.202  0.00  0.00     0.090 C 
ATOM     26  C   GLU d   1       6.863  20.163 131.409  0.00  0.00     0.241 C 
ATOM     27  O   GLU d   1       7.619  21.041 131.000  0.00  0.00    -0.271 OA
ATOM     28  H   GLU d   1       4.032  19.128 132.394  0.00  0.00     0.163 HD
ATOM     29  H   GLU d   1       5.424  21.612 132.026  0.00  0.00     0.087 H 
ATOM     30  N   TYR d   1       7.084  18.868 131.195  0.00  0.00    -0.346 N 
ATOM     31  CA  TYR d   1       8.228  18.422 130.406  0.00  0.00     0.093 C 
ATOM     32  C   TYR d   1       8.210  19.045 129.006  0.00  0.00     0.241 C 
ATOM     33  O   TYR d   1       9.224  19.567 128.543  0.00  0.00    -0.271 OA
ATOM     34  N   TYR d   1       6.481  21.689 128.068  0.00  0.00    -0.346 N 
ATOM     35  CA  TYR d   1       6.631  23.120 128.334  0.00  0.00     0.093 C 
ATOM     36  C   TYR d   1       8.106  23.520 128.452  0.00  0.00     0.241 C 
ATOM     37  O   TYR d   1       8.523  24.548 127.910  0.00  0.00    -0.271 OA
ATOM     38  H   TYR d   1       6.457  18.191 131.580  0.00  0.00     0.163 HD
ATOM     39  H   TYR d   1       9.144  18.748 130.921  0.00  0.00     0.088 H 
ATOM     40  H   TYR d   1       5.913  21.147 128.688  0.00  0.00     0.163 HD
ATOM     41  H   TYR d   1       6.191  23.679 127.495  0.00  0.00     0.088 H 
ATOM     42  N   TRP d   1       7.058  18.990 128.345  0.00  0.00    -0.346 N 
ATOM     43  CA  TRP d   1       6.931  19.553 127.002  0.00  0.00     0.093 C 
ATOM     44  C   TRP d   1       7.064  21.072 127.040  0.00  0.00     0.241 C 
ATOM     45  O   TRP d   1       7.686  21.660 126.161  0.00  0.00    -0.271 OA
ATOM     46  H   TRP d   1       6.265  18.556 128.774  0.00  0.00     0.163 HD
ATOM     47  H   TRP d   1       7.751  19.152 126.388  0.00  0.00     0.088 H 
ATOM     48  N   LEU d   1       8.893  22.707 129.153  0.00  0.00    -0.346 N 
ATOM     49  CA  LEU d   1      10.321  22.974 129.306  0.00  0.00     0.089 C 
ATOM     50  C   LEU d   1      11.059  22.743 127.989  0.00  0.00     0.241 C 
ATOM     51  O   LEU d   1      12.020  23.448 127.676  0.00  0.00    -0.271 OA
ATOM     52  N   LEU d   1      10.598  21.767 127.212  0.00  0.00    -0.346 N 
ATOM     53  CA  LEU d   1      11.083  21.579 125.846  0.00  0.00     0.089 C 
ATOM     54  C   LEU d   1      10.767  22.799 124.962  0.00  0.00     0.241 C 
ATOM     55  O   LEU d   1      11.671  23.278 124.254  0.00  0.00    -0.271 OA
ATOM     56  H   LEU d   1       8.498  21.896 129.584  0.00  0.00     0.163 HD
ATOM     57  H   LEU d   1      10.440  24.033 129.577  0.00  0.00     0.087 H 
ATOM     58  H   LEU d   1       9.902  21.146 127.572  0.00  0.00     0.163 HD
ATOM     59  H   LEU d   1      12.176  21.462 125.887  0.00  0.00     0.087 H 
ATOM     60  N   MK8 d   1       9.653  23.433 124.846  0.00  0.00    -0.342 N 
ATOM     61  CA  MK8 d   1       9.240  24.645 124.134  0.00  0.00     0.110 C 
ATOM     62  CB  MK8 d   1       7.888  25.154 124.615  0.00  0.00    -0.033 C 
ATOM     63  CD  MK8 d   1       5.482  25.047 124.235  0.00  0.00    -0.050 C 
ATOM     64  CE  MK8 d   1       4.123  24.460 124.539  0.00  0.00    -0.107 C 
ATOM     65  CG  MK8 d   1       6.705  24.192 124.535  0.00  0.00    -0.059 C 
ATOM     66  H   MK8 d   1       8.905  23.004 125.353  0.00  0.00     0.163 HD
ATOM     67  H   MK8 d   1       7.635  26.038 124.012  0.00  0.00     0.037 H 
ATOM     68  H   MK8 d   1       8.002  25.449 125.668  0.00  0.00     0.037 H 
ATOM     69  H   MK8 d   1       5.578  25.974 124.820  0.00  0.00     0.038 H 
ATOM     70  H   MK8 d   1       5.504  25.286 123.162  0.00  0.00     0.038 H 
ATOM     71  H   MK8 d   1       3.296  24.966 124.043  0.00  0.00     0.076 H 
ATOM     72  H   MK8 d   1       6.577  23.665 125.492  0.00  0.00     0.033 H 
ATOM     73  H   MK8 d   1       6.864  23.458 123.731  0.00  0.00     0.033 H 
ENDROOT
BRANCH   3  74
ATOM     74  CAA 0EH d   1       1.353  19.579 130.917  0.00  0.00    -0.044 C 
ATOM     75  H   0EH d   1       0.463  19.028 130.580  0.00  0.00     0.031 H 
ATOM     76  H   0EH d   1       1.186  20.659 130.790  0.00  0.00     0.031 H 
ATOM     77  H   0EH d   1       1.540  19.359 131.978  0.00  0.00     0.031 H 
ENDBRANCH   3  74
BRANCH   3  78
ATOM     78  NAC 0EH d   1       2.826  17.726 130.288  0.00  0.00    -0.342 N 
ATOM     79  C   PHE d   1       3.891  16.927 130.040  0.00  0.00     0.241 C 
ATOM     80  O   PHE d   1       4.812  17.419 129.384  0.00  0.00    -0.271 OA
ATOM     81  H   0EH d   1       2.054  17.239 130.697  0.00  0.00     0.163 HD
BRANCH  79  82
ATOM     82  CA  PHE d   1       4.025  15.488 130.534  0.00  0.00     0.093 C 
ATOM     83  H   PHE d   1       5.080  15.185 130.459  0.00  0.00     0.088 H 
BRANCH  82  84
ATOM     84  N   PHE d   1       3.628  15.401 131.938  0.00  0.00    -0.346 N 
ATOM     85  C   SER d   1       4.213  16.149 132.871  0.00  0.00     0.243 C 
ATOM     86  O   SER d   1       5.219  16.839 132.656  0.00  0.00    -0.271 OA
ATOM     87  H   PHE d   1       2.902  14.767 132.203  0.00  0.00     0.163 HD
BRANCH  85  88
ATOM     88  CA  SER d   1       3.563  16.126 134.259  0.00  0.00     0.109 C 
ATOM     89  H   SER d   1       3.151  15.121 134.433  0.00  0.00     0.090 H 
BRANCH  88  90
ATOM     90  N   SER d   1       4.505  16.447 135.330  0.00  0.00    -0.344 N 
ATOM     91  C   THR d   1       5.423  15.639 135.674  0.00  0.00     0.243 C 
ATOM     92  O   THR d   1       5.601  14.557 135.140  0.00  0.00    -0.271 OA
ATOM     93  H   SER d   1       4.425  17.324 135.803  0.00  0.00     0.163 HD
BRANCH  91  94
ATOM     94  CA  THR d   1       6.350  16.041 136.792  0.00  0.00     0.113 C 
ATOM     95  H   THR d   1       5.914  16.913 137.302  0.00  0.00     0.091 H 
BRANCH  94  96
ATOM     96  N   THR d   1       6.553  14.983 137.773  0.00  0.00    -0.346 N 
ATOM     97  C   ACE d   1       5.586  14.596 138.605  0.00  0.00     0.214 C 
ATOM     98  O   ACE d   1       4.474  15.109 138.588  0.00  0.00    -0.274 OA
ATOM     99  H   THR d   1       7.445  14.534 137.824  0.00  0.00     0.163 HD
BRANCH  97 100
ATOM    100  CH3 ACE d   1       5.933  13.495 139.570  0.00  0.00    -0.003 C 
ATOM    101  H   ACE d   1       6.976  13.184 139.412  0.00  0.00     0.040 H 
ATOM    102  H   ACE d   1       5.266  12.637 139.403  0.00  0.00     0.040 H 
ATOM    103  H   ACE d   1       5.811  13.859 140.601  0.00  0.00     0.040 H 
ENDBRANCH  97 100
ENDBRANCH  94  96
BRANCH  94 104
ATOM    104  CB  THR d   1       7.712  16.422 136.227  0.00  0.00     0.060 C 
ATOM    105  H   THR d   1       8.134  15.546 135.713  0.00  0.00     0.086 H 
BRANCH 104 106
ATOM    106  OG1 THR d   1       8.579  16.797 137.297  0.00  0.00    -0.393 OA
ATOM    107  H   THR d   1       8.676  16.066 137.896  0.00  0.00     0.210 HD
ENDBRANCH 104 106
BRANCH 104 108
ATOM    108  CG2 THR d   1       7.620  17.570 135.230  0.00  0.00    -0.050 C 
ATOM    109  H   THR d   1       8.625  17.808 134.851  0.00  0.00     0.031 H 
ATOM    110  H   THR d   1       7.197  18.455 135.728  0.00  0.00     0.031 H 
ATOM    111  H   THR d   1       6.972  17.276 134.391  0.00  0.00     0.031 H 
ENDBRANCH 104 108
ENDBRANCH  94 104
ENDBRANCH  91  94
ENDBRANCH  88  90
BRANCH  88 112
ATOM    112  CB  SER d   1       2.433  17.164 134.328  0.00  0.00     0.044 C 
ATOM    113  H   SER d   1       2.003  17.149 135.340  0.00  0.00     0.077 H 
ATOM    114  H   SER d   1       1.659  16.890 133.596  0.00  0.00     0.077 H 
BRANCH 112 115
ATOM    115  OG  SER d   1       2.880  18.479 134.045  0.00  0.00    -0.398 OA
ATOM    116  H   SER d   1       3.545  18.729 134.676  0.00  0.00     0.209 HD
ENDBRANCH 112 115
ENDBRANCH  88 112
ENDBRANCH  85  88
ENDBRANCH  82  84
BRANCH  82 117
ATOM    117  CB  PHE d   1       3.195  14.568 129.628  0.00  0.00    -0.014 C 
ATOM    118  H   PHE d   1       2.133  14.689 129.886  0.00  0.00     0.043 H 
ATOM    119  H   PHE d   1       3.501  13.528 129.812  0.00  0.00     0.043 H 
BRANCH 117 120
ATOM    120  CG  PHE d   1       3.368  14.866 128.159  0.00  0.00    -0.056 A 
ATOM    121  CD1 PHE d   1       4.544  14.531 127.507  0.00  0.00    -0.077 A 
ATOM    122  CE1 PHE d   1       4.718  14.822 126.165  0.00  0.00    -0.082 A 
ATOM    123  H   PHE d   1       5.337  14.035 128.055  0.00  0.00     0.084 H 
ATOM    124  CZ  PHE d   1       3.716  15.470 125.461  0.00  0.00    -0.083 A 
ATOM    125  H   PHE d   1       5.638  14.543 125.665  0.00  0.00     0.083 H 
ATOM    126  CE2 PHE d   1       2.543  15.818 126.101  0.00  0.00    -0.082 A 
ATOM    127  H   PHE d   1       3.852  15.703 124.411  0.00  0.00     0.083 H 
ATOM    128  CD2 PHE d   1       2.377  15.523 127.445  0.00  0.00    -0.077 A 
ATOM    129  H   PHE d   1       1.754  16.321 125.554  0.00  0.00     0.083 H 
ATOM    130  H   PHE d   1       1.459  15.810 127.945  0.00  0.00     0.084 H 
ENDBRANCH 117 120
ENDBRANCH  82 117
ENDBRANCH  79  82
ENDBRANCH   3  78
BRANCH  25 131
ATOM    131  CB  GLU d   1       5.849  20.351 133.700  0.00  0.00    -0.029 C 
ATOM    132  H   GLU d   1       6.039  19.285 133.892  0.00  0.00     0.037 H 
ATOM    133  H   GLU d   1       4.943  20.665 134.239  0.00  0.00     0.037 H 
BRANCH 131 134
ATOM    134  CG  GLU d   1       7.027  21.154 134.225  0.00  0.00     0.018 C 
ATOM    135  H   GLU d   1       7.006  22.148 133.755  0.00  0.00     0.049 H 
ATOM    136  H   GLU d   1       7.955  20.634 133.943  0.00  0.00     0.049 H 
BRANCH 134 137
ATOM    137  CD  GLU d   1       7.020  21.337 135.731  0.00  0.00     0.172 C 
ATOM    138  OE1 GLU d   1       6.149  20.771 136.425  0.00  0.00    -0.648 OA
ATOM    139  OE2 GLU d   1       7.905  22.060 136.218  0.00  0.00    -0.648 OA
ENDBRANCH 134 137
ENDBRANCH 131 134
ENDBRANCH  25 131
BRANCH  31 140
ATOM    140  CB  TYR d   1       8.261  16.899 130.280  0.00  0.00    -0.014 C 
ATOM    141  H   TYR d   1       8.905  16.641 129.426  0.00  0.00     0.043 H 
ATOM    142  H   TYR d   1       7.236  16.550 130.085  0.00  0.00     0.043 H 
BRANCH 140 143
ATOM    143  CG  TYR d   1       8.781  16.168 131.497  0.00  0.00    -0.056 A 
ATOM    144  CD1 TYR d   1      10.071  16.394 131.974  0.00  0.00    -0.074 A 
ATOM    145  CE1 TYR d   1      10.557  15.710 133.079  0.00  0.00    -0.051 A 
ATOM    146  H   TYR d   1      10.705  17.116 131.473  0.00  0.00     0.084 H 
ATOM    147  CZ  TYR d   1       9.751  14.777 133.713  0.00  0.00     0.065 A 
ATOM    148  H   TYR d   1      11.559  15.904 133.444  0.00  0.00     0.087 H 
ATOM    149  CE2 TYR d   1       8.474  14.530 133.253  0.00  0.00    -0.051 A 
ATOM    150  CD2 TYR d   1       7.996  15.221 132.150  0.00  0.00    -0.074 A 
ATOM    151  H   TYR d   1       7.847  13.799 133.751  0.00  0.00     0.087 H 
ATOM    152  H   TYR d   1       6.994  15.021 131.790  0.00  0.00     0.084 H 
BRANCH 147 153
ATOM    153  OH  TYR d   1      10.216  14.098 134.811  0.00  0.00    -0.361 OA
ATOM    154  H   TYR d   1      10.207  13.165 134.632  0.00  0.00     0.217 HD
ENDBRANCH 147 153
ENDBRANCH 140 143
ENDBRANCH  31 140
BRANCH  43 155
ATOM    155  CB  TRP d   1       5.612  19.152 126.347  0.00  0.00    -0.012 C 
ATOM    156  H   TRP d   1       4.814  19.804 126.733  0.00  0.00     0.044 H 
ATOM    157  H   TRP d   1       5.391  18.107 126.610  0.00  0.00     0.044 H 
BRANCH 155 158
ATOM    158  CG  TRP d   1       5.650  19.273 124.857  0.00  0.00    -0.028 A 
ATOM    159  CD1 TRP d   1       5.203  20.322 124.104  0.00  0.00    -0.015 A 
ATOM    160  NE1 TRP d   1       5.411  20.071 122.769  0.00  0.00    -0.365 N 
ATOM    161  H   TRP d   1       4.747  21.227 124.504  0.00  0.00     0.112 H 
ATOM    162  CE2 TRP d   1       6.012  18.848 122.636  0.00  0.00     0.042 A 
ATOM    163  H   TRP d   1       5.156  20.700 121.995  0.00  0.00     0.165 HD
ATOM    164  CD2 TRP d   1       6.178  18.314 123.933  0.00  0.00    -0.002 A 
ATOM    165  CZ2 TRP d   1       6.418  18.167 121.491  0.00  0.00    -0.056 A 
ATOM    166  CE3 TRP d   1       6.776  17.058 124.074  0.00  0.00    -0.070 A 
ATOM    167  CZ3 TRP d   1       7.183  16.382 122.934  0.00  0.00    -0.082 A 
ATOM    168  H   TRP d   1       6.919  16.621 125.056  0.00  0.00     0.084 H 
ATOM    169  CH2 TRP d   1       6.999  16.937 121.658  0.00  0.00    -0.081 A 
ATOM    170  H   TRP d   1       7.651  15.409 123.030  0.00  0.00     0.083 H 
ATOM    171  H   TRP d   1       7.323  16.381 120.786  0.00  0.00     0.083 H 
ATOM    172  H   TRP d   1       6.280  18.594 120.504  0.00  0.00     0.086 H 
ENDBRANCH 155 158
ENDBRANCH  43 155
BRANCH  35 173
ATOM    173  CB  TYR d   1       5.863  23.475 129.614  0.00  0.00    -0.014 C 
ATOM    174  H   TYR d   1       6.218  22.806 130.412  0.00  0.00     0.043 H 
ATOM    175  H   TYR d   1       4.796  23.286 129.425  0.00  0.00     0.043 H 
BRANCH 173 176
ATOM    176  CG  TYR d   1       5.995  24.895 130.114  0.00  0.00    -0.056 A 
ATOM    177  CD1 TYR d   1       7.001  25.249 131.009  0.00  0.00    -0.074 A 
ATOM    178  CE1 TYR d   1       7.111  26.543 131.486  0.00  0.00    -0.051 A 
ATOM    179  H   TYR d   1       7.710  24.498 131.338  0.00  0.00     0.084 H 
ATOM    180  CZ  TYR d   1       6.199  27.497 131.085  0.00  0.00     0.065 A 
ATOM    181  H   TYR d   1       7.909  26.806 132.171  0.00  0.00     0.087 H 
ATOM    182  CE2 TYR d   1       5.184  27.172 130.207  0.00  0.00    -0.051 A 
ATOM    183  CD2 TYR d   1       5.080  25.876 129.735  0.00  0.00    -0.074 A 
ATOM    184  H   TYR d   1       4.474  27.927 129.890  0.00  0.00     0.087 H 
ATOM    185  H   TYR d   1       4.273  25.619 129.059  0.00  0.00     0.084 H 
BRANCH 180 186
ATOM    186  OH  TYR d   1       6.302  28.778 131.555  0.00  0.00    -0.361 OA
ATOM    187  H   TYR d   1       7.045  28.839 132.144  0.00  0.00     0.217 HD
ENDBRANCH 180 186
ENDBRANCH 173 176
ENDBRANCH  35 173
BRANCH  61 188
ATOM    188  C   MK8 d   1      10.203  25.770 124.440  0.00  0.00     0.243 C 
ATOM    189  O   MK8 d   1      10.568  26.530 123.519  0.00  0.00    -0.271 OA
ATOM    190  N   NME d   1      10.660  25.953 125.773  0.00  0.00    -0.368 N 
ATOM    191  H   NME d   1      10.355  25.333 126.496  0.00  0.00     0.159 HD
ATOM    192  H   NME d   1      11.286  26.702 125.988  0.00  0.00     0.159 HD
ENDBRANCH  61 188
BRANCH  61 193
ATOM    193  CB1 MK8 d   1       9.228  24.360 122.636  0.00  0.00    -0.044 C 
ATOM    194  H   MK8 d   1       8.919  25.265 122.093  0.00  0.00     0.031 H 
ATOM    195  H   MK8 d   1       8.520  23.545 122.423  0.00  0.00     0.031 H 
ATOM    196  H   MK8 d   1      10.236  24.064 122.311  0.00  0.00     0.031 H 
ENDBRANCH  61 193
BRANCH  49 197
ATOM    197  CB  LEU d   1      10.919  22.130 130.439  0.00  0.00    -0.035 C 
ATOM    198  H   LEU d   1      12.015  22.209 130.386  0.00  0.00     0.037 H 
ATOM    199  H   LEU d   1      10.619  21.083 130.284  0.00  0.00     0.037 H 
BRANCH 197 200
ATOM    200  CG  LEU d   1      10.475  22.553 131.845  0.00  0.00    -0.059 C 
ATOM    201  H   LEU d   1       9.382  22.674 131.829  0.00  0.00     0.038 H 
BRANCH 200 202
ATOM    202  CD1 LEU d   1      10.811  21.483 132.876  0.00  0.00    -0.073 C 
ATOM    203  H   LEU d   1      10.481  21.816 133.871  0.00  0.00     0.028 H 
ATOM    204  H   LEU d   1      11.898  21.314 132.888  0.00  0.00     0.028 H 
ATOM    205  H   LEU d   1      10.297  20.547 132.613  0.00  0.00     0.028 H 
ENDBRANCH 200 202
BRANCH 200 206
ATOM    206  CD2 LEU d   1      11.087  23.893 132.237  0.00  0.00    -0.073 C 
ATOM    207  H   LEU d   1      10.832  24.648 131.479  0.00  0.00     0.028 H 
ATOM    208  H   LEU d   1      12.181  23.792 132.300  0.00  0.00     0.028 H 
ATOM    209  H   LEU d   1      10.691  24.205 133.214  0.00  0.00     0.028 H 
ENDBRANCH 200 206
ENDBRANCH 197 200
ENDBRANCH  49 197
BRANCH  53 210
ATOM    210  CB  LEU d   1      10.489  20.309 125.232  0.00  0.00    -0.035 C 
ATOM    211  H   LEU d   1       9.398  20.354 125.364  0.00  0.00     0.037 H 
ATOM    212  H   LEU d   1      10.891  19.450 125.790  0.00  0.00     0.037 H 
BRANCH 210 213
ATOM    213  CG  LEU d   1      10.766  20.067 123.746  0.00  0.00    -0.059 C 
ATOM    214  H   LEU d   1      10.626  21.016 123.207  0.00  0.00     0.038 H 
BRANCH 213 215
ATOM    215  CD1 LEU d   1      12.199  19.611 123.540  0.00  0.00    -0.073 C 
ATOM    216  H   LEU d   1      12.380  19.442 122.468  0.00  0.00     0.028 H 
ATOM    217  H   LEU d   1      12.369  18.675 124.092  0.00  0.00     0.028 H 
ATOM    218  H   LEU d   1      12.887  20.385 123.910  0.00  0.00     0.028 H 
ENDBRANCH 213 215
BRANCH 213 219
ATOM    219  CD2 LEU d   1       9.783  19.054 123.190  0.00  0.00    -0.073 C 
ATOM    220  H   LEU d   1       8.756  19.412 123.354  0.00  0.00     0.028 H 
ATOM    221  H   LEU d   1       9.921  18.090 123.701  0.00  0.00     0.028 H 
ATOM    222  H   LEU d   1       9.959  18.926 122.112  0.00  0.00     0.028 H 
ENDBRANCH 213 219
ENDBRANCH 210 213
ENDBRANCH  53 210
TORSDOF 37
