REMARK  12 active torsions:
REMARK  status: ('A' for Active; 'I' for Inactive)
REMARK    1  A    between atoms: C1_1  and  O2_2 
REMARK    2  A    between atoms: O2_2  and  C3_3 
REMARK    3  A    between atoms: C5_5  and  O6_6 
REMARK    4  A    between atoms: C8_8  and  N9_9 
REMARK    5  A    between atoms: N9_9  and  C10_10 
REMARK    6  A    between atoms: C13_13  and  C14_14 
REMARK       I    between atoms: C14_14  and  N16_16 
REMARK    7  A    between atoms: N16_16  and  C17_17 
REMARK    8  A    between atoms: C23_23  and  O24_24 
REMARK    9  A    between atoms: O24_24  and  C25_25 
REMARK   10  A    between atoms: C25_25  and  C26_26 
REMARK   11  A    between atoms: C26_26  and  C27_27 
REMARK   12  A    between atoms: C27_27  and  N28_28 
ROOT
ATOM      1  C10 B5S d   1      29.454  17.098  16.250  0.00  0.00     0.035 A 
ATOM      2  C11 B5S d   1      30.660  16.793  15.623  0.00  0.00    -0.056 A 
ATOM      3  C12 B5S d   1      30.796  15.630  14.886  0.00  0.00    -0.063 A 
ATOM      4  C13 B5S d   1      29.727  14.742  14.756  0.00  0.00     0.065 A 
ATOM      5  C23 B5S d   1      28.510  15.050  15.388  0.00  0.00     0.086 A 
ATOM      6  C32 B5S d   1      28.386  16.217  16.123  0.00  0.00    -0.024 A 
ATOM      7  H   B5S d   1      31.499  17.473  15.713  0.00  0.00     0.086 H 
ATOM      8  H   B5S d   1      31.741  15.406  14.405  0.00  0.00     0.085 H 
ATOM      9  H   B5S d   1      27.443  16.447  16.606  0.00  0.00     0.091 H 
ENDROOT
BRANCH   1  10
ATOM     10  N9  B5S d   1      29.254  18.270  17.015  0.00  0.00    -0.356 N 
ATOM     11  H   B5S d   1      28.260  18.474  17.191  0.00  0.00     0.166 HD
BRANCH  10  12
ATOM     12  C8  B5S d   1      30.129  19.225  17.592  0.00  0.00     0.037 A 
ATOM     13  C7  B5S d   1      29.635  20.499  17.866  0.00  0.00    -0.025 A 
ATOM     14  C5  B5S d   1      30.453  21.470  18.432  0.00  0.00     0.070 A 
ATOM     15  H   B5S d   1      28.602  20.735  17.635  0.00  0.00     0.091 H 
ATOM     16  C4  B5S d   1      31.777  21.178  18.730  0.00  0.00    -0.019 A 
ATOM     17  C3  B5S d   1      32.281  19.914  18.462  0.00  0.00     0.073 A 
ATOM     18  H   B5S d   1      32.415  21.936  19.171  0.00  0.00     0.092 H 
ATOM     19  C33 B5S d   1      31.460  18.946  17.896  0.00  0.00    -0.025 A 
ATOM     20  H   B5S d   1      31.860  17.960  17.688  0.00  0.00     0.091 H 
BRANCH  14  21
ATOM     21  O6  B5S d   1      29.946  22.711  18.692  0.00  0.00    -0.361 OA
ATOM     22  H   B5S d   1      30.015  22.892  19.622  0.00  0.00     0.217 HD
ENDBRANCH  14  21
BRANCH  17  23
ATOM     23  O2  B5S d   1      33.569  19.521  18.717  0.00  0.00    -0.356 OA
BRANCH  23  24
ATOM     24  C1  B5S d   1      34.416  20.429  19.413  0.00  0.00     0.010 C 
ATOM     25  H   B5S d   1      35.410  19.977  19.543  0.00  0.00     0.066 H 
ATOM     26  H   B5S d   1      33.983  20.651  20.399  0.00  0.00     0.066 H 
ATOM     27  H   B5S d   1      34.509  21.360  18.835  0.00  0.00     0.066 H 
ENDBRANCH  23  24
ENDBRANCH  17  23
ENDBRANCH  10  12
ENDBRANCH   1  10
BRANCH   5  28
ATOM     28  O24 B5S d   1      27.508  14.128  15.213  0.00  0.00    -0.350 OA
BRANCH  28  29
ATOM     29  C25 B5S d   1      26.149  14.516  15.483  0.00  0.00     0.028 C 
ATOM     30  H   B5S d   1      25.471  13.986  14.798  0.00  0.00     0.075 H 
ATOM     31  H   B5S d   1      26.040  15.601  15.341  0.00  0.00     0.075 H 
BRANCH  29  32
ATOM     32  C26 B5S d   1      25.810  14.153  16.920  0.00  0.00    -0.022 C 
ATOM     33  H   B5S d   1      26.744  13.906  17.445  0.00  0.00     0.038 H 
ATOM     34  H   B5S d   1      25.152  13.272  16.909  0.00  0.00     0.038 H 
BRANCH  32  35
ATOM     35  C27 B5S d   1      25.109  15.267  17.685  0.00  0.00     0.082 C 
ATOM     36  H   B5S d   1      25.832  16.072  17.885  0.00  0.00     0.075 H 
ATOM     37  H   B5S d   1      24.736  14.864  18.638  0.00  0.00     0.075 H 
BRANCH  35  38
ATOM     38  N28 B5S d   1      23.967  15.826  16.919  0.00  0.00    -0.079 N 
ATOM     39  H   B5S d   1      23.529  16.558  17.455  0.00  0.00     0.274 HD
ATOM     40  H   B5S d   1      23.296  15.097  16.736  0.00  0.00     0.274 HD
ATOM     41  H   B5S d   1      24.300  16.203  16.046  0.00  0.00     0.274 HD
ENDBRANCH  35  38
ENDBRANCH  32  35
ENDBRANCH  29  32
ENDBRANCH  28  29
ENDBRANCH   5  28
BRANCH   4  42
ATOM     42  C14 B5S d   1      29.936  13.494  13.941  0.00  0.00     0.259 C 
ATOM     43  O15 B5S d   1      31.020  13.262  13.402  0.00  0.00    -0.267 OA
ATOM     44  N16 B5S d   1      28.858  12.665  13.851  0.00  0.00    -0.323 N 
ATOM     45  H   B5S d   1      28.106  12.899  14.467  0.00  0.00     0.169 HD
BRANCH  44  46
ATOM     46  C17 B5S d   1      28.615  11.529  13.038  0.00  0.00     0.035 A 
ATOM     47  C18 B5S d   1      27.394  10.890  13.227  0.00  0.00    -0.057 A 
ATOM     48  C19 B5S d   1      27.067   9.777  12.482  0.00  0.00    -0.081 A 
ATOM     49  H   B5S d   1      26.696  11.269  13.964  0.00  0.00     0.086 H 
ATOM     50  C20 B5S d   1      27.946   9.290  11.547  0.00  0.00    -0.083 A 
ATOM     51  H   B5S d   1      26.113   9.285  12.635  0.00  0.00     0.083 H 
ATOM     52  C21 B5S d   1      29.160   9.912  11.348  0.00  0.00    -0.081 A 
ATOM     53  H   B5S d   1      27.685   8.414  10.964  0.00  0.00     0.083 H 
ATOM     54  C22 B5S d   1      29.500  11.029  12.089  0.00  0.00    -0.057 A 
ATOM     55  H   B5S d   1      29.851   9.524  10.608  0.00  0.00     0.083 H 
ATOM     56  H   B5S d   1      30.456  11.515  11.930  0.00  0.00     0.086 H 
ENDBRANCH  44  46
ENDBRANCH   4  42
TORSDOF 12
