REMARK  2 active torsions:
REMARK  status: ('A' for Active; 'I' for Inactive)
REMARK    1  A    between atoms: C5_5  and  C8_8 
REMARK       I    between atoms: C8_8  and  N10_10 
REMARK    2  A    between atoms: N10_10  and  C11_11 
ROOT
ATOM      1  C11 QBB d   1      28.842  10.975  13.541  0.00  0.00     0.035 A 
ATOM      2  C12 QBB d   1      29.456  10.594  12.355  0.00  0.00    -0.057 A 
ATOM      3  C13 QBB d   1      28.989   9.503  11.647  0.00  0.00    -0.074 A 
ATOM      4  C14 QBB d   1      27.894   8.776  12.108  0.00  0.00    -0.049 A 
ATOM      5  C15 QBB d   1      27.406   7.588  11.319  0.00  0.00    -0.018 C 
ATOM      6  C16 QBB d   1      26.495   6.696  12.147  0.00  0.00     0.086 C 
ATOM      7  N17 QBB d   1      25.474   7.504  12.825  0.00  0.00    -0.071 N 
ATOM      8  C20 QBB d   1      26.089   8.380  13.829  0.00  0.00     0.106 C 
ATOM      9  C21 QBB d   1      27.269   9.154  13.298  0.00  0.00    -0.024 A 
ATOM     10  C22 QBB d   1      27.750  10.255  14.004  0.00  0.00    -0.049 A 
ATOM     11  H   QBB d   1      30.306  11.155  11.983  0.00  0.00     0.086 H 
ATOM     12  H   QBB d   1      29.479   9.211  10.725  0.00  0.00     0.084 H 
ATOM     13  H   QBB d   1      28.274   7.000  10.987  0.00  0.00     0.042 H 
ATOM     14  H   QBB d   1      26.850   7.948  10.441  0.00  0.00     0.042 H 
ATOM     15  H   QBB d   1      27.095   6.162  12.899  0.00  0.00     0.076 H 
ATOM     16  H   QBB d   1      26.002   5.967  11.487  0.00  0.00     0.076 H 
ATOM     17  H   QBB d   1      24.815   6.891  13.279  0.00  0.00     0.277 HD
ATOM     18  H   QBB d   1      24.992   8.069  12.143  0.00  0.00     0.277 HD
ATOM     19  H   QBB d   1      26.428   7.761  14.673  0.00  0.00     0.083 H 
ATOM     20  H   QBB d   1      25.331   9.095  14.180  0.00  0.00     0.083 H 
ATOM     21  H   QBB d   1      27.265  10.553  14.927  0.00  0.00     0.087 H 
ENDROOT
BRANCH   1  22
ATOM     22  N10 QBB d   1      29.281  12.092  14.290  0.00  0.00    -0.323 N 
ATOM     23  C8  QBB d   1      30.325  12.925  14.052  0.00  0.00     0.256 C 
ATOM     24  O9  QBB d   1      31.199  12.682  13.220  0.00  0.00    -0.267 OA
ATOM     25  H   QBB d   1      28.747  12.296  15.110  0.00  0.00     0.169 HD
BRANCH  23  26
ATOM     26  C5  QBB d   1      30.367  14.179  14.870  0.00  0.00     0.032 A 
ATOM     27  C4  QBB d   1      31.595  14.705  15.260  0.00  0.00    -0.065 A 
ATOM     28  C3  QBB d   1      31.647  15.867  16.009  0.00  0.00    -0.045 A 
ATOM     29  H   QBB d   1      32.513  14.203  14.976  0.00  0.00     0.085 H 
ATOM     30  C2  QBB d   1      30.475  16.478  16.358  0.00  0.00     0.116 A 
ATOM     31  H   QBB d   1      32.600  16.285  16.314  0.00  0.00     0.088 H 
ATOM     32  F1  QBB d   1      30.532  17.617  17.105  0.00  0.00    -0.206 F 
ATOM     33  C7  QBB d   1      29.252  15.995  15.993  0.00  0.00    -0.045 A 
ATOM     34  C6  QBB d   1      29.195  14.835  15.240  0.00  0.00    -0.065 A 
ATOM     35  H   QBB d   1      28.344  16.509  16.287  0.00  0.00     0.088 H 
ATOM     36  H   QBB d   1      28.234  14.435  14.937  0.00  0.00     0.085 H 
ENDBRANCH  23  26
ENDBRANCH   1  22
TORSDOF 2
