REMARK  8 active torsions:
REMARK  status: ('A' for Active; 'I' for Inactive)
REMARK    1  A    between atoms: C1_1  and  O2_2 
REMARK    2  A    between atoms: O2_2  and  C3_3 
REMARK    3  A    between atoms: C5_5  and  O6_6 
REMARK    4  A    between atoms: O6_6  and  C7_7 
REMARK    5  A    between atoms: C7_7  and  C8_8 
REMARK    6  A    between atoms: C9_9  and  C10_10 
REMARK    7  A    between atoms: C22_22  and  C23_23 
REMARK    8  A    between atoms: C23_23  and  N24_24 
ROOT
ATOM      1  C3  47W d   1      35.743  21.899  22.299  0.00  0.00     0.078 A 
ATOM      2  C4  47W d   1      35.026  21.063  21.457  0.00  0.00    -0.018 A 
ATOM      3  C5  47W d   1      34.142  21.585  20.517  0.00  0.00     0.072 A 
ATOM      4  C20 47W d   1      33.977  22.957  20.421  0.00  0.00    -0.050 A 
ATOM      5  C21 47W d   1      34.687  23.803  21.257  0.00  0.00    -0.070 A 
ATOM      6  C22 47W d   1      35.578  23.292  22.208  0.00  0.00     0.001 A 
ATOM      7  H   47W d   1      35.155  19.989  21.532  0.00  0.00     0.092 H 
ATOM      8  H   47W d   1      33.291  23.369  19.690  0.00  0.00     0.087 H 
ATOM      9  H   47W d   1      34.551  24.875  21.174  0.00  0.00     0.084 H 
ENDROOT
BRANCH   3  10
ATOM     10  O6  47W d   1      33.455  20.711  19.705  0.00  0.00    -0.339 OA
BRANCH  10  11
ATOM     11  C7  47W d   1      32.606  21.204  18.625  0.00  0.00     0.081 C 
ATOM     12  H   47W d   1      33.202  21.793  17.912  0.00  0.00     0.094 H 
ATOM     13  H   47W d   1      31.798  21.830  19.032  0.00  0.00     0.094 H 
BRANCH  11  14
ATOM     14  C8  47W d   1      32.042  20.013  17.958  0.00  0.00    -0.074 C 
ATOM     15  C9  47W d   1      31.580  19.046  17.419  0.00  0.00    -0.065 C 
BRANCH  15  16
ATOM     16  C10 47W d   1      31.034  17.885  16.773  0.00  0.00     0.018 A 
ATOM     17  C11 47W d   1      29.659  17.674  16.726  0.00  0.00    -0.064 A 
ATOM     18  C12 47W d   1      29.143  16.554  16.103  0.00  0.00    -0.071 A 
ATOM     19  H   47W d   1      28.988  18.393  17.181  0.00  0.00     0.085 H 
ATOM     20  C13 47W d   1      29.995  15.612  15.508  0.00  0.00    -0.023 A 
ATOM     21  H   47W d   1      28.070  16.402  16.074  0.00  0.00     0.084 H 
ATOM     22  C14 47W d   1      29.521  14.463  14.866  0.00  0.00    -0.055 A 
ATOM     23  C18 47W d   1      31.386  15.816  15.552  0.00  0.00    -0.007 A 
ATOM     24  C15 47W d   1      30.417  13.582  14.306  0.00  0.00     0.003 A 
ATOM     25  H   47W d   1      28.456  14.268  14.810  0.00  0.00     0.087 H 
ATOM     26  N16 47W d   1      31.741  13.765  14.341  0.00  0.00    -0.272 NA
ATOM     27  H   47W d   1      30.031  12.697  13.813  0.00  0.00     0.114 H 
ATOM     28  C17 47W d   1      32.212  14.859  14.953  0.00  0.00     0.013 A 
ATOM     29  H   47W d   1      33.285  15.010  14.986  0.00  0.00     0.116 H 
ATOM     30  C19 47W d   1      31.885  16.953  16.185  0.00  0.00    -0.053 A 
ATOM     31  H   47W d   1      32.956  17.115  16.220  0.00  0.00     0.087 H 
ENDBRANCH  15  16
ENDBRANCH  11  14
ENDBRANCH  10  11
ENDBRANCH   3  10
BRANCH   1  32
ATOM     32  O2  47W d   1      36.635  21.477  23.256  0.00  0.00    -0.355 OA
BRANCH  32  33
ATOM     33  C1  47W d   1      36.812  20.069  23.447  0.00  0.00     0.010 C 
ATOM     34  H   47W d   1      37.553  19.897  24.242  0.00  0.00     0.066 H 
ATOM     35  H   47W d   1      37.166  19.614  22.511  0.00  0.00     0.066 H 
ATOM     36  H   47W d   1      35.853  19.615  23.736  0.00  0.00     0.066 H 
ENDBRANCH  32  33
ENDBRANCH   1  32
BRANCH   6  37
ATOM     37  C23 47W d   1      36.348  24.242  23.105  0.00  0.00     0.110 C 
ATOM     38  H   47W d   1      36.082  25.269  22.816  0.00  0.00     0.083 H 
ATOM     39  H   47W d   1      37.421  24.078  22.928  0.00  0.00     0.083 H 
BRANCH  37  40
ATOM     40  N24 47W d   1      36.097  24.099  24.585  0.00  0.00    -0.064 N 
ATOM     41  C26 47W d   1      34.705  24.513  24.941  0.00  0.00     0.106 C 
ATOM     42  C27 47W d   1      34.479  24.353  26.439  0.00  0.00     0.104 C 
ATOM     43  H   47W d   1      33.987  23.883  24.395  0.00  0.00     0.078 H 
ATOM     44  H   47W d   1      34.556  25.566  24.661  0.00  0.00     0.078 H 
ATOM     45  N28 47W d   1      35.446  25.194  27.191  0.00  0.00    -0.072 N 
ATOM     46  H   47W d   1      34.619  23.298  26.718  0.00  0.00     0.078 H 
ATOM     47  H   47W d   1      33.454  24.665  26.688  0.00  0.00     0.078 H 
ATOM     48  C31 47W d   1      36.852  24.828  26.864  0.00  0.00     0.104 C 
ATOM     49  H   47W d   1      35.295  25.064  28.179  0.00  0.00     0.277 HD
ATOM     50  H   47W d   1      35.295  26.162  26.952  0.00  0.00     0.277 HD
ATOM     51  C32 47W d   1      37.095  24.913  25.359  0.00  0.00     0.106 C 
ATOM     52  H   47W d   1      37.046  23.800  27.204  0.00  0.00     0.078 H 
ATOM     53  H   47W d   1      37.535  25.520  27.380  0.00  0.00     0.078 H 
ATOM     54  H   47W d   1      37.017  25.964  25.045  0.00  0.00     0.078 H 
ATOM     55  H   47W d   1      38.106  24.539  25.140  0.00  0.00     0.078 H 
ATOM     56  H   47W d   1      36.212  23.129  24.834  0.00  0.00     0.280 HD
ENDBRANCH  37  40
ENDBRANCH   6  37
TORSDOF 8
