REMARK  9 active torsions:
REMARK  status: ('A' for Active; 'I' for Inactive)
REMARK    1  A    between atoms: C1_1  and  C2_2 
REMARK    2  A    between atoms: C2_2  and  O3_3 
REMARK    3  A    between atoms: O3_3  and  C4_4 
REMARK    4  A    between atoms: C6_6  and  O7_7 
REMARK    5  A    between atoms: O7_7  and  C8_8 
REMARK    6  A    between atoms: C8_8  and  C9_9 
REMARK    7  A    between atoms: C10_10  and  C11_11 
REMARK    8  A    between atoms: C23_23  and  C24_24 
REMARK    9  A    between atoms: C24_24  and  N25_25 
ROOT
ATOM      1  C4  0V0 d   1      35.561  21.836  22.299  0.00  0.00     0.079 A 
ATOM      2  C5  0V0 d   1      34.913  20.980  21.413  0.00  0.00    -0.018 A 
ATOM      3  C6  0V0 d   1      34.054  21.475  20.423  0.00  0.00     0.072 A 
ATOM      4  C21 0V0 d   1      33.854  22.842  20.333  0.00  0.00    -0.050 A 
ATOM      5  C22 0V0 d   1      34.494  23.704  21.211  0.00  0.00    -0.070 A 
ATOM      6  C23 0V0 d   1      35.351  23.220  22.200  0.00  0.00     0.001 A 
ATOM      7  H   0V0 d   1      35.076  19.911  21.490  0.00  0.00     0.092 H 
ATOM      8  H   0V0 d   1      33.193  23.241  19.572  0.00  0.00     0.087 H 
ATOM      9  H   0V0 d   1      34.326  24.772  21.128  0.00  0.00     0.084 H 
ENDROOT
BRANCH   3  10
ATOM     10  O7  0V0 d   1      33.443  20.563  19.576  0.00  0.00    -0.339 OA
BRANCH  10  11
ATOM     11  C8  0V0 d   1      32.445  20.967  18.585  0.00  0.00     0.081 C 
ATOM     12  H   0V0 d   1      32.909  21.632  17.842  0.00  0.00     0.094 H 
ATOM     13  H   0V0 d   1      31.620  21.495  19.085  0.00  0.00     0.094 H 
BRANCH  11  14
ATOM     14  C9  0V0 d   1      31.938  19.784  17.928  0.00  0.00    -0.074 C 
ATOM     15  C10 0V0 d   1      31.514  18.811  17.389  0.00  0.00    -0.065 C 
BRANCH  15  16
ATOM     16  C11 0V0 d   1      30.986  17.603  16.719  0.00  0.00     0.018 A 
ATOM     17  C12 0V0 d   1      29.609  17.412  16.645  0.00  0.00    -0.064 A 
ATOM     18  C13 0V0 d   1      29.090  16.297  16.024  0.00  0.00    -0.071 A 
ATOM     19  H   0V0 d   1      28.940  18.146  17.079  0.00  0.00     0.085 H 
ATOM     20  C14 0V0 d   1      29.953  15.340  15.453  0.00  0.00    -0.023 A 
ATOM     21  H   0V0 d   1      28.016  16.155  15.975  0.00  0.00     0.084 H 
ATOM     22  C15 0V0 d   1      29.490  14.178  14.807  0.00  0.00    -0.055 A 
ATOM     23  C19 0V0 d   1      31.353  15.539  15.526  0.00  0.00    -0.007 A 
ATOM     24  C16 0V0 d   1      30.402  13.292  14.275  0.00  0.00     0.003 A 
ATOM     25  H   0V0 d   1      28.427  13.982  14.729  0.00  0.00     0.087 H 
ATOM     26  N17 0V0 d   1      31.726  13.473  14.338  0.00  0.00    -0.272 NA
ATOM     27  H   0V0 d   1      30.027  12.403  13.780  0.00  0.00     0.114 H 
ATOM     28  C18 0V0 d   1      32.193  14.567  14.949  0.00  0.00     0.013 A 
ATOM     29  H   0V0 d   1      33.266  14.712  15.002  0.00  0.00     0.116 H 
ATOM     30  C20 0V0 d   1      31.849  16.675  16.158  0.00  0.00    -0.053 A 
ATOM     31  H   0V0 d   1      32.920  16.836  16.212  0.00  0.00     0.087 H 
ENDBRANCH  15  16
ENDBRANCH  11  14
ENDBRANCH  10  11
ENDBRANCH   3  10
BRANCH   1  32
ATOM     32  O3  0V0 d   1      36.421  21.457  23.306  0.00  0.00    -0.351 OA
BRANCH  32  33
ATOM     33  C2  0V0 d   1      36.653  20.068  23.542  0.00  0.00     0.023 C 
ATOM     34  H   0V0 d   1      35.698  19.563  23.748  0.00  0.00     0.074 H 
ATOM     35  H   0V0 d   1      37.124  19.616  22.657  0.00  0.00     0.074 H 
BRANCH  33  36
ATOM     36  C1  0V0 d   1      37.572  19.926  24.736  0.00  0.00    -0.056 C 
ATOM     37  H   0V0 d   1      37.760  18.860  24.930  0.00  0.00     0.030 H 
ATOM     38  H   0V0 d   1      37.099  20.381  25.619  0.00  0.00     0.030 H 
ATOM     39  H   0V0 d   1      38.525  20.434  24.528  0.00  0.00     0.030 H 
ENDBRANCH  33  36
ENDBRANCH  32  33
ENDBRANCH   1  32
BRANCH   6  40
ATOM     40  C24 0V0 d   1      36.033  24.188  23.142  0.00  0.00     0.106 C 
ATOM     41  H   0V0 d   1      35.919  25.207  22.744  0.00  0.00     0.082 H 
ATOM     42  H   0V0 d   1      37.102  23.933  23.197  0.00  0.00     0.082 H 
BRANCH  40  43
ATOM     43  N25 0V0 d   1      35.461  24.145  24.513  0.00  0.00    -0.075 N 
ATOM     44  H   0V0 d   1      35.947  24.805  25.101  0.00  0.00     0.274 HD
ATOM     45  H   0V0 d   1      35.566  23.217  24.892  0.00  0.00     0.274 HD
ATOM     46  H   0V0 d   1      34.483  24.384  24.477  0.00  0.00     0.274 HD
ENDBRANCH  40  43
ENDBRANCH   6  40
TORSDOF 9
