REMARK  5 active torsions:
REMARK  status: ('A' for Active; 'I' for Inactive)
REMARK    1  A    between atoms: C11_16  and  C18_10 
REMARK    2  A    between atoms: C9_17  and  C7_11 
REMARK    3  A    between atoms: C21_12  and  C24_19 
REMARK    4  A    between atoms: C3_13  and  O2_26 
REMARK    5  A    between atoms: O2_26  and  C1_20 
ROOT
ATOM      1  C16 QZZ d   1       4.213  21.310  -8.296  0.00  0.00     0.078 C 
ATOM      2  C10 QZZ d   1       5.170  17.738  -7.633  0.00  0.00    -0.069 A 
ATOM      3  C12 QZZ d   1       4.200  19.897  -8.199  0.00  0.00     0.133 A 
ATOM      4  C11 QZZ d   1       5.300  19.145  -7.729  0.00  0.00    -0.023 A 
ATOM      5  C9  QZZ d   1       4.016  17.100  -7.990  0.00  0.00     0.055 A 
ATOM      6  C13 QZZ d   1       2.958  19.261  -8.560  0.00  0.00     0.240 A 
ATOM      7  N17 QZZ d   1       4.151  22.450  -8.313  0.00  0.00    -0.196 NA
ATOM      8  N15 QZZ d   1       2.943  17.884  -8.429  0.00  0.00    -0.348 N 
ATOM      9  O14 QZZ d   1       1.954  19.839  -8.975  0.00  0.00    -0.272 OA
ATOM     10  H9  QZZ d   1       6.010  17.151  -7.266  0.00  0.00     0.081 H 
ATOM     11  H10 QZZ d   1       4.578  19.803  -9.228  0.00  0.00     0.085 H 
ATOM     12  H11 QZZ d   1       4.385  16.928  -9.012  0.00  0.00     0.086 H 
ATOM     13  H15 QZZ d   1       2.096  17.410  -8.668  0.00  0.00     0.163 HD
ENDROOT
BRANCH   4  14
ATOM     14  C18 QZZ d   1       6.626  19.768  -7.402  0.00  0.00    -0.028 A 
ATOM     15  C19 QZZ d   1       7.801  19.177  -7.869  0.00  0.00    -0.071 A 
ATOM     16  C20 QZZ d   1       9.050  19.691  -7.567  0.00  0.00    -0.066 A 
ATOM     17  H3  QZZ d   1       7.733  18.289  -8.487  0.00  0.00     0.084 H 
ATOM     18  C21 QZZ d   1       9.175  20.819  -6.784  0.00  0.00     0.040 A 
ATOM     19  H5  QZZ d   1       9.939  19.202  -7.950  0.00  0.00     0.085 H 
ATOM     20  C22 QZZ d   1       8.013  21.433  -6.300  0.00  0.00    -0.066 A 
ATOM     21  C23 QZZ d   1       6.743  20.911  -6.605  0.00  0.00    -0.071 A 
ATOM     22  H6  QZZ d   1       8.093  22.321  -5.683  0.00  0.00     0.085 H 
ATOM     23  H4  QZZ d   1       5.853  21.396  -6.221  0.00  0.00     0.084 H 
BRANCH  18  24
ATOM     24  C24 QZZ d   1      10.544  21.337  -6.461  0.00  0.00     0.209 C 
ATOM     25  O25 QZZ d   1      10.837  22.515  -6.393  0.00  0.00    -0.644 OA
ATOM     26  O26 QZZ d   1      11.425  20.403  -6.259  0.00  0.00    -0.644 OA
ENDBRANCH  18  24
ENDBRANCH   4  14
BRANCH   5  27
ATOM     27  C7  QZZ d   1       3.775  15.662  -7.783  0.00  0.00    -0.029 A 
ATOM     28  C6  QZZ d   1       2.611  15.050  -8.224  0.00  0.00    -0.074 A 
ATOM     29  C5  QZZ d   1       2.361  13.716  -7.914  0.00  0.00    -0.080 A 
ATOM     30  H2  QZZ d   1       1.894  15.612  -8.812  0.00  0.00     0.084 H 
ATOM     31  C4  QZZ d   1       3.250  12.990  -7.152  0.00  0.00    -0.051 A 
ATOM     32  H1  QZZ d   1       1.456  13.243  -8.277  0.00  0.00     0.083 H 
ATOM     33  C3  QZZ d   1       4.410  13.593  -6.710  0.00  0.00     0.068 A 
ATOM     34  H7  QZZ d   1       3.041  11.956  -6.902  0.00  0.00     0.087 H 
ATOM     35  C8  QZZ d   1       4.670  14.920  -7.007  0.00  0.00    -0.042 A 
ATOM     36  H8  QZZ d   1       5.575  15.387  -6.635  0.00  0.00     0.088 H 
BRANCH  33  37
ATOM     37  O2  QZZ d   1       5.301  12.861  -5.944  0.00  0.00    -0.356 OA
BRANCH  37  38
ATOM     38  C1  QZZ d   1       6.296  13.516  -5.163  0.00  0.00     0.010 C 
ATOM     39  H12 QZZ d   1       6.899  12.764  -4.632  0.00  0.00     0.066 H 
ATOM     40  H13 QZZ d   1       5.811  14.180  -4.432  0.00  0.00     0.066 H 
ATOM     41  H14 QZZ d   1       6.947  14.110  -5.822  0.00  0.00     0.066 H 
ENDBRANCH  37  38
ENDBRANCH  33  37
ENDBRANCH   5  27
TORSDOF 5
