REMARK  6 active torsions:
REMARK  status: ('A' for Active; 'I' for Inactive)
REMARK    1  A    between atoms: C1_1  and  S2_2 
REMARK    2  A    between atoms: S2_2  and  O3_3 
REMARK    3  A    between atoms: S2_2  and  C4_4 
REMARK    4  A    between atoms: C6_6  and  C13_13 
REMARK    5  A    between atoms: C17_17  and  O19_19 
REMARK    6  A    between atoms: O19_19  and  C20_20 
ROOT
ATOM      1  C4  H6D d   1      23.453  36.009  -7.790  0.00  0.00     0.022 A 
ATOM      2  C5  H6D d   1      24.671  35.313  -7.600  0.00  0.00    -0.039 A 
ATOM      3  C6  H6D d   1      24.722  33.965  -7.821  0.00  0.00     0.072 A 
ATOM      4  N7  H6D d   1      23.543  33.327  -8.216  0.00  0.00    -0.212 NA
ATOM      5  C8  H6D d   1      22.316  33.953  -8.407  0.00  0.00     0.266 A 
ATOM      6  O9  H6D d   1      21.334  33.319  -8.754  0.00  0.00    -0.269 OA
ATOM      7  C10 H6D d   1      22.316  35.365  -8.170  0.00  0.00     0.141 A 
ATOM      8  C11 H6D d   1      21.073  36.029  -8.338  0.00  0.00     0.079 C 
ATOM      9  N12 H6D d   1      20.074  36.569  -8.433  0.00  0.00    -0.196 NA
ATOM     10  H5  H6D d   1      25.563  35.849  -7.279  0.00  0.00     0.088 H 
ATOM     11  H6  H6D d   1      22.570  35.558  -9.223  0.00  0.00     0.086 H 
ENDROOT
BRANCH   1  12
ATOM     12  S2  H6D d   1      23.460  37.755  -7.487  0.00  0.00    -0.064 S 
BRANCH  12  13
ATOM     13  C1  H6D d   1      22.890  37.735  -5.813  0.00  0.00    -0.017 C 
ATOM     14  H1  H6D d   1      21.837  37.416  -5.788  0.00  0.00     0.044 H 
ATOM     15  H2  H6D d   1      22.978  38.744  -5.383  0.00  0.00     0.044 H 
ATOM     16  H3  H6D d   1      23.500  37.032  -5.226  0.00  0.00     0.044 H 
ENDBRANCH  12  13
BRANCH  12  17
ATOM     17  O3  H6D d   1      24.886  38.196  -7.417  0.00  0.00    -0.337 OA
ATOM     18  H4  H6D d   1      25.381  37.581  -6.888  0.00  0.00     0.227 HD
ENDBRANCH  12  17
ENDBRANCH   1  12
BRANCH   3  19
ATOM     19  C13 H6D d   1      25.914  33.114  -7.576  0.00  0.00    -0.005 A 
ATOM     20  C14 H6D d   1      26.031  31.837  -8.137  0.00  0.00    -0.071 A 
ATOM     21  C15 H6D d   1      27.139  31.033  -7.853  0.00  0.00    -0.080 A 
ATOM     22  H7  H6D d   1      25.255  31.468  -8.798  0.00  0.00     0.084 H 
ATOM     23  C16 H6D d   1      28.130  31.472  -6.996  0.00  0.00    -0.050 A 
ATOM     24  H8  H6D d   1      27.222  30.054  -8.310  0.00  0.00     0.083 H 
ATOM     25  C17 H6D d   1      28.013  32.728  -6.442  0.00  0.00     0.079 A 
ATOM     26  H9  H6D d   1      28.981  30.842  -6.765  0.00  0.00     0.087 H 
ATOM     27  C18 H6D d   1      26.912  33.549  -6.715  0.00  0.00    -0.038 A 
ATOM     28  H10 H6D d   1      26.839  34.527  -6.253  0.00  0.00     0.089 H 
BRANCH  25  29
ATOM     29  O19 H6D d   1      28.995  33.181  -5.566  0.00  0.00    -0.255 OA
BRANCH  29  30
ATOM     30  C20 H6D d   1      29.844  34.081  -5.940  0.00  0.00     0.530 C 
ATOM     31  F21 H6D d   1      30.595  34.392  -4.894  0.00  0.00    -0.144 F 
ATOM     32  F22 H6D d   1      29.304  35.169  -6.430  0.00  0.00    -0.144 F 
ATOM     33  F23 H6D d   1      30.623  33.705  -6.923  0.00  0.00    -0.144 F 
ENDBRANCH  29  30
ENDBRANCH  25  29
ENDBRANCH   3  19
TORSDOF 6
