REMARK  3 active torsions:
REMARK  status: ('A' for Active; 'I' for Inactive)
REMARK    1  A    between atoms: C3_11  and  C27_12 
REMARK    2  A    between atoms: C9_18  and  C16_13 
REMARK    3  A    between atoms: C19_15  and  C22_22 
ROOT
ATOM      1  C14 QZE d   1      53.887  35.904   8.030  0.00  0.00     0.106 C 
ATOM      2  C1  QZE d   1      48.067  30.789   7.669  0.00  0.00    -0.081 A 
ATOM      3  C2  QZE d   1      47.037  31.247   6.889  0.00  0.00    -0.071 A 
ATOM      4  C6  QZE d   1      49.168  31.586   7.881  0.00  0.00    -0.070 A 
ATOM      5  C3  QZE d   1      47.117  32.493   6.323  0.00  0.00    -0.012 A 
ATOM      6  C5  QZE d   1      49.249  32.838   7.324  0.00  0.00     0.003 A 
ATOM      7  C4  QZE d   1      48.216  33.301   6.536  0.00  0.00    -0.012 A 
ATOM      8  C10 QZE d   1      52.643  35.245   7.852  0.00  0.00     0.124 A 
ATOM      9  C9  QZE d   1      51.498  35.807   7.415  0.00  0.00     0.013 A 
ATOM     10  C7  QZE d   1      50.402  33.684   7.532  0.00  0.00     0.057 A 
ATOM     11  C8  QZE d   1      50.340  34.990   7.253  0.00  0.00     0.004 A 
ATOM     12  C11 QZE d   1      52.696  33.800   8.161  0.00  0.00     0.267 A 
ATOM     13  C26 QZE d   1      48.317  34.654   5.911  0.00  0.00    -0.070 C 
ATOM     14  C25 QZE d   1      49.088  35.625   6.762  0.00  0.00    -0.069 C 
ATOM     15  N15 QZE d   1      54.866  36.517   8.129  0.00  0.00    -0.191 NA
ATOM     16  N13 QZE d   1      51.552  33.115   7.986  0.00  0.00    -0.321 N 
ATOM     17  O12 QZE d   1      53.721  33.269   8.567  0.00  0.00    -0.266 OA
ATOM     18  H1  QZE d   1      48.014  29.803   8.117  0.00  0.00     0.083 H 
ATOM     19  H2  QZE d   1      46.164  30.627   6.721  0.00  0.00     0.084 H 
ATOM     20  H3  QZE d   1      49.982  31.221   8.496  0.00  0.00     0.084 H 
ATOM     21  H10 QZE d   1      47.883  34.908   4.951  0.00  0.00     0.084 H 
ATOM     22  H11 QZE d   1      48.777  36.639   6.985  0.00  0.00     0.085 H 
ATOM     23  H13 QZE d   1      51.546  32.138   8.200  0.00  0.00     0.169 HD
ENDROOT
BRANCH   9  24
ATOM     24  C16 QZE d   1      51.489  37.238   7.127  0.00  0.00    -0.023 A 
ATOM     25  C17 QZE d   1      52.347  37.802   6.212  0.00  0.00    -0.071 A 
ATOM     26  C18 QZE d   1      52.330  39.161   5.943  0.00  0.00    -0.066 A 
ATOM     27  H4  QZE d   1      53.054  37.168   5.689  0.00  0.00     0.084 H 
ATOM     28  C19 QZE d   1      51.446  39.978   6.602  0.00  0.00     0.040 A 
ATOM     29  H6  QZE d   1      53.014  39.578   5.213  0.00  0.00     0.085 H 
ATOM     30  C20 QZE d   1      50.569  39.431   7.517  0.00  0.00    -0.066 A 
ATOM     31  C21 QZE d   1      50.595  38.069   7.779  0.00  0.00    -0.071 A 
ATOM     32  H7  QZE d   1      49.858  40.067   8.032  0.00  0.00     0.085 H 
ATOM     33  H5  QZE d   1      49.906  37.650   8.504  0.00  0.00     0.084 H 
BRANCH  28  34
ATOM     34  C22 QZE d   1      51.454  41.428   6.277  0.00  0.00     0.209 C 
ATOM     35  O23 QZE d   1      51.946  41.899   5.254  0.00  0.00    -0.644 OA
ATOM     36  O24 QZE d   1      50.861  42.145   7.266  0.00  0.00    -0.644 OA
ENDBRANCH  28  34
ENDBRANCH   9  24
BRANCH   5  37
ATOM     37  C27 QZE d   1      45.979  32.901   5.520  0.00  0.00     0.011 A 
ATOM     38  C31 QZE d   1      45.236  33.993   5.781  0.00  0.00     0.008 A 
ATOM     39  N30 QZE d   1      44.244  34.229   5.026  0.00  0.00    -0.289 N 
ATOM     40  H8  QZE d   1      45.479  34.652   6.613  0.00  0.00     0.115 H 
ATOM     41  N29 QZE d   1      44.240  33.174   4.106  0.00  0.00    -0.187 NA
ATOM     42  H12 QZE d   1      43.587  35.021   5.078  0.00  0.00     0.188 HD
ATOM     43  C28 QZE d   1      45.416  32.201   4.357  0.00  0.00     0.034 A 
ATOM     44  H9  QZE d   1      45.726  31.294   3.841  0.00  0.00     0.118 H 
ENDBRANCH   5  37
TORSDOF 3
