REMARK  7 active torsions:
REMARK  status: ('A' for Active; 'I' for Inactive)
REMARK    1  A    between atoms: C17_7  and  C10_14 
REMARK    2  A    between atoms: N23_23  and  C20_10 
REMARK    3  A    between atoms: C3_11  and  C2_19 
REMARK    4  A    between atoms: C7_12  and  C9_16 
REMARK    5  A    between atoms: C2_19  and  C1_17 
REMARK    6  A    between atoms: S24_27  and  C27_18 
REMARK    7  A    between atoms: N23_23  and  S24_27 
ROOT
ATOM      1  C15 QZ3 d   1       4.111  20.867  -8.007  0.00  0.00     0.106 C 
ATOM      2  C4  QZ3 d   1       3.280  15.425  -7.808  0.00  0.00    -0.032 A 
ATOM      3  C6  QZ3 d   1       4.771  17.250  -7.375  0.00  0.00     0.028 A 
ATOM      4  C5  QZ3 d   1       3.562  16.764  -7.820  0.00  0.00     0.050 A 
ATOM      5  C3  QZ3 d   1       4.229  14.567  -7.335  0.00  0.00     0.036 A 
ATOM      6  C7  QZ3 d   1       5.673  16.308  -6.906  0.00  0.00     0.044 A 
ATOM      7  C11 QZ3 d   1       4.010  19.472  -7.897  0.00  0.00     0.124 A 
ATOM      8  C10 QZ3 d   1       5.006  18.688  -7.427  0.00  0.00     0.015 A 
ATOM      9  C12 QZ3 d   1       2.714  18.949  -8.356  0.00  0.00     0.267 A 
ATOM     10  N16 QZ3 d   1       4.201  22.016  -8.104  0.00  0.00    -0.191 NA
ATOM     11  N8  QZ3 d   1       5.409  14.992  -6.885  0.00  0.00    -0.257 NA
ATOM     12  N14 QZ3 d   1       2.564  17.594  -8.296  0.00  0.00    -0.321 N 
ATOM     13  O13 QZ3 d   1       1.863  19.725  -8.782  0.00  0.00    -0.266 OA
ATOM     14  H5  QZ3 d   1       2.326  15.055  -8.166  0.00  0.00     0.090 H 
ATOM     15  H17 QZ3 d   1       1.704  17.188  -8.606  0.00  0.00     0.169 HD
ENDROOT
BRANCH   8  16
ATOM     16  C17 QZ3 d   1       6.263  19.378  -7.075  0.00  0.00    -0.023 A 
ATOM     17  C18 QZ3 d   1       7.375  19.132  -7.840  0.00  0.00    -0.070 A 
ATOM     18  C19 QZ3 d   1       8.569  19.772  -7.572  0.00  0.00    -0.056 A 
ATOM     19  H1  QZ3 d   1       7.316  18.429  -8.663  0.00  0.00     0.084 H 
ATOM     20  C20 QZ3 d   1       8.680  20.680  -6.541  0.00  0.00     0.042 A 
ATOM     21  H3  QZ3 d   1       9.437  19.556  -8.185  0.00  0.00     0.087 H 
ATOM     22  C21 QZ3 d   1       7.573  20.930  -5.774  0.00  0.00    -0.056 A 
ATOM     23  C22 QZ3 d   1       6.385  20.282  -6.044  0.00  0.00    -0.070 A 
ATOM     24  H4  QZ3 d   1       7.630  21.637  -4.955  0.00  0.00     0.087 H 
ATOM     25  H2  QZ3 d   1       5.520  20.491  -5.425  0.00  0.00     0.084 H 
BRANCH  20  26
ATOM     26  N23 QZ3 d   1       9.976  21.292  -6.384  0.00  0.00    -0.285 N 
ATOM     27  H18 QZ3 d   1      10.663  21.077  -7.078  0.00  0.00     0.178 HD
BRANCH  26  28
ATOM     28  S24 QZ3 d   1      10.462  22.366  -5.108  0.00  0.00     0.227 S 
ATOM     29  O25 QZ3 d   1      11.735  22.953  -5.500  0.00  0.00    -0.206 OA
ATOM     30  O26 QZ3 d   1      10.371  21.642  -3.839  0.00  0.00    -0.206 OA
BRANCH  28  31
ATOM     31  C27 QZ3 d   1       9.283  23.692  -5.125  0.00  0.00     0.033 C 
ATOM     32  H12 QZ3 d   1       9.533  24.415  -4.335  0.00  0.00     0.051 H 
ATOM     33  H13 QZ3 d   1       8.275  23.289  -4.947  0.00  0.00     0.051 H 
ATOM     34  H14 QZ3 d   1       9.310  24.194  -6.103  0.00  0.00     0.051 H 
ENDBRANCH  28  31
ENDBRANCH  26  28
ENDBRANCH  20  26
ENDBRANCH   8  16
BRANCH   6  35
ATOM     35  C9  QZ3 d   1       7.036  16.660  -6.376  0.00  0.00    -0.035 C 
ATOM     36  H6  QZ3 d   1       7.558  15.742  -6.067  0.00  0.00     0.035 H 
ATOM     37  H7  QZ3 d   1       6.931  17.331  -5.511  0.00  0.00     0.035 H 
ATOM     38  H8  QZ3 d   1       7.616  17.165  -7.163  0.00  0.00     0.035 H 
ENDBRANCH   6  35
BRANCH   5  39
ATOM     39  C2  QZ3 d   1       3.914  13.094  -7.329  0.00  0.00    -0.028 C 
ATOM     40  H15 QZ3 d   1       4.588  12.577  -8.028  0.00  0.00     0.041 H 
ATOM     41  H16 QZ3 d   1       2.872  12.946  -7.647  0.00  0.00     0.041 H 
BRANCH  39  42
ATOM     42  C1  QZ3 d   1       4.097  12.520  -5.950  0.00  0.00    -0.071 C 
ATOM     43  H9  QZ3 d   1       3.863  11.445  -5.966  0.00  0.00     0.028 H 
ATOM     44  H10 QZ3 d   1       3.423  13.032  -5.247  0.00  0.00     0.028 H 
ATOM     45  H11 QZ3 d   1       5.139  12.663  -5.628  0.00  0.00     0.028 H 
ENDBRANCH  39  42
ENDBRANCH   5  39
TORSDOF 7
