REMARK  7 active torsions:
REMARK  status: ('A' for Active; 'I' for Inactive)
REMARK    1  A    between atoms: C1_1  and  C20_20 
REMARK    2  A    between atoms: C6_6  and  N10_10 
REMARK    3  A    between atoms: C16_16  and  C18_18 
REMARK    4  A    between atoms: C18_18  and  C19_19 
REMARK    5  A    between atoms: C18_18  and  N21_21 
REMARK    6  A    between atoms: N21_21  and  C22_22 
REMARK    7  A    between atoms: C24_24  and  C28_28 
ROOT
ATOM      1  C1  A82 d   1      41.533  16.321  33.558  0.00  0.00    -0.045 A 
ATOM      2  C2  A82 d   1      41.228  15.261  32.810  0.00  0.00    -0.004 A 
ATOM      3  N3  A82 d   1      42.182  14.635  32.050  0.00  0.00    -0.272 N 
ATOM      4  C4  A82 d   1      43.504  15.083  32.051  0.00  0.00     0.147 A 
ATOM      5  N5  A82 d   1      44.422  14.499  31.356  0.00  0.00    -0.212 NA
ATOM      6  C6  A82 d   1      44.130  13.411  30.585  0.00  0.00     0.133 A 
ATOM      7  C7  A82 d   1      42.889  12.909  30.512  0.00  0.00     0.027 A 
ATOM      8  C8  A82 d   1      41.806  13.536  31.291  0.00  0.00     0.256 A 
ATOM      9  O9  A82 d   1      40.687  13.044  31.211  0.00  0.00    -0.268 OA
ATOM     10  C16 A82 d   1      43.869  16.276  32.882  0.00  0.00     0.011 A 
ATOM     11  C17 A82 d   1      42.873  16.826  33.590  0.00  0.00    -0.064 A 
ATOM     12  H   A82 d   1      40.206  14.886  32.802  0.00  0.00     0.113 H 
ATOM     13  H   A82 d   1      42.683  12.045  29.882  0.00  0.00     0.098 H 
ATOM     14  H   A82 d   1      43.091  17.691  34.214  0.00  0.00     0.085 H 
ENDROOT
BRANCH  10  15
ATOM     15  C18 A82 d   1      45.298  16.756  32.905  0.00  0.00     0.035 C 
ATOM     16  H   A82 d   1      45.958  15.885  33.035  0.00  0.00     0.079 H 
BRANCH  15  17
ATOM     17  C19 A82 d   1      45.656  17.477  31.632  0.00  0.00    -0.053 C 
ATOM     18  H   A82 d   1      46.702  17.813  31.683  0.00  0.00     0.030 H 
ATOM     19  H   A82 d   1      44.997  18.349  31.507  0.00  0.00     0.030 H 
ATOM     20  H   A82 d   1      45.530  16.796  30.777  0.00  0.00     0.030 H 
ENDBRANCH  15  17
BRANCH  15  21
ATOM     21  N21 A82 d   1      45.526  17.705  33.981  0.00  0.00    -0.381 N 
ATOM     22  H   A82 d   1      45.221  18.687  33.922  0.00  0.00     0.160 HD
BRANCH  21  23
ATOM     23  C22 A82 d   1      46.194  17.189  35.114  0.00  0.00     0.045 A 
ATOM     24  C24 A82 d   1      47.186  17.928  35.748  0.00  0.00     0.067 A 
ATOM     25  C23 A82 d   1      47.834  17.451  36.869  0.00  0.00    -0.064 A 
ATOM     26  C25 A82 d   1      47.480  16.225  37.389  0.00  0.00    -0.082 A 
ATOM     27  H   A82 d   1      48.617  18.037  37.337  0.00  0.00     0.085 H 
ATOM     28  C27 A82 d   1      46.488  15.479  36.791  0.00  0.00    -0.081 A 
ATOM     29  H   A82 d   1      47.983  15.846  38.271  0.00  0.00     0.083 H 
ATOM     30  C26 A82 d   1      45.850  15.967  35.671  0.00  0.00    -0.056 A 
ATOM     31  H   A82 d   1      46.211  14.514  37.199  0.00  0.00     0.083 H 
ATOM     32  H   A82 d   1      45.060  15.381  35.215  0.00  0.00     0.086 H 
BRANCH  24  33
ATOM     33  C28 A82 d   1      47.627  19.243  35.241  0.00  0.00     0.211 C 
ATOM     34  O29 A82 d   1      46.543  20.060  35.151  0.00  0.00    -0.644 OA
ATOM     35  O30 A82 d   1      48.790  19.518  34.969  0.00  0.00    -0.644 OA
ENDBRANCH  24  33
ENDBRANCH  21  23
ENDBRANCH  15  21
ENDBRANCH  10  15
BRANCH   1  36
ATOM     36  C20 A82 d   1      40.522  17.020  34.386  0.00  0.00    -0.050 C 
ATOM     37  H   A82 d   1      39.545  16.528  34.265  0.00  0.00     0.033 H 
ATOM     38  H   A82 d   1      40.447  18.069  34.064  0.00  0.00     0.033 H 
ATOM     39  H   A82 d   1      40.824  16.981  35.443  0.00  0.00     0.033 H 
ENDBRANCH   1  36
BRANCH   6  40
ATOM     40  N10 A82 d   1      45.157  12.840  29.869  0.00  0.00    -0.362 N 
ATOM     41  C11 A82 d   1      44.876  12.165  28.611  0.00  0.00     0.016 C 
ATOM     42  C12 A82 d   1      46.075  11.338  28.223  0.00  0.00     0.034 C 
ATOM     43  H   A82 d   1      44.673  12.911  27.829  0.00  0.00     0.067 H 
ATOM     44  H   A82 d   1      43.999  11.511  28.730  0.00  0.00     0.067 H 
ATOM     45  O13 A82 d   1      47.230  12.169  28.176  0.00  0.00    -0.388 OA
ATOM     46  H   A82 d   1      45.906  10.889  27.233  0.00  0.00     0.076 H 
ATOM     47  H   A82 d   1      46.227  10.541  28.966  0.00  0.00     0.076 H 
ATOM     48  C14 A82 d   1      47.548  12.616  29.487  0.00  0.00     0.034 C 
ATOM     49  C15 A82 d   1      46.440  13.535  29.924  0.00  0.00     0.016 C 
ATOM     50  H   A82 d   1      48.505  13.157  29.479  0.00  0.00     0.076 H 
ATOM     51  H   A82 d   1      47.618  11.758  30.171  0.00  0.00     0.076 H 
ATOM     52  H   A82 d   1      46.629  13.867  30.955  0.00  0.00     0.067 H 
ATOM     53  H   A82 d   1      46.409  14.409  29.257  0.00  0.00     0.067 H 
ENDBRANCH   6  40
TORSDOF 7
