REMARK  25 active torsions:
REMARK  status: ('A' for Active; 'I' for Inactive)
REMARK    1  A    between atoms: C4_1  and  O4_57 
REMARK    2  A    between atoms: C5_2  and  C6_3 
REMARK    3  A    between atoms: C3_4  and  O3_61 
REMARK    4  A    between atoms: CAU_9  and  CAY_10 
REMARK    5  A    between atoms: CAP_13  and  CAR_12 
REMARK       I    between atoms: NAO_15  and  CAP_13 
REMARK    6  A    between atoms: CAM_16  and  NAO_15 
REMARK    7  A    between atoms: CAM_16  and  CAN_17 
REMARK    8  A    between atoms: CCE_18  and  CAM_16 
REMARK    9  A    between atoms: CCE_18  and  OCK_20 
REMARK   10  A    between atoms: CCD_21  and  OCJ_22 
REMARK   11  A    between atoms: CCC_23  and  CCI_24 
REMARK   12  A    between atoms: OAL_27  and  CCG_26 
REMARK   13  A    between atoms: CAC_28  and  OAL_27 
REMARK   14  A    between atoms: CAI_37  and  CBC_38 
REMARK   15  A    between atoms: CAZ_40  and  CAJ_39 
REMARK   16  A    between atoms: CAZ_40  and  OBB_41 
REMARK   17  A    between atoms: CBF_47  and  CBJ_48 
REMARK   18  A    between atoms: CBJ_48  and  CBL_49 
REMARK   19  A    between atoms: CBJ_48  and  CBK_50 
REMARK   20  A    between atoms: C1_52  and  NBE_51 
REMARK   21  A    between atoms: C2_53  and  O2_54 
REMARK   22  A    between atoms: O2_54  and  CCL_55 
REMARK   23  A    between atoms: O4_57  and  CBZ_58 
REMARK       I    between atoms: CBZ_58  and  NCA_60 
REMARK   24  A    between atoms: O3_61  and  CBW_62 
REMARK   25  A    between atoms: CBW_62  and  CBX_64 
ROOT
ATOM      1  CAC XAM d   1      18.441 -16.202  -7.100  0.00  0.00     0.049 C 
ATOM      2  CAB XAM d   1      17.067 -16.442  -6.489  0.00  0.00    -0.037 C 
ATOM      3  CAA XAM d   1      16.931 -17.867  -5.949  0.00  0.00    -0.043 C 
ATOM      4  CAF XAM d   1      18.059 -18.186  -5.009  0.00  0.00    -0.084 C 
ATOM      5  CAK XAM d   1      17.865 -18.431  -3.724  0.00  0.00    -0.119 C 
ATOM      6  CAE XAM d   1      19.409 -18.107  -5.722  0.00  0.00    -0.014 C 
ATOM      7  CAD XAM d   1      19.629 -16.637  -6.188  0.00  0.00    -0.005 C 
ATOM      8  CAG XAM d   1      21.003 -16.430  -6.788  0.00  0.00    -0.099 C 
ATOM      9  CAH XAM d   1      22.032 -17.267  -6.668  0.00  0.00    -0.102 C 
ATOM     10  CAI XAM d   1      21.975 -18.583  -5.941  0.00  0.00    -0.032 C 
ATOM     11  CAJ XAM d   1      20.706 -18.618  -5.048  0.00  0.00     0.007 C 
ATOM     12  H   XAM d   1      18.510 -16.735  -8.060  0.00  0.00     0.084 H 
ATOM     13  H   XAM d   1      16.300 -16.278  -7.260  0.00  0.00     0.037 H 
ATOM     14  H   XAM d   1      16.915 -15.732  -5.663  0.00  0.00     0.037 H 
ATOM     15  H   XAM d   1      16.950 -18.576  -6.790  0.00  0.00     0.039 H 
ATOM     16  H   XAM d   1      15.976 -17.960  -5.412  0.00  0.00     0.039 H 
ATOM     17  H   XAM d   1      18.712 -18.658  -3.079  0.00  0.00     0.067 H 
ATOM     18  H   XAM d   1      16.858 -18.406  -3.311  0.00  0.00     0.067 H 
ATOM     19  H   XAM d   1      19.294 -18.727  -6.623  0.00  0.00     0.049 H 
ATOM     20  H   XAM d   1      19.588 -16.001  -5.291  0.00  0.00     0.051 H 
ATOM     21  H   XAM d   1      21.164 -15.521  -7.366  0.00  0.00     0.077 H 
ATOM     22  H   XAM d   1      22.977 -16.980  -7.126  0.00  0.00     0.077 H 
ATOM     23  H   XAM d   1      22.845 -18.644  -5.271  0.00  0.00     0.046 H 
ATOM     24  H   XAM d   1      20.903 -17.910  -4.229  0.00  0.00     0.052 H 
ENDROOT
BRANCH  11  25
ATOM     25  CAZ XAM d   1      20.528 -20.007  -4.378  0.00  0.00     0.068 C 
ATOM     26  CBA XAM d   1      21.109 -20.365  -3.180  0.00  0.00     0.109 A 
ATOM     27  CBD XAM d   1      21.943 -19.510  -2.325  0.00  0.00     0.262 A 
ATOM     28  CBG XAM d   1      20.972 -21.666  -2.536  0.00  0.00     0.190 A 
ATOM     29  OBH XAM d   1      22.283 -18.338  -2.484  0.00  0.00    -0.267 OA
ATOM     30  NBE XAM d   1      22.314 -20.287  -1.180  0.00  0.00    -0.306 N 
ATOM     31  CBF XAM d   1      21.699 -21.614  -1.176  0.00  0.00     0.083 A 
ATOM     32  H   XAM d   1      22.487 -22.381  -1.163  0.00  0.00     0.086 H 
ATOM     33  OBI XAM d   1      20.445 -22.677  -2.965  0.00  0.00    -0.290 OA
BRANCH  25  34
ATOM     34  OBB XAM d   1      19.730 -20.927  -4.956  0.00  0.00    -0.363 OA
ATOM     35  H   XAM d   1      19.726 -21.717  -4.429  0.00  0.00     0.217 HD
ENDBRANCH  25  34
BRANCH  30  36
ATOM     36  C1  XAM d   1      23.290 -19.882  -0.097  0.00  0.00     0.137 C 
ATOM     37  C2  XAM d   1      24.549 -19.139  -0.521  0.00  0.00     0.108 C 
ATOM     38  C3  XAM d   1      25.334 -18.720   0.715  0.00  0.00     0.105 C 
ATOM     39  H   XAM d   1      24.292 -18.250  -1.115  0.00  0.00     0.094 H 
ATOM     40  C4  XAM d   1      24.524 -17.932   1.746  0.00  0.00     0.102 C 
ATOM     41  H   XAM d   1      26.130 -18.046   0.366  0.00  0.00     0.092 H 
ATOM     42  C5  XAM d   1      23.152 -18.553   2.023  0.00  0.00     0.066 C 
ATOM     43  H   XAM d   1      24.369 -16.914   1.359  0.00  0.00     0.092 H 
ATOM     44  O5  XAM d   1      22.546 -19.092   0.829  0.00  0.00    -0.356 OA
ATOM     45  H   XAM d   1      22.508 -17.739   2.386  0.00  0.00     0.086 H 
ATOM     46  H   XAM d   1      23.622 -20.802   0.406  0.00  0.00     0.122 H 
BRANCH  37  47
ATOM     47  O2  XAM d   1      25.303 -20.060  -1.306  0.00  0.00    -0.384 OA
BRANCH  47  48
ATOM     48  CCL XAM d   1      26.089 -19.471  -2.342  0.00  0.00     0.005 C 
ATOM     49  H   XAM d   1      26.629 -20.260  -2.886  0.00  0.00     0.066 H 
ATOM     50  H   XAM d   1      26.812 -18.770  -1.900  0.00  0.00     0.066 H 
ATOM     51  H   XAM d   1      25.432 -18.930  -3.038  0.00  0.00     0.066 H 
ENDBRANCH  47  48
ENDBRANCH  37  47
BRANCH  38  52
ATOM     52  O3  XAM d   1      25.978 -19.865   1.318  0.00  0.00    -0.311 OA
BRANCH  52  53
ATOM     53  CBW XAM d   1      27.319 -19.997   1.162  0.00  0.00     0.255 C 
ATOM     54  OBY XAM d   1      27.995 -19.223   0.536  0.00  0.00    -0.266 OA
BRANCH  53  55
ATOM     55  CBX XAM d   1      27.815 -21.217   1.858  0.00  0.00     0.004 C 
ATOM     56  H   XAM d   1      28.903 -21.302   1.718  0.00  0.00     0.041 H 
ATOM     57  H   XAM d   1      27.320 -22.105   1.438  0.00  0.00     0.041 H 
ATOM     58  H   XAM d   1      27.589 -21.144   2.932  0.00  0.00     0.041 H 
ENDBRANCH  53  55
ENDBRANCH  52  53
ENDBRANCH  38  52
BRANCH  40  59
ATOM     59  O4  XAM d   1      25.278 -17.857   2.977  0.00  0.00    -0.293 OA
BRANCH  59  60
ATOM     60  CBZ XAM d   1      26.167 -16.830   3.301  0.00  0.00     0.358 C 
ATOM     61  OCB XAM d   1      26.488 -16.653   4.457  0.00  0.00    -0.239 OA
ATOM     62  NCA XAM d   1      26.592 -16.117   2.259  0.00  0.00    -0.346 N 
ATOM     63  H   XAM d   1      27.232 -15.361   2.398  0.00  0.00     0.161 HD
ATOM     64  H   XAM d   1      26.272 -16.338   1.338  0.00  0.00     0.161 HD
ENDBRANCH  59  60
ENDBRANCH  40  59
BRANCH  42  65
ATOM     65  C6  XAM d   1      23.158 -19.630   3.087  0.00  0.00    -0.050 C 
ATOM     66  H   XAM d   1      22.138 -20.019   3.221  0.00  0.00     0.031 H 
ATOM     67  H   XAM d   1      23.516 -19.206   4.037  0.00  0.00     0.031 H 
ATOM     68  H   XAM d   1      23.824 -20.448   2.777  0.00  0.00     0.031 H 
ENDBRANCH  42  65
ENDBRANCH  30  36
BRANCH  31  69
ATOM     69  CBJ XAM d   1      20.801 -21.866   0.060  0.00  0.00    -0.034 C 
ATOM     70  H   XAM d   1      21.196 -21.244   0.877  0.00  0.00     0.042 H 
BRANCH  69  71
ATOM     71  CBL XAM d   1      19.349 -21.440  -0.166  0.00  0.00    -0.071 C 
ATOM     72  H   XAM d   1      18.762 -21.642   0.742  0.00  0.00     0.028 H 
ATOM     73  H   XAM d   1      18.927 -22.007  -1.009  0.00  0.00     0.028 H 
ATOM     74  H   XAM d   1      19.314 -20.364  -0.394  0.00  0.00     0.028 H 
ENDBRANCH  69  71
BRANCH  69  75
ATOM     75  CBK XAM d   1      20.883 -23.313   0.513  0.00  0.00    -0.071 C 
ATOM     76  H   XAM d   1      21.936 -23.590   0.667  0.00  0.00     0.028 H 
ATOM     77  H   XAM d   1      20.442 -23.964  -0.256  0.00  0.00     0.028 H 
ATOM     78  H   XAM d   1      20.331 -23.434   1.456  0.00  0.00     0.028 H 
ENDBRANCH  69  75
ENDBRANCH  31  69
ENDBRANCH  11  25
BRANCH  10  79
ATOM     79  CBC XAM d   1      22.098 -19.737  -6.942  0.00  0.00    -0.069 C 
ATOM     80  H   XAM d   1      23.025 -19.621  -7.523  0.00  0.00     0.028 H 
ATOM     81  H   XAM d   1      21.234 -19.725  -7.623  0.00  0.00     0.028 H 
ATOM     82  H   XAM d   1      22.123 -20.693  -6.398  0.00  0.00     0.028 H 
ENDBRANCH  10  79
BRANCH   1  83
ATOM     83  OAL XAM d   1      18.555 -14.771  -7.300  0.00  0.00    -0.355 OA
BRANCH  83  84
ATOM     84  CCG XAM d   1      17.886 -14.222  -8.420  0.00  0.00     0.135 C 
ATOM     85  CCF XAM d   1      17.818 -12.715  -8.278  0.00  0.00     0.014 C 
ATOM     86  CCE XAM d   1      17.193 -11.990  -9.494  0.00  0.00     0.110 C 
ATOM     87  H   XAM d   1      17.215 -12.479  -7.389  0.00  0.00     0.044 H 
ATOM     88  H   XAM d   1      18.841 -12.335  -8.139  0.00  0.00     0.044 H 
ATOM     89  CCD XAM d   1      17.821 -12.633 -10.838  0.00  0.00     0.092 C 
ATOM     90  CCC XAM d   1      17.915 -14.154 -10.849  0.00  0.00     0.066 C 
ATOM     91  H   XAM d   1      18.834 -12.230 -10.983  0.00  0.00     0.091 H 
ATOM     92  OCH XAM d   1      18.519 -14.625  -9.627  0.00  0.00    -0.354 OA
ATOM     93  H   XAM d   1      16.902 -14.570 -10.957  0.00  0.00     0.086 H 
ATOM     94  H   XAM d   1      16.857 -14.610  -8.434  0.00  0.00     0.129 H 
BRANCH  86  95
ATOM     95  CAM XAM d   1      17.364 -10.383  -9.485  0.00  0.00     0.041 C 
ATOM     96  H   XAM d   1      17.061 -10.032 -10.482  0.00  0.00     0.076 H 
BRANCH  95  97
ATOM     97  NAO XAM d   1      16.433  -9.769  -8.489  0.00  0.00    -0.348 N 
ATOM     98  CAP XAM d   1      15.704  -8.655  -8.666  0.00  0.00     0.270 C 
ATOM     99  OAQ XAM d   1      15.430  -8.179  -9.761  0.00  0.00    -0.266 OA
ATOM    100  H   XAM d   1      16.345 -10.232  -7.607  0.00  0.00     0.163 HD
BRANCH  98 101
ATOM    101  CAR XAM d   1      15.221  -8.011  -7.427  0.00  0.00     0.124 A 
ATOM    102  CAS XAM d   1      15.365  -8.409  -6.103  0.00  0.00     0.089 A 
ATOM    103 CLW  XAM d   1      16.138  -9.825  -5.499  0.00  0.00    -0.080 Cl
ATOM    104  CAT XAM d   1      14.740  -7.412  -5.262  0.00  0.00     0.080 A 
ATOM    105 CLX  XAM d   1      14.708  -7.496  -3.539  0.00  0.00    -0.080 Cl
ATOM    106  CAU XAM d   1      14.236  -6.448  -6.135  0.00  0.00     0.029 A 
ATOM    107  NAV XAM d   1      14.516  -6.832  -7.427  0.00  0.00    -0.353 N 
ATOM    108  H   XAM d   1      14.237  -6.311  -8.271  0.00  0.00     0.166 HD
BRANCH 106 109
ATOM    109  CAY XAM d   1      13.553  -5.150  -5.838  0.00  0.00    -0.036 C 
ATOM    110  H   XAM d   1      13.292  -4.649  -6.782  0.00  0.00     0.035 H 
ATOM    111  H   XAM d   1      14.227  -4.506  -5.255  0.00  0.00     0.035 H 
ATOM    112  H   XAM d   1      12.637  -5.341  -5.259  0.00  0.00     0.035 H 
ENDBRANCH 106 109
ENDBRANCH  98 101
ENDBRANCH  95  97
BRANCH  95 113
ATOM    113  CAN XAM d   1      18.825  -9.860  -9.255  0.00  0.00    -0.054 C 
ATOM    114  H   XAM d   1      19.499 -10.319  -9.993  0.00  0.00     0.030 H 
ATOM    115  H   XAM d   1      19.155 -10.128  -8.241  0.00  0.00     0.030 H 
ATOM    116  H   XAM d   1      18.845  -8.766  -9.370  0.00  0.00     0.030 H 
ENDBRANCH  95 113
ENDBRANCH  86  95
BRANCH  86 117
ATOM    117  OCK XAM d   1      15.780 -12.203  -9.386  0.00  0.00    -0.385 OA
ATOM    118  H   XAM d   1      15.340 -11.777 -10.112  0.00  0.00     0.210 HD
ENDBRANCH  86 117
BRANCH  89 119
ATOM    119  OCJ XAM d   1      16.971 -12.200 -11.894  0.00  0.00    -0.390 OA
ATOM    120  H   XAM d   1      16.088 -12.513 -11.737  0.00  0.00     0.210 HD
ENDBRANCH  89 119
BRANCH  90 121
ATOM    121  CCI XAM d   1      18.798 -14.671 -11.959  0.00  0.00    -0.050 C 
ATOM    122  H   XAM d   1      18.830 -15.770 -11.920  0.00  0.00     0.031 H 
ATOM    123  H   XAM d   1      19.815 -14.270 -11.836  0.00  0.00     0.031 H 
ATOM    124  H   XAM d   1      18.392 -14.350 -12.930  0.00  0.00     0.031 H 
ENDBRANCH  90 121
ENDBRANCH  83  84
ENDBRANCH   1  83
TORSDOF 25
