REMARK  25 active torsions:
REMARK  status: ('A' for Active; 'I' for Inactive)
REMARK    1  A    between atoms: C4_1  and  O4_57 
REMARK    2  A    between atoms: C5_2  and  C6_3 
REMARK    3  A    between atoms: C3_4  and  O3_61 
REMARK    4  A    between atoms: CAU_9  and  CAY_10 
REMARK    5  A    between atoms: CAP_13  and  CAR_12 
REMARK       I    between atoms: NAO_15  and  CAP_13 
REMARK    6  A    between atoms: CAM_16  and  NAO_15 
REMARK    7  A    between atoms: CAM_16  and  CAN_17 
REMARK    8  A    between atoms: CCE_18  and  CAM_16 
REMARK    9  A    between atoms: CCE_18  and  OCK_20 
REMARK   10  A    between atoms: CCD_21  and  OCJ_22 
REMARK   11  A    between atoms: CCC_23  and  CCI_24 
REMARK   12  A    between atoms: OAL_27  and  CCG_26 
REMARK   13  A    between atoms: CAC_28  and  OAL_27 
REMARK   14  A    between atoms: CAI_37  and  CBC_38 
REMARK   15  A    between atoms: CAZ_40  and  CAJ_39 
REMARK   16  A    between atoms: CAZ_40  and  OBB_41 
REMARK   17  A    between atoms: CBF_47  and  CBJ_48 
REMARK   18  A    between atoms: CBJ_48  and  CBL_49 
REMARK   19  A    between atoms: CBJ_48  and  CBK_50 
REMARK   20  A    between atoms: C1_52  and  NBE_51 
REMARK   21  A    between atoms: C2_53  and  O2_54 
REMARK   22  A    between atoms: O2_54  and  CCL_55 
REMARK   23  A    between atoms: O4_57  and  CBZ_58 
REMARK       I    between atoms: CBZ_58  and  NCA_60 
REMARK   24  A    between atoms: O3_61  and  CBW_62 
REMARK   25  A    between atoms: CBW_62  and  CBX_64 
ROOT
ATOM      1  CAC XAM d   1      42.937   1.552  29.304  0.00  0.00     0.049 C 
ATOM      2  CAB XAM d   1      42.421   2.987  29.290  0.00  0.00    -0.037 C 
ATOM      3  CAA XAM d   1      42.630   3.658  27.926  0.00  0.00    -0.043 C 
ATOM      4  CAF XAM d   1      42.143   2.753  26.827  0.00  0.00    -0.084 C 
ATOM      5  CAK XAM d   1      41.092   3.040  26.079  0.00  0.00    -0.119 C 
ATOM      6  CAE XAM d   1      42.946   1.463  26.774  0.00  0.00    -0.014 C 
ATOM      7  CAD XAM d   1      42.565   0.646  28.044  0.00  0.00    -0.005 C 
ATOM      8  CAG XAM d   1      43.339  -0.643  28.056  0.00  0.00    -0.099 C 
ATOM      9  CAH XAM d   1      43.830  -1.256  26.981  0.00  0.00    -0.102 C 
ATOM     10  CAI XAM d   1      43.716  -0.764  25.563  0.00  0.00    -0.032 C 
ATOM     11  CAJ XAM d   1      42.886   0.539  25.524  0.00  0.00     0.007 C 
ATOM     12  H   XAM d   1      44.035   1.604  29.335  0.00  0.00     0.084 H 
ATOM     13  H   XAM d   1      42.958   3.565  30.056  0.00  0.00     0.037 H 
ATOM     14  H   XAM d   1      41.346   2.980  29.522  0.00  0.00     0.037 H 
ATOM     15  H   XAM d   1      43.701   3.863  27.781  0.00  0.00     0.039 H 
ATOM     16  H   XAM d   1      42.068   4.603  27.895  0.00  0.00     0.039 H 
ATOM     17  H   XAM d   1      40.778   2.353  25.295  0.00  0.00     0.067 H 
ATOM     18  H   XAM d   1      40.540   3.964  26.247  0.00  0.00     0.067 H 
ATOM     19  H   XAM d   1      44.001   1.762  26.863  0.00  0.00     0.049 H 
ATOM     20  H   XAM d   1      41.487   0.425  28.046  0.00  0.00     0.051 H 
ATOM     21  H   XAM d   1      43.512  -1.113  29.023  0.00  0.00     0.077 H 
ATOM     22  H   XAM d   1      44.360  -2.194  27.141  0.00  0.00     0.077 H 
ATOM     23  H   XAM d   1      43.142  -1.516  25.001  0.00  0.00     0.046 H 
ATOM     24  H   XAM d   1      41.837   0.210  25.477  0.00  0.00     0.052 H 
ENDROOT
BRANCH  11  25
ATOM     25  CAZ XAM d   1      43.160   1.300  24.179  0.00  0.00     0.068 C 
ATOM     26  CBA XAM d   1      42.436   1.058  23.036  0.00  0.00     0.109 C 
ATOM     27  CBD XAM d   1      41.411   0.044  22.945  0.00  0.00     0.262 C 
ATOM     28  CBG XAM d   1      42.539   1.706  21.729  0.00  0.00     0.190 C 
ATOM     29  OBH XAM d   1      41.004  -0.732  23.800  0.00  0.00    -0.267 OA
ATOM     30  NBE XAM d   1      40.892   0.057  21.639  0.00  0.00    -0.306 N 
ATOM     31  CBF XAM d   1      41.370   1.181  20.830  0.00  0.00     0.083 C 
ATOM     32  H   XAM d   1      41.728   0.862  19.840  0.00  0.00     0.086 H 
ATOM     33  OBI XAM d   1      43.413   2.448  21.310  0.00  0.00    -0.290 OA
BRANCH  25  34
ATOM     34  OBB XAM d   1      44.153   2.222  24.092  0.00  0.00    -0.363 OA
ATOM     35  H   XAM d   1      44.175   2.579  23.212  0.00  0.00     0.217 HD
ENDBRANCH  25  34
BRANCH  30  36
ATOM     36  C1  XAM d   1      40.069  -1.075  21.098  0.00  0.00     0.137 C 
ATOM     37  C2  XAM d   1      40.435  -2.485  21.546  0.00  0.00     0.108 C 
ATOM     38  C3  XAM d   1      39.447  -3.441  20.899  0.00  0.00     0.105 C 
ATOM     39  H   XAM d   1      40.259  -2.519  22.631  0.00  0.00     0.094 H 
ATOM     40  C4  XAM d   1      38.037  -3.151  21.403  0.00  0.00     0.102 C 
ATOM     41  H   XAM d   1      39.718  -4.477  21.149  0.00  0.00     0.092 H 
ATOM     42  C5  XAM d   1      37.637  -1.696  21.158  0.00  0.00     0.066 C 
ATOM     43  H   XAM d   1      38.008  -3.342  22.486  0.00  0.00     0.092 H 
ATOM     44  O5  XAM d   1      38.723  -0.791  21.459  0.00  0.00    -0.356 OA
ATOM     45  H   XAM d   1      36.806  -1.473  21.843  0.00  0.00     0.086 H 
ATOM     46  H   XAM d   1      40.159  -1.056  20.002  0.00  0.00     0.122 H 
BRANCH  37  47
ATOM     47  O2  XAM d   1      41.796  -2.901  21.369  0.00  0.00    -0.384 OA
BRANCH  47  48
ATOM     48  CCL XAM d   1      42.526  -2.326  20.277  0.00  0.00     0.005 C 
ATOM     49  H   XAM d   1      43.547  -2.734  20.264  0.00  0.00     0.066 H 
ATOM     50  H   XAM d   1      42.569  -1.234  20.399  0.00  0.00     0.066 H 
ATOM     51  H   XAM d   1      42.022  -2.569  19.330  0.00  0.00     0.066 H 
ENDBRANCH  47  48
ENDBRANCH  37  47
BRANCH  38  52
ATOM     52  O3  XAM d   1      39.502  -3.256  19.465  0.00  0.00    -0.311 OA
BRANCH  52  53
ATOM     53  CBW XAM d   1      39.830  -4.314  18.689  0.00  0.00     0.255 C 
ATOM     54  OBY XAM d   1      39.793  -5.456  19.067  0.00  0.00    -0.266 OA
BRANCH  53  55
ATOM     55  CBX XAM d   1      40.240  -3.861  17.330  0.00  0.00     0.004 C 
ATOM     56  H   XAM d   1      40.502  -4.735  16.716  0.00  0.00     0.041 H 
ATOM     57  H   XAM d   1      41.112  -3.196  17.413  0.00  0.00     0.041 H 
ATOM     58  H   XAM d   1      39.408  -3.318  16.858  0.00  0.00     0.041 H 
ENDBRANCH  53  55
ENDBRANCH  52  53
ENDBRANCH  38  52
BRANCH  40  59
ATOM     59  O4  XAM d   1      37.099  -4.031  20.748  0.00  0.00    -0.293 OA
BRANCH  59  60
ATOM     60  CBZ XAM d   1      36.747  -5.298  21.262  0.00  0.00     0.358 C 
ATOM     61  OCB XAM d   1      35.631  -5.735  21.091  0.00  0.00    -0.239 OA
ATOM     62  NCA XAM d   1      37.732  -5.933  21.892  0.00  0.00    -0.346 N 
ATOM     63  H   XAM d   1      37.571  -6.837  22.288  0.00  0.00     0.161 HD
ATOM     64  H   XAM d   1      38.633  -5.506  21.970  0.00  0.00     0.161 HD
ENDBRANCH  59  60
ENDBRANCH  40  59
BRANCH  42  65
ATOM     65  C6  XAM d   1      37.157  -1.410  19.751  0.00  0.00    -0.050 C 
ATOM     66  H   XAM d   1      36.892  -0.346  19.663  0.00  0.00     0.031 H 
ATOM     67  H   XAM d   1      36.273  -2.028  19.532  0.00  0.00     0.031 H 
ATOM     68  H   XAM d   1      37.957  -1.648  19.035  0.00  0.00     0.031 H 
ENDBRANCH  42  65
ENDBRANCH  30  36
BRANCH  31  69
ATOM     69  CBJ XAM d   1      40.230   2.225  20.673  0.00  0.00    -0.034 C 
ATOM     70  H   XAM d   1      39.653   2.207  21.609  0.00  0.00     0.042 H 
BRANCH  69  71
ATOM     71  CBL XAM d   1      40.753   3.649  20.496  0.00  0.00    -0.071 C 
ATOM     72  H   XAM d   1      39.904   4.341  20.390  0.00  0.00     0.028 H 
ATOM     73  H   XAM d   1      41.382   3.699  19.595  0.00  0.00     0.028 H 
ATOM     74  H   XAM d   1      41.350   3.933  21.375  0.00  0.00     0.028 H 
ENDBRANCH  69  71
BRANCH  69  75
ATOM     75  CBK XAM d   1      39.264   1.862  19.539  0.00  0.00    -0.071 C 
ATOM     76  H   XAM d   1      38.898   0.835  19.683  0.00  0.00     0.028 H 
ATOM     77  H   XAM d   1      39.788   1.933  18.574  0.00  0.00     0.028 H 
ATOM     78  H   XAM d   1      38.413   2.558  19.546  0.00  0.00     0.028 H 
ENDBRANCH  69  75
ENDBRANCH  31  69
ENDBRANCH  11  25
BRANCH  10  79
ATOM     79  CBC XAM d   1      45.089  -0.686  24.893  0.00  0.00    -0.069 C 
ATOM     80  H   XAM d   1      45.594  -1.660  24.977  0.00  0.00     0.028 H 
ATOM     81  H   XAM d   1      45.696   0.085  25.390  0.00  0.00     0.028 H 
ATOM     82  H   XAM d   1      44.965  -0.427  23.831  0.00  0.00     0.028 H 
ENDBRANCH  10  79
BRANCH   1  83
ATOM     83  OAL XAM d   1      42.476   0.939  30.539  0.00  0.00    -0.355 OA
BRANCH  83  84
ATOM     84  CCG XAM d   1      43.144   1.375  31.720  0.00  0.00     0.135 C 
ATOM     85  CCF XAM d   1      42.358   0.941  32.941  0.00  0.00     0.014 C 
ATOM     86  CCE XAM d   1      43.057   1.103  34.325  0.00  0.00     0.110 C 
ATOM     87  H   XAM d   1      41.431   1.532  32.966  0.00  0.00     0.044 H 
ATOM     88  H   XAM d   1      42.111  -0.124  32.816  0.00  0.00     0.044 H 
ATOM     89  CCD XAM d   1      44.587   0.650  34.177  0.00  0.00     0.092 C 
ATOM     90  CCC XAM d   1      45.220   1.318  32.962  0.00  0.00     0.066 C 
ATOM     91  H   XAM d   1      44.672  -0.444  34.096  0.00  0.00     0.091 H 
ATOM     92  OCH XAM d   1      44.502   0.946  31.767  0.00  0.00    -0.354 OA
ATOM     93  H   XAM d   1      45.167   2.408  33.098  0.00  0.00     0.086 H 
ATOM     94  H   XAM d   1      43.155   2.475  31.707  0.00  0.00     0.129 H 
BRANCH  86  95
ATOM     95  CAM XAM d   1      42.254   0.362  35.499  0.00  0.00     0.041 C 
ATOM     96  H   XAM d   1      42.822   0.513  36.428  0.00  0.00     0.076 H 
BRANCH  95  97
ATOM     97  NAO XAM d   1      40.893   0.998  35.659  0.00  0.00    -0.348 N 
ATOM     98  CAP XAM d   1      40.325   1.348  36.821  0.00  0.00     0.270 C 
ATOM     99  OAQ XAM d   1      40.961   1.522  37.855  0.00  0.00    -0.266 OA
ATOM    100  H   XAM d   1      40.370   1.173  34.825  0.00  0.00     0.163 HD
BRANCH  98 101
ATOM    101  CAR XAM d   1      38.866   1.572  36.810  0.00  0.00     0.124 A 
ATOM    102  CAS XAM d   1      37.904   1.572  35.815  0.00  0.00     0.089 A 
ATOM    103 CLW  XAM d   1      38.094   1.228  34.138  0.00  0.00    -0.080 Cl
ATOM    104  CAT XAM d   1      36.650   1.884  36.401  0.00  0.00     0.080 A 
ATOM    105 CLX  XAM d   1      35.207   2.029  35.474  0.00  0.00    -0.080 Cl
ATOM    106  CAU XAM d   1      36.898   2.043  37.773  0.00  0.00     0.029 A 
ATOM    107  NAV XAM d   1      38.232   1.873  37.986  0.00  0.00    -0.353 N 
ATOM    108  H   XAM d   1      38.698   1.958  38.901  0.00  0.00     0.166 HD
BRANCH 106 109
ATOM    109  CAY XAM d   1      35.967   2.279  38.918  0.00  0.00    -0.036 C 
ATOM    110  H   XAM d   1      36.544   2.350  39.852  0.00  0.00     0.035 H 
ATOM    111  H   XAM d   1      35.255   1.444  38.990  0.00  0.00     0.035 H 
ATOM    112  H   XAM d   1      35.416   3.217  38.755  0.00  0.00     0.035 H 
ENDBRANCH 106 109
ENDBRANCH  98 101
ENDBRANCH  95  97
BRANCH  95 113
ATOM    113  CAN XAM d   1      42.070  -1.157  35.314  0.00  0.00    -0.054 C 
ATOM    114  H   XAM d   1      43.054  -1.634  35.196  0.00  0.00     0.030 H 
ATOM    115  H   XAM d   1      41.461  -1.346  34.418  0.00  0.00     0.030 H 
ATOM    116  H   XAM d   1      41.563  -1.575  36.196  0.00  0.00     0.030 H 
ENDBRANCH  95 113
ENDBRANCH  86  95
BRANCH  86 117
ATOM    117  OCK XAM d   1      43.016   2.491  34.697  0.00  0.00    -0.385 OA
ATOM    118  H   XAM d   1      43.439   2.604  35.540  0.00  0.00     0.210 HD
ENDBRANCH  86 117
BRANCH  89 119
ATOM    119  OCJ XAM d   1      45.207   1.130  35.358  0.00  0.00    -0.390 OA
ATOM    120  H   XAM d   1      44.790   0.737  36.115  0.00  0.00     0.210 HD
ENDBRANCH  89 119
BRANCH  90 121
ATOM    121  CCI XAM d   1      46.663   0.919  32.758  0.00  0.00    -0.050 C 
ATOM    122  H   XAM d   1      47.063   1.431  31.870  0.00  0.00     0.031 H 
ATOM    123  H   XAM d   1      46.725  -0.170  32.613  0.00  0.00     0.031 H 
ATOM    124  H   XAM d   1      47.251   1.205  33.642  0.00  0.00     0.031 H 
ENDBRANCH  90 121
ENDBRANCH  83  84
ENDBRANCH   1  83
TORSDOF 25
