REMARK  18 active torsions:
REMARK  status: ('A' for Active; 'I' for Inactive)
REMARK    1  A    between atoms: O1_2  and  C1_1 
REMARK    2  A    between atoms: C27_7  and  O1_2 
REMARK       I    between atoms: C12_4  and  N1_3 
REMARK    3  A    between atoms: O5_6  and  C12_4 
REMARK    4  A    between atoms: C28_8  and  O5_6 
REMARK    5  A    between atoms: C29_9  and  O6_10 
REMARK    6  A    between atoms: C30_11  and  O8_16 
REMARK    7  A    between atoms: C31_13  and  C23_14 
REMARK    8  A    between atoms: C31_13  and  C26_15 
REMARK    9  A    between atoms: O8_16  and  C3_17 
REMARK   10  A    between atoms: C4_18  and  C2_19 
REMARK   11  A    between atoms: C7_27  and  N2_30 
REMARK   12  A    between atoms: C8_28  and  O9_29 
REMARK       I    between atoms: N2_30  and  C13_31 
REMARK   13  A    between atoms: C13_31  and  C14_33 
REMARK   14  A    between atoms: C16_35  and  C20_40 
REMARK   15  A    between atoms: C17_36  and  O3_37 
REMARK   16  A    between atoms: C20_40  and  C21_41 
REMARK   17  A    between atoms: C22_42  and  C24_43 
REMARK   18  A    between atoms: C22_42  and  C25_44 
ROOT
ATOM      1  C3  NOV d   1     -31.350   4.846  -3.264  0.00  0.00     0.081 A 
ATOM      2  C4  NOV d   1     -30.555   5.891  -3.755  0.00  0.00     0.006 A 
ATOM      3  C5  NOV d   1     -31.187   6.866  -4.526  0.00  0.00     0.101 A 
ATOM      4  C9  NOV d   1     -32.556   6.829  -4.809  0.00  0.00     0.034 A 
ATOM      5  C10 NOV d   1     -33.317   5.784  -4.280  0.00  0.00    -0.065 A 
ATOM      6  C11 NOV d   1     -32.722   4.790  -3.521  0.00  0.00    -0.049 A 
ATOM      7  O10 NOV d   1     -30.364   7.840  -5.060  0.00  0.00    -0.272 OA
ATOM      8  C6  NOV d   1     -30.820   8.807  -5.932  0.00  0.00     0.318 A 
ATOM      9  O11 NOV d   1     -29.993   9.596  -6.325  0.00  0.00    -0.257 OA
ATOM     10  C7  NOV d   1     -32.301   8.777  -6.298  0.00  0.00     0.146 A 
ATOM     11  C8  NOV d   1     -33.100   7.833  -5.710  0.00  0.00     0.111 A 
ATOM     12  H   NOV d   1     -34.385   5.751  -4.465  0.00  0.00     0.085 H 
ATOM     13  H   NOV d   1     -33.317   3.974  -3.129  0.00  0.00     0.087 H 
ENDROOT
BRANCH   1  14
ATOM     14  O8  NOV d   1     -30.657   3.926  -2.510  0.00  0.00    -0.317 OA
BRANCH  14  15
ATOM     15  C30 NOV d   1     -31.296   2.767  -2.013  0.00  0.00     0.165 C 
ATOM     16  C29 NOV d   1     -30.187   1.912  -1.411  0.00  0.00     0.111 C 
ATOM     17  C28 NOV d   1     -29.736   2.511  -0.083  0.00  0.00     0.106 C 
ATOM     18  H   NOV d   1     -29.328   1.928  -2.098  0.00  0.00     0.094 H 
ATOM     19  C27 NOV d   1     -30.889   2.542   0.919  0.00  0.00     0.095 C 
ATOM     20  H   NOV d   1     -29.440   3.553  -0.277  0.00  0.00     0.092 H 
ATOM     21  C31 NOV d   1     -32.125   3.355   0.312  0.00  0.00     0.085 C 
ATOM     22  H   NOV d   1     -31.208   1.508   1.118  0.00  0.00     0.092 H 
ATOM     23  O7  NOV d   1     -32.360   3.038  -1.090  0.00  0.00    -0.345 OA
ATOM     24  H   NOV d   1     -31.737   2.223  -2.861  0.00  0.00     0.134 H 
BRANCH  16  25
ATOM     25  O6  NOV d   1     -30.612   0.564  -1.280  0.00  0.00    -0.388 OA
ATOM     26  H   NOV d   1     -29.894   0.037  -0.949  0.00  0.00     0.210 HD
ENDBRANCH  16  25
BRANCH  17  27
ATOM     27  O5  NOV d   1     -28.580   1.832   0.454  0.00  0.00    -0.293 OA
BRANCH  27  28
ATOM     28  C12 NOV d   1     -27.360   2.196   0.004  0.00  0.00     0.358 C 
ATOM     29  N1  NOV d   1     -26.405   1.507   0.620  0.00  0.00    -0.346 N 
ATOM     30  H   NOV d   1     -25.445   1.668   0.391  0.00  0.00     0.161 HD
ATOM     31  H   NOV d   1     -26.646   0.828   1.313  0.00  0.00     0.161 HD
ATOM     32  O4  NOV d   1     -27.176   3.047  -0.845  0.00  0.00    -0.239 OA
ENDBRANCH  27  28
ENDBRANCH  17  27
BRANCH  19  33
ATOM     33  O1  NOV d   1     -30.479   3.137   2.147  0.00  0.00    -0.385 OA
BRANCH  33  34
ATOM     34  C1  NOV d   1     -30.315   2.217   3.221  0.00  0.00     0.005 C 
ATOM     35  H   NOV d   1     -29.999   2.760   4.124  0.00  0.00     0.066 H 
ATOM     36  H   NOV d   1     -29.549   1.474   2.954  0.00  0.00     0.066 H 
ATOM     37  H   NOV d   1     -31.270   1.706   3.415  0.00  0.00     0.066 H 
ENDBRANCH  33  34
ENDBRANCH  19  33
BRANCH  21  38
ATOM     38  C23 NOV d   1     -31.949   4.868   0.391  0.00  0.00    -0.045 C 
ATOM     39  H   NOV d   1     -32.831   5.363  -0.042  0.00  0.00     0.031 H 
ATOM     40  H   NOV d   1     -31.051   5.162  -0.171  0.00  0.00     0.031 H 
ATOM     41  H   NOV d   1     -31.838   5.170   1.443  0.00  0.00     0.031 H 
ENDBRANCH  21  38
BRANCH  21  42
ATOM     42  C26 NOV d   1     -33.391   2.936   1.038  0.00  0.00    -0.045 C 
ATOM     43  H   NOV d   1     -34.249   3.490   0.628  0.00  0.00     0.031 H 
ATOM     44  H   NOV d   1     -33.289   3.159   2.110  0.00  0.00     0.031 H 
ATOM     45  H   NOV d   1     -33.552   1.857   0.901  0.00  0.00     0.031 H 
ENDBRANCH  21  42
ENDBRANCH  14  15
ENDBRANCH   1  14
BRANCH   2  46
ATOM     46  C2  NOV d   1     -29.059   5.909  -3.528  0.00  0.00    -0.046 C 
ATOM     47  H   NOV d   1     -28.774   5.055  -2.896  0.00  0.00     0.033 H 
ATOM     48  H   NOV d   1     -28.775   6.847  -3.028  0.00  0.00     0.033 H 
ATOM     49  H   NOV d   1     -28.540   5.838  -4.495  0.00  0.00     0.033 H 
ENDBRANCH   2  46
BRANCH  11  50
ATOM     50  O9  NOV d   1     -34.415   7.787  -5.884  0.00  0.00    -0.357 OA
ATOM     51  H   NOV d   1     -34.773   7.059  -5.390  0.00  0.00     0.217 HD
ENDBRANCH  11  50
BRANCH  10  52
ATOM     52  N2  NOV d   1     -32.606   9.706  -7.320  0.00  0.00    -0.316 N 
ATOM     53  C13 NOV d   1     -32.810   9.356  -8.644  0.00  0.00     0.256 C 
ATOM     54  O2  NOV d   1     -32.850   8.184  -9.021  0.00  0.00    -0.267 OA
ATOM     55  H   NOV d   1     -32.678  10.672  -7.072  0.00  0.00     0.169 HD
BRANCH  53  56
ATOM     56  C14 NOV d   1     -33.003  10.483  -9.612  0.00  0.00     0.033 A 
ATOM     57  C15 NOV d   1     -33.492  11.725  -9.208  0.00  0.00    -0.059 A 
ATOM     58  C16 NOV d   1     -33.728  12.751 -10.128  0.00  0.00    -0.021 A 
ATOM     59  H   NOV d   1     -33.694  11.899  -8.157  0.00  0.00     0.086 H 
ATOM     60  C17 NOV d   1     -33.469  12.502 -11.482  0.00  0.00     0.072 A 
ATOM     61  C18 NOV d   1     -32.965  11.268 -11.888  0.00  0.00    -0.050 A 
ATOM     62  C19 NOV d   1     -32.732  10.271 -10.961  0.00  0.00    -0.065 A 
ATOM     63  H   NOV d   1     -32.755  11.090 -12.936  0.00  0.00     0.087 H 
ATOM     64  H   NOV d   1     -32.335   9.316 -11.286  0.00  0.00     0.085 H 
BRANCH  58  65
ATOM     65  C20 NOV d   1     -34.217  14.118  -9.678  0.00  0.00    -0.023 C 
ATOM     66  H   NOV d   1     -34.864  14.514 -10.475  0.00  0.00     0.046 H 
ATOM     67  H   NOV d   1     -33.333  14.764  -9.569  0.00  0.00     0.046 H 
BRANCH  65  68
ATOM     68  C21 NOV d   1     -34.991  14.196  -8.390  0.00  0.00    -0.097 C 
ATOM     69  C22 NOV d   1     -36.162  14.782  -8.172  0.00  0.00    -0.091 C 
ATOM     70  H   NOV d   1     -34.533  13.711  -7.529  0.00  0.00     0.077 H 
BRANCH  69  71
ATOM     71  C24 NOV d   1     -36.802  14.778  -6.818  0.00  0.00    -0.055 C 
ATOM     72  H   NOV d   1     -37.760  15.316  -6.864  0.00  0.00     0.033 H 
ATOM     73  H   NOV d   1     -36.137  15.274  -6.096  0.00  0.00     0.033 H 
ATOM     74  H   NOV d   1     -36.979  13.740  -6.499  0.00  0.00     0.033 H 
ENDBRANCH  69  71
BRANCH  69  75
ATOM     75  C25 NOV d   1     -36.963  15.478  -9.236  0.00  0.00    -0.055 C 
ATOM     76  H   NOV d   1     -36.420  15.433 -10.192  0.00  0.00     0.033 H 
ATOM     77  H   NOV d   1     -37.116  16.529  -8.951  0.00  0.00     0.033 H 
ATOM     78  H   NOV d   1     -37.939  14.982  -9.344  0.00  0.00     0.033 H 
ENDBRANCH  69  75
ENDBRANCH  65  68
ENDBRANCH  58  65
BRANCH  60  79
ATOM     79  O3  NOV d   1     -33.730  13.455 -12.416  0.00  0.00    -0.360 OA
ATOM     80  H   NOV d   1     -33.498  13.125 -13.276  0.00  0.00     0.217 HD
ENDBRANCH  60  79
ENDBRANCH  53  56
ENDBRANCH  10  52
TORSDOF 18
