REMARK  18 active torsions:
REMARK  status: ('A' for Active; 'I' for Inactive)
REMARK    1  A    between atoms: O1_2  and  C1_1 
REMARK    2  A    between atoms: C27_7  and  O1_2 
REMARK       I    between atoms: C12_4  and  N1_3 
REMARK    3  A    between atoms: O5_6  and  C12_4 
REMARK    4  A    between atoms: C28_8  and  O5_6 
REMARK    5  A    between atoms: C29_9  and  O6_10 
REMARK    6  A    between atoms: C30_11  and  O8_16 
REMARK    7  A    between atoms: C31_13  and  C23_14 
REMARK    8  A    between atoms: C31_13  and  C26_15 
REMARK    9  A    between atoms: O8_16  and  C3_17 
REMARK   10  A    between atoms: C4_18  and  C2_19 
REMARK   11  A    between atoms: C7_27  and  N2_30 
REMARK   12  A    between atoms: C8_28  and  O9_29 
REMARK       I    between atoms: N2_30  and  C13_31 
REMARK   13  A    between atoms: C13_31  and  C14_33 
REMARK   14  A    between atoms: C16_35  and  C20_40 
REMARK   15  A    between atoms: C17_36  and  O3_37 
REMARK   16  A    between atoms: C20_40  and  C21_41 
REMARK   17  A    between atoms: C22_42  and  C24_43 
REMARK   18  A    between atoms: C22_42  and  C25_44 
ROOT
ATOM      1  C3  NOV d   1       0.065  -0.149 -11.707  0.00  0.00     0.081 A 
ATOM      2  C4  NOV d   1      -1.056   0.593 -11.331  0.00  0.00     0.006 A 
ATOM      3  C5  NOV d   1      -1.214   1.841 -11.925  0.00  0.00     0.101 A 
ATOM      4  C9  NOV d   1      -0.280   2.374 -12.825  0.00  0.00     0.034 A 
ATOM      5  C10 NOV d   1       0.816   1.589 -13.186  0.00  0.00    -0.065 A 
ATOM      6  C11 NOV d   1       0.991   0.331 -12.640  0.00  0.00    -0.049 A 
ATOM      7  O10 NOV d   1      -2.349   2.533 -11.553  0.00  0.00    -0.272 OA
ATOM      8  C6  NOV d   1      -2.633   3.799 -12.001  0.00  0.00     0.318 A 
ATOM      9  O11 NOV d   1      -3.685   4.235 -11.617  0.00  0.00    -0.257 OA
ATOM     10  C7  NOV d   1      -1.604   4.441 -12.956  0.00  0.00     0.146 A 
ATOM     11  C8  NOV d   1      -0.498   3.730 -13.327  0.00  0.00     0.111 A 
ATOM     12  H   NOV d   1       1.537   1.969 -13.901  0.00  0.00     0.085 H 
ATOM     13  H   NOV d   1       1.839  -0.279 -12.932  0.00  0.00     0.087 H 
ENDROOT
BRANCH   1  14
ATOM     14  O8  NOV d   1       0.151  -1.358 -11.068  0.00  0.00    -0.317 OA
BRANCH  14  15
ATOM     15  C30 NOV d   1       1.236  -2.219 -11.316  0.00  0.00     0.165 C 
ATOM     16  C29 NOV d   1       1.133  -3.310 -10.256  0.00  0.00     0.111 C 
ATOM     17  C28 NOV d   1      -0.117  -4.150 -10.522  0.00  0.00     0.106 C 
ATOM     18  H   NOV d   1       1.029  -2.842  -9.266  0.00  0.00     0.094 H 
ATOM     19  C27 NOV d   1      -0.002  -4.806 -11.901  0.00  0.00     0.095 C 
ATOM     20  H   NOV d   1      -0.975  -3.461 -10.537  0.00  0.00     0.092 H 
ATOM     21  C31 NOV d   1       0.211  -3.734 -13.064  0.00  0.00     0.085 C 
ATOM     22  H   NOV d   1       0.896  -5.441 -11.882  0.00  0.00     0.092 H 
ATOM     23  O7  NOV d   1       1.171  -2.718 -12.663  0.00  0.00    -0.345 OA
ATOM     24  H   NOV d   1       2.185  -1.677 -11.191  0.00  0.00     0.134 H 
BRANCH  16  25
ATOM     25  O6  NOV d   1       2.332  -4.073 -10.266  0.00  0.00    -0.388 OA
ATOM     26  H   NOV d   1       2.286  -4.742  -9.593  0.00  0.00     0.210 HD
ENDBRANCH  16  25
BRANCH  17  27
ATOM     27  O5  NOV d   1      -0.400  -5.163  -9.524  0.00  0.00    -0.293 OA
BRANCH  27  28
ATOM     28  C12 NOV d   1      -0.876  -4.770  -8.323  0.00  0.00     0.358 C 
ATOM     29  N1  NOV d   1      -0.677  -5.706  -7.409  0.00  0.00    -0.346 N 
ATOM     30  H   NOV d   1      -0.978  -5.557  -6.467  0.00  0.00     0.161 HD
ATOM     31  H   NOV d   1      -0.226  -6.562  -7.660  0.00  0.00     0.161 HD
ATOM     32  O4  NOV d   1      -1.409  -3.702  -8.122  0.00  0.00    -0.239 OA
ENDBRANCH  27  28
ENDBRANCH  17  27
BRANCH  19  33
ATOM     33  O1  NOV d   1      -1.113  -5.657 -12.162  0.00  0.00    -0.385 OA
BRANCH  33  34
ATOM     34  C1  NOV d   1      -0.795  -7.043 -12.160  0.00  0.00     0.005 C 
ATOM     35  H   NOV d   1      -1.703  -7.628 -12.368  0.00  0.00     0.066 H 
ATOM     36  H   NOV d   1      -0.395  -7.326 -11.175  0.00  0.00     0.066 H 
ATOM     37  H   NOV d   1      -0.041  -7.247 -12.935  0.00  0.00     0.066 H 
ENDBRANCH  33  34
ENDBRANCH  19  33
BRANCH  21  38
ATOM     38  C23 NOV d   1      -1.071  -3.037 -13.497  0.00  0.00    -0.045 C 
ATOM     39  H   NOV d   1      -0.845  -2.317 -14.297  0.00  0.00     0.031 H 
ATOM     40  H   NOV d   1      -1.508  -2.506 -12.638  0.00  0.00     0.031 H 
ATOM     41  H   NOV d   1      -1.787  -3.785 -13.868  0.00  0.00     0.031 H 
ENDBRANCH  21  38
BRANCH  21  42
ATOM     42  C26 NOV d   1       0.876  -4.396 -14.258  0.00  0.00    -0.045 C 
ATOM     43  H   NOV d   1       1.020  -3.653 -15.056  0.00  0.00     0.031 H 
ATOM     44  H   NOV d   1       0.237  -5.212 -14.628  0.00  0.00     0.031 H 
ATOM     45  H   NOV d   1       1.852  -4.803 -13.955  0.00  0.00     0.031 H 
ENDBRANCH  21  42
ENDBRANCH  14  15
ENDBRANCH   1  14
BRANCH   2  46
ATOM     46  C2  NOV d   1      -2.009   0.081 -10.277  0.00  0.00    -0.046 C 
ATOM     47  H   NOV d   1      -1.692  -0.921  -9.952  0.00  0.00     0.033 H 
ATOM     48  H   NOV d   1      -3.024   0.026 -10.696  0.00  0.00     0.033 H 
ATOM     49  H   NOV d   1      -2.005   0.765  -9.415  0.00  0.00     0.033 H 
ENDBRANCH   2  46
BRANCH  11  50
ATOM     50  O9  NOV d   1       0.428   4.212 -14.179  0.00  0.00    -0.357 OA
ATOM     51  H   NOV d   1       1.111   3.563 -14.303  0.00  0.00     0.217 HD
ENDBRANCH  11  50
BRANCH  10  52
ATOM     52  N2  NOV d   1      -2.002   5.715 -13.438  0.00  0.00    -0.316 N 
ATOM     53  C13 NOV d   1      -3.251   6.052 -13.914  0.00  0.00     0.256 C 
ATOM     54  O2  NOV d   1      -3.910   6.973 -13.435  0.00  0.00    -0.267 OA
ATOM     55  H   NOV d   1      -1.310   6.437 -13.432  0.00  0.00     0.169 HD
BRANCH  53  56
ATOM     56  C14 NOV d   1      -3.789   5.198 -15.019  0.00  0.00     0.033 A 
ATOM     57  C15 NOV d   1      -2.934   4.400 -15.777  0.00  0.00    -0.059 A 
ATOM     58  C16 NOV d   1      -3.422   3.478 -16.703  0.00  0.00    -0.021 A 
ATOM     59  H   NOV d   1      -1.863   4.498 -15.644  0.00  0.00     0.086 H 
ATOM     60  C17 NOV d   1      -4.810   3.369 -16.861  0.00  0.00     0.072 A 
ATOM     61  C18 NOV d   1      -5.670   4.206 -16.147  0.00  0.00    -0.050 A 
ATOM     62  C19 NOV d   1      -5.162   5.109 -15.231  0.00  0.00    -0.065 A 
ATOM     63  H   NOV d   1      -6.740   4.148 -16.311  0.00  0.00     0.087 H 
ATOM     64  H   NOV d   1      -5.836   5.751 -14.675  0.00  0.00     0.085 H 
BRANCH  58  65
ATOM     65  C20 NOV d   1      -2.411   2.658 -17.483  0.00  0.00    -0.023 C 
ATOM     66  H   NOV d   1      -1.398   2.895 -17.125  0.00  0.00     0.046 H 
ATOM     67  H   NOV d   1      -2.490   2.906 -18.552  0.00  0.00     0.046 H 
BRANCH  65  68
ATOM     68  C21 NOV d   1      -2.674   1.191 -17.293  0.00  0.00    -0.097 C 
ATOM     69  C22 NOV d   1      -1.885   0.282 -16.744  0.00  0.00    -0.091 C 
ATOM     70  H   NOV d   1      -3.636   0.830 -17.653  0.00  0.00     0.077 H 
BRANCH  69  71
ATOM     71  C24 NOV d   1      -0.486   0.553 -16.276  0.00  0.00    -0.055 C 
ATOM     72  H   NOV d   1      -0.053  -0.369 -15.861  0.00  0.00     0.033 H 
ATOM     73  H   NOV d   1      -0.503   1.332 -15.499  0.00  0.00     0.033 H 
ATOM     74  H   NOV d   1       0.125   0.895 -17.125  0.00  0.00     0.033 H 
ENDBRANCH  69  71
BRANCH  69  75
ATOM     75  C25 NOV d   1      -2.367  -1.112 -16.490  0.00  0.00    -0.055 C 
ATOM     76  H   NOV d   1      -3.396  -1.218 -16.864  0.00  0.00     0.033 H 
ATOM     77  H   NOV d   1      -2.347  -1.316 -15.409  0.00  0.00     0.033 H 
ATOM     78  H   NOV d   1      -1.712  -1.827 -17.010  0.00  0.00     0.033 H 
ENDBRANCH  69  75
ENDBRANCH  65  68
ENDBRANCH  58  65
BRANCH  60  79
ATOM     79  O3  NOV d   1      -5.329   2.370 -17.621  0.00  0.00    -0.360 OA
ATOM     80  H   NOV d   1      -6.277   2.437 -17.626  0.00  0.00     0.217 HD
ENDBRANCH  60  79
ENDBRANCH  53  56
ENDBRANCH  10  52
TORSDOF 18
