REMARK  5 active torsions:
REMARK  status: ('A' for Active; 'I' for Inactive)
REMARK    1  A    between atoms: S_2  and  N_4 
REMARK    2  A    between atoms: S_2  and  C4_10 
REMARK    3  A    between atoms: N_4  and  C7_5 
REMARK    4  A    between atoms: C1_15  and  O_16 
REMARK    5  A    between atoms: O_16  and  C_17 
ROOT
ATOM      1  C4  6W2 d   1      45.753  38.439  74.180  0.00  0.00     0.080 A 
ATOM      2  C3  6W2 d   1      46.990  39.064  74.196  0.00  0.00    -0.058 A 
ATOM      3  C2  6W2 d   1      48.138  38.317  74.006  0.00  0.00    -0.049 A 
ATOM      4  C5  6W2 d   1      45.652  37.076  73.958  0.00  0.00    -0.058 A 
ATOM      5  C6  6W2 d   1      46.804  36.330  73.772  0.00  0.00    -0.049 A 
ATOM      6  C1  6W2 d   1      48.048  36.953  73.804  0.00  0.00     0.068 A 
ATOM      7  H4  6W2 d   1      47.057  40.134  74.357  0.00  0.00     0.086 H 
ATOM      8  H5  6W2 d   1      49.108  38.801  74.016  0.00  0.00     0.087 H 
ATOM      9  H6  6W2 d   1      44.680  36.597  73.930  0.00  0.00     0.086 H 
ATOM     10  H7  6W2 d   1      46.737  35.262  73.602  0.00  0.00     0.087 H 
ENDROOT
BRANCH   1  11
ATOM     11  S   6W2 d   1      44.299  39.393  74.443  0.00  0.00     0.264 S 
ATOM     12  O2  6W2 d   1      43.685  39.638  73.178  0.00  0.00    -0.200 OA
ATOM     13  O1  6W2 d   1      43.537  38.784  75.489  0.00  0.00    -0.200 OA
BRANCH  11  14
ATOM     14  N   6W2 d   1      44.817  40.888  74.978  0.00  0.00    -0.258 N 
ATOM     15  H1  6W2 d   1      44.986  41.595  74.292  0.00  0.00     0.181 HD
BRANCH  14  16
ATOM     16  C7  6W2 d   1      45.022  41.205  76.267  0.00  0.00     0.179 A 
ATOM     17  S1  6W2 d   1      44.690  40.164  77.612  0.00  0.00    -0.062 SA
ATOM     18  C9  6W2 d   1      45.180  41.396  78.663  0.00  0.00    -0.025 A 
ATOM     19  C8  6W2 d   1      45.544  42.482  77.969  0.00  0.00     0.011 A 
ATOM     20  H2  6W2 d   1      45.197  41.317  79.749  0.00  0.00     0.097 H 
ATOM     21  N1  6W2 d   1      45.474  42.385  76.597  0.00  0.00    -0.236 NA
ATOM     22  H3  6W2 d   1      45.878  43.393  78.463  0.00  0.00     0.115 H 
ENDBRANCH  14  16
ENDBRANCH  11  14
ENDBRANCH   1  11
BRANCH   6  23
ATOM     23  O   6W2 d   1      49.290  36.393  73.654  0.00  0.00    -0.356 OA
BRANCH  23  24
ATOM     24  C   6W2 d   1      49.376  34.985  73.432  0.00  0.00     0.010 C 
ATOM     25  H8  6W2 d   1      50.432  34.693  73.333  0.00  0.00     0.066 H 
ATOM     26  H9  6W2 d   1      48.836  34.726  72.510  0.00  0.00     0.066 H 
ATOM     27  H10 6W2 d   1      48.926  34.452  74.282  0.00  0.00     0.066 H 
ENDBRANCH  23  24
ENDBRANCH   6  23
TORSDOF 5
