REMARK  2 active torsions:
REMARK  status: ('A' for Active; 'I' for Inactive)
REMARK    1  A    between atoms: C5_7  and  C_8 
REMARK    2  A    between atoms: C_8  and  O_9 
ROOT
ATOM      1  C   UMK d   1      46.542  39.799  79.179  0.00  0.00     0.088 C 
ATOM      2  C4  UMK d   1      46.455  40.821  80.321  0.00  0.00    -0.010 C 
ATOM      3  C3  UMK d   1      47.067  40.301  81.605  0.00  0.00     0.085 C 
ATOM      4  N   UMK d   1      48.474  39.927  81.387  0.00  0.00    -0.075 N 
ATOM      5  C2  UMK d   1      48.576  38.872  80.364  0.00  0.00     0.085 C 
ATOM      6  C1  UMK d   1      47.988  39.307  79.038  0.00  0.00    -0.010 C 
ATOM      7  H6  UMK d   1      45.397  41.058  80.504  0.00  0.00     0.040 H 
ATOM      8  H7  UMK d   1      46.988  41.735  80.020  0.00  0.00     0.040 H 
ATOM      9  H8  UMK d   1      46.505  39.418  81.943  0.00  0.00     0.075 H 
ATOM     10  H9  UMK d   1      47.015  41.085  82.375  0.00  0.00     0.075 H 
ATOM     11  H10 UMK d   1      48.865  39.589  82.252  0.00  0.00     0.277 HD
ATOM     12  H11 UMK d   1      48.989  40.737  81.080  0.00  0.00     0.277 HD
ATOM     13  H12 UMK d   1      48.035  37.982  80.717  0.00  0.00     0.075 H 
ATOM     14  H13 UMK d   1      49.637  38.622  80.217  0.00  0.00     0.075 H 
ATOM     15  H14 UMK d   1      48.602  40.123  78.629  0.00  0.00     0.040 H 
ATOM     16  H15 UMK d   1      48.006  38.453  78.345  0.00  0.00     0.040 H 
ENDROOT
BRANCH   1  17
ATOM     17  C5  UMK d   1      46.055  40.408  77.865  0.00  0.00    -0.024 A 
ATOM     18  C6  UMK d   1      46.265  41.755  77.580  0.00  0.00    -0.073 A 
ATOM     19  C7  UMK d   1      45.867  42.309  76.374  0.00  0.00    -0.066 A 
ATOM     20  H2  UMK d   1      46.750  42.384  78.318  0.00  0.00     0.084 H 
ATOM     21  C8  UMK d   1      45.267  41.497  75.425  0.00  0.00     0.011 A 
ATOM     22  H1  UMK d   1      46.023  43.363  76.176  0.00  0.00     0.085 H 
ATOM     23 BR   UMK d   1      44.685  42.255  73.779  0.00  0.00    -0.051 Br
ATOM     24  C9  UMK d   1      45.056  40.150  75.670  0.00  0.00    -0.066 A 
ATOM     25  C10 UMK d   1      45.457  39.617  76.886  0.00  0.00    -0.073 A 
ATOM     26  H3  UMK d   1      44.585  39.522  74.923  0.00  0.00     0.085 H 
ATOM     27  H4  UMK d   1      45.302  38.562  77.079  0.00  0.00     0.084 H 
ENDBRANCH   1  17
BRANCH   1  28
ATOM     28  O   UMK d   1      45.735  38.669  79.531  0.00  0.00    -0.385 OA
ATOM     29  H5  UMK d   1      46.048  38.300  80.349  0.00  0.00     0.211 HD
ENDBRANCH   1  28
TORSDOF 2
