REMARK  2 active torsions:
REMARK  status: ('A' for Active; 'I' for Inactive)
REMARK    1  A    between atoms: C4_7  and  N_2 
REMARK    2  A    between atoms: C3_6  and  C4_7 
ROOT
ATOM      1  C4  HXY d   1      46.980  41.082  78.390  0.00  0.00     0.108 C 
ATOM      2  H4  HXY d   1      46.747  41.086  77.315  0.00  0.00     0.083 H 
ATOM      3  H5  HXY d   1      48.000  41.464  78.545  0.00  0.00     0.083 H 
ENDROOT
BRANCH   1   4
ATOM      4  N   HXY d   1      46.922  39.698  78.874  0.00  0.00    -0.061 N 
ATOM      5  C5  HXY d   1      45.694  39.012  78.460  0.00  0.00     0.099 C 
ATOM      6  C6  HXY d   1      46.020  37.548  78.638  0.00  0.00    -0.080 C 
ATOM      7  H6  HXY d   1      45.456  39.235  77.410  0.00  0.00     0.082 H 
ATOM      8  H7  HXY d   1      44.847  39.305  79.098  0.00  0.00     0.082 H 
ATOM      9  C7  HXY d   1      47.497  37.449  78.500  0.00  0.00    -0.080 C 
ATOM     10  H8  HXY d   1      45.320  36.736  78.828  0.00  0.00     0.079 H 
ATOM     11  C8  HXY d   1      47.998  38.867  78.319  0.00  0.00     0.099 C 
ATOM     12  H9  HXY d   1      48.097  36.541  78.524  0.00  0.00     0.079 H 
ATOM     13  H10 HXY d   1      48.937  39.023  78.871  0.00  0.00     0.082 H 
ATOM     14  H11 HXY d   1      48.157  39.093  77.254  0.00  0.00     0.082 H 
ATOM     15  H1  HXY d   1      46.984  39.712  79.880  0.00  0.00     0.280 HD
ENDBRANCH   1   4
BRANCH   1  16
ATOM     16  C3  HXY d   1      46.013  42.000  79.093  0.00  0.00    -0.033 A 
ATOM     17  C2  HXY d   1      46.170  42.299  80.437  0.00  0.00    -0.074 A 
ATOM     18  C1  HXY d   1      45.309  43.170  81.079  0.00  0.00    -0.066 A 
ATOM     19  H3  HXY d   1      46.980  41.843  80.994  0.00  0.00     0.084 H 
ATOM     20  C   HXY d   1      44.221  43.659  80.397  0.00  0.00     0.011 A 
ATOM     21  H2  HXY d   1      45.490  43.463  82.107  0.00  0.00     0.085 H 
ATOM     22 BR   HXY d   1      42.998  44.809  81.292  0.00  0.00    -0.051 Br
ATOM     23  C10 HXY d   1      44.020  43.354  79.065  0.00  0.00    -0.066 A 
ATOM     24  C9  HXY d   1      44.937  42.549  78.415  0.00  0.00    -0.074 A 
ATOM     25  H13 HXY d   1      43.156  43.740  78.537  0.00  0.00     0.085 H 
ATOM     26  H12 HXY d   1      44.812  42.344  77.358  0.00  0.00     0.084 H 
ENDBRANCH   1  16
TORSDOF 2
