REMARK  4 active torsions:
REMARK  status: ('A' for Active; 'I' for Inactive)
REMARK    1  A    between atoms: C1_1  and  C2_4 
REMARK    2  A    between atoms: C2_4  and  C3_6 
REMARK    3  A    between atoms: C3_6  and  C4_7 
REMARK    4  A    between atoms: C4_7  and  C5_8 
ROOT
ATOM      1  C3  AKG d   1       3.261  11.524   0.121  0.00  0.00     0.010 C 
ATOM      2  H   AKG d   1       2.780  12.466  -0.181  0.00  0.00     0.045 H 
ATOM      3  H   AKG d   1       2.654  11.035   0.897  0.00  0.00     0.045 H 
ENDROOT
BRANCH   1   4
ATOM      4  C2  AKG d   1       4.628  11.857   0.723  0.00  0.00     0.225 C 
ATOM      5  O5  AKG d   1       5.730  11.582   0.173  0.00  0.00    -0.286 OA
BRANCH   4   6
ATOM      6  C1  AKG d   1       4.667  12.430   1.968  0.00  0.00     0.246 C 
ATOM      7  O1  AKG d   1       5.769  12.691   2.441  0.00  0.00    -0.642 OA
ATOM      8  O2  AKG d   1       3.534  12.679   2.653  0.00  0.00    -0.642 OA
ENDBRANCH   4   6
ENDBRANCH   1   4
BRANCH   1   9
ATOM      9  C4  AKG d   1       3.312  10.584  -1.120  0.00  0.00     0.022 C 
ATOM     10  H   AKG d   1       4.237  10.783  -1.682  0.00  0.00     0.049 H 
ATOM     11  H   AKG d   1       2.442  10.790  -1.761  0.00  0.00     0.049 H 
BRANCH   9  12
ATOM     12  C5  AKG d   1       3.288   9.095  -0.704  0.00  0.00     0.172 C 
ATOM     13  O3  AKG d   1       3.460   8.714   0.431  0.00  0.00    -0.648 OA
ATOM     14  O4  AKG d   1       2.979   8.156  -1.484  0.00  0.00    -0.648 OA
ENDBRANCH   9  12
ENDBRANCH   1   9
TORSDOF 4
