REMARK  10 active torsions:
REMARK  status: ('A' for Active; 'I' for Inactive)
REMARK    1  A    between atoms: O3B_8  and  PG_1 
REMARK    2  A    between atoms: PB_5  and  O3B_8 
REMARK    3  A    between atoms: O3A_12  and  PB_5 
REMARK    4  A    between atoms: PA_9  and  O3A_12 
REMARK    5  A    between atoms: PA_9  and  O5'_13 
REMARK    6  A    between atoms: O5'_13  and  C5'_14 
REMARK    7  A    between atoms: C5'_14  and  C4'_15 
REMARK    8  A    between atoms: C3'_17  and  O3'_18 
REMARK    9  A    between atoms: C2'_19  and  O2'_20 
REMARK   10  A    between atoms: C1'_21  and  N9_22 
ROOT
ATOM      1  C4' ATP d   1     -21.568 -31.399   2.835  0.00  0.00     0.089 C 
ATOM      2  O4' ATP d   1     -20.637 -32.154   3.636  0.00  0.00    -0.353 OA
ATOM      3  C3' ATP d   1     -20.788 -30.256   2.219  0.00  0.00     0.091 C 
ATOM      4  C2' ATP d   1     -19.403 -30.284   2.821  0.00  0.00     0.105 C 
ATOM      5  C1' ATP d   1     -19.471 -31.356   3.913  0.00  0.00     0.139 C 
ATOM      6  H   ATP d   1     -22.354 -30.998   3.492  0.00  0.00     0.090 H 
ATOM      7  H   ATP d   1     -20.734 -30.363   1.126  0.00  0.00     0.091 H 
ATOM      8  H   ATP d   1     -18.674 -30.590   2.056  0.00  0.00     0.093 H 
ATOM      9  H   ATP d   1     -19.609 -30.877   4.894  0.00  0.00     0.122 H 
ENDROOT
BRANCH   1  10
ATOM     10  C5' ATP d   1     -22.237 -32.209   1.731  0.00  0.00     0.058 C 
ATOM     11  H   ATP d   1     -21.468 -32.553   1.024  0.00  0.00     0.079 H 
ATOM     12  H   ATP d   1     -22.738 -33.079   2.180  0.00  0.00     0.079 H 
BRANCH  10  13
ATOM     13  O5' ATP d   1     -23.209 -31.425   1.020  0.00  0.00    -0.287 OA
BRANCH  13  14
ATOM     14  PA  ATP d   1     -24.802 -31.725   1.159  0.00  0.00     0.417 P 
ATOM     15  O1A ATP d   1     -25.605 -30.839   0.223  0.00  0.00    -0.624 OA
ATOM     16  O2A ATP d   1     -25.182 -31.603   2.626  0.00  0.00    -0.624 OA
BRANCH  14  17
ATOM     17  O3A ATP d   1     -24.940 -33.334   0.789  0.00  0.00    -0.180 OA
BRANCH  17  18
ATOM     18  PB  ATP d   1     -24.600 -34.116  -0.606  0.00  0.00     0.428 P 
ATOM     19  O1B ATP d   1     -23.175 -33.739  -0.956  0.00  0.00    -0.624 OA
ATOM     20  O2B ATP d   1     -25.590 -33.869  -1.725  0.00  0.00    -0.624 OA
BRANCH  18  21
ATOM     21  O3B ATP d   1     -24.893 -35.631  -0.186  0.00  0.00    -0.173 OA
BRANCH  21  22
ATOM     22  PG  ATP d   1     -23.853 -36.532   0.617  0.00  0.00     0.431 P 
ATOM     23  O1G ATP d   1     -23.598 -35.756   1.880  0.00  0.00    -0.616 OA
ATOM     24  O2G ATP d   1     -22.671 -36.630  -0.300  0.00  0.00    -0.616 OA
ATOM     25  O3G ATP d   1     -24.579 -37.846   0.728  0.00  0.00    -0.616 OA
ENDBRANCH  21  22
ENDBRANCH  18  21
ENDBRANCH  17  18
ENDBRANCH  14  17
ENDBRANCH  13  14
ENDBRANCH  10  13
ENDBRANCH   1  10
BRANCH   3  26
ATOM     26  O3' ATP d   1     -21.436 -29.049   2.562  0.00  0.00    -0.390 OA
ATOM     27  H   ATP d   1     -20.962 -28.318   2.184  0.00  0.00     0.210 HD
ENDBRANCH   3  26
BRANCH   5  28
ATOM     28  N9  ATP d   1     -18.157 -32.096   3.943  0.00  0.00    -0.294 N 
ATOM     29  C8  ATP d   1     -16.987 -31.421   3.975  0.00  0.00     0.071 A 
ATOM     30  N7  ATP d   1     -15.921 -32.257   4.001  0.00  0.00    -0.236 NA
ATOM     31  H   ATP d   1     -16.910 -30.335   3.979  0.00  0.00     0.144 H 
ATOM     32  C5  ATP d   1     -16.371 -33.515   3.976  0.00  0.00     0.149 A 
ATOM     33  C6  ATP d   1     -15.713 -34.851   3.990  0.00  0.00     0.155 A 
ATOM     34  C4  ATP d   1     -17.855 -33.425   3.941  0.00  0.00     0.167 A 
ATOM     35  N6  ATP d   1     -14.363 -35.002   4.041  0.00  0.00    -0.382 N 
ATOM     36  N1  ATP d   1     -16.544 -35.914   3.968  0.00  0.00    -0.222 NA
ATOM     37  H   ATP d   1     -13.950 -35.946   4.049  0.00  0.00     0.157 HD
ATOM     38  H   ATP d   1     -13.753 -34.173   4.072  0.00  0.00     0.157 HD
ATOM     39  C2  ATP d   1     -17.884 -35.791   3.931  0.00  0.00     0.091 A 
ATOM     40  N3  ATP d   1     -18.536 -34.605   3.914  0.00  0.00    -0.222 NA
ATOM     41  H   ATP d   1     -18.478 -36.698   3.914  0.00  0.00     0.146 H 
ENDBRANCH   5  28
BRANCH   4  42
ATOM     42  O2' ATP d   1     -19.012 -28.991   3.315  0.00  0.00    -0.388 OA
ATOM     43  H   ATP d   1     -19.624 -28.711   3.985  0.00  0.00     0.210 HD
ENDBRANCH   4  42
TORSDOF 10
