REMARK WARNING: 32 MAX_TORS EXCEEDED!!!
REMARK  41 active torsions:
REMARK  status: ('A' for Active; 'I' for Inactive)
REMARK    1  A    between atoms: C_1  and  C1_3 
REMARK       I    between atoms: N_9  and  C_1 
REMARK    2  A    between atoms: CA_10  and  N_9 
REMARK    3  A    between atoms: C_11  and  CA_10 
REMARK       I    between atoms: N_13  and  C_11 
REMARK    4  A    between atoms: CA_14  and  N_13 
REMARK    5  A    between atoms: C_15  and  CA_14 
REMARK    6  A    between atoms: CA_14  and  CB_17 
REMARK       I    between atoms: N_20  and  C_15 
REMARK    7  A    between atoms: CB_17  and  CG1_18 
REMARK    8  A    between atoms: CB_17  and  CG2_19 
REMARK    9  A    between atoms: CA_21  and  N_20 
REMARK   10  A    between atoms: C_22  and  CA_21 
REMARK   11  A    between atoms: CA_21  and  CB_24 
REMARK       I    between atoms: N_29  and  C_22 
REMARK   12  A    between atoms: CB_24  and  CG_25 
REMARK   13  A    between atoms: CG_25  and  CD1_26 
REMARK   14  A    between atoms: CG_25  and  CD2_27 
REMARK   15  A    between atoms: CA_31  and  C_28 
REMARK       I    between atoms: C_28  and  N_44 
REMARK   16  A    between atoms: CA_31  and  N_29 
REMARK   17  A    between atoms: CB_32  and  CA_31 
REMARK   18  A    between atoms: CG_35  and  CB_32 
REMARK   19  A    between atoms: CE_34  and  CD_33 
REMARK   20  A    between atoms: CD_33  and  CG_35 
REMARK   21  A    between atoms: NZ_41  and  CE_34 
REMARK   22  A    between atoms: CK_36  and  CL_37 
REMARK   23  A    between atoms: CX_39  and  CK_36 
REMARK   24  A    between atoms: CL_37  and  CP_38 
REMARK       I    between atoms: CX_39  and  NZ_41 
REMARK   25  A    between atoms: N_44  and  CA_45 
REMARK   26  A    between atoms: CA_45  and  C_46 
REMARK   27  A    between atoms: CA_45  and  CB_48 
REMARK       I    between atoms: C_46  and  N_53 
REMARK   28  A    between atoms: CB_48  and  CG_49 
REMARK   29  A    between atoms: CG_49  and  CD_50 
REMARK   30  A    between atoms: N_53  and  CA_54 
REMARK   31  A    between atoms: CA_54  and  C_55 
REMARK   32  A    between atoms: CA_54  and  CB_57 
REMARK       I    between atoms: C_55  and  N_65 
REMARK   33  A    between atoms: CB_57  and  CG_58 
REMARK   34  A    between atoms: CZ_63  and  OH_64 
REMARK   35  A    between atoms: N_65  and  CA_66 
REMARK   36  A    between atoms: CA_66  and  C_67 
REMARK       I    between atoms: C_67  and  N_69 
REMARK   37  A    between atoms: N_69  and  CA_70 
REMARK   38  A    between atoms: CA_70  and  C_71 
REMARK   39  A    between atoms: CA_70  and  CB_73 
REMARK   40  A    between atoms: CB_73  and  CG1_74 
REMARK   41  A    between atoms: CB_73  and  CG2_75 
ROOT
ATOM      1  CA  SLL d   1      31.759  22.621   1.779  0.00  0.00     0.089 C 
ATOM      2  H   SLL d   1      30.664  22.530   1.825  0.00  0.00     0.087 H 
ENDROOT
BRANCH   1   3
ATOM      3  C   SLL d   1      32.344  21.271   1.378  0.00  0.00     0.241 C 
ATOM      4  O   SLL d   1      33.549  21.102   1.336  0.00  0.00    -0.271 OA
ATOM      5  N   GLU d   1      31.463  20.305   1.164  0.00  0.00    -0.346 N 
ATOM      6  H   GLU d   1      30.502  20.498   1.362  0.00  0.00     0.163 HD
BRANCH   5   7
ATOM      7  CA  GLU d   1      31.803  18.967   0.655  0.00  0.00     0.090 C 
ATOM      8  H   GLU d   1      30.843  18.441   0.551  0.00  0.00     0.087 H 
BRANCH   7   9
ATOM      9  C   GLU d   1      32.636  18.085   1.608  0.00  0.00     0.241 C 
ATOM     10  O   GLU d   1      33.223  17.055   1.208  0.00  0.00    -0.271 OA
ATOM     11  N   TYR d   1      32.603  18.474   2.884  0.00  0.00    -0.346 N 
ATOM     12  H   TYR d   1      31.995  19.227   3.135  0.00  0.00     0.163 HD
BRANCH  11  13
ATOM     13  CA  TYR d   1      33.404  17.860   3.926  0.00  0.00     0.093 C 
ATOM     14  H   TYR d   1      33.207  18.409   4.859  0.00  0.00     0.088 H 
BRANCH  13  15
ATOM     15  C   TYR d   1      34.934  17.905   3.676  0.00  0.00     0.241 C 
ATOM     16  O   TYR d   1      35.660  17.103   4.259  0.00  0.00    -0.271 OA
ATOM     17  N   GLY d   1      35.419  18.833   2.839  0.00  0.00    -0.351 N 
ATOM     18  H   GLY d   1      34.785  19.505   2.457  0.00  0.00     0.163 HD
BRANCH  17  19
ATOM     19  CA  GLY d   1      36.835  18.914   2.454  0.00  0.00     0.069 C 
ATOM     20  H   GLY d   1      37.433  18.750   3.362  0.00  0.00     0.078 H 
ATOM     21  H   GLY d   1      37.016  19.931   2.075  0.00  0.00     0.078 H 
BRANCH  19  22
ATOM     22  C   GLY d   1      37.336  17.935   1.393  0.00  0.00     0.236 C 
ATOM     23  O   GLY d   1      38.498  18.010   0.999  0.00  0.00    -0.272 OA
ATOM     24  N   VAL d   1      36.485  17.023   0.919  0.00  0.00    -0.345 N 
ATOM     25  H   VAL d   1      35.542  17.015   1.253  0.00  0.00     0.163 HD
BRANCH  24  26
ATOM     26  CA  VAL d   1      36.903  16.023  -0.089  0.00  0.00     0.099 C 
ATOM     27  H   VAL d   1      37.818  15.538   0.282  0.00  0.00     0.090 H 
BRANCH  26  28
ATOM     28  C   VAL d   1      37.220  16.678  -1.437  0.00  0.00     0.197 C 
ATOM     29  O   VAL d   1      36.319  16.992  -2.221  0.00  0.00    -0.646 OA
ATOM     30  O2  VAL d   1      38.420  16.900  -1.751  0.00  0.00    -0.646 OA
ENDBRANCH  26  28
BRANCH  26  31
ATOM     31  CB  VAL d   1      35.826  14.925  -0.301  0.00  0.00    -0.032 C 
ATOM     32  H   VAL d   1      34.880  15.422  -0.561  0.00  0.00     0.042 H 
BRANCH  31  33
ATOM     33  CG1 VAL d   1      36.199  13.985  -1.462  0.00  0.00    -0.071 C 
ATOM     34  H   VAL d   1      35.416  13.222  -1.583  0.00  0.00     0.028 H 
ATOM     35  H   VAL d   1      37.158  13.494  -1.242  0.00  0.00     0.028 H 
ATOM     36  H   VAL d   1      36.290  14.567  -2.391  0.00  0.00     0.028 H 
ENDBRANCH  31  33
BRANCH  31  37
ATOM     37  CG2 VAL d   1      35.612  14.146   0.991  0.00  0.00    -0.071 C 
ATOM     38  H   VAL d   1      35.347  14.843   1.800  0.00  0.00     0.028 H 
ATOM     39  H   VAL d   1      36.537  13.612   1.255  0.00  0.00     0.028 H 
ATOM     40  H   VAL d   1      34.797  13.421   0.851  0.00  0.00     0.028 H 
ENDBRANCH  31  37
ENDBRANCH  26  31
ENDBRANCH  24  26
ENDBRANCH  19  22
ENDBRANCH  17  19
ENDBRANCH  13  15
BRANCH  13  41
ATOM     41  CB  TYR d   1      32.962  16.411   4.115  0.00  0.00    -0.014 C 
ATOM     42  H   TYR d   1      33.450  16.028   5.024  0.00  0.00     0.043 H 
ATOM     43  H   TYR d   1      33.310  15.838   3.243  0.00  0.00     0.043 H 
BRANCH  41  44
ATOM     44  CG  TYR d   1      31.452  16.173   4.259  0.00  0.00    -0.056 A 
ATOM     45  CD1 TYR d   1      30.667  16.914   5.160  0.00  0.00    -0.074 A 
ATOM     46  CE1 TYR d   1      29.305  16.662   5.290  0.00  0.00    -0.051 A 
ATOM     47  H   TYR d   1      31.128  17.690   5.760  0.00  0.00     0.084 H 
ATOM     48  CZ  TYR d   1      28.724  15.645   4.538  0.00  0.00     0.065 A 
ATOM     49  H   TYR d   1      28.702  17.252   5.971  0.00  0.00     0.087 H 
ATOM     50  CE2 TYR d   1      29.474  14.892   3.669  0.00  0.00    -0.051 A 
ATOM     51  CD2 TYR d   1      30.824  15.152   3.532  0.00  0.00    -0.074 A 
ATOM     52  H   TYR d   1      29.010  14.099   3.094  0.00  0.00     0.087 H 
ATOM     53  H   TYR d   1      31.412  14.552   2.846  0.00  0.00     0.084 H 
BRANCH  48  54
ATOM     54  OH  TYR d   1      27.400  15.350   4.640  0.00  0.00    -0.361 OA
ATOM     55  H   TYR d   1      26.994  15.936   5.268  0.00  0.00     0.217 HD
ENDBRANCH  48  54
ENDBRANCH  41  44
ENDBRANCH  13  41
ENDBRANCH  11  13
ENDBRANCH   7   9
BRANCH   7  56
ATOM     56  CB  GLU d   1      32.383  19.060  -0.761  0.00  0.00    -0.029 C 
ATOM     57  H   GLU d   1      33.113  18.251  -0.910  0.00  0.00     0.037 H 
ATOM     58  H   GLU d   1      32.881  20.032  -0.888  0.00  0.00     0.037 H 
BRANCH  56  59
ATOM     59  CG  GLU d   1      31.264  18.927  -1.786  0.00  0.00     0.018 C 
ATOM     60  H   GLU d   1      30.549  19.748  -1.627  0.00  0.00     0.049 H 
ATOM     61  H   GLU d   1      30.758  17.964  -1.623  0.00  0.00     0.049 H 
BRANCH  59  62
ATOM     62  CD  GLU d   1      31.734  18.979  -3.214  0.00  0.00     0.172 C 
ATOM     63  OE1 GLU d   1      32.714  18.277  -3.554  0.00  0.00    -0.648 OA
ATOM     64  OE2 GLU d   1      31.116  19.736  -3.999  0.00  0.00    -0.648 OA
ENDBRANCH  59  62
ENDBRANCH  56  59
ENDBRANCH   7  56
ENDBRANCH   5   7
ENDBRANCH   1   3
BRANCH   1  65
ATOM     65  N   SLL d   1      32.295  22.932   3.105  0.00  0.00    -0.346 N 
ATOM     66  C   LEU d   1      32.518  22.019   4.048  0.00  0.00     0.241 C 
ATOM     67  O   LEU d   1      32.196  20.832   3.952  0.00  0.00    -0.271 OA
ATOM     68  H   SLL d   1      32.506  23.887   3.315  0.00  0.00     0.163 HD
BRANCH  66  69
ATOM     69  CA  LEU d   1      33.173  22.544   5.308  0.00  0.00     0.089 C 
ATOM     70  H   LEU d   1      33.389  23.616   5.195  0.00  0.00     0.087 H 
BRANCH  69  71
ATOM     71  N   LEU d   1      32.247  22.344   6.390  0.00  0.00    -0.346 N 
ATOM     72  C   VAL d   1      31.459  23.318   6.803  0.00  0.00     0.241 C 
ATOM     73  O   VAL d   1      31.402  24.399   6.254  0.00  0.00    -0.271 OA
ATOM     74  H   LEU d   1      32.200  21.451   6.837  0.00  0.00     0.163 HD
BRANCH  72  75
ATOM     75  CA  VAL d   1      30.596  23.005   8.003  0.00  0.00     0.092 C 
ATOM     76  H   VAL d   1      31.041  22.164   8.555  0.00  0.00     0.088 H 
BRANCH  75  77
ATOM     77  N   VAL d   1      30.537  24.155   8.887  0.00  0.00    -0.346 N 
ATOM     78  C   GLY d   1      31.558  24.548   9.643  0.00  0.00     0.236 C 
ATOM     79  O   GLY d   1      32.725  24.159   9.495  0.00  0.00    -0.272 OA
ATOM     80  H   VAL d   1      29.686  24.678   8.930  0.00  0.00     0.163 HD
BRANCH  78  81
ATOM     81  CA  GLY d   1      31.160  25.552  10.699  0.00  0.00     0.069 C 
ATOM     82  H   GLY d   1      31.265  26.572  10.301  0.00  0.00     0.078 H 
ATOM     83  H   GLY d   1      30.116  25.382  10.999  0.00  0.00     0.078 H 
BRANCH  81  84
ATOM     84  N   GLY d   1      32.057  25.376  11.876  0.00  0.00    -0.348 N 
ATOM     85  C   BEZ d   1      32.903  26.306  12.404  0.00  0.00     0.252 C 
ATOM     86  O1  BEZ d   1      33.112  27.432  11.951  0.00  0.00    -0.268 OA
ATOM     87  H   GLY d   1      32.036  24.483  12.325  0.00  0.00     0.163 HD
BRANCH  85  88
ATOM     88  C1  BEZ d   1      33.586  25.908  13.552  0.00  0.00     0.032 A 
ATOM     89  C2  BEZ d   1      34.562  24.914  13.486  0.00  0.00    -0.068 A 
ATOM     90  C3  BEZ d   1      35.254  24.521  14.619  0.00  0.00    -0.082 A 
ATOM     91  H   BEZ d   1      34.782  24.443  12.535  0.00  0.00     0.085 H 
ATOM     92  C4  BEZ d   1      34.929  25.143  15.816  0.00  0.00    -0.083 A 
ATOM     93  H   BEZ d   1      36.021  23.756  14.573  0.00  0.00     0.083 H 
ATOM     94  C5  BEZ d   1      33.951  26.136  15.892  0.00  0.00    -0.082 A 
ATOM     95  H   BEZ d   1      35.450  24.849  16.720  0.00  0.00     0.083 H 
ATOM     96  C6  BEZ d   1      33.277  26.526  14.753  0.00  0.00    -0.068 A 
ATOM     97  H   BEZ d   1      33.721  26.600  16.844  0.00  0.00     0.083 H 
ATOM     98  H   BEZ d   1      32.520  27.301  14.797  0.00  0.00     0.085 H 
ENDBRANCH  85  88
ENDBRANCH  81  84
ENDBRANCH  78  81
ENDBRANCH  75  77
BRANCH  75  99
ATOM     99  CB  VAL d   1      29.189  22.587   7.513  0.00  0.00    -0.033 C 
ATOM    100  H   VAL d   1      28.771  23.405   6.907  0.00  0.00     0.042 H 
BRANCH  99 101
ATOM    101  CG1 VAL d   1      29.270  21.332   6.644  0.00  0.00    -0.071 C 
ATOM    102  H   VAL d   1      28.261  21.053   6.307  0.00  0.00     0.028 H 
ATOM    103  H   VAL d   1      29.702  20.507   7.230  0.00  0.00     0.028 H 
ATOM    104  H   VAL d   1      29.906  21.532   5.769  0.00  0.00     0.028 H 
ENDBRANCH  99 101
BRANCH  99 105
ATOM    105  CG2 VAL d   1      28.275  22.347   8.701  0.00  0.00    -0.071 C 
ATOM    106  H   VAL d   1      28.227  23.258   9.316  0.00  0.00     0.028 H 
ATOM    107  H   VAL d   1      28.669  21.517   9.305  0.00  0.00     0.028 H 
ATOM    108  H   VAL d   1      27.267  22.093   8.342  0.00  0.00     0.028 H 
ENDBRANCH  99 105
ENDBRANCH  75  99
ENDBRANCH  72  75
ENDBRANCH  69  71
BRANCH  69 109
ATOM    109  CB  LEU d   1      34.474  21.796   5.590  0.00  0.00    -0.035 C 
ATOM    110  H   LEU d   1      34.384  20.784   5.169  0.00  0.00     0.037 H 
ATOM    111  H   LEU d   1      34.600  21.730   6.681  0.00  0.00     0.037 H 
BRANCH 109 112
ATOM    112  CG  LEU d   1      35.729  22.441   5.007  0.00  0.00    -0.059 C 
ATOM    113  H   LEU d   1      35.415  23.180   4.255  0.00  0.00     0.038 H 
BRANCH 112 114
ATOM    114  CD1 LEU d   1      36.518  23.177   6.077  0.00  0.00    -0.073 C 
ATOM    115  H   LEU d   1      37.414  23.629   5.626  0.00  0.00     0.028 H 
ATOM    116  H   LEU d   1      36.821  22.468   6.862  0.00  0.00     0.028 H 
ATOM    117  H   LEU d   1      35.891  23.966   6.517  0.00  0.00     0.028 H 
ENDBRANCH 112 114
BRANCH 112 118
ATOM    118  CD2 LEU d   1      36.578  21.387   4.303  0.00  0.00    -0.073 C 
ATOM    119  H   LEU d   1      35.972  20.879   3.538  0.00  0.00     0.028 H 
ATOM    120  H   LEU d   1      36.933  20.650   5.039  0.00  0.00     0.028 H 
ATOM    121  H   LEU d   1      37.441  21.872   3.824  0.00  0.00     0.028 H 
ENDBRANCH 112 118
ENDBRANCH 109 112
ENDBRANCH  69 109
ENDBRANCH  66  69
ENDBRANCH   1  65
BRANCH   1 122
ATOM    122  CB  SLL d   1      32.115  23.803   0.828  0.00  0.00    -0.038 C 
ATOM    123  H   SLL d   1      33.062  24.243   1.175  0.00  0.00     0.036 H 
ATOM    124  H   SLL d   1      31.313  24.552   0.903  0.00  0.00     0.036 H 
BRANCH 122 125
ATOM    125  CG  SLL d   1      32.278  23.437  -0.640  0.00  0.00    -0.061 C 
ATOM    126  H   SLL d   1      32.398  22.346  -0.718  0.00  0.00     0.033 H 
ATOM    127  H   SLL d   1      33.180  23.934  -1.027  0.00  0.00     0.033 H 
BRANCH 125 128
ATOM    128  CD  SLL d   1      31.081  23.859  -1.500  0.00  0.00    -0.050 C 
ATOM    129  H   SLL d   1      30.540  22.993  -1.909  0.00  0.00     0.035 H 
ATOM    130  H   SLL d   1      30.380  24.501  -0.946  0.00  0.00     0.035 H 
BRANCH 128 131
ATOM    131  CE  SLL d   1      31.833  24.631  -2.583  0.00  0.00    -0.005 C 
ATOM    132  H   SLL d   1      32.557  23.947  -3.050  0.00  0.00     0.064 H 
ATOM    133  H   SLL d   1      32.371  25.460  -2.100  0.00  0.00     0.064 H 
BRANCH 131 134
ATOM    134  NZ  SLL d   1      30.997  25.185  -3.630  0.00  0.00    -0.361 N 
ATOM    135  CX  SLL d   1      30.720  24.606  -4.819  0.00  0.00     0.218 C 
ATOM    136  OX  SLL d   1      31.032  23.456  -5.132  0.00  0.00    -0.274 OA
ATOM    137  H   SLL d   1      30.587  26.080  -3.456  0.00  0.00     0.162 HD
BRANCH 135 138
ATOM    138  CK  SLL d   1      29.992  25.538  -5.819  0.00  0.00     0.018 C 
ATOM    139  H   SLL d   1      29.570  24.975  -6.665  0.00  0.00     0.047 H 
ATOM    140  H   SLL d   1      29.194  26.115  -5.328  0.00  0.00     0.047 H 
BRANCH 138 141
ATOM    141  CL  SLL d   1      31.172  26.457  -6.271  0.00  0.00     0.024 C 
ATOM    142  H   SLL d   1      32.119  25.958  -6.019  0.00  0.00     0.049 H 
ATOM    143  H   SLL d   1      31.102  27.409  -5.724  0.00  0.00     0.049 H 
BRANCH 141 144
ATOM    144  CP  SLL d   1      31.167  26.757  -7.761  0.00  0.00     0.172 C 
ATOM    145  OP1 SLL d   1      31.643  27.861  -8.076  0.00  0.00    -0.648 OA
ATOM    146  OP2 SLL d   1      30.718  25.930  -8.583  0.00  0.00    -0.648 OA
ENDBRANCH 141 144
ENDBRANCH 138 141
ENDBRANCH 135 138
ENDBRANCH 131 134
ENDBRANCH 128 131
ENDBRANCH 125 128
ENDBRANCH 122 125
ENDBRANCH   1 122
TORSDOF 41
