REMARK WARNING: 32 MAX_TORS EXCEEDED!!!
REMARK  38 active torsions:
REMARK  status: ('A' for Active; 'I' for Inactive)
REMARK    1  A    between atoms: C_1  and  C1_3 
REMARK       I    between atoms: C_1  and  N_9 
REMARK    2  A    between atoms: N_9  and  CA_10 
REMARK    3  A    between atoms: CA_10  and  C_11 
REMARK       I    between atoms: C_11  and  N_13 
REMARK    4  A    between atoms: N_13  and  CA_14 
REMARK    5  A    between atoms: CA_14  and  C_15 
REMARK    6  A    between atoms: CA_14  and  CB_17 
REMARK       I    between atoms: C_15  and  N_20 
REMARK    7  A    between atoms: CB_17  and  CG1_18 
REMARK    8  A    between atoms: CB_17  and  CG2_19 
REMARK    9  A    between atoms: N_20  and  CA_21 
REMARK   10  A    between atoms: CA_21  and  C_22 
REMARK   11  A    between atoms: CA_21  and  CB_24 
REMARK       I    between atoms: C_22  and  N_28 
REMARK   12  A    between atoms: CB_24  and  CG_25 
REMARK   13  A    between atoms: CG_25  and  CD1_26 
REMARK   14  A    between atoms: CG_25  and  CD2_27 
REMARK   15  A    between atoms: N_28  and  CA_29 
REMARK   16  A    between atoms: CA_29  and  C_30 
REMARK   17  A    between atoms: CA_29  and  CB_32 
REMARK       I    between atoms: C_30  and  N_37 
REMARK   18  A    between atoms: CB_32  and  CG_33 
REMARK   19  A    between atoms: CG_33  and  CD_34 
REMARK   20  A    between atoms: CD_34  and  CE_35 
REMARK   21  A    between atoms: CE_35  and  NZ_36 
REMARK   22  A    between atoms: N_37  and  CA_38 
REMARK   23  A    between atoms: CA_38  and  C_39 
REMARK   24  A    between atoms: CA_38  and  CB_41 
REMARK       I    between atoms: C_39  and  N_46 
REMARK   25  A    between atoms: CB_41  and  CG_42 
REMARK   26  A    between atoms: CG_42  and  CD_43 
REMARK   27  A    between atoms: N_46  and  CA_47 
REMARK   28  A    between atoms: CA_47  and  C_48 
REMARK   29  A    between atoms: CA_47  and  CB_50 
REMARK       I    between atoms: C_48  and  N_58 
REMARK   30  A    between atoms: CB_50  and  CG_51 
REMARK   31  A    between atoms: CZ_56  and  OH_57 
REMARK   32  A    between atoms: N_58  and  CA_59 
REMARK   33  A    between atoms: CA_59  and  C_60 
REMARK       I    between atoms: C_60  and  N_62 
REMARK   34  A    between atoms: N_62  and  CA_63 
REMARK   35  A    between atoms: CA_63  and  C_64 
REMARK   36  A    between atoms: CA_63  and  CB_66 
REMARK   37  A    between atoms: CB_66  and  CG1_67 
REMARK   38  A    between atoms: CB_66  and  CG2_68 
ROOT
ATOM      1  CA  LYS d   1      32.266  22.669   1.969  0.00  0.00     0.089 C 
ATOM      2  H   LYS d   1      31.167  22.698   2.016  0.00  0.00     0.087 H 
ENDROOT
BRANCH   1   3
ATOM      3  N   LYS d   1      32.842  22.988   3.268  0.00  0.00    -0.346 N 
ATOM      4  C   LEU d   1      32.912  22.113   4.254  0.00  0.00     0.241 C 
ATOM      5  O   LEU d   1      32.364  21.017   4.227  0.00  0.00    -0.271 OA
ATOM      6  H   LYS d   1      33.200  23.909   3.420  0.00  0.00     0.163 HD
BRANCH   4   7
ATOM      7  CA  LEU d   1      33.713  22.566   5.450  0.00  0.00     0.089 C 
ATOM      8  H   LEU d   1      33.980  23.626   5.324  0.00  0.00     0.087 H 
BRANCH   7   9
ATOM      9  N   LEU d   1      32.927  22.428   6.657  0.00  0.00    -0.346 N 
ATOM     10  C   VAL d   1      31.818  23.122   6.844  0.00  0.00     0.241 C 
ATOM     11  O   VAL d   1      31.489  24.028   6.111  0.00  0.00    -0.271 OA
ATOM     12  H   LEU d   1      33.230  21.792   7.367  0.00  0.00     0.163 HD
BRANCH  10  13
ATOM     13  CA  VAL d   1      30.971  22.750   8.062  0.00  0.00     0.092 C 
ATOM     14  H   VAL d   1      31.454  21.908   8.579  0.00  0.00     0.088 H 
BRANCH  13  15
ATOM     15  N   VAL d   1      30.909  23.862   8.991  0.00  0.00    -0.346 N 
ATOM     16  C   GLY d   1      31.977  24.195   9.705  0.00  0.00     0.236 C 
ATOM     17  O   GLY d   1      33.091  23.655   9.569  0.00  0.00    -0.272 OA
ATOM     18  H   VAL d   1      30.059  24.379   9.094  0.00  0.00     0.163 HD
BRANCH  16  19
ATOM     19  CA  GLY d   1      31.739  25.275  10.721  0.00  0.00     0.069 C 
ATOM     20  H   GLY d   1      31.876  26.268  10.267  0.00  0.00     0.078 H 
ATOM     21  H   GLY d   1      30.723  25.198  11.135  0.00  0.00     0.078 H 
BRANCH  19  22
ATOM     22  N   GLY d   1      32.757  25.043  11.788  0.00  0.00    -0.348 N 
ATOM     23  C   BEZ d   1      32.980  25.977  12.747  0.00  0.00     0.252 C 
ATOM     24  O1  BEZ d   1      32.387  27.054  12.767  0.00  0.00    -0.268 OA
ATOM     25  H   GLY d   1      33.280  24.191  11.796  0.00  0.00     0.163 HD
BRANCH  23  26
ATOM     26  C1  BEZ d   1      33.894  25.684  13.769  0.00  0.00     0.032 A 
ATOM     27  C2  BEZ d   1      34.948  24.772  13.592  0.00  0.00    -0.068 A 
ATOM     28  C3  BEZ d   1      35.821  24.518  14.644  0.00  0.00    -0.082 A 
ATOM     29  H   BEZ d   1      35.080  24.269  12.641  0.00  0.00     0.085 H 
ATOM     30  C4  BEZ d   1      35.624  25.179  15.864  0.00  0.00    -0.083 A 
ATOM     31  H   BEZ d   1      36.641  23.820  14.522  0.00  0.00     0.083 H 
ATOM     32  C5  BEZ d   1      34.573  26.082  16.049  0.00  0.00    -0.082 A 
ATOM     33  H   BEZ d   1      36.304  24.985  16.685  0.00  0.00     0.083 H 
ATOM     34  C6  BEZ d   1      33.707  26.327  14.997  0.00  0.00    -0.068 A 
ATOM     35  H   BEZ d   1      34.438  26.582  17.001  0.00  0.00     0.083 H 
ATOM     36  H   BEZ d   1      32.882  27.019  15.125  0.00  0.00     0.085 H 
ENDBRANCH  23  26
ENDBRANCH  19  22
ENDBRANCH  16  19
ENDBRANCH  13  15
BRANCH  13  37
ATOM     37  CB  VAL d   1      29.576  22.283   7.591  0.00  0.00    -0.033 C 
ATOM     38  H   VAL d   1      29.143  23.070   6.956  0.00  0.00     0.042 H 
BRANCH  37  39
ATOM     39  CG1 VAL d   1      29.727  21.013   6.752  0.00  0.00    -0.071 C 
ATOM     40  H   VAL d   1      28.736  20.677   6.414  0.00  0.00     0.028 H 
ATOM     41  H   VAL d   1      30.194  20.225   7.361  0.00  0.00     0.028 H 
ATOM     42  H   VAL d   1      30.360  21.224   5.878  0.00  0.00     0.028 H 
ENDBRANCH  37  39
BRANCH  37  43
ATOM     43  CG2 VAL d   1      28.634  22.058   8.772  0.00  0.00    -0.071 C 
ATOM     44  H   VAL d   1      28.547  22.988   9.354  0.00  0.00     0.028 H 
ATOM     45  H   VAL d   1      29.035  21.260   9.414  0.00  0.00     0.028 H 
ATOM     46  H   VAL d   1      27.642  21.765   8.399  0.00  0.00     0.028 H 
ENDBRANCH  37  43
ENDBRANCH  13  37
ENDBRANCH  10  13
ENDBRANCH   7   9
BRANCH   7  47
ATOM     47  CB  LEU d   1      34.989  21.744   5.527  0.00  0.00    -0.035 C 
ATOM     48  H   LEU d   1      35.069  21.170   4.592  0.00  0.00     0.037 H 
ATOM     49  H   LEU d   1      34.885  21.051   6.375  0.00  0.00     0.037 H 
BRANCH  47  50
ATOM     50  CG  LEU d   1      36.303  22.502   5.713  0.00  0.00    -0.059 C 
ATOM     51  H   LEU d   1      36.616  22.879   4.728  0.00  0.00     0.038 H 
BRANCH  50  52
ATOM     52  CD1 LEU d   1      36.203  23.700   6.647  0.00  0.00    -0.073 C 
ATOM     53  H   LEU d   1      37.186  24.187   6.726  0.00  0.00     0.028 H 
ATOM     54  H   LEU d   1      35.880  23.363   7.643  0.00  0.00     0.028 H 
ATOM     55  H   LEU d   1      35.470  24.416   6.247  0.00  0.00     0.028 H 
ENDBRANCH  50  52
BRANCH  50  56
ATOM     56  CD2 LEU d   1      37.354  21.519   6.210  0.00  0.00    -0.073 C 
ATOM     57  H   LEU d   1      37.410  20.663   5.522  0.00  0.00     0.028 H 
ATOM     58  H   LEU d   1      37.079  21.165   7.214  0.00  0.00     0.028 H 
ATOM     59  H   LEU d   1      38.333  22.019   6.253  0.00  0.00     0.028 H 
ENDBRANCH  50  56
ENDBRANCH  47  50
ENDBRANCH   7  47
ENDBRANCH   4   7
ENDBRANCH   1   3
BRANCH   1  60
ATOM     60  C   LYS d   1      32.727  21.271   1.538  0.00  0.00     0.241 C 
ATOM     61  O   LYS d   1      33.913  21.023   1.360  0.00  0.00    -0.271 OA
ATOM     62  N   GLU d   1      31.781  20.369   1.361  0.00  0.00    -0.346 N 
ATOM     63  H   GLU d   1      30.832  20.613   1.563  0.00  0.00     0.163 HD
BRANCH  62  64
ATOM     64  CA  GLU d   1      32.083  19.018   0.875  0.00  0.00     0.090 C 
ATOM     65  H   GLU d   1      31.131  18.470   0.810  0.00  0.00     0.087 H 
BRANCH  64  66
ATOM     66  C   GLU d   1      32.996  18.240   1.822  0.00  0.00     0.241 C 
ATOM     67  O   GLU d   1      33.814  17.412   1.397  0.00  0.00    -0.271 OA
ATOM     68  N   TYR d   1      32.835  18.532   3.112  0.00  0.00    -0.346 N 
ATOM     69  H   TYR d   1      32.132  19.197   3.364  0.00  0.00     0.163 HD
BRANCH  68  70
ATOM     70  CA  TYR d   1      33.627  17.935   4.167  0.00  0.00     0.093 C 
ATOM     71  H   TYR d   1      33.333  18.415   5.112  0.00  0.00     0.088 H 
BRANCH  70  72
ATOM     72  C   TYR d   1      35.160  18.149   4.011  0.00  0.00     0.241 C 
ATOM     73  O   TYR d   1      35.946  17.451   4.656  0.00  0.00    -0.271 OA
ATOM     74  N   GLY d   1      35.568  19.138   3.210  0.00  0.00    -0.351 N 
ATOM     75  H   GLY d   1      34.888  19.776   2.848  0.00  0.00     0.163 HD
BRANCH  74  76
ATOM     76  CA  GLY d   1      36.960  19.321   2.846  0.00  0.00     0.069 C 
ATOM     77  H   GLY d   1      37.547  19.341   3.776  0.00  0.00     0.078 H 
ATOM     78  H   GLY d   1      37.046  20.292   2.337  0.00  0.00     0.078 H 
BRANCH  76  79
ATOM     79  C   GLY d   1      37.582  18.260   1.928  0.00  0.00     0.236 C 
ATOM     80  O   GLY d   1      38.781  18.298   1.699  0.00  0.00    -0.272 OA
ATOM     81  N   VAL d   1      36.790  17.326   1.389  0.00  0.00    -0.345 N 
ATOM     82  H   VAL d   1      35.800  17.415   1.497  0.00  0.00     0.163 HD
BRANCH  81  83
ATOM     83  CA  VAL d   1      37.329  16.153   0.630  0.00  0.00     0.099 C 
ATOM     84  H   VAL d   1      37.944  15.581   1.340  0.00  0.00     0.090 H 
BRANCH  83  85
ATOM     85  C   VAL d   1      38.252  16.553  -0.524  0.00  0.00     0.197 C 
ATOM     86  O   VAL d   1      38.136  17.657  -1.058  0.00  0.00    -0.646 OA
ATOM     87  O2  VAL d   1      39.134  15.750  -0.929  0.00  0.00    -0.646 OA
ENDBRANCH  83  85
BRANCH  83  88
ATOM     88  CB  VAL d   1      36.187  15.186   0.135  0.00  0.00    -0.032 C 
ATOM     89  H   VAL d   1      35.241  15.572   0.544  0.00  0.00     0.042 H 
BRANCH  88  90
ATOM     90  CG1 VAL d   1      36.029  15.156  -1.394  0.00  0.00    -0.071 C 
ATOM     91  H   VAL d   1      35.218  14.464  -1.665  0.00  0.00     0.028 H 
ATOM     92  H   VAL d   1      36.969  14.817  -1.853  0.00  0.00     0.028 H 
ATOM     93  H   VAL d   1      35.786  16.165  -1.757  0.00  0.00     0.028 H 
ENDBRANCH  88  90
BRANCH  88  94
ATOM     94  CG2 VAL d   1      36.391  13.780   0.706  0.00  0.00    -0.071 C 
ATOM     95  H   VAL d   1      36.500  13.840   1.799  0.00  0.00     0.028 H 
ATOM     96  H   VAL d   1      37.298  13.336   0.271  0.00  0.00     0.028 H 
ATOM     97  H   VAL d   1      35.521  13.154   0.458  0.00  0.00     0.028 H 
ENDBRANCH  88  94
ENDBRANCH  83  88
ENDBRANCH  81  83
ENDBRANCH  76  79
ENDBRANCH  74  76
ENDBRANCH  70  72
BRANCH  70  98
ATOM     98  CB  TYR d   1      33.272  16.453   4.261  0.00  0.00    -0.014 C 
ATOM     99  H   TYR d   1      33.791  16.031   5.134  0.00  0.00     0.043 H 
ATOM    100  H   TYR d   1      33.628  15.956   3.346  0.00  0.00     0.043 H 
BRANCH  98 101
ATOM    101  CG  TYR d   1      31.780  16.164   4.409  0.00  0.00    -0.056 A 
ATOM    102  CD1 TYR d   1      31.012  16.791   5.382  0.00  0.00    -0.074 A 
ATOM    103  CE1 TYR d   1      29.665  16.503   5.535  0.00  0.00    -0.051 A 
ATOM    104  H   TYR d   1      31.476  17.521   6.035  0.00  0.00     0.084 H 
ATOM    105  CZ  TYR d   1      29.055  15.565   4.717  0.00  0.00     0.065 A 
ATOM    106  H   TYR d   1      29.087  17.013   6.297  0.00  0.00     0.087 H 
ATOM    107  CE2 TYR d   1      29.804  14.913   3.767  0.00  0.00    -0.051 A 
ATOM    108  CD2 TYR d   1      31.154  15.218   3.616  0.00  0.00    -0.074 A 
ATOM    109  H   TYR d   1      29.344  14.162   3.135  0.00  0.00     0.087 H 
ATOM    110  H   TYR d   1      31.730  14.701   2.857  0.00  0.00     0.084 H 
BRANCH 105 111
ATOM    111  OH  TYR d   1      27.704  15.248   4.861  0.00  0.00    -0.361 OA
ATOM    112  H   TYR d   1      27.327  15.779   5.553  0.00  0.00     0.217 HD
ENDBRANCH 105 111
ENDBRANCH  98 101
ENDBRANCH  70  98
ENDBRANCH  68  70
ENDBRANCH  64  66
BRANCH  64 113
ATOM    113  CB  GLU d   1      32.685  19.077  -0.520  0.00  0.00    -0.029 C 
ATOM    114  H   GLU d   1      33.499  18.340  -0.587  0.00  0.00     0.037 H 
ATOM    115  H   GLU d   1      33.089  20.086  -0.689  0.00  0.00     0.037 H 
BRANCH 113 116
ATOM    116  CG  GLU d   1      31.673  18.777  -1.585  0.00  0.00     0.018 C 
ATOM    117  H   GLU d   1      30.974  19.622  -1.669  0.00  0.00     0.049 H 
ATOM    118  H   GLU d   1      31.118  17.868  -1.311  0.00  0.00     0.049 H 
BRANCH 116 119
ATOM    119  CD  GLU d   1      32.348  18.564  -2.903  0.00  0.00     0.172 C 
ATOM    120  OE1 GLU d   1      33.163  17.609  -3.024  0.00  0.00    -0.648 OA
ATOM    121  OE2 GLU d   1      32.069  19.371  -3.806  0.00  0.00    -0.648 OA
ENDBRANCH 116 119
ENDBRANCH 113 116
ENDBRANCH  64 113
ENDBRANCH  62  64
ENDBRANCH   1  60
BRANCH   1 122
ATOM    122  CB  LYS d   1      32.789  23.749   0.989  0.00  0.00    -0.038 C 
ATOM    123  H   LYS d   1      33.862  23.907   1.171  0.00  0.00     0.036 H 
ATOM    124  H   LYS d   1      32.244  24.688   1.168  0.00  0.00     0.036 H 
BRANCH 122 125
ATOM    125  CG  LYS d   1      32.593  23.337  -0.443  0.00  0.00    -0.061 C 
ATOM    126  H   LYS d   1      32.659  22.241  -0.514  0.00  0.00     0.033 H 
ATOM    127  H   LYS d   1      33.382  23.793  -1.059  0.00  0.00     0.033 H 
BRANCH 125 128
ATOM    128  CD  LYS d   1      31.234  23.788  -0.962  0.00  0.00    -0.043 C 
ATOM    129  H   LYS d   1      30.646  24.331  -0.208  0.00  0.00     0.035 H 
ATOM    130  H   LYS d   1      30.634  22.961  -1.369  0.00  0.00     0.035 H 
BRANCH 128 131
ATOM    131  CE  LYS d   1      31.792  24.688  -2.030  0.00  0.00     0.080 C 
ATOM    132  H   LYS d   1      32.656  24.194  -2.499  0.00  0.00     0.075 H 
ATOM    133  H   LYS d   1      32.116  25.633  -1.569  0.00  0.00     0.075 H 
BRANCH 131 134
ATOM    134  NZ  LYS d   1      30.823  24.969  -3.027  0.00  0.00    -0.079 N 
ATOM    135  H   LYS d   1      31.226  25.573  -3.727  0.00  0.00     0.274 HD
ATOM    136  H   LYS d   1      30.030  25.426  -2.605  0.00  0.00     0.274 HD
ATOM    137  H   LYS d   1      30.525  24.108  -3.458  0.00  0.00     0.274 HD
ENDBRANCH 131 134
ENDBRANCH 128 131
ENDBRANCH 125 128
ENDBRANCH 122 125
ENDBRANCH   1 122
TORSDOF 38
