REMARK WARNING: 32 MAX_TORS EXCEEDED!!!
REMARK  38 active torsions:
REMARK  status: ('A' for Active; 'I' for Inactive)
REMARK    1  A    between atoms: C_1  and  C1_3 
REMARK       I    between atoms: C_1  and  N_9 
REMARK    2  A    between atoms: N_9  and  CA_10 
REMARK    3  A    between atoms: CA_10  and  C_11 
REMARK       I    between atoms: C_11  and  N_13 
REMARK    4  A    between atoms: N_13  and  CA_14 
REMARK    5  A    between atoms: CA_14  and  C_15 
REMARK    6  A    between atoms: CA_14  and  CB_17 
REMARK       I    between atoms: C_15  and  N_20 
REMARK    7  A    between atoms: CB_17  and  CG1_18 
REMARK    8  A    between atoms: CB_17  and  CG2_19 
REMARK    9  A    between atoms: N_20  and  CA_21 
REMARK   10  A    between atoms: CA_21  and  C_22 
REMARK   11  A    between atoms: CA_21  and  CB_24 
REMARK       I    between atoms: C_22  and  N_28 
REMARK   12  A    between atoms: CB_24  and  CG_25 
REMARK   13  A    between atoms: CG_25  and  CD1_26 
REMARK   14  A    between atoms: CG_25  and  CD2_27 
REMARK   15  A    between atoms: N_28  and  CA_29 
REMARK   16  A    between atoms: CA_29  and  C_30 
REMARK   17  A    between atoms: CA_29  and  CB_32 
REMARK       I    between atoms: C_30  and  N_37 
REMARK   18  A    between atoms: CB_32  and  CG_33 
REMARK   19  A    between atoms: CG_33  and  CD_34 
REMARK   20  A    between atoms: CD_34  and  CE_35 
REMARK   21  A    between atoms: CE_35  and  NZ_36 
REMARK   22  A    between atoms: N_37  and  CA_38 
REMARK   23  A    between atoms: CA_38  and  C_39 
REMARK   24  A    between atoms: CA_38  and  CB_41 
REMARK       I    between atoms: C_39  and  N_46 
REMARK   25  A    between atoms: CB_41  and  CG_42 
REMARK   26  A    between atoms: CG_42  and  CD_43 
REMARK   27  A    between atoms: N_46  and  CA_47 
REMARK   28  A    between atoms: CA_47  and  C_48 
REMARK   29  A    between atoms: CA_47  and  CB_50 
REMARK       I    between atoms: C_48  and  N_58 
REMARK   30  A    between atoms: CB_50  and  CG_51 
REMARK   31  A    between atoms: CZ_56  and  OH_57 
REMARK   32  A    between atoms: N_58  and  CA_59 
REMARK   33  A    between atoms: CA_59  and  C_60 
REMARK       I    between atoms: C_60  and  N_62 
REMARK   34  A    between atoms: N_62  and  CA_63 
REMARK   35  A    between atoms: CA_63  and  C_64 
REMARK   36  A    between atoms: CA_63  and  CB_66 
REMARK   37  A    between atoms: CB_66  and  CG1_67 
REMARK   38  A    between atoms: CB_66  and  CG2_68 
ROOT
ATOM      1  CA  LYS d   1      34.193  21.954   0.246  0.00  0.00     0.089 C 
ATOM      2  H   LYS d   1      33.244  21.681   0.730  0.00  0.00     0.087 H 
ENDROOT
BRANCH   1   3
ATOM      3  N   LYS d   1      35.062  22.426   1.332  0.00  0.00    -0.346 N 
ATOM      4  C   LEU d   1      35.081  21.766   2.496  0.00  0.00     0.241 C 
ATOM      5  O   LEU d   1      34.406  20.772   2.692  0.00  0.00    -0.271 OA
ATOM      6  H   LYS d   1      35.636  23.235   1.202  0.00  0.00     0.163 HD
BRANCH   4   7
ATOM      7  CA  LEU d   1      36.008  22.252   3.607  0.00  0.00     0.089 C 
ATOM      8  H   LEU d   1      36.270  23.308   3.447  0.00  0.00     0.087 H 
BRANCH   7   9
ATOM      9  N   LEU d   1      35.328  22.094   4.889  0.00  0.00    -0.346 N 
ATOM     10  C   VAL d   1      34.295  22.838   5.260  0.00  0.00     0.241 C 
ATOM     11  O   VAL d   1      33.889  23.805   4.621  0.00  0.00    -0.271 OA
ATOM     12  H   LEU d   1      35.657  21.390   5.518  0.00  0.00     0.163 HD
BRANCH  10  13
ATOM     13  CA  VAL d   1      33.620  22.446   6.559  0.00  0.00     0.092 C 
ATOM     14  H   VAL d   1      34.114  21.558   6.981  0.00  0.00     0.088 H 
BRANCH  13  15
ATOM     15  N   VAL d   1      33.669  23.507   7.532  0.00  0.00    -0.346 N 
ATOM     16  C   GLY d   1      34.768  23.812   8.204  0.00  0.00     0.236 C 
ATOM     17  O   GLY d   1      35.821  23.193   8.087  0.00  0.00    -0.272 OA
ATOM     18  H   VAL d   1      32.838  24.035   7.707  0.00  0.00     0.163 HD
BRANCH  16  19
ATOM     19  CA  GLY d   1      34.609  24.951   9.163  0.00  0.00     0.069 C 
ATOM     20  H   GLY d   1      34.805  25.905   8.651  0.00  0.00     0.078 H 
ATOM     21  H   GLY d   1      33.589  24.958   9.574  0.00  0.00     0.078 H 
BRANCH  19  22
ATOM     22  N   GLY d   1      35.601  24.745  10.259  0.00  0.00    -0.348 N 
ATOM     23  C   BEZ d   1      35.758  25.668  11.265  0.00  0.00     0.252 C 
ATOM     24  O1  BEZ d   1      35.089  26.699  11.398  0.00  0.00    -0.268 OA
ATOM     25  H   GLY d   1      36.163  23.918  10.261  0.00  0.00     0.163 HD
BRANCH  23  26
ATOM     26  C1  BEZ d   1      36.648  25.310  12.268  0.00  0.00     0.032 A 
ATOM     27  C2  BEZ d   1      37.690  24.429  12.009  0.00  0.00    -0.068 A 
ATOM     28  C3  BEZ d   1      38.522  24.061  13.046  0.00  0.00    -0.082 A 
ATOM     29  H   BEZ d   1      37.847  24.038  11.010  0.00  0.00     0.085 H 
ATOM     30  C4  BEZ d   1      38.295  24.586  14.315  0.00  0.00    -0.083 A 
ATOM     31  H   BEZ d   1      39.342  23.372  12.875  0.00  0.00     0.083 H 
ATOM     32  C5  BEZ d   1      37.247  25.456  14.568  0.00  0.00    -0.082 A 
ATOM     33  H   BEZ d   1      38.956  24.306  15.127  0.00  0.00     0.083 H 
ATOM     34  C6  BEZ d   1      36.414  25.815  13.536  0.00  0.00    -0.068 A 
ATOM     35  H   BEZ d   1      37.087  25.848  15.566  0.00  0.00     0.083 H 
ATOM     36  H   BEZ d   1      35.582  26.487  13.713  0.00  0.00     0.085 H 
ENDBRANCH  23  26
ENDBRANCH  19  22
ENDBRANCH  16  19
ENDBRANCH  13  15
BRANCH  13  37
ATOM     37  CB  VAL d   1      32.181  22.113   6.189  0.00  0.00    -0.033 C 
ATOM     38  H   VAL d   1      31.777  22.932   5.575  0.00  0.00     0.042 H 
BRANCH  37  39
ATOM     39  CG1 VAL d   1      32.167  20.837   5.357  0.00  0.00    -0.071 C 
ATOM     40  H   VAL d   1      31.131  20.588   5.085  0.00  0.00     0.028 H 
ATOM     41  H   VAL d   1      32.600  20.013   5.942  0.00  0.00     0.028 H 
ATOM     42  H   VAL d   1      32.760  20.989   4.443  0.00  0.00     0.028 H 
ENDBRANCH  37  39
BRANCH  37  43
ATOM     43  CG2 VAL d   1      31.317  21.991   7.439  0.00  0.00    -0.071 C 
ATOM     44  H   VAL d   1      31.358  22.933   8.006  0.00  0.00     0.028 H 
ATOM     45  H   VAL d   1      31.693  21.169   8.066  0.00  0.00     0.028 H 
ATOM     46  H   VAL d   1      30.277  21.784   7.147  0.00  0.00     0.028 H 
ENDBRANCH  37  43
ENDBRANCH  13  37
ENDBRANCH  10  13
ENDBRANCH   7   9
BRANCH   7  47
ATOM     47  CB  LEU d   1      37.278  21.387   3.596  0.00  0.00    -0.035 C 
ATOM     48  H   LEU d   1      37.668  21.365   2.568  0.00  0.00     0.037 H 
ATOM     49  H   LEU d   1      37.001  20.368   3.905  0.00  0.00     0.037 H 
BRANCH  47  50
ATOM     50  CG  LEU d   1      38.393  21.874   4.516  0.00  0.00    -0.059 C 
ATOM     51  H   LEU d   1      37.949  22.103   5.496  0.00  0.00     0.038 H 
BRANCH  50  52
ATOM     52  CD1 LEU d   1      39.430  20.780   4.710  0.00  0.00    -0.073 C 
ATOM     53  H   LEU d   1      40.227  21.144   5.375  0.00  0.00     0.028 H 
ATOM     54  H   LEU d   1      39.861  20.507   3.736  0.00  0.00     0.028 H 
ATOM     55  H   LEU d   1      38.952  19.897   5.160  0.00  0.00     0.028 H 
ENDBRANCH  50  52
BRANCH  50  56
ATOM     56  CD2 LEU d   1      39.041  23.148   3.987  0.00  0.00    -0.073 C 
ATOM     57  H   LEU d   1      38.272  23.923   3.855  0.00  0.00     0.028 H 
ATOM     58  H   LEU d   1      39.522  22.940   3.020  0.00  0.00     0.028 H 
ATOM     59  H   LEU d   1      39.797  23.500   4.704  0.00  0.00     0.028 H 
ENDBRANCH  50  56
ENDBRANCH  47  50
ENDBRANCH   7  47
ENDBRANCH   4   7
ENDBRANCH   1   3
BRANCH   1  60
ATOM     60  C   LYS d   1      34.796  20.679  -0.258  0.00  0.00     0.241 C 
ATOM     61  O   LYS d   1      35.999  20.529  -0.262  0.00  0.00    -0.271 OA
ATOM     62  N   GLU d   1      33.935  19.746  -0.650  0.00  0.00    -0.346 N 
ATOM     63  H   GLU d   1      32.966  19.987  -0.704  0.00  0.00     0.163 HD
BRANCH  62  64
ATOM     64  CA  GLU d   1      34.335  18.377  -1.008  0.00  0.00     0.090 C 
ATOM     65  H   GLU d   1      33.423  17.804  -1.234  0.00  0.00     0.087 H 
BRANCH  64  66
ATOM     66  C   GLU d   1      35.093  17.667   0.112  0.00  0.00     0.241 C 
ATOM     67  O   GLU d   1      35.732  16.660  -0.133  0.00  0.00    -0.271 OA
ATOM     68  N   TYR d   1      35.007  18.203   1.330  0.00  0.00    -0.346 N 
ATOM     69  H   TYR d   1      34.488  19.050   1.450  0.00  0.00     0.163 HD
BRANCH  68  70
ATOM     70  CA  TYR d   1      35.643  17.597   2.492  0.00  0.00     0.093 C 
ATOM     71  H   TYR d   1      35.351  18.162   3.390  0.00  0.00     0.088 H 
BRANCH  70  72
ATOM     72  C   TYR d   1      37.143  17.653   2.334  0.00  0.00     0.241 C 
ATOM     73  O   TYR d   1      37.850  16.862   2.942  0.00  0.00    -0.271 OA
ATOM     74  N   GLY d   1      37.613  18.579   1.502  0.00  0.00    -0.351 N 
ATOM     75  H   GLY d   1      36.965  19.181   1.035  0.00  0.00     0.163 HD
BRANCH  74  76
ATOM     76  CA  GLY d   1      39.034  18.747   1.248  0.00  0.00     0.069 C 
ATOM     77  H   GLY d   1      39.581  18.659   2.198  0.00  0.00     0.078 H 
ATOM     78  H   GLY d   1      39.206  19.745   0.818  0.00  0.00     0.078 H 
BRANCH  76  79
ATOM     79  C   GLY d   1      39.549  17.698   0.283  0.00  0.00     0.236 C 
ATOM     80  O   GLY d   1      40.738  17.640   0.026  0.00  0.00    -0.272 OA
ATOM     81  N   VAL d   1      38.666  16.859  -0.254  0.00  0.00    -0.345 N 
ATOM     82  H   VAL d   1      37.697  16.948  -0.023  0.00  0.00     0.163 HD
BRANCH  81  83
ATOM     83  CA  VAL d   1      39.099  15.800  -1.186  0.00  0.00     0.099 C 
ATOM     84  H   VAL d   1      40.157  15.589  -0.970  0.00  0.00     0.090 H 
BRANCH  83  85
ATOM     85  C   VAL d   1      38.992  16.207  -2.666  0.00  0.00     0.197 C 
ATOM     86  O   VAL d   1      39.289  17.345  -3.044  0.00  0.00    -0.646 OA
ATOM     87  O2  VAL d   1      38.593  15.361  -3.511  0.00  0.00    -0.646 OA
ENDBRANCH  83  85
BRANCH  83  88
ATOM     88  CB  VAL d   1      38.294  14.493  -0.984  0.00  0.00    -0.032 C 
ATOM     89  H   VAL d   1      37.258  14.766  -0.732  0.00  0.00     0.042 H 
BRANCH  88  90
ATOM     90  CG1 VAL d   1      38.262  13.678  -2.280  0.00  0.00    -0.071 C 
ATOM     91  H   VAL d   1      37.687  12.754  -2.118  0.00  0.00     0.028 H 
ATOM     92  H   VAL d   1      39.290  13.422  -2.578  0.00  0.00     0.028 H 
ATOM     93  H   VAL d   1      37.786  14.271  -3.075  0.00  0.00     0.028 H 
ENDBRANCH  88  90
BRANCH  88  94
ATOM     94  CG2 VAL d   1      38.861  13.685   0.184  0.00  0.00    -0.071 C 
ATOM     95  H   VAL d   1      38.866  14.306   1.092  0.00  0.00     0.028 H 
ATOM     96  H   VAL d   1      39.889  13.372  -0.051  0.00  0.00     0.028 H 
ATOM     97  H   VAL d   1      38.236  12.795   0.352  0.00  0.00     0.028 H 
ENDBRANCH  88  94
ENDBRANCH  83  88
ENDBRANCH  81  83
ENDBRANCH  76  79
ENDBRANCH  74  76
ENDBRANCH  70  72
BRANCH  70  98
ATOM     98  CB  TYR d   1      35.217  16.138   2.665  0.00  0.00    -0.014 C 
ATOM     99  H   TYR d   1      35.778  15.716   3.512  0.00  0.00     0.043 H 
ATOM    100  H   TYR d   1      35.478  15.594   1.745  0.00  0.00     0.043 H 
BRANCH  98 101
ATOM    101  CG  TYR d   1      33.743  15.934   2.929  0.00  0.00    -0.056 A 
ATOM    102  CD1 TYR d   1      33.083  16.643   3.927  0.00  0.00    -0.074 A 
ATOM    103  CE1 TYR d   1      31.745  16.438   4.188  0.00  0.00    -0.051 A 
ATOM    104  H   TYR d   1      33.632  17.372   4.512  0.00  0.00     0.084 H 
ATOM    105  CZ  TYR d   1      31.053  15.517   3.440  0.00  0.00     0.065 A 
ATOM    106  H   TYR d   1      31.246  16.996   4.972  0.00  0.00     0.087 H 
ATOM    107  CE2 TYR d   1      31.690  14.800   2.443  0.00  0.00    -0.051 A 
ATOM    108  CD2 TYR d   1      33.023  15.019   2.195  0.00  0.00    -0.074 A 
ATOM    109  H   TYR d   1      31.140  14.069   1.861  0.00  0.00     0.087 H 
ATOM    110  H   TYR d   1      33.517  14.461   1.407  0.00  0.00     0.084 H 
BRANCH 105 111
ATOM    111  OH  TYR d   1      29.709  15.294   3.665  0.00  0.00    -0.361 OA
ATOM    112  H   TYR d   1      29.411  15.853   4.373  0.00  0.00     0.217 HD
ENDBRANCH 105 111
ENDBRANCH  98 101
ENDBRANCH  70  98
ENDBRANCH  68  70
ENDBRANCH  64  66
BRANCH  64 113
ATOM    113  CB  GLU d   1      35.226  18.383  -2.219  0.00  0.00    -0.029 C 
ATOM    114  H   GLU d   1      35.216  17.378  -2.667  0.00  0.00     0.037 H 
ATOM    115  H   GLU d   1      36.249  18.633  -1.901  0.00  0.00     0.037 H 
BRANCH 113 116
ATOM    116  CG  GLU d   1      34.793  19.375  -3.260  0.00  0.00     0.018 C 
ATOM    117  H   GLU d   1      35.674  19.699  -3.834  0.00  0.00     0.049 H 
ATOM    118  H   GLU d   1      34.342  20.244  -2.760  0.00  0.00     0.049 H 
BRANCH 116 119
ATOM    119  CD  GLU d   1      33.789  18.780  -4.203  0.00  0.00     0.172 C 
ATOM    120  OE1 GLU d   1      33.011  17.891  -3.739  0.00  0.00    -0.648 OA
ATOM    121  OE2 GLU d   1      33.821  19.201  -5.394  0.00  0.00    -0.648 OA
ENDBRANCH 116 119
ENDBRANCH 113 116
ENDBRANCH  64 113
ENDBRANCH  62  64
ENDBRANCH   1  60
BRANCH   1 122
ATOM    122  CB  LYS d   1      33.773  22.937  -0.875  0.00  0.00    -0.038 C 
ATOM    123  H   LYS d   1      33.210  23.762  -0.413  0.00  0.00     0.036 H 
ATOM    124  H   LYS d   1      33.121  22.396  -1.577  0.00  0.00     0.036 H 
BRANCH 122 125
ATOM    125  CG  LYS d   1      34.938  23.544  -1.676  0.00  0.00    -0.061 C 
ATOM    126  H   LYS d   1      35.560  22.759  -2.131  0.00  0.00     0.033 H 
ATOM    127  H   LYS d   1      35.565  24.187  -1.041  0.00  0.00     0.033 H 
BRANCH 125 128
ATOM    128  CD  LYS d   1      34.201  24.373  -2.759  0.00  0.00    -0.043 C 
ATOM    129  H   LYS d   1      34.616  25.389  -2.834  0.00  0.00     0.035 H 
ATOM    130  H   LYS d   1      33.123  24.431  -2.551  0.00  0.00     0.035 H 
BRANCH 128 131
ATOM    131  CE  LYS d   1      34.469  23.591  -3.991  0.00  0.00     0.080 C 
ATOM    132  H   LYS d   1      33.654  22.863  -4.116  0.00  0.00     0.075 H 
ATOM    133  H   LYS d   1      35.420  23.056  -3.854  0.00  0.00     0.075 H 
BRANCH 131 134
ATOM    134  NZ  LYS d   1      34.566  24.385  -5.231  0.00  0.00    -0.079 N 
ATOM    135  H   LYS d   1      34.748  23.771  -6.010  0.00  0.00     0.274 HD
ATOM    136  H   LYS d   1      35.317  25.052  -5.145  0.00  0.00     0.274 HD
ATOM    137  H   LYS d   1      33.699  24.875  -5.385  0.00  0.00     0.274 HD
ENDBRANCH 131 134
ENDBRANCH 128 131
ENDBRANCH 125 128
ENDBRANCH 122 125
ENDBRANCH   1 122
TORSDOF 38
