REMARK WARNING: 32 MAX_TORS EXCEEDED!!!
REMARK  38 active torsions:
REMARK  status: ('A' for Active; 'I' for Inactive)
REMARK    1  A    between atoms: C_1  and  C1_3 
REMARK       I    between atoms: C_1  and  N_9 
REMARK    2  A    between atoms: N_9  and  CA_10 
REMARK    3  A    between atoms: CA_10  and  C_11 
REMARK       I    between atoms: C_11  and  N_13 
REMARK    4  A    between atoms: N_13  and  CA_14 
REMARK    5  A    between atoms: CA_14  and  C_15 
REMARK    6  A    between atoms: CA_14  and  CB_17 
REMARK       I    between atoms: C_15  and  N_20 
REMARK    7  A    between atoms: CB_17  and  CG1_18 
REMARK    8  A    between atoms: CB_17  and  CG2_19 
REMARK    9  A    between atoms: N_20  and  CA_21 
REMARK   10  A    between atoms: CA_21  and  C_22 
REMARK   11  A    between atoms: CA_21  and  CB_24 
REMARK       I    between atoms: C_22  and  N_28 
REMARK   12  A    between atoms: CB_24  and  CG_25 
REMARK   13  A    between atoms: CG_25  and  CD1_26 
REMARK   14  A    between atoms: CG_25  and  CD2_27 
REMARK   15  A    between atoms: N_28  and  CA_29 
REMARK   16  A    between atoms: CA_29  and  C_30 
REMARK   17  A    between atoms: CA_29  and  CB_32 
REMARK       I    between atoms: C_30  and  N_37 
REMARK   18  A    between atoms: CB_32  and  CG_33 
REMARK   19  A    between atoms: CG_33  and  CD_34 
REMARK   20  A    between atoms: CD_34  and  CE_35 
REMARK   21  A    between atoms: CE_35  and  NZ_36 
REMARK   22  A    between atoms: N_37  and  CA_38 
REMARK   23  A    between atoms: CA_38  and  C_39 
REMARK   24  A    between atoms: CA_38  and  CB_41 
REMARK       I    between atoms: C_39  and  N_46 
REMARK   25  A    between atoms: CB_41  and  CG_42 
REMARK   26  A    between atoms: CG_42  and  CD_43 
REMARK   27  A    between atoms: N_46  and  CA_47 
REMARK   28  A    between atoms: CA_47  and  C_48 
REMARK   29  A    between atoms: CA_47  and  CB_50 
REMARK       I    between atoms: C_48  and  N_58 
REMARK   30  A    between atoms: CB_50  and  CG_51 
REMARK   31  A    between atoms: CZ_56  and  OH_57 
REMARK   32  A    between atoms: N_58  and  CA_59 
REMARK   33  A    between atoms: CA_59  and  C_60 
REMARK       I    between atoms: C_60  and  N_62 
REMARK   34  A    between atoms: N_62  and  CA_63 
REMARK   35  A    between atoms: CA_63  and  C_64 
REMARK   36  A    between atoms: CA_63  and  CB_66 
REMARK   37  A    between atoms: CB_66  and  CG1_67 
REMARK   38  A    between atoms: CB_66  and  CG2_68 
ROOT
ATOM      1  CA  LYS d   1     -32.003 -22.144   1.868  0.00  0.00     0.089 C 
ATOM      2  H   LYS d   1     -31.044 -21.846   2.317  0.00  0.00     0.087 H 
ENDROOT
BRANCH   1   3
ATOM      3  N   LYS d   1     -32.902 -22.515   2.941  0.00  0.00    -0.346 N 
ATOM      4  C   LEU d   1     -32.844 -21.935   4.138  0.00  0.00     0.241 C 
ATOM      5  O   LEU d   1     -32.075 -21.018   4.388  0.00  0.00    -0.271 OA
ATOM      6  H   LYS d   1     -33.585 -23.227   2.778  0.00  0.00     0.163 HD
BRANCH   4   7
ATOM      7  CA  LEU d   1     -33.771 -22.484   5.228  0.00  0.00     0.089 C 
ATOM      8  H   LEU d   1     -34.024 -23.531   5.004  0.00  0.00     0.087 H 
BRANCH   7   9
ATOM      9  N   LEU d   1     -33.042 -22.427   6.495  0.00  0.00    -0.346 N 
ATOM     10  C   VAL d   1     -31.893 -23.083   6.636  0.00  0.00     0.241 C 
ATOM     11  O   VAL d   1     -31.528 -23.936   5.819  0.00  0.00    -0.271 OA
ATOM     12  H   LEU d   1     -33.408 -21.893   7.257  0.00  0.00     0.163 HD
BRANCH  10  13
ATOM     13  CA  VAL d   1     -31.040 -22.746   7.882  0.00  0.00     0.092 C 
ATOM     14  H   VAL d   1     -31.509 -21.908   8.419  0.00  0.00     0.088 H 
BRANCH  13  15
ATOM     15  N   VAL d   1     -30.966 -23.885   8.765  0.00  0.00    -0.346 N 
ATOM     16  C   GLY d   1     -31.968 -24.208   9.553  0.00  0.00     0.236 C 
ATOM     17  O   GLY d   1     -33.062 -23.604   9.556  0.00  0.00    -0.272 OA
ATOM     18  H   VAL d   1     -30.135 -24.441   8.778  0.00  0.00     0.163 HD
BRANCH  16  19
ATOM     19  CA  GLY d   1     -31.672 -25.354  10.472  0.00  0.00     0.069 C 
ATOM     20  H   GLY d   1     -31.901 -26.316   9.990  0.00  0.00     0.078 H 
ATOM     21  H   GLY d   1     -30.619 -25.344  10.789  0.00  0.00     0.078 H 
BRANCH  19  22
ATOM     22  N   GLY d   1     -32.583 -25.103  11.629  0.00  0.00    -0.348 N 
ATOM     23  C   BEZ d   1     -32.958 -26.087  12.462  0.00  0.00     0.252 C 
ATOM     24  O1  BEZ d   1     -32.613 -27.247  12.279  0.00  0.00    -0.268 OA
ATOM     25  H   GLY d   1     -32.923 -24.176  11.788  0.00  0.00     0.163 HD
BRANCH  23  26
ATOM     26  C1  BEZ d   1     -33.854 -25.783  13.500  0.00  0.00     0.032 A 
ATOM     27  C2  BEZ d   1     -34.993 -24.974  13.288  0.00  0.00    -0.068 A 
ATOM     28  C3  BEZ d   1     -35.897 -24.710  14.308  0.00  0.00    -0.082 A 
ATOM     29  H   BEZ d   1     -35.165 -24.549  12.306  0.00  0.00     0.085 H 
ATOM     30  C4  BEZ d   1     -35.647 -25.284  15.547  0.00  0.00    -0.083 A 
ATOM     31  H   BEZ d   1     -36.764 -24.080  14.143  0.00  0.00     0.083 H 
ATOM     32  C5  BEZ d   1     -34.532 -26.105  15.764  0.00  0.00    -0.082 A 
ATOM     33  H   BEZ d   1     -36.331 -25.093  16.366  0.00  0.00     0.083 H 
ATOM     34  C6  BEZ d   1     -33.631 -26.356  14.743  0.00  0.00    -0.068 A 
ATOM     35  H   BEZ d   1     -34.373 -26.548  16.741  0.00  0.00     0.083 H 
ATOM     36  H   BEZ d   1     -32.767 -26.989  14.912  0.00  0.00     0.085 H 
ENDBRANCH  23  26
ENDBRANCH  19  22
ENDBRANCH  16  19
ENDBRANCH  13  15
BRANCH  13  37
ATOM     37  CB  VAL d   1     -29.623 -22.334   7.451  0.00  0.00    -0.033 C 
ATOM     38  H   VAL d   1     -29.181 -23.172   6.893  0.00  0.00     0.042 H 
BRANCH  37  39
ATOM     39  CG1 VAL d   1     -29.682 -21.135   6.516  0.00  0.00    -0.071 C 
ATOM     40  H   VAL d   1     -28.662 -20.853   6.217  0.00  0.00     0.028 H 
ATOM     41  H   VAL d   1     -30.160 -20.290   7.033  0.00  0.00     0.028 H 
ATOM     42  H   VAL d   1     -30.267 -21.396   5.622  0.00  0.00     0.028 H 
ENDBRANCH  37  39
BRANCH  37  43
ATOM     43  CG2 VAL d   1     -28.738 -22.072   8.667  0.00  0.00    -0.071 C 
ATOM     44  H   VAL d   1     -28.727 -22.964   9.311  0.00  0.00     0.028 H 
ATOM     45  H   VAL d   1     -29.136 -21.216   9.232  0.00  0.00     0.028 H 
ATOM     46  H   VAL d   1     -27.714 -21.847   8.334  0.00  0.00     0.028 H 
ENDBRANCH  37  43
ENDBRANCH  13  37
ENDBRANCH  10  13
ENDBRANCH   7   9
BRANCH   7  47
ATOM     47  CB  LEU d   1     -35.071 -21.661   5.272  0.00  0.00    -0.035 C 
ATOM     48  H   LEU d   1     -35.391 -21.512   4.230  0.00  0.00     0.037 H 
ATOM     49  H   LEU d   1     -34.819 -20.689   5.721  0.00  0.00     0.037 H 
BRANCH  47  50
ATOM     50  CG  LEU d   1     -36.289 -22.207   6.040  0.00  0.00    -0.059 C 
ATOM     51  H   LEU d   1     -36.175 -21.936   7.100  0.00  0.00     0.038 H 
BRANCH  50  52
ATOM     52  CD1 LEU d   1     -37.563 -21.562   5.506  0.00  0.00    -0.073 C 
ATOM     53  H   LEU d   1     -38.431 -21.954   6.056  0.00  0.00     0.028 H 
ATOM     54  H   LEU d   1     -37.672 -21.795   4.436  0.00  0.00     0.028 H 
ATOM     55  H   LEU d   1     -37.506 -20.472   5.640  0.00  0.00     0.028 H 
ENDBRANCH  50  52
BRANCH  50  56
ATOM     56  CD2 LEU d   1     -36.404 -23.721   5.948  0.00  0.00    -0.073 C 
ATOM     57  H   LEU d   1     -35.483 -24.183   6.334  0.00  0.00     0.028 H 
ATOM     58  H   LEU d   1     -36.549 -24.015   4.898  0.00  0.00     0.028 H 
ATOM     59  H   LEU d   1     -37.263 -24.061   6.546  0.00  0.00     0.028 H 
ENDBRANCH  50  56
ENDBRANCH  47  50
ENDBRANCH   7  47
ENDBRANCH   4   7
ENDBRANCH   1   3
BRANCH   1  60
ATOM     60  C   LYS d   1     -32.589 -20.892   1.217  0.00  0.00     0.241 C 
ATOM     61  O   LYS d   1     -33.803 -20.734   1.109  0.00  0.00    -0.271 OA
ATOM     62  N   GLU d   1     -31.696 -19.985   0.844  0.00  0.00    -0.346 N 
ATOM     63  H   GLU d   1     -30.736 -20.261   0.801  0.00  0.00     0.163 HD
BRANCH  62  64
ATOM     64  CA  GLU d   1     -32.036 -18.590   0.487  0.00  0.00     0.090 C 
ATOM     65  H   GLU d   1     -31.074 -18.058   0.444  0.00  0.00     0.087 H 
BRANCH  64  66
ATOM     66  C   GLU d   1     -32.863 -17.807   1.546  0.00  0.00     0.241 C 
ATOM     67  O   GLU d   1     -33.418 -16.724   1.282  0.00  0.00    -0.271 OA
ATOM     68  N   TYR d   1     -32.831 -18.345   2.764  0.00  0.00    -0.346 N 
ATOM     69  H   TYR d   1     -32.303 -19.185   2.886  0.00  0.00     0.163 HD
BRANCH  68  70
ATOM     70  CA  TYR d   1     -33.502 -17.804   3.919  0.00  0.00     0.093 C 
ATOM     71  H   TYR d   1     -33.165 -18.369   4.800  0.00  0.00     0.088 H 
BRANCH  70  72
ATOM     72  C   TYR d   1     -35.007 -17.968   3.818  0.00  0.00     0.241 C 
ATOM     73  O   TYR d   1     -35.755 -17.120   4.329  0.00  0.00    -0.271 OA
ATOM     74  N   GLY d   1     -35.453 -19.058   3.180  0.00  0.00    -0.351 N 
ATOM     75  H   GLY d   1     -34.793 -19.751   2.889  0.00  0.00     0.163 HD
BRANCH  74  76
ATOM     76  CA  GLY d   1     -36.881 -19.272   2.892  0.00  0.00     0.069 C 
ATOM     77  H   GLY d   1     -37.455 -19.043   3.802  0.00  0.00     0.078 H 
ATOM     78  H   GLY d   1     -37.024 -20.329   2.625  0.00  0.00     0.078 H 
BRANCH  76  79
ATOM     79  C   GLY d   1     -37.427 -18.411   1.752  0.00  0.00     0.236 C 
ATOM     80  O   GLY d   1     -38.388 -18.794   1.115  0.00  0.00    -0.272 OA
ATOM     81  N   VAL d   1     -36.772 -17.292   1.453  0.00  0.00    -0.345 N 
ATOM     82  H   VAL d   1     -35.817 -17.220   1.739  0.00  0.00     0.163 HD
BRANCH  81  83
ATOM     83  CA  VAL d   1     -37.368 -16.140   0.720  0.00  0.00     0.099 C 
ATOM     84  H   VAL d   1     -38.058 -15.641   1.416  0.00  0.00     0.090 H 
BRANCH  83  85
ATOM     85  C   VAL d   1     -38.178 -16.544  -0.497  0.00  0.00     0.197 C 
ATOM     86  O   VAL d   1     -37.585 -16.911  -1.501  0.00  0.00    -0.646 OA
ATOM     87  O2  VAL d   1     -39.437 -16.502  -0.474  0.00  0.00    -0.646 OA
ENDBRANCH  83  85
BRANCH  83  88
ATOM     88  CB  VAL d   1     -36.257 -15.091   0.314  0.00  0.00    -0.032 C 
ATOM     89  H   VAL d   1     -35.315 -15.648   0.204  0.00  0.00     0.042 H 
BRANCH  88  90
ATOM     90  CG1 VAL d   1     -36.527 -14.408  -1.035  0.00  0.00    -0.071 C 
ATOM     91  H   VAL d   1     -35.718 -13.695  -1.253  0.00  0.00     0.028 H 
ATOM     92  H   VAL d   1     -37.486 -13.872  -0.989  0.00  0.00     0.028 H 
ATOM     93  H   VAL d   1     -36.569 -15.168  -1.829  0.00  0.00     0.028 H 
ENDBRANCH  88  90
BRANCH  88  94
ATOM     94  CG2 VAL d   1     -36.053 -14.066   1.439  0.00  0.00    -0.071 C 
ATOM     95  H   VAL d   1     -35.863 -14.593   2.385  0.00  0.00     0.028 H 
ATOM     96  H   VAL d   1     -36.957 -13.447   1.539  0.00  0.00     0.028 H 
ATOM     97  H   VAL d   1     -35.193 -13.424   1.198  0.00  0.00     0.028 H 
ENDBRANCH  88  94
ENDBRANCH  83  88
ENDBRANCH  81  83
ENDBRANCH  76  79
ENDBRANCH  74  76
ENDBRANCH  70  72
BRANCH  70  98
ATOM     98  CB  TYR d   1     -33.106 -16.340   4.122  0.00  0.00    -0.014 C 
ATOM     99  H   TYR d   1     -33.619 -15.965   5.020  0.00  0.00     0.043 H 
ATOM    100  H   TYR d   1     -33.439 -15.768   3.244  0.00  0.00     0.043 H 
BRANCH  98 101
ATOM    101  CG  TYR d   1     -31.597 -16.114   4.300  0.00  0.00    -0.056 A 
ATOM    102  CD1 TYR d   1     -30.889 -16.784   5.294  0.00  0.00    -0.074 A 
ATOM    103  CE1 TYR d   1     -29.534 -16.572   5.476  0.00  0.00    -0.051 A 
ATOM    104  H   TYR d   1     -31.409 -17.485   5.937  0.00  0.00     0.084 H 
ATOM    105  CZ  TYR d   1     -28.871 -15.672   4.674  0.00  0.00     0.065 A 
ATOM    106  H   TYR d   1     -28.997 -17.113   6.247  0.00  0.00     0.087 H 
ATOM    107  CE2 TYR d   1     -29.555 -14.978   3.698  0.00  0.00    -0.051 A 
ATOM    108  CD2 TYR d   1     -30.899 -15.203   3.513  0.00  0.00    -0.074 A 
ATOM    109  H   TYR d   1     -29.035 -14.257   3.078  0.00  0.00     0.087 H 
ATOM    110  H   TYR d   1     -31.426 -14.659   2.737  0.00  0.00     0.084 H 
BRANCH 105 111
ATOM    111  OH  TYR d   1     -27.514 -15.489   4.881  0.00  0.00    -0.361 OA
ATOM    112  H   TYR d   1     -27.224 -16.050   5.591  0.00  0.00     0.217 HD
ENDBRANCH 105 111
ENDBRANCH  98 101
ENDBRANCH  70  98
ENDBRANCH  68  70
ENDBRANCH  64  66
BRANCH  64 113
ATOM    113  CB  GLU d   1     -32.597 -18.538  -0.939  0.00  0.00    -0.029 C 
ATOM    114  H   GLU d   1     -33.091 -17.570  -1.108  0.00  0.00     0.037 H 
ATOM    115  H   GLU d   1     -33.324 -19.351  -1.082  0.00  0.00     0.037 H 
BRANCH 113 116
ATOM    116  CG  GLU d   1     -31.442 -18.704  -1.919  0.00  0.00     0.018 C 
ATOM    117  H   GLU d   1     -30.814 -19.538  -1.571  0.00  0.00     0.049 H 
ATOM    118  H   GLU d   1     -30.853 -17.775  -1.916  0.00  0.00     0.049 H 
BRANCH 116 119
ATOM    119  CD  GLU d   1     -31.859 -18.990  -3.336  0.00  0.00     0.172 C 
ATOM    120  OE1 GLU d   1     -32.929 -18.473  -3.731  0.00  0.00    -0.648 OA
ATOM    121  OE2 GLU d   1     -31.102 -19.716  -4.051  0.00  0.00    -0.648 OA
ENDBRANCH 116 119
ENDBRANCH 113 116
ENDBRANCH  64 113
ENDBRANCH  62  64
ENDBRANCH   1  60
BRANCH   1 122
ATOM    122  CB  LYS d   1     -31.689 -23.324   0.975  0.00  0.00    -0.038 C 
ATOM    123  H   LYS d   1     -31.876 -24.253   1.534  0.00  0.00     0.036 H 
ATOM    124  H   LYS d   1     -30.629 -23.278   0.684  0.00  0.00     0.036 H 
BRANCH 122 125
ATOM    125  CG  LYS d   1     -32.532 -23.325  -0.262  0.00  0.00    -0.061 C 
ATOM    126  H   LYS d   1     -32.684 -22.303  -0.640  0.00  0.00     0.033 H 
ATOM    127  H   LYS d   1     -33.508 -23.796  -0.077  0.00  0.00     0.033 H 
BRANCH 125 128
ATOM    128  CD  LYS d   1     -31.688 -24.161  -1.242  0.00  0.00    -0.043 C 
ATOM    129  H   LYS d   1     -31.695 -25.227  -0.969  0.00  0.00     0.035 H 
ATOM    130  H   LYS d   1     -30.650 -23.800  -1.286  0.00  0.00     0.035 H 
BRANCH 128 131
ATOM    131  CE  LYS d   1     -32.402 -23.925  -2.536  0.00  0.00     0.080 C 
ATOM    132  H   LYS d   1     -32.258 -22.887  -2.869  0.00  0.00     0.075 H 
ATOM    133  H   LYS d   1     -33.477 -24.128  -2.423  0.00  0.00     0.075 H 
BRANCH 131 134
ATOM    134  NZ  LYS d   1     -31.807 -24.853  -3.494  0.00  0.00    -0.079 N 
ATOM    135  H   LYS d   1     -32.251 -24.740  -4.392  0.00  0.00     0.274 HD
ATOM    136  H   LYS d   1     -31.938 -25.799  -3.171  0.00  0.00     0.274 HD
ATOM    137  H   LYS d   1     -30.821 -24.661  -3.580  0.00  0.00     0.274 HD
ENDBRANCH 131 134
ENDBRANCH 128 131
ENDBRANCH 125 128
ENDBRANCH 122 125
ENDBRANCH   1 122
TORSDOF 38
