REMARK WARNING: 32 MAX_TORS EXCEEDED!!!
REMARK  62 active torsions:
REMARK  status: ('A' for Active; 'I' for Inactive)
REMARK    1  A    between atoms: N_1  and  CA_2 
REMARK    2  A    between atoms: CA_2  and  C_3 
REMARK    3  A    between atoms: CA_2  and  CB_5 
REMARK       I    between atoms: C_3  and  N_9 
REMARK    4  A    between atoms: CB_5  and  CG_6 
REMARK    5  A    between atoms: CG_6  and  SD_7 
REMARK    6  A    between atoms: SD_7  and  CE_8 
REMARK    7  A    between atoms: N_9  and  CA_10 
REMARK    8  A    between atoms: CA_10  and  C_11 
REMARK    9  A    between atoms: CA_10  and  CB_13 
REMARK       I    between atoms: C_11  and  N_23 
REMARK   10  A    between atoms: CB_13  and  CG_14 
REMARK   11  A    between atoms: N_23  and  CA_24 
REMARK   12  A    between atoms: CA_24  and  C_25 
REMARK   13  A    between atoms: CA_24  and  CB_27 
REMARK       I    between atoms: C_25  and  N_31 
REMARK   14  A    between atoms: CB_27  and  CG_28 
REMARK       I    between atoms: CG_28  and  ND2_30 
REMARK   15  A    between atoms: N_31  and  CA_32 
REMARK   16  A    between atoms: CA_32  and  C_33 
REMARK   17  A    between atoms: CA_32  and  CB_35 
REMARK       I    between atoms: C_33  and  N_39 
REMARK   18  A    between atoms: CB_35  and  CG_36 
REMARK   19  A    between atoms: CG_36  and  CD1_37 
REMARK   20  A    between atoms: CG_36  and  CD2_38 
REMARK   21  A    between atoms: N_39  and  CA_40 
REMARK   22  A    between atoms: CA_40  and  C_41 
REMARK   23  A    between atoms: CA_40  and  CB_43 
REMARK       I    between atoms: C_41  and  N_47 
REMARK   24  A    between atoms: CB_43  and  CG_44 
REMARK   25  A    between atoms: CG_44  and  SD_45 
REMARK   26  A    between atoms: SD_45  and  CE_46 
REMARK   27  A    between atoms: CA_48  and  C_49 
REMARK       I    between atoms: C_49  and  N_54 
REMARK   28  A    between atoms: CA_55  and  C_56 
REMARK       I    between atoms: C_56  and  N_61 
REMARK   29  A    between atoms: CA_62  and  C_63 
REMARK       I    between atoms: C_63  and  N_68 
REMARK   30  A    between atoms: N_68  and  CA_69 
REMARK   31  A    between atoms: CA_69  and  C_70 
REMARK   32  A    between atoms: CA_69  and  CB_72 
REMARK       I    between atoms: C_70  and  N_73 
REMARK   33  A    between atoms: N_73  and  CA_74 
REMARK   34  A    between atoms: CA_74  and  CB_75 
REMARK   35  A    between atoms: CA_74  and  C_80 
REMARK   36  A    between atoms: CB_75  and  CG_76 
REMARK   37  A    between atoms: CG_76  and  S_77 
REMARK   38  A    between atoms: S_77  and  OE_78 
REMARK   39  A    between atoms: S_77  and  CE_79 
REMARK       I    between atoms: C_80  and  N_82 
REMARK   40  A    between atoms: N_82  and  CA_83 
REMARK   41  A    between atoms: CA_83  and  C_84 
REMARK   42  A    between atoms: CA_83  and  CB_86 
REMARK       I    between atoms: C_84  and  N_91 
REMARK   43  A    between atoms: CB_86  and  CG_87 
REMARK   44  A    between atoms: CG_87  and  CD_88 
REMARK   45  A    between atoms: N_91  and  CA_92 
REMARK   46  A    between atoms: CA_92  and  C_93 
REMARK   47  A    between atoms: CA_92  and  CB_95 
REMARK       I    between atoms: C_93  and  N_102 
REMARK   48  A    between atoms: CB_95  and  CG_96 
REMARK   49  A    between atoms: CG_96  and  CD_97 
REMARK   50  A    between atoms: CD_97  and  NE_98 
REMARK       I    between atoms: NE_98  and  CZ_99 
REMARK       I    between atoms: CZ_99  and  NH1_100 
REMARK       I    between atoms: CZ_99  and  NH2_101 
REMARK   51  A    between atoms: N_102  and  CA_103 
REMARK   52  A    between atoms: CA_103  and  C_104 
REMARK   53  A    between atoms: CA_103  and  CB_106 
REMARK       I    between atoms: C_104  and  N_110 
REMARK   54  A    between atoms: CB_106  and  CG_107 
REMARK   55  A    between atoms: CG_107  and  CD1_108 
REMARK   56  A    between atoms: CG_107  and  CD2_109 
REMARK   57  A    between atoms: N_110  and  CA_111 
REMARK   58  A    between atoms: CA_111  and  C_112 
REMARK   59  A    between atoms: CA_111  and  CB_114 
REMARK   60  A    between atoms: CB_114  and  CG1_115 
REMARK   61  A    between atoms: CB_114  and  CG2_116 
REMARK   62  A    between atoms: CG1_115  and  CD1_117 
ROOT
ATOM      1  C   PRO d   1      14.431 -28.450  -9.287  0.00  0.00     0.243 C 
ATOM      2  O   PRO d   1      14.959 -27.640 -10.049  0.00  0.00    -0.271 OA
ATOM      3  N   PRO d   1      14.220 -28.191  -7.996  0.00  0.00    -0.337 N 
ATOM      4  CA  PRO d   1      14.575 -26.864  -7.488  0.00  0.00     0.091 C 
ATOM      5  CB  PRO d   1      14.013 -26.858  -6.067  0.00  0.00    -0.036 C 
ATOM      6  CG  PRO d   1      12.994 -27.865  -6.078  0.00  0.00    -0.048 C 
ATOM      7  CD  PRO d   1      13.411 -28.959  -7.049  0.00  0.00    -0.001 C 
ATOM      8  H62 PRO d   1      14.137 -26.063  -8.102  0.00  0.00     0.087 H 
ATOM      9  H63 PRO d   1      13.585 -25.875  -5.823  0.00  0.00     0.036 H 
ATOM     10  H64 PRO d   1      14.798 -27.108  -5.338  0.00  0.00     0.036 H 
ATOM     11  H65 PRO d   1      12.040 -27.424  -6.402  0.00  0.00     0.035 H 
ATOM     12  H66 PRO d   1      12.879 -28.288  -5.069  0.00  0.00     0.035 H 
ATOM     13  H67 PRO d   1      14.004 -29.739  -6.549  0.00  0.00     0.064 H 
ATOM     14  H68 PRO d   1      12.540 -29.418  -7.540  0.00  0.00     0.064 H 
ENDROOT
BRANCH   1  15
ATOM     15  CA  PRO d   1      14.028 -29.829  -9.800  0.00  0.00     0.092 C 
ATOM     16  N   PRO d   1      14.041 -29.878 -11.283  0.00  0.00    -0.337 N 
ATOM     17  C   PRO d   1      13.054 -29.309 -11.960  0.00  0.00     0.243 C 
ATOM     18  CD  PRO d   1      15.182 -30.627 -11.825  0.00  0.00    -0.001 C 
ATOM     19  O   PRO d   1      12.128 -28.760 -11.388  0.00  0.00    -0.271 OA
ATOM     20  CG  PRO d   1      16.067 -30.778 -10.586  0.00  0.00    -0.048 C 
ATOM     21  H60 PRO d   1      15.694 -30.061 -12.617  0.00  0.00     0.064 H 
ATOM     22  H61 PRO d   1      14.870 -31.606 -12.217  0.00  0.00     0.064 H 
ATOM     23  CB  PRO d   1      15.095 -30.856  -9.411  0.00  0.00    -0.036 C 
ATOM     24  H58 PRO d   1      16.669 -31.696 -10.651  0.00  0.00     0.035 H 
ATOM     25  H59 PRO d   1      16.733 -29.909 -10.479  0.00  0.00     0.035 H 
ATOM     26  H56 PRO d   1      14.663 -31.863  -9.318  0.00  0.00     0.036 H 
ATOM     27  H57 PRO d   1      15.588 -30.580  -8.467  0.00  0.00     0.036 H 
ATOM     28  H55 PRO d   1      13.040 -30.102  -9.402  0.00  0.00     0.087 H 
BRANCH  17  29
ATOM     29  CA  PRO d   1      13.107 -29.361 -13.507  0.00  0.00     0.092 C 
ATOM     30  N   PRO d   1      11.759 -29.469 -14.079  0.00  0.00    -0.337 N 
ATOM     31  C   MET d   1      11.004 -30.524 -13.781  0.00  0.00     0.243 C 
ATOM     32  CD  PRO d   1      11.450 -28.383 -15.025  0.00  0.00    -0.001 C 
ATOM     33  O   MET d   1      11.423 -31.451 -13.076  0.00  0.00    -0.271 OA
ATOM     34  CG  PRO d   1      12.811 -27.835 -15.311  0.00  0.00    -0.048 C 
ATOM     35  H53 PRO d   1      10.800 -27.624 -14.566  0.00  0.00     0.064 H 
ATOM     36  H54 PRO d   1      10.973 -28.770 -15.938  0.00  0.00     0.064 H 
ATOM     37  CB  PRO d   1      13.563 -28.013 -14.012  0.00  0.00    -0.036 C 
ATOM     38  H51 PRO d   1      13.296 -28.398 -16.122  0.00  0.00     0.035 H 
ATOM     39  H52 PRO d   1      12.753 -26.771 -15.586  0.00  0.00     0.035 H 
ATOM     40  H49 PRO d   1      14.649 -28.008 -14.185  0.00  0.00     0.036 H 
ATOM     41  H50 PRO d   1      13.302 -27.219 -13.297  0.00  0.00     0.036 H 
ATOM     42  H48 PRO d   1      13.761 -30.178 -13.845  0.00  0.00     0.087 H 
BRANCH  31  43
ATOM     43  CA  MET d   1       9.578 -30.503 -14.323  0.00  0.00     0.090 C 
ATOM     44  H40 MET d   1       9.521 -29.792 -15.160  0.00  0.00     0.087 H 
BRANCH  43  45
ATOM     45  N   MET d   1       9.197 -31.810 -14.793  0.00  0.00    -0.346 N 
ATOM     46  C   LEU d   1       9.727 -32.296 -15.910  0.00  0.00     0.241 C 
ATOM     47  O   LEU d   1      10.655 -31.737 -16.490  0.00  0.00    -0.271 OA
ATOM     48  H39 MET d   1       8.533 -32.352 -14.278  0.00  0.00     0.163 HD
BRANCH  46  49
ATOM     49  CA  LEU d   1       9.162 -33.626 -16.453  0.00  0.00     0.089 C 
ATOM     50  H29 LEU d   1      10.019 -34.208 -16.825  0.00  0.00     0.087 H 
BRANCH  49  51
ATOM     51  N   LEU d   1       8.498 -34.460 -15.449  0.00  0.00    -0.346 N 
ATOM     52  C   ASN d   1       9.224 -35.246 -14.667  0.00  0.00     0.241 C 
ATOM     53  O   ASN d   1      10.426 -35.389 -14.841  0.00  0.00    -0.271 OA
ATOM     54  H28 LEU d   1       7.503 -34.437 -15.354  0.00  0.00     0.163 HD
BRANCH  52  55
ATOM     55  CA  ASN d   1       8.519 -35.924 -13.480  0.00  0.00     0.097 C 
ATOM     56  H23 ASN d   1       9.261 -35.948 -12.668  0.00  0.00     0.088 H 
BRANCH  55  57
ATOM     57  N   ASN d   1       7.360 -35.228 -12.960  0.00  0.00    -0.346 N 
ATOM     58  C   TRP d   1       7.215 -35.043 -11.652  0.00  0.00     0.241 C 
ATOM     59  O   TRP d   1       8.092 -35.347 -10.838  0.00  0.00    -0.271 OA
ATOM     60  H22 ASN d   1       6.664 -34.884 -13.590  0.00  0.00     0.163 HD
BRANCH  58  61
ATOM     61  CA  TRP d   1       5.903 -34.408 -11.184  0.00  0.00     0.093 C 
ATOM     62  H13 TRP d   1       6.147 -33.416 -10.776  0.00  0.00     0.088 H 
BRANCH  61  63
ATOM     63  N   TRP d   1       4.901 -34.208 -12.241  0.00  0.00    -0.346 N 
ATOM     64  C   MET d   1       5.152 -33.507 -13.342  0.00  0.00     0.249 C 
ATOM     65  O   MET d   1       6.258 -33.059 -13.606  0.00  0.00    -0.271 OA
ATOM     66  H12 TRP d   1       3.995 -34.615 -12.127  0.00  0.00     0.163 HD
BRANCH  64  67
ATOM     67  CA  MET d   1       3.983 -33.310 -14.301  0.00  0.00     0.176 C 
ATOM     68  H4  MET d   1       4.400 -33.059 -15.287  0.00  0.00     0.099 H 
BRANCH  67  69
ATOM     69  N   MET d   1       3.206 -34.537 -14.457  0.00  0.00    -0.066 N 
ATOM     70  H1  MET d   1       2.443 -34.373 -15.095  0.00  0.00     0.275 HD
ATOM     71  H2  MET d   1       2.840 -34.819 -13.561  0.00  0.00     0.275 HD
ATOM     72  H3  MET d   1       3.799 -35.266 -14.822  0.00  0.00     0.275 HD
ENDBRANCH  67  69
BRANCH  67  73
ATOM     73  CB  MET d   1       3.104 -32.119 -13.850  0.00  0.00    -0.022 C 
ATOM     74  H5  MET d   1       3.763 -31.360 -13.404  0.00  0.00     0.037 H 
ATOM     75  H6  MET d   1       2.399 -32.485 -13.089  0.00  0.00     0.037 H 
BRANCH  73  76
ATOM     76  CG  MET d   1       2.292 -31.447 -14.965  0.00  0.00    -0.021 C 
ATOM     77  H7  MET d   1       1.352 -32.007 -15.076  0.00  0.00     0.049 H 
ATOM     78  H8  MET d   1       2.876 -31.523 -15.894  0.00  0.00     0.049 H 
BRANCH  76  79
ATOM     79  SD  MET d   1       1.861 -29.686 -14.725  0.00  0.00    -0.173 SA
BRANCH  79  80
ATOM     80  CE  MET d   1       3.254 -29.100 -13.757  0.00  0.00    -0.035 C 
ATOM     81  H9  MET d   1       3.123 -28.030 -13.536  0.00  0.00     0.041 H 
ATOM     82  H10 MET d   1       4.184 -29.245 -14.327  0.00  0.00     0.041 H 
ATOM     83  H11 MET d   1       3.309 -29.665 -12.815  0.00  0.00     0.041 H 
ENDBRANCH  79  80
ENDBRANCH  76  79
ENDBRANCH  73  76
ENDBRANCH  67  73
ENDBRANCH  64  67
ENDBRANCH  61  63
BRANCH  61  84
ATOM     84  CB  TRP d   1       5.308 -35.258 -10.058  0.00  0.00    -0.012 C 
ATOM     85  H14 TRP d   1       4.644 -34.626  -9.450  0.00  0.00     0.044 H 
ATOM     86  H15 TRP d   1       6.127 -35.640  -9.431  0.00  0.00     0.044 H 
BRANCH  84  87
ATOM     87  CG  TRP d   1       4.526 -36.412 -10.581  0.00  0.00    -0.028 A 
ATOM     88  CD1 TRP d   1       3.176 -36.468 -10.774  0.00  0.00    -0.015 A 
ATOM     89  NE1 TRP d   1       2.822 -37.692 -11.286  0.00  0.00    -0.365 N 
ATOM     90  H16 TRP d   1       2.481 -35.659 -10.554  0.00  0.00     0.112 H 
ATOM     91  CE2 TRP d   1       3.953 -38.450 -11.444  0.00  0.00     0.042 A 
ATOM     92  H17 TRP d   1       1.863 -37.992 -11.514  0.00  0.00     0.165 HD
ATOM     93  CD2 TRP d   1       5.047 -37.672 -11.013  0.00  0.00    -0.002 A 
ATOM     94  CZ2 TRP d   1       4.104 -39.748 -11.926  0.00  0.00    -0.056 A 
ATOM     95  CE3 TRP d   1       6.331 -38.222 -11.069  0.00  0.00    -0.070 A 
ATOM     96  CZ3 TRP d   1       6.479 -39.510 -11.548  0.00  0.00    -0.082 A 
ATOM     97  H18 TRP d   1       7.192 -37.650 -10.743  0.00  0.00     0.084 H 
ATOM     98  CH2 TRP d   1       5.374 -40.259 -11.972  0.00  0.00    -0.081 A 
ATOM     99  H20 TRP d   1       7.469 -39.949 -11.596  0.00  0.00     0.083 H 
ATOM    100  H21 TRP d   1       5.527 -41.265 -12.345  0.00  0.00     0.083 H 
ATOM    101  H19 TRP d   1       3.250 -40.331 -12.252  0.00  0.00     0.086 H 
ENDBRANCH  84  87
ENDBRANCH  61  84
ENDBRANCH  58  61
ENDBRANCH  55  57
BRANCH  55 102
ATOM    102  CB  ASN d   1       8.126 -37.359 -13.765  0.00  0.00     0.036 C 
ATOM    103  H24 ASN d   1       7.860 -37.446 -14.829  0.00  0.00     0.051 H 
ATOM    104  H25 ASN d   1       7.253 -37.614 -13.147  0.00  0.00     0.051 H 
BRANCH 102 105
ATOM    105  CG  ASN d   1       9.237 -38.343 -13.462  0.00  0.00     0.217 C 
ATOM    106  OD1 ASN d   1      10.395 -37.963 -13.297  0.00  0.00    -0.274 OA
ATOM    107  ND2 ASN d   1       8.886 -39.619 -13.393  0.00  0.00    -0.370 N 
ATOM    108  H26 ASN d   1       9.575 -40.317 -13.196  0.00  0.00     0.159 HD
ATOM    109  H27 ASN d   1       7.933 -39.884 -13.538  0.00  0.00     0.159 HD
ENDBRANCH 102 105
ENDBRANCH  55 102
ENDBRANCH  52  55
ENDBRANCH  49  51
BRANCH  49 110
ATOM    110  CB  LEU d   1       8.243 -33.347 -17.649  0.00  0.00    -0.035 C 
ATOM    111  H30 LEU d   1       7.952 -34.312 -18.090  0.00  0.00     0.037 H 
ATOM    112  H31 LEU d   1       8.810 -32.762 -18.388  0.00  0.00     0.037 H 
BRANCH 110 113
ATOM    113  CG  LEU d   1       6.971 -32.577 -17.310  0.00  0.00    -0.059 C 
ATOM    114  H32 LEU d   1       7.252 -31.639 -16.809  0.00  0.00     0.038 H 
BRANCH 113 115
ATOM    115  CD1 LEU d   1       6.189 -32.244 -18.559  0.00  0.00    -0.073 C 
ATOM    116  H33 LEU d   1       5.279 -31.690 -18.285  0.00  0.00     0.028 H 
ATOM    117  H34 LEU d   1       5.910 -33.174 -19.076  0.00  0.00     0.028 H 
ATOM    118  H35 LEU d   1       6.808 -31.625 -19.225  0.00  0.00     0.028 H 
ENDBRANCH 113 115
BRANCH 113 119
ATOM    119  CD2 LEU d   1       6.099 -33.397 -16.369  0.00  0.00    -0.073 C 
ATOM    120  H36 LEU d   1       6.668 -33.639 -15.460  0.00  0.00     0.028 H 
ATOM    121  H37 LEU d   1       5.794 -34.328 -16.870  0.00  0.00     0.028 H 
ATOM    122  H38 LEU d   1       5.205 -32.816 -16.098  0.00  0.00     0.028 H 
ENDBRANCH 113 119
ENDBRANCH 110 113
ENDBRANCH  49 110
ENDBRANCH  46  49
ENDBRANCH  43  45
BRANCH  43 123
ATOM    123  CB  MET d   1       8.629 -30.050 -13.210  0.00  0.00    -0.030 C 
ATOM    124  H41 MET d   1       8.937 -29.048 -12.878  0.00  0.00     0.037 H 
ATOM    125  H42 MET d   1       8.715 -30.757 -12.371  0.00  0.00     0.037 H 
BRANCH 123 126
ATOM    126  CG  MET d   1       7.151 -29.986 -13.642  0.00  0.00    -0.021 C 
ATOM    127  H43 MET d   1       6.554 -29.615 -12.796  0.00  0.00     0.049 H 
ATOM    128  H44 MET d   1       6.819 -31.000 -13.908  0.00  0.00     0.049 H 
BRANCH 126 129
ATOM    129  SD  MET d   1       6.884 -28.912 -15.044  0.00  0.00    -0.173 SA
BRANCH 129 130
ATOM    130  CE  MET d   1       6.927 -27.315 -14.303  0.00  0.00    -0.035 C 
ATOM    131  H45 MET d   1       6.772 -26.548 -15.076  0.00  0.00     0.041 H 
ATOM    132  H46 MET d   1       7.905 -27.160 -13.823  0.00  0.00     0.041 H 
ATOM    133  H47 MET d   1       6.131 -27.240 -13.547  0.00  0.00     0.041 H 
ENDBRANCH 129 130
ENDBRANCH 126 129
ENDBRANCH 123 126
ENDBRANCH  43 123
ENDBRANCH  31  43
ENDBRANCH  17  29
ENDBRANCH   1  15
BRANCH   4 134
ATOM    134  C   PRO d   1      16.087 -26.728  -7.435  0.00  0.00     0.241 C 
ATOM    135  O   PRO d   1      16.831 -27.668  -7.179  0.00  0.00    -0.271 OA
ATOM    136  N   ALA d   1      16.546 -25.506  -7.618  0.00  0.00    -0.346 N 
ATOM    137  H69 ALA d   1      15.922 -24.784  -7.916  0.00  0.00     0.163 HD
BRANCH 136 138
ATOM    138  CA  ALA d   1      17.960 -25.193  -7.390  0.00  0.00     0.086 C 
ATOM    139  H70 ALA d   1      18.581 -25.959  -7.877  0.00  0.00     0.086 H 
BRANCH 138 140
ATOM    140  C   ALA d   1      18.281 -25.161  -5.892  0.00  0.00     0.240 C 
ATOM    141  O   ALA d   1      17.499 -24.667  -5.102  0.00  0.00    -0.271 OA
ATOM    142  N   SME d   1      19.461 -25.625  -5.532  0.00  0.00    -0.346 N 
ATOM    143  H74 SME d   1      20.060 -26.031  -6.222  0.00  0.00     0.163 HD
BRANCH 142 144
ATOM    144  CA  SME d   1      19.906 -25.558  -4.157  0.00  0.00     0.090 C 
ATOM    145  H75 SME d   1      19.181 -26.052  -3.493  0.00  0.00     0.087 H 
BRANCH 144 146
ATOM    146  CB  SME d   1      21.264 -26.268  -4.091  0.00  0.00    -0.029 C 
ATOM    147  H76 SME d   1      21.986 -25.675  -4.671  0.00  0.00     0.037 H 
ATOM    148  H77 SME d   1      21.151 -27.261  -4.551  0.00  0.00     0.037 H 
BRANCH 146 149
ATOM    149  CG  SME d   1      21.825 -26.459  -2.706  0.00  0.00    -0.008 C 
ATOM    150  H78 SME d   1      21.661 -25.530  -2.139  0.00  0.00     0.051 H 
ATOM    151  H79 SME d   1      22.905 -26.647  -2.797  0.00  0.00     0.051 H 
BRANCH 149 152
ATOM    152  S   SME d   1      21.106 -27.801  -1.788  0.00  0.00    -0.096 S 
BRANCH 152 153
ATOM    153  OE  SME d   1      19.889 -28.392  -2.445  0.00  0.00    -0.342 OA
ATOM    154  H80 SME d   1      20.124 -28.727  -3.302  0.00  0.00     0.226 HD
ENDBRANCH 152 153
BRANCH 152 155
ATOM    155  CE  SME d   1      20.825 -26.877  -0.334  0.00  0.00    -0.021 C 
ATOM    156  H81 SME d   1      20.361 -27.522   0.426  0.00  0.00     0.043 H 
ATOM    157  H82 SME d   1      20.155 -26.034  -0.559  0.00  0.00     0.043 H 
ATOM    158  H83 SME d   1      21.783 -26.492   0.047  0.00  0.00     0.043 H 
ENDBRANCH 152 155
ENDBRANCH 149 152
ENDBRANCH 146 149
ENDBRANCH 144 146
BRANCH 144 159
ATOM    159  C   SME d   1      20.077 -24.077  -3.745  0.00  0.00     0.241 C 
ATOM    160  O   SME d   1      20.620 -23.233  -4.471  0.00  0.00    -0.271 OA
ATOM    161  N   GLU d   1      19.628 -23.758  -2.531  0.00  0.00    -0.346 N 
ATOM    162  H84 GLU d   1      19.246 -24.488  -1.964  0.00  0.00     0.163 HD
BRANCH 161 163
ATOM    163  CA  GLU d   1      19.661 -22.386  -1.972  0.00  0.00     0.090 C 
ATOM    164  H85 GLU d   1      20.023 -21.660  -2.715  0.00  0.00     0.087 H 
BRANCH 163 165
ATOM    165  C   GLU d   1      20.573 -22.424  -0.748  0.00  0.00     0.241 C 
ATOM    166  O   GLU d   1      20.472 -23.370   0.071  0.00  0.00    -0.271 OA
ATOM    167  N   ARG d   1      21.461 -21.452  -0.591  0.00  0.00    -0.346 N 
ATOM    168  H90 ARG d   1      21.562 -20.761  -1.307  0.00  0.00     0.163 HD
BRANCH 167 169
ATOM    169  CA  ARG d   1      22.297 -21.370   0.610  0.00  0.00     0.089 C 
ATOM    170  H91 ARG d   1      21.911 -22.082   1.355  0.00  0.00     0.087 H 
BRANCH 169 171
ATOM    171  C   ARG d   1      22.227 -19.940   1.184  0.00  0.00     0.241 C 
ATOM    172  O   ARG d   1      22.148 -18.948   0.450  0.00  0.00    -0.271 OA
ATOM    173  N   LEU d   1      22.327 -19.860   2.516  0.00  0.00    -0.346 N 
ATOM    174 3H10 LEU d   1      22.464 -20.704   3.034  0.00  0.00     0.163 HD
BRANCH 173 175
ATOM    175  CA  LEU d   1      22.245 -18.582   3.259  0.00  0.00     0.089 C 
ATOM    176 4H10 LEU d   1      21.553 -17.904   2.737  0.00  0.00     0.087 H 
BRANCH 175 177
ATOM    177  C   LEU d   1      23.610 -17.927   3.354  0.00  0.00     0.241 C 
ATOM    178  O   LEU d   1      24.589 -18.567   3.781  0.00  0.00    -0.271 OA
ATOM    179  N   ILE d   1      23.624 -16.626   3.065  0.00  0.00    -0.344 N 
ATOM    180 4H11 ILE d   1      22.797 -16.217   2.680  0.00  0.00     0.163 HD
BRANCH 179 181
ATOM    181  CA  ILE d   1      24.795 -15.759   3.283  0.00  0.00     0.099 C 
ATOM    182 5H11 ILE d   1      25.538 -16.373   3.812  0.00  0.00     0.090 H 
BRANCH 181 183
ATOM    183  C   ILE d   1      24.511 -14.550   4.193  0.00  0.00     0.197 C 
ATOM    184  O   ILE d   1      23.287 -14.222   4.332  0.00  0.00    -0.646 OA
ATOM    185  OXT ILE d   1      25.520 -13.964   4.695  0.00  0.00    -0.646 OA
ENDBRANCH 181 183
BRANCH 181 186
ATOM    186  CB  ILE d   1      25.441 -15.335   1.956  0.00  0.00    -0.029 C 
ATOM    187 6H11 ILE d   1      26.343 -14.762   2.219  0.00  0.00     0.043 H 
BRANCH 186 188
ATOM    188  CG1 ILE d   1      24.554 -14.386   1.126  0.00  0.00    -0.063 C 
ATOM    189 7H11 ILE d   1      24.180 -13.591   1.787  0.00  0.00     0.033 H 
ATOM    190 8H11 ILE d   1      23.705 -14.961   0.728  0.00  0.00     0.033 H 
BRANCH 188 191
ATOM    191  CD1 ILE d   1      25.282 -13.744  -0.031  0.00  0.00    -0.076 C 
ATOM    192 2H12 ILE d   1      24.593 -13.083  -0.577  0.00  0.00     0.027 H 
ATOM    193 3H12 ILE d   1      25.654 -14.526  -0.709  0.00  0.00     0.027 H 
ATOM    194 4H12 ILE d   1      26.129 -13.155   0.350  0.00  0.00     0.027 H 
ENDBRANCH 188 191
ENDBRANCH 186 188
BRANCH 186 195
ATOM    195  CG2 ILE d   1      25.910 -16.535   1.157  0.00  0.00    -0.070 C 
ATOM    196 9H11 ILE d   1      26.537 -17.177   1.794  0.00  0.00     0.028 H 
ATOM    197 0H12 ILE d   1      26.496 -16.193   0.291  0.00  0.00     0.028 H 
ATOM    198 1H12 ILE d   1      25.038 -17.106   0.806  0.00  0.00     0.028 H 
ENDBRANCH 186 195
ENDBRANCH 181 186
ENDBRANCH 179 181
ENDBRANCH 175 177
BRANCH 175 199
ATOM    199  CB  LEU d   1      21.717 -18.857   4.699  0.00  0.00    -0.035 C 
ATOM    200 5H10 LEU d   1      22.377 -19.614   5.148  0.00  0.00     0.037 H 
ATOM    201 6H10 LEU d   1      20.702 -19.268   4.600  0.00  0.00     0.037 H 
BRANCH 199 202
ATOM    202  CG  LEU d   1      21.637 -17.698   5.673  0.00  0.00    -0.059 C 
ATOM    203 7H10 LEU d   1      22.622 -17.212   5.742  0.00  0.00     0.038 H 
BRANCH 202 204
ATOM    204  CD1 LEU d   1      20.637 -16.685   5.137  0.00  0.00    -0.073 C 
ATOM    205 8H10 LEU d   1      20.567 -15.836   5.833  0.00  0.00     0.028 H 
ATOM    206 9H10 LEU d   1      19.650 -17.161   5.038  0.00  0.00     0.028 H 
ATOM    207 0H11 LEU d   1      20.971 -16.326   4.153  0.00  0.00     0.028 H 
ENDBRANCH 202 204
BRANCH 202 208
ATOM    208  CD2 LEU d   1      21.274 -18.226   7.032  0.00  0.00    -0.073 C 
ATOM    209 1H11 LEU d   1      22.035 -18.950   7.359  0.00  0.00     0.028 H 
ATOM    210 2H11 LEU d   1      20.293 -18.722   6.983  0.00  0.00     0.028 H 
ATOM    211 3H11 LEU d   1      21.229 -17.393   7.749  0.00  0.00     0.028 H 
ENDBRANCH 202 208
ENDBRANCH 199 202
ENDBRANCH 175 199
ENDBRANCH 173 175
ENDBRANCH 169 171
BRANCH 169 212
ATOM    212  CB  ARG d   1      23.774 -21.705   0.322  0.00  0.00    -0.036 C 
ATOM    213  H92 ARG d   1      24.342 -21.552   1.251  0.00  0.00     0.036 H 
ATOM    214  H93 ARG d   1      24.135 -21.007  -0.448  0.00  0.00     0.036 H 
BRANCH 212 215
ATOM    215  CG  ARG d   1      24.046 -23.103  -0.160  0.00  0.00    -0.048 C 
ATOM    216  H94 ARG d   1      25.135 -23.213  -0.272  0.00  0.00     0.035 H 
ATOM    217  H95 ARG d   1      23.563 -23.219  -1.141  0.00  0.00     0.035 H 
BRANCH 215 218
ATOM    218  CD  ARG d   1      23.558 -24.229   0.730  0.00  0.00     0.009 C 
ATOM    219  H96 ARG d   1      23.802 -25.184   0.243  0.00  0.00     0.064 H 
ATOM    220  H97 ARG d   1      22.467 -24.139   0.833  0.00  0.00     0.064 H 
BRANCH 218 221
ATOM    221  NE  ARG d   1      24.143 -24.234   2.062  0.00  0.00    -0.227 N 
ATOM    222  CZ  ARG d   1      25.310 -24.815   2.364  0.00  0.00     0.665 C 
ATOM    223  NH1 ARG d   1      26.028 -25.460   1.447  0.00  0.00    -0.235 N 
ATOM    224  NH2 ARG d   1      25.711 -24.769   3.608  0.00  0.00    -0.235 N 
ATOM    225  H99 ARG d   1      26.923 -25.898   1.708  0.00  0.00     0.174 HD
ATOM    226 0H10 ARG d   1      25.689 -25.521   0.476  0.00  0.00     0.174 HD
ATOM    227 1H10 ARG d   1      25.150 -24.268   4.312  0.00  0.00     0.174 HD
ATOM    228 2H10 ARG d   1      26.588 -25.234   3.884  0.00  0.00     0.174 HD
ATOM    229  H98 ARG d   1      23.628 -23.762   2.818  0.00  0.00     0.177 HD
ENDBRANCH 218 221
ENDBRANCH 215 218
ENDBRANCH 212 215
ENDBRANCH 169 212
ENDBRANCH 167 169
ENDBRANCH 163 165
BRANCH 163 230
ATOM    230  CB  GLU d   1      18.240 -22.037  -1.507  0.00  0.00    -0.029 C 
ATOM    231  H86 GLU d   1      17.921 -22.801  -0.783  0.00  0.00     0.037 H 
ATOM    232  H87 GLU d   1      17.578 -22.064  -2.385  0.00  0.00     0.037 H 
BRANCH 230 233
ATOM    233  CG  GLU d   1      18.093 -20.677  -0.850  0.00  0.00     0.018 C 
ATOM    234  H88 GLU d   1      18.369 -19.904  -1.583  0.00  0.00     0.049 H 
ATOM    235  H89 GLU d   1      18.779 -20.629   0.009  0.00  0.00     0.049 H 
BRANCH 233 236
ATOM    236  CD  GLU d   1      16.708 -20.397  -0.366  0.00  0.00     0.172 C 
ATOM    237  OE1 GLU d   1      16.108 -21.241   0.334  0.00  0.00    -0.648 OA
ATOM    238  OE2 GLU d   1      16.247 -19.269  -0.604  0.00  0.00    -0.648 OA
ENDBRANCH 233 236
ENDBRANCH 230 233
ENDBRANCH 163 230
ENDBRANCH 161 163
ENDBRANCH 144 159
ENDBRANCH 142 144
ENDBRANCH 138 140
BRANCH 138 239
ATOM    239  CB  ALA d   1      18.270 -23.842  -7.978  0.00  0.00    -0.049 C 
ATOM    240  H71 ALA d   1      19.330 -23.603  -7.809  0.00  0.00     0.030 H 
ATOM    241  H72 ALA d   1      17.641 -23.079  -7.496  0.00  0.00     0.030 H 
ATOM    242  H73 ALA d   1      18.065 -23.857  -9.059  0.00  0.00     0.030 H 
ENDBRANCH 138 239
ENDBRANCH 136 138
ENDBRANCH   4 134
TORSDOF 62
