REMARK WARNING: 32 MAX_TORS EXCEEDED!!!
REMARK  38 active torsions:
REMARK  status: ('A' for Active; 'I' for Inactive)
REMARK    1  A    between atoms: C_1  and  C1_3 
REMARK       I    between atoms: C_1  and  N_9 
REMARK    2  A    between atoms: N_9  and  CA_10 
REMARK    3  A    between atoms: CA_10  and  C_11 
REMARK       I    between atoms: C_11  and  N_13 
REMARK    4  A    between atoms: N_13  and  CA_14 
REMARK    5  A    between atoms: CA_14  and  C_15 
REMARK    6  A    between atoms: CA_14  and  CB_17 
REMARK       I    between atoms: C_15  and  N_20 
REMARK    7  A    between atoms: CB_17  and  CG1_18 
REMARK    8  A    between atoms: CB_17  and  CG2_19 
REMARK    9  A    between atoms: N_20  and  CA_21 
REMARK   10  A    between atoms: CA_21  and  C_22 
REMARK   11  A    between atoms: CA_21  and  CB_24 
REMARK       I    between atoms: C_22  and  N_28 
REMARK   12  A    between atoms: CB_24  and  CG_25 
REMARK   13  A    between atoms: CG_25  and  CD1_26 
REMARK   14  A    between atoms: CG_25  and  CD2_27 
REMARK   15  A    between atoms: N_28  and  CA_29 
REMARK   16  A    between atoms: CA_29  and  C_30 
REMARK   17  A    between atoms: CA_29  and  CB_32 
REMARK       I    between atoms: C_30  and  N_37 
REMARK   18  A    between atoms: CB_32  and  CG_33 
REMARK   19  A    between atoms: CG_33  and  CD_34 
REMARK   20  A    between atoms: CD_34  and  CE_35 
REMARK   21  A    between atoms: CE_35  and  NZ_36 
REMARK   22  A    between atoms: N_37  and  CA_38 
REMARK   23  A    between atoms: CA_38  and  C_39 
REMARK   24  A    between atoms: CA_38  and  CB_41 
REMARK       I    between atoms: C_39  and  N_46 
REMARK   25  A    between atoms: CB_41  and  CG_42 
REMARK   26  A    between atoms: CG_42  and  CD_43 
REMARK   27  A    between atoms: N_46  and  CA_47 
REMARK   28  A    between atoms: CA_47  and  C_48 
REMARK   29  A    between atoms: CA_47  and  CB_50 
REMARK       I    between atoms: C_48  and  N_58 
REMARK   30  A    between atoms: CB_50  and  CG_51 
REMARK   31  A    between atoms: CZ_56  and  OH_57 
REMARK   32  A    between atoms: N_58  and  CA_59 
REMARK   33  A    between atoms: CA_59  and  C_60 
REMARK       I    between atoms: C_60  and  N_62 
REMARK   34  A    between atoms: N_62  and  CA_63 
REMARK   35  A    between atoms: CA_63  and  C_64 
REMARK   36  A    between atoms: CA_63  and  CB_66 
REMARK   37  A    between atoms: CB_66  and  CG1_67 
REMARK   38  A    between atoms: CB_66  and  CG2_68 
ROOT
ATOM      1  CA  LYS d   1     -31.802 -22.423   1.598  0.00  0.00     0.089 C 
ATOM      2  H   LYS d   1     -30.705 -22.383   1.673  0.00  0.00     0.087 H 
ENDROOT
BRANCH   1   3
ATOM      3  N   LYS d   1     -32.386 -22.800   2.866  0.00  0.00    -0.346 N 
ATOM      4  C   LEU d   1     -32.460 -21.937   3.876  0.00  0.00     0.241 C 
ATOM      5  O   LEU d   1     -31.916 -20.836   3.855  0.00  0.00    -0.271 OA
ATOM      6  H   LYS d   1     -32.741 -23.727   2.986  0.00  0.00     0.163 HD
BRANCH   4   7
ATOM      7  CA  LEU d   1     -33.273 -22.378   5.090  0.00  0.00     0.089 C 
ATOM      8  H   LEU d   1     -33.483 -23.454   4.995  0.00  0.00     0.087 H 
BRANCH   7   9
ATOM      9  N   LEU d   1     -32.541 -22.170   6.338  0.00  0.00    -0.346 N 
ATOM     10  C   VAL d   1     -31.622 -23.044   6.733  0.00  0.00     0.241 C 
ATOM     11  O   VAL d   1     -31.400 -24.076   6.112  0.00  0.00    -0.271 OA
ATOM     12  H   LEU d   1     -32.733 -21.364   6.898  0.00  0.00     0.163 HD
BRANCH  10  13
ATOM     13  CA  VAL d   1     -30.837 -22.720   8.001  0.00  0.00     0.092 C 
ATOM     14  H   VAL d   1     -31.316 -21.882   8.530  0.00  0.00     0.088 H 
BRANCH  13  15
ATOM     15  N   VAL d   1     -30.793 -23.876   8.880  0.00  0.00    -0.346 N 
ATOM     16  C   GLY d   1     -31.854 -24.291   9.561  0.00  0.00     0.236 C 
ATOM     17  O   GLY d   1     -32.942 -23.706   9.539  0.00  0.00    -0.272 OA
ATOM     18  H   VAL d   1     -29.933 -24.377   8.975  0.00  0.00     0.163 HD
BRANCH  16  19
ATOM     19  CA  GLY d   1     -31.628 -25.546  10.382  0.00  0.00     0.069 C 
ATOM     20  H   GLY d   1     -31.971 -26.423   9.814  0.00  0.00     0.078 H 
ATOM     21  H   GLY d   1     -30.556 -25.651  10.606  0.00  0.00     0.078 H 
BRANCH  19  22
ATOM     22  N   GLY d   1     -32.401 -25.445  11.666  0.00  0.00    -0.348 N 
ATOM     23  C   BEZ d   1     -33.344 -26.346  12.055  0.00  0.00     0.252 C 
ATOM     24  O1  BEZ d   1     -33.758 -27.296  11.378  0.00  0.00    -0.268 OA
ATOM     25  H   GLY d   1     -32.212 -24.671  12.270  0.00  0.00     0.163 HD
BRANCH  23  26
ATOM     26  C1  BEZ d   1     -33.912 -26.091  13.301  0.00  0.00     0.032 A 
ATOM     27  C2  BEZ d   1     -34.835 -25.059  13.425  0.00  0.00    -0.068 A 
ATOM     28  C3  BEZ d   1     -35.418 -24.786  14.647  0.00  0.00    -0.082 A 
ATOM     29  H   BEZ d   1     -35.099 -24.465  12.557  0.00  0.00     0.085 H 
ATOM     30  C4  BEZ d   1     -35.069 -25.558  15.747  0.00  0.00    -0.083 A 
ATOM     31  H   BEZ d   1     -36.137 -23.981  14.746  0.00  0.00     0.083 H 
ATOM     32  C5  BEZ d   1     -34.153 -26.593  15.632  0.00  0.00    -0.082 A 
ATOM     33  H   BEZ d   1     -35.519 -25.349  16.710  0.00  0.00     0.083 H 
ATOM     34  C6  BEZ d   1     -33.570 -26.865  14.405  0.00  0.00    -0.068 A 
ATOM     35  H   BEZ d   1     -33.894 -27.188  16.500  0.00  0.00     0.083 H 
ATOM     36  H   BEZ d   1     -32.854 -27.673  14.306  0.00  0.00     0.085 H 
ENDBRANCH  23  26
ENDBRANCH  19  22
ENDBRANCH  16  19
ENDBRANCH  13  15
BRANCH  13  37
ATOM     37  CB  VAL d   1     -29.417 -22.322   7.577  0.00  0.00    -0.033 C 
ATOM     38  H   VAL d   1     -29.017 -23.112   6.925  0.00  0.00     0.042 H 
BRANCH  37  39
ATOM     39  CG1 VAL d   1     -29.445 -21.026   6.791  0.00  0.00    -0.071 C 
ATOM     40  H   VAL d   1     -28.421 -20.755   6.495  0.00  0.00     0.028 H 
ATOM     41  H   VAL d   1     -29.870 -20.227   7.416  0.00  0.00     0.028 H 
ATOM     42  H   VAL d   1     -30.065 -21.156   5.891  0.00  0.00     0.028 H 
ENDBRANCH  37  39
BRANCH  37  43
ATOM     43  CG2 VAL d   1     -28.509 -22.203   8.789  0.00  0.00    -0.071 C 
ATOM     44  H   VAL d   1     -28.507 -23.155   9.340  0.00  0.00     0.028 H 
ATOM     45  H   VAL d   1     -28.876 -21.400   9.445  0.00  0.00     0.028 H 
ATOM     46  H   VAL d   1     -27.486 -21.968   8.459  0.00  0.00     0.028 H 
ENDBRANCH  37  43
ENDBRANCH  13  37
ENDBRANCH  10  13
ENDBRANCH   7   9
BRANCH   7  47
ATOM     47  CB  LEU d   1     -34.604 -21.622   5.098  0.00  0.00    -0.035 C 
ATOM     48  H   LEU d   1     -34.894 -21.429   4.055  0.00  0.00     0.037 H 
ATOM     49  H   LEU d   1     -34.451 -20.665   5.619  0.00  0.00     0.037 H 
BRANCH  47  50
ATOM     50  CG  LEU d   1     -35.752 -22.356   5.782  0.00  0.00    -0.059 C 
ATOM     51  H   LEU d   1     -35.874 -21.950   6.797  0.00  0.00     0.038 H 
BRANCH  50  52
ATOM     52  CD1 LEU d   1     -37.059 -22.159   5.022  0.00  0.00    -0.073 C 
ATOM     53  H   LEU d   1     -37.867 -22.698   5.537  0.00  0.00     0.028 H 
ATOM     54  H   LEU d   1     -36.951 -22.550   3.999  0.00  0.00     0.028 H 
ATOM     55  H   LEU d   1     -37.301 -21.087   4.981  0.00  0.00     0.028 H 
ENDBRANCH  50  52
BRANCH  50  56
ATOM     56  CD2 LEU d   1     -35.423 -23.831   5.882  0.00  0.00    -0.073 C 
ATOM     57  H   LEU d   1     -34.479 -23.960   6.432  0.00  0.00     0.028 H 
ATOM     58  H   LEU d   1     -35.319 -24.253   4.872  0.00  0.00     0.028 H 
ATOM     59  H   LEU d   1     -36.232 -24.352   6.415  0.00  0.00     0.028 H 
ENDBRANCH  50  56
ENDBRANCH  47  50
ENDBRANCH   7  47
ENDBRANCH   4   7
ENDBRANCH   1   3
BRANCH   1  60
ATOM     60  C   LYS d   1     -32.369 -21.020   1.271  0.00  0.00     0.241 C 
ATOM     61  O   LYS d   1     -33.543 -20.757   1.526  0.00  0.00    -0.271 OA
ATOM     62  N   GLU d   1     -31.535 -20.148   0.701  0.00  0.00    -0.346 N 
ATOM     63  H   GLU d   1     -30.642 -20.482   0.401  0.00  0.00     0.163 HD
BRANCH  62  64
ATOM     64  CA  GLU d   1     -31.850 -18.714   0.485  0.00  0.00     0.090 C 
ATOM     65  H   GLU d   1     -30.885 -18.189   0.539  0.00  0.00     0.087 H 
BRANCH  64  66
ATOM     66  C   GLU d   1     -32.744 -18.042   1.569  0.00  0.00     0.241 C 
ATOM     67  O   GLU d   1     -33.410 -17.024   1.309  0.00  0.00    -0.271 OA
ATOM     68  N   TYR d   1     -32.701 -18.600   2.782  0.00  0.00    -0.346 N 
ATOM     69  H   TYR d   1     -32.114 -19.401   2.905  0.00  0.00     0.163 HD
BRANCH  68  70
ATOM     70  CA  TYR d   1     -33.461 -18.117   3.959  0.00  0.00     0.093 C 
ATOM     71  H   TYR d   1     -33.149 -18.737   4.812  0.00  0.00     0.088 H 
BRANCH  70  72
ATOM     72  C   TYR d   1     -34.988 -18.255   3.829  0.00  0.00     0.241 C 
ATOM     73  O   TYR d   1     -35.726 -17.853   4.725  0.00  0.00    -0.271 OA
ATOM     74  N   GLY d   1     -35.473 -18.812   2.723  0.00  0.00    -0.351 N 
ATOM     75  H   GLY d   1     -34.845 -19.095   1.998  0.00  0.00     0.163 HD
BRANCH  74  76
ATOM     76  CA  GLY d   1     -36.900 -19.015   2.553  0.00  0.00     0.069 C 
ATOM     77  H   GLY d   1     -37.360 -19.121   3.547  0.00  0.00     0.078 H 
ATOM     78  H   GLY d   1     -37.057 -19.938   1.976  0.00  0.00     0.078 H 
BRANCH  76  79
ATOM     79  C   GLY d   1     -37.578 -17.870   1.826  0.00  0.00     0.236 C 
ATOM     80  O   GLY d   1     -38.810 -17.854   1.700  0.00  0.00    -0.272 OA
ATOM     81  N   VAL d   1     -36.791 -16.903   1.349  0.00  0.00    -0.345 N 
ATOM     82  H   VAL d   1     -35.806 -16.952   1.515  0.00  0.00     0.163 HD
BRANCH  81  83
ATOM     83  CA  VAL d   1     -37.336 -15.758   0.580  0.00  0.00     0.099 C 
ATOM     84  H   VAL d   1     -37.973 -15.169   1.256  0.00  0.00     0.090 H 
BRANCH  83  85
ATOM     85  C   VAL d   1     -38.181 -16.210  -0.623  0.00  0.00     0.197 C 
ATOM     86  O   VAL d   1     -39.325 -15.784  -0.798  0.00  0.00    -0.646 OA
ATOM     87  O2  VAL d   1     -37.695 -17.031  -1.446  0.00  0.00    -0.646 OA
ENDBRANCH  83  85
BRANCH  83  88
ATOM     88  CB  VAL d   1     -36.204 -14.851   0.044  0.00  0.00    -0.032 C 
ATOM     89  H   VAL d   1     -35.273 -15.437   0.049  0.00  0.00     0.042 H 
BRANCH  88  90
ATOM     90  CG1 VAL d   1     -36.478 -14.434  -1.403  0.00  0.00    -0.071 C 
ATOM     91  H   VAL d   1     -35.660 -13.791  -1.760  0.00  0.00     0.028 H 
ATOM     92  H   VAL d   1     -37.428 -13.881  -1.452  0.00  0.00     0.028 H 
ATOM     93  H   VAL d   1     -36.543 -15.331  -2.037  0.00  0.00     0.028 H 
ENDBRANCH  88  90
BRANCH  88  94
ATOM     94  CG2 VAL d   1     -35.996 -13.651   0.957  0.00  0.00    -0.071 C 
ATOM     95  H   VAL d   1     -35.803 -13.999   1.982  0.00  0.00     0.028 H 
ATOM     96  H   VAL d   1     -36.898 -13.022   0.947  0.00  0.00     0.028 H 
ATOM     97  H   VAL d   1     -35.136 -13.064   0.601  0.00  0.00     0.028 H 
ENDBRANCH  88  94
ENDBRANCH  83  88
ENDBRANCH  81  83
ENDBRANCH  76  79
ENDBRANCH  74  76
ENDBRANCH  70  72
BRANCH  70  98
ATOM     98  CB  TYR d   1     -33.122 -16.661   4.291  0.00  0.00    -0.014 C 
ATOM     99  H   TYR d   1     -33.605 -16.414   5.248  0.00  0.00     0.043 H 
ATOM    100  H   TYR d   1     -33.541 -16.029   3.494  0.00  0.00     0.043 H 
BRANCH  98 101
ATOM    101  CG  TYR d   1     -31.639 -16.328   4.418  0.00  0.00    -0.056 A 
ATOM    102  CD1 TYR d   1     -30.832 -16.937   5.385  0.00  0.00    -0.074 A 
ATOM    103  CE1 TYR d   1     -29.484 -16.623   5.491  0.00  0.00    -0.051 A 
ATOM    104  H   TYR d   1     -31.266 -17.665   6.061  0.00  0.00     0.084 H 
ATOM    105  CZ  TYR d   1     -28.931 -15.677   4.643  0.00  0.00     0.065 A 
ATOM    106  H   TYR d   1     -28.867 -17.116   6.234  0.00  0.00     0.087 H 
ATOM    107  CE2 TYR d   1     -29.713 -15.059   3.695  0.00  0.00    -0.051 A 
ATOM    108  CD2 TYR d   1     -31.052 -15.378   3.588  0.00  0.00    -0.074 A 
ATOM    109  H   TYR d   1     -29.277 -14.321   3.031  0.00  0.00     0.087 H 
ATOM    110  H   TYR d   1     -31.659 -14.878   2.842  0.00  0.00     0.084 H 
BRANCH 105 111
ATOM    111  OH  TYR d   1     -27.592 -15.332   4.735  0.00  0.00    -0.361 OA
ATOM    112  H   TYR d   1     -27.183 -15.836   5.428  0.00  0.00     0.217 HD
ENDBRANCH 105 111
ENDBRANCH  98 101
ENDBRANCH  70  98
ENDBRANCH  68  70
ENDBRANCH  64  66
BRANCH  64 113
ATOM    113  CB  GLU d   1     -32.392 -18.482  -0.948  0.00  0.00    -0.029 C 
ATOM    114  H   GLU d   1     -33.332 -17.915  -0.877  0.00  0.00     0.037 H 
ATOM    115  H   GLU d   1     -32.589 -19.461  -1.409  0.00  0.00     0.037 H 
BRANCH 113 116
ATOM    116  CG  GLU d   1     -31.422 -17.705  -1.853  0.00  0.00     0.018 C 
ATOM    117  H   GLU d   1     -30.404 -17.828  -1.455  0.00  0.00     0.049 H 
ATOM    118  H   GLU d   1     -31.701 -16.641  -1.826  0.00  0.00     0.049 H 
BRANCH 116 119
ATOM    119  CD  GLU d   1     -31.428 -18.166  -3.306  0.00  0.00     0.172 C 
ATOM    120  OE1 GLU d   1     -31.139 -19.360  -3.558  0.00  0.00    -0.648 OA
ATOM    121  OE2 GLU d   1     -31.696 -17.324  -4.196  0.00  0.00    -0.648 OA
ENDBRANCH 116 119
ENDBRANCH 113 116
ENDBRANCH  64 113
ENDBRANCH  62  64
ENDBRANCH   1  60
BRANCH   1 122
ATOM    122  CB  LYS d   1     -32.207 -23.440   0.532  0.00  0.00    -0.038 C 
ATOM    123  H   LYS d   1     -33.221 -23.225   0.165  0.00  0.00     0.036 H 
ATOM    124  H   LYS d   1     -32.175 -24.459   0.945  0.00  0.00     0.036 H 
BRANCH 122 125
ATOM    125  CG  LYS d   1     -31.208 -23.296  -0.580  0.00  0.00    -0.061 C 
ATOM    126  H   LYS d   1     -30.279 -23.839  -0.351  0.00  0.00     0.033 H 
ATOM    127  H   LYS d   1     -30.977 -22.238  -0.771  0.00  0.00     0.033 H 
BRANCH 125 128
ATOM    128  CD  LYS d   1     -31.933 -23.922  -1.765  0.00  0.00    -0.043 C 
ATOM    129  H   LYS d   1     -32.976 -23.577  -1.819  0.00  0.00     0.035 H 
ATOM    130  H   LYS d   1     -31.913 -25.020  -1.707  0.00  0.00     0.035 H 
BRANCH 128 131
ATOM    131  CE  LYS d   1     -31.133 -23.424  -2.945  0.00  0.00     0.080 C 
ATOM    132  H   LYS d   1     -30.221 -22.916  -2.599  0.00  0.00     0.075 H 
ATOM    133  H   LYS d   1     -31.735 -22.727  -3.547  0.00  0.00     0.075 H 
BRANCH 131 134
ATOM    134  NZ  LYS d   1     -30.787 -24.601  -3.732  0.00  0.00    -0.079 N 
ATOM    135  H   LYS d   1     -30.249 -24.321  -4.537  0.00  0.00     0.274 HD
ATOM    136  H   LYS d   1     -31.630 -25.062  -4.036  0.00  0.00     0.274 HD
ATOM    137  H   LYS d   1     -30.242 -25.234  -3.168  0.00  0.00     0.274 HD
ENDBRANCH 131 134
ENDBRANCH 128 131
ENDBRANCH 125 128
ENDBRANCH 122 125
ENDBRANCH   1 122
TORSDOF 38
