REMARK WARNING: 32 MAX_TORS EXCEEDED!!!
REMARK  38 active torsions:
REMARK  status: ('A' for Active; 'I' for Inactive)
REMARK    1  A    between atoms: C_1  and  C1_3 
REMARK       I    between atoms: C_1  and  N_9 
REMARK    2  A    between atoms: N_9  and  CA_10 
REMARK    3  A    between atoms: CA_10  and  C_11 
REMARK       I    between atoms: C_11  and  N_13 
REMARK    4  A    between atoms: N_13  and  CA_14 
REMARK    5  A    between atoms: CA_14  and  C_15 
REMARK    6  A    between atoms: CA_14  and  CB_17 
REMARK       I    between atoms: C_15  and  N_20 
REMARK    7  A    between atoms: CB_17  and  CG1_18 
REMARK    8  A    between atoms: CB_17  and  CG2_19 
REMARK    9  A    between atoms: N_20  and  CA_21 
REMARK   10  A    between atoms: CA_21  and  C_22 
REMARK   11  A    between atoms: CA_21  and  CB_24 
REMARK       I    between atoms: C_22  and  N_28 
REMARK   12  A    between atoms: CB_24  and  CG_25 
REMARK   13  A    between atoms: CG_25  and  CD1_26 
REMARK   14  A    between atoms: CG_25  and  CD2_27 
REMARK   15  A    between atoms: N_28  and  CA_29 
REMARK   16  A    between atoms: CA_29  and  C_30 
REMARK   17  A    between atoms: CA_29  and  CB_32 
REMARK       I    between atoms: C_30  and  N_37 
REMARK   18  A    between atoms: CB_32  and  CG_33 
REMARK   19  A    between atoms: CG_33  and  CD_34 
REMARK   20  A    between atoms: CD_34  and  CE_35 
REMARK   21  A    between atoms: CE_35  and  NZ_36 
REMARK   22  A    between atoms: N_37  and  CA_38 
REMARK   23  A    between atoms: CA_38  and  C_39 
REMARK   24  A    between atoms: CA_38  and  CB_41 
REMARK       I    between atoms: C_39  and  N_46 
REMARK   25  A    between atoms: CB_41  and  CG_42 
REMARK   26  A    between atoms: CG_42  and  CD_43 
REMARK   27  A    between atoms: N_46  and  CA_47 
REMARK   28  A    between atoms: CA_47  and  C_48 
REMARK   29  A    between atoms: CA_47  and  CB_50 
REMARK       I    between atoms: C_48  and  N_58 
REMARK   30  A    between atoms: CB_50  and  CG_51 
REMARK   31  A    between atoms: CZ_56  and  OH_57 
REMARK   32  A    between atoms: N_58  and  CA_59 
REMARK   33  A    between atoms: CA_59  and  C_60 
REMARK       I    between atoms: C_60  and  N_62 
REMARK   34  A    between atoms: N_62  and  CA_63 
REMARK   35  A    between atoms: CA_63  and  C_64 
REMARK   36  A    between atoms: CA_63  and  CB_66 
REMARK   37  A    between atoms: CB_66  and  CG1_67 
REMARK   38  A    between atoms: CB_66  and  CG2_68 
ROOT
ATOM      1  CA  LYS d   1     -31.864 -22.611   1.802  0.00  0.00     0.089 C 
ATOM      2  H   LYS d   1     -30.766 -22.637   1.869  0.00  0.00     0.087 H 
ENDROOT
BRANCH   1   3
ATOM      3  N   LYS d   1     -32.440 -22.963   3.067  0.00  0.00    -0.346 N 
ATOM      4  C   LEU d   1     -32.546 -22.138   4.114  0.00  0.00     0.241 C 
ATOM      5  O   LEU d   1     -32.006 -21.025   4.188  0.00  0.00    -0.271 OA
ATOM      6  H   LYS d   1     -32.788 -23.894   3.174  0.00  0.00     0.163 HD
BRANCH   4   7
ATOM      7  CA  LEU d   1     -33.381 -22.687   5.276  0.00  0.00     0.089 C 
ATOM      8  H   LEU d   1     -33.608 -23.744   5.075  0.00  0.00     0.087 H 
BRANCH   7   9
ATOM      9  N   LEU d   1     -32.628 -22.612   6.506  0.00  0.00    -0.346 N 
ATOM     10  C   VAL d   1     -31.451 -23.196   6.603  0.00  0.00     0.241 C 
ATOM     11  O   VAL d   1     -31.010 -23.922   5.735  0.00  0.00    -0.271 OA
ATOM     12  H   LEU d   1     -33.002 -22.114   7.288  0.00  0.00     0.163 HD
BRANCH  10  13
ATOM     13  CA  VAL d   1     -30.664 -22.922   7.864  0.00  0.00     0.092 C 
ATOM     14  H   VAL d   1     -31.150 -22.106   8.419  0.00  0.00     0.088 H 
BRANCH  13  15
ATOM     15  N   VAL d   1     -30.636 -24.098   8.720  0.00  0.00    -0.346 N 
ATOM     16  C   GLY d   1     -31.648 -24.366   9.536  0.00  0.00     0.236 C 
ATOM     17  O   GLY d   1     -32.689 -23.716   9.539  0.00  0.00    -0.272 OA
ATOM     18  H   VAL d   1     -29.846 -24.711   8.693  0.00  0.00     0.163 HD
BRANCH  16  19
ATOM     19  CA  GLY d   1     -31.432 -25.478  10.513  0.00  0.00     0.069 C 
ATOM     20  H   GLY d   1     -31.615 -26.453  10.037  0.00  0.00     0.078 H 
ATOM     21  H   GLY d   1     -30.407 -25.451  10.910  0.00  0.00     0.078 H 
BRANCH  19  22
ATOM     22  N   GLY d   1     -32.425 -25.229  11.602  0.00  0.00    -0.348 N 
ATOM     23  C   BEZ d   1     -32.672 -26.110  12.650  0.00  0.00     0.252 C 
ATOM     24  O1  BEZ d   1     -32.161 -27.225  12.758  0.00  0.00    -0.268 OA
ATOM     25  H   GLY d   1     -32.945 -24.375  11.576  0.00  0.00     0.163 HD
BRANCH  23  26
ATOM     26  C1  BEZ d   1     -33.607 -25.760  13.644  0.00  0.00     0.032 A 
ATOM     27  C2  BEZ d   1     -34.689 -24.901  13.375  0.00  0.00    -0.068 A 
ATOM     28  C3  BEZ d   1     -35.601 -24.597  14.358  0.00  0.00    -0.082 A 
ATOM     29  H   BEZ d   1     -34.804 -24.476  12.385  0.00  0.00     0.085 H 
ATOM     30  C4  BEZ d   1     -35.403 -25.177  15.606  0.00  0.00    -0.083 A 
ATOM     31  H   BEZ d   1     -36.438 -23.934  14.168  0.00  0.00     0.083 H 
ATOM     32  C5  BEZ d   1     -34.340 -26.036  15.894  0.00  0.00    -0.082 A 
ATOM     33  H   BEZ d   1     -36.110 -24.951  16.396  0.00  0.00     0.083 H 
ATOM     34  C6  BEZ d   1     -33.432 -26.334  14.906  0.00  0.00    -0.068 A 
ATOM     35  H   BEZ d   1     -34.232 -26.462  16.885  0.00  0.00     0.083 H 
ATOM     36  H   BEZ d   1     -32.599 -26.999  15.101  0.00  0.00     0.085 H 
ENDBRANCH  23  26
ENDBRANCH  19  22
ENDBRANCH  16  19
ENDBRANCH  13  15
BRANCH  13  37
ATOM     37  CB  VAL d   1     -29.264 -22.469   7.457  0.00  0.00    -0.033 C 
ATOM     38  H   VAL d   1     -28.759 -23.299   6.941  0.00  0.00     0.042 H 
BRANCH  37  39
ATOM     39  CG1 VAL d   1     -29.348 -21.276   6.516  0.00  0.00    -0.071 C 
ATOM     40  H   VAL d   1     -28.333 -20.961   6.232  0.00  0.00     0.028 H 
ATOM     41  H   VAL d   1     -29.861 -20.445   7.022  0.00  0.00     0.028 H 
ATOM     42  H   VAL d   1     -29.910 -21.559   5.614  0.00  0.00     0.028 H 
ENDBRANCH  37  39
BRANCH  37  43
ATOM     43  CG2 VAL d   1     -28.459 -22.082   8.675  0.00  0.00    -0.071 C 
ATOM     44  H   VAL d   1     -28.394 -22.941   9.360  0.00  0.00     0.028 H 
ATOM     45  H   VAL d   1     -28.950 -21.241   9.187  0.00  0.00     0.028 H 
ATOM     46  H   VAL d   1     -27.447 -21.783   8.366  0.00  0.00     0.028 H 
ENDBRANCH  37  43
ENDBRANCH  13  37
ENDBRANCH  10  13
ENDBRANCH   7   9
BRANCH   7  47
ATOM     47  CB  LEU d   1     -34.708 -21.922   5.381  0.00  0.00    -0.035 C 
ATOM     48  H   LEU d   1     -34.748 -21.193   4.559  0.00  0.00     0.037 H 
ATOM     49  H   LEU d   1     -34.721 -21.390   6.344  0.00  0.00     0.037 H 
BRANCH  47  50
ATOM     50  CG  LEU d   1     -35.958 -22.791   5.304  0.00  0.00    -0.059 C 
ATOM     51  H   LEU d   1     -35.924 -23.350   4.357  0.00  0.00     0.038 H 
BRANCH  50  52
ATOM     52  CD1 LEU d   1     -36.009 -23.800   6.432  0.00  0.00    -0.073 C 
ATOM     53  H   LEU d   1     -36.923 -24.406   6.341  0.00  0.00     0.028 H 
ATOM     54  H   LEU d   1     -36.014 -23.272   7.397  0.00  0.00     0.028 H 
ATOM     55  H   LEU d   1     -35.128 -24.456   6.377  0.00  0.00     0.028 H 
ENDBRANCH  50  52
BRANCH  50  56
ATOM     56  CD2 LEU d   1     -37.203 -21.913   5.288  0.00  0.00    -0.073 C 
ATOM     57  H   LEU d   1     -37.134 -21.194   4.459  0.00  0.00     0.028 H 
ATOM     58  H   LEU d   1     -37.280 -21.368   6.241  0.00  0.00     0.028 H 
ATOM     59  H   LEU d   1     -38.094 -22.543   5.153  0.00  0.00     0.028 H 
ENDBRANCH  50  56
ENDBRANCH  47  50
ENDBRANCH   7  47
ENDBRANCH   4   7
ENDBRANCH   1   3
BRANCH   1  60
ATOM     60  C   LYS d   1     -32.340 -21.233   1.423  0.00  0.00     0.241 C 
ATOM     61  O   LYS d   1     -33.497 -20.944   1.540  0.00  0.00    -0.271 OA
ATOM     62  N   GLU d   1     -31.435 -20.390   0.954  0.00  0.00    -0.346 N 
ATOM     63  H   GLU d   1     -30.493 -20.709   0.854  0.00  0.00     0.163 HD
BRANCH  62  64
ATOM     64  CA  GLU d   1     -31.748 -19.011   0.574  0.00  0.00     0.090 C 
ATOM     65  H   GLU d   1     -30.782 -18.488   0.521  0.00  0.00     0.087 H 
BRANCH  64  66
ATOM     66  C   GLU d   1     -32.586 -18.200   1.592  0.00  0.00     0.241 C 
ATOM     67  O   GLU d   1     -33.281 -17.237   1.254  0.00  0.00    -0.271 OA
ATOM     68  N   TYR d   1     -32.402 -18.576   2.857  0.00  0.00    -0.346 N 
ATOM     69  H   TYR d   1     -31.675 -19.237   3.043  0.00  0.00     0.163 HD
BRANCH  68  70
ATOM     70  CA  TYR d   1     -33.177 -18.098   3.979  0.00  0.00     0.093 C 
ATOM     71  H   TYR d   1     -32.909 -18.702   4.858  0.00  0.00     0.088 H 
BRANCH  70  72
ATOM     72  C   TYR d   1     -34.682 -18.224   3.764  0.00  0.00     0.241 C 
ATOM     73  O   TYR d   1     -35.413 -17.367   4.213  0.00  0.00    -0.271 OA
ATOM     74  N   GLY d   1     -35.160 -19.277   3.098  0.00  0.00    -0.351 N 
ATOM     75  H   GLY d   1     -34.521 -19.970   2.763  0.00  0.00     0.163 HD
BRANCH  74  76
ATOM     76  CA  GLY d   1     -36.591 -19.449   2.843  0.00  0.00     0.069 C 
ATOM     77  H   GLY d   1     -37.110 -19.404   3.812  0.00  0.00     0.078 H 
ATOM     78  H   GLY d   1     -36.733 -20.445   2.397  0.00  0.00     0.078 H 
BRANCH  76  79
ATOM     79  C   GLY d   1     -37.252 -18.427   1.915  0.00  0.00     0.236 C 
ATOM     80  O   GLY d   1     -38.469 -18.481   1.729  0.00  0.00    -0.272 OA
ATOM     81  N   VAL d   1     -36.493 -17.491   1.331  0.00  0.00    -0.345 N 
ATOM     82  H   VAL d   1     -35.517 -17.452   1.545  0.00  0.00     0.163 HD
BRANCH  81  83
ATOM     83  CA  VAL d   1     -37.068 -16.504   0.368  0.00  0.00     0.099 C 
ATOM     84  H   VAL d   1     -37.853 -15.940   0.893  0.00  0.00     0.090 H 
BRANCH  83  85
ATOM     85  C   VAL d   1     -37.705 -17.232  -0.816  0.00  0.00     0.197 C 
ATOM     86  O   VAL d   1     -37.100 -18.157  -1.376  0.00  0.00    -0.646 OA
ATOM     87  O2  VAL d   1     -38.847 -16.891  -1.223  0.00  0.00    -0.646 OA
ENDBRANCH  83  85
BRANCH  83  88
ATOM     88  CB  VAL d   1     -36.006 -15.477  -0.159  0.00  0.00    -0.032 C 
ATOM     89  H   VAL d   1     -35.016 -15.939  -0.035  0.00  0.00     0.042 H 
BRANCH  88  90
ATOM     90  CG1 VAL d   1     -36.183 -15.166  -1.654  0.00  0.00    -0.071 C 
ATOM     91  H   VAL d   1     -35.416 -14.444  -1.972  0.00  0.00     0.028 H 
ATOM     92  H   VAL d   1     -37.182 -14.739  -1.824  0.00  0.00     0.028 H 
ATOM     93  H   VAL d   1     -36.077 -16.093  -2.236  0.00  0.00     0.028 H 
ENDBRANCH  88  90
BRANCH  88  94
ATOM     94  CG2 VAL d   1     -36.022 -14.187   0.672  0.00  0.00    -0.071 C 
ATOM     95  H   VAL d   1     -35.894 -14.435   1.736  0.00  0.00     0.028 H 
ATOM     96  H   VAL d   1     -36.983 -13.671   0.529  0.00  0.00     0.028 H 
ATOM     97  H   VAL d   1     -35.201 -13.531   0.347  0.00  0.00     0.028 H 
ENDBRANCH  88  94
ENDBRANCH  83  88
ENDBRANCH  81  83
ENDBRANCH  76  79
ENDBRANCH  74  76
ENDBRANCH  70  72
BRANCH  70  98
ATOM     98  CB  TYR d   1     -32.825 -16.652   4.260  0.00  0.00    -0.014 C 
ATOM     99  H   TYR d   1     -33.327 -16.360   5.194  0.00  0.00     0.043 H 
ATOM    100  H   TYR d   1     -33.214 -16.044   3.429  0.00  0.00     0.043 H 
BRANCH  98 101
ATOM    101  CG  TYR d   1     -31.335 -16.337   4.412  0.00  0.00    -0.056 A 
ATOM    102  CD1 TYR d   1     -30.551 -16.983   5.362  0.00  0.00    -0.074 A 
ATOM    103  CE1 TYR d   1     -29.207 -16.674   5.499  0.00  0.00    -0.051 A 
ATOM    104  H   TYR d   1     -30.996 -17.736   6.002  0.00  0.00     0.084 H 
ATOM    105  CZ  TYR d   1     -28.626 -15.698   4.681  0.00  0.00     0.065 A 
ATOM    106  H   TYR d   1     -28.605 -17.188   6.240  0.00  0.00     0.087 H 
ATOM    107  CE2 TYR d   1     -29.402 -15.040   3.754  0.00  0.00    -0.051 A 
ATOM    108  CD2 TYR d   1     -30.733 -15.358   3.628  0.00  0.00    -0.074 A 
ATOM    109  H   TYR d   1     -28.965 -14.273   3.125  0.00  0.00     0.087 H 
ATOM    110  H   TYR d   1     -31.332 -14.830   2.895  0.00  0.00     0.084 H 
BRANCH 105 111
ATOM    111  OH  TYR d   1     -27.260 -15.368   4.801  0.00  0.00    -0.361 OA
ATOM    112  H   TYR d   1     -26.864 -15.904   5.478  0.00  0.00     0.217 HD
ENDBRANCH 105 111
ENDBRANCH  98 101
ENDBRANCH  70  98
ENDBRANCH  68  70
ENDBRANCH  64  66
BRANCH  64 113
ATOM    113  CB  GLU d   1     -32.318 -18.998  -0.835  0.00  0.00    -0.029 C 
ATOM    114  H   GLU d   1     -33.098 -18.226  -0.909  0.00  0.00     0.037 H 
ATOM    115  H   GLU d   1     -32.753 -19.982  -1.065  0.00  0.00     0.037 H 
BRANCH 113 116
ATOM    116  CG  GLU d   1     -31.200 -18.690  -1.827  0.00  0.00     0.018 C 
ATOM    117  H   GLU d   1     -30.287 -19.209  -1.498  0.00  0.00     0.049 H 
ATOM    118  H   GLU d   1     -31.024 -17.604  -1.830  0.00  0.00     0.049 H 
BRANCH 116 119
ATOM    119  CD  GLU d   1     -31.521 -19.128  -3.231  0.00  0.00     0.172 C 
ATOM    120  OE1 GLU d   1     -32.706 -19.111  -3.582  0.00  0.00    -0.648 OA
ATOM    121  OE2 GLU d   1     -30.591 -19.501  -3.970  0.00  0.00    -0.648 OA
ENDBRANCH 116 119
ENDBRANCH 113 116
ENDBRANCH  64 113
ENDBRANCH  62  64
ENDBRANCH   1  60
BRANCH   1 122
ATOM    122  CB  LYS d   1     -32.357 -23.581   0.697  0.00  0.00    -0.038 C 
ATOM    123  H   LYS d   1     -33.371 -23.311   0.365  0.00  0.00     0.036 H 
ATOM    124  H   LYS d   1     -32.354 -24.619   1.060  0.00  0.00     0.036 H 
BRANCH 122 125
ATOM    125  CG  LYS d   1     -31.355 -23.402  -0.433  0.00  0.00    -0.061 C 
ATOM    126  H   LYS d   1     -30.354 -23.716  -0.104  0.00  0.00     0.033 H 
ATOM    127  H   LYS d   1     -31.324 -22.349  -0.748  0.00  0.00     0.033 H 
BRANCH 125 128
ATOM    128  CD  LYS d   1     -31.818 -24.260  -1.559  0.00  0.00    -0.043 C 
ATOM    129  H   LYS d   1     -32.678 -23.810  -2.077  0.00  0.00     0.035 H 
ATOM    130  H   LYS d   1     -32.087 -25.267  -1.209  0.00  0.00     0.035 H 
BRANCH 128 131
ATOM    131  CE  LYS d   1     -30.603 -24.297  -2.447  0.00  0.00     0.080 C 
ATOM    132  H   LYS d   1     -29.813 -24.930  -2.018  0.00  0.00     0.075 H 
ATOM    133  H   LYS d   1     -30.207 -23.287  -2.625  0.00  0.00     0.075 H 
BRANCH 131 134
ATOM    134  NZ  LYS d   1     -31.140 -24.875  -3.663  0.00  0.00    -0.079 N 
ATOM    135  H   LYS d   1     -30.407 -24.953  -4.350  0.00  0.00     0.274 HD
ATOM    136  H   LYS d   1     -31.874 -24.284  -4.021  0.00  0.00     0.274 HD
ATOM    137  H   LYS d   1     -31.513 -25.790  -3.464  0.00  0.00     0.274 HD
ENDBRANCH 131 134
ENDBRANCH 128 131
ENDBRANCH 125 128
ENDBRANCH 122 125
ENDBRANCH   1 122
TORSDOF 38
