REMARK WARNING: 32 MAX_TORS EXCEEDED!!!
REMARK  38 active torsions:
REMARK  status: ('A' for Active; 'I' for Inactive)
REMARK    1  A    between atoms: C_1  and  C1_3 
REMARK       I    between atoms: C_1  and  N_9 
REMARK    2  A    between atoms: N_9  and  CA_10 
REMARK    3  A    between atoms: CA_10  and  C_11 
REMARK       I    between atoms: C_11  and  N_13 
REMARK    4  A    between atoms: N_13  and  CA_14 
REMARK    5  A    between atoms: CA_14  and  C_15 
REMARK    6  A    between atoms: CA_14  and  CB_17 
REMARK       I    between atoms: C_15  and  N_20 
REMARK    7  A    between atoms: CB_17  and  CG1_18 
REMARK    8  A    between atoms: CB_17  and  CG2_19 
REMARK    9  A    between atoms: N_20  and  CA_21 
REMARK   10  A    between atoms: CA_21  and  C_22 
REMARK   11  A    between atoms: CA_21  and  CB_24 
REMARK       I    between atoms: C_22  and  N_28 
REMARK   12  A    between atoms: CB_24  and  CG_25 
REMARK   13  A    between atoms: CG_25  and  CD1_26 
REMARK   14  A    between atoms: CG_25  and  CD2_27 
REMARK   15  A    between atoms: N_28  and  CA_29 
REMARK   16  A    between atoms: CA_29  and  C_30 
REMARK   17  A    between atoms: CA_29  and  CB_32 
REMARK       I    between atoms: C_30  and  N_37 
REMARK   18  A    between atoms: CB_32  and  CG_33 
REMARK   19  A    between atoms: CG_33  and  CD_34 
REMARK   20  A    between atoms: CD_34  and  CE_35 
REMARK   21  A    between atoms: CE_35  and  NZ_36 
REMARK   22  A    between atoms: N_37  and  CA_38 
REMARK   23  A    between atoms: CA_38  and  C_39 
REMARK   24  A    between atoms: CA_38  and  CB_41 
REMARK       I    between atoms: C_39  and  N_46 
REMARK   25  A    between atoms: CB_41  and  CG_42 
REMARK   26  A    between atoms: CG_42  and  CD_43 
REMARK   27  A    between atoms: N_46  and  CA_47 
REMARK   28  A    between atoms: CA_47  and  C_48 
REMARK   29  A    between atoms: CA_47  and  CB_50 
REMARK       I    between atoms: C_48  and  N_58 
REMARK   30  A    between atoms: CB_50  and  CG_51 
REMARK   31  A    between atoms: CZ_56  and  OH_57 
REMARK   32  A    between atoms: N_58  and  CA_59 
REMARK   33  A    between atoms: CA_59  and  C_60 
REMARK       I    between atoms: C_60  and  N_62 
REMARK   34  A    between atoms: N_62  and  CA_63 
REMARK   35  A    between atoms: CA_63  and  C_64 
REMARK   36  A    between atoms: CA_63  and  CB_66 
REMARK   37  A    between atoms: CB_66  and  CG1_67 
REMARK   38  A    between atoms: CB_66  and  CG2_68 
ROOT
ATOM      1  CA  LYS d   1     -31.768 -22.106   1.688  0.00  0.00     0.089 C 
ATOM      2  H   LYS d   1     -30.791 -21.741   2.036  0.00  0.00     0.087 H 
ENDROOT
BRANCH   1   3
ATOM      3  N   LYS d   1     -32.501 -22.557   2.863  0.00  0.00    -0.346 N 
ATOM      4  C   LEU d   1     -32.619 -21.806   3.964  0.00  0.00     0.241 C 
ATOM      5  O   LEU d   1     -32.127 -20.685   4.089  0.00  0.00    -0.271 OA
ATOM      6  H   LYS d   1     -32.931 -23.460   2.846  0.00  0.00     0.163 HD
BRANCH   4   7
ATOM      7  CA  LEU d   1     -33.421 -22.407   5.100  0.00  0.00     0.089 C 
ATOM      8  H   LEU d   1     -33.573 -23.480   4.914  0.00  0.00     0.087 H 
BRANCH   7   9
ATOM      9  N   LEU d   1     -32.644 -22.239   6.312  0.00  0.00    -0.346 N 
ATOM     10  C   VAL d   1     -31.619 -23.027   6.566  0.00  0.00     0.241 C 
ATOM     11  O   VAL d   1     -31.305 -23.943   5.827  0.00  0.00    -0.271 OA
ATOM     12  H   LEU d   1     -32.888 -21.519   6.961  0.00  0.00     0.163 HD
BRANCH  10  13
ATOM     13  CA  VAL d   1     -30.846 -22.757   7.848  0.00  0.00     0.092 C 
ATOM     14  H   VAL d   1     -31.287 -21.895   8.371  0.00  0.00     0.088 H 
BRANCH  13  15
ATOM     15  N   VAL d   1     -30.912 -23.920   8.701  0.00  0.00    -0.346 N 
ATOM     16  C   GLY d   1     -31.984 -24.222   9.420  0.00  0.00     0.236 C 
ATOM     17  O   GLY d   1     -33.073 -23.617   9.351  0.00  0.00    -0.272 OA
ATOM     18  H   VAL d   1     -30.116 -24.523   8.752  0.00  0.00     0.163 HD
BRANCH  16  19
ATOM     19  CA  GLY d   1     -31.747 -25.350  10.376  0.00  0.00     0.069 C 
ATOM     20  H   GLY d   1     -31.916 -26.319   9.884  0.00  0.00     0.078 H 
ATOM     21  H   GLY d   1     -30.722 -25.315  10.773  0.00  0.00     0.078 H 
BRANCH  19  22
ATOM     22  N   GLY d   1     -32.738 -25.130  11.459  0.00  0.00    -0.348 N 
ATOM     23  C   BEZ d   1     -32.887 -26.055  12.438  0.00  0.00     0.252 C 
ATOM     24  O1  BEZ d   1     -32.205 -27.071  12.479  0.00  0.00    -0.268 OA
ATOM     25  H   GLY d   1     -33.295 -24.300  11.466  0.00  0.00     0.163 HD
BRANCH  23  26
ATOM     26  C1  BEZ d   1     -33.805 -25.791  13.470  0.00  0.00     0.032 A 
ATOM     27  C2  BEZ d   1     -34.972 -25.019  13.238  0.00  0.00    -0.068 A 
ATOM     28  C3  BEZ d   1     -35.845 -24.763  14.262  0.00  0.00    -0.082 A 
ATOM     29  H   BEZ d   1     -35.174 -24.630  12.246  0.00  0.00     0.085 H 
ATOM     30  C4  BEZ d   1     -35.518 -25.290  15.508  0.00  0.00    -0.083 A 
ATOM     31  H   BEZ d   1     -36.745 -24.179  14.110  0.00  0.00     0.083 H 
ATOM     32  C5  BEZ d   1     -34.372 -26.057  15.779  0.00  0.00    -0.082 A 
ATOM     33  H   BEZ d   1     -36.197 -25.094  16.330  0.00  0.00     0.083 H 
ATOM     34  C6  BEZ d   1     -33.498 -26.307  14.741  0.00  0.00    -0.068 A 
ATOM     35  H   BEZ d   1     -34.180 -26.441  16.774  0.00  0.00     0.083 H 
ATOM     36  H   BEZ d   1     -32.597 -26.887  14.902  0.00  0.00     0.085 H 
ENDBRANCH  23  26
ENDBRANCH  19  22
ENDBRANCH  16  19
ENDBRANCH  13  15
BRANCH  13  37
ATOM     37  CB  VAL d   1     -29.389 -22.447   7.491  0.00  0.00    -0.033 C 
ATOM     38  H   VAL d   1     -28.969 -23.326   6.980  0.00  0.00     0.042 H 
BRANCH  37  39
ATOM     39  CG1 VAL d   1     -29.312 -21.270   6.531  0.00  0.00    -0.071 C 
ATOM     40  H   VAL d   1     -28.259 -21.064   6.287  0.00  0.00     0.028 H 
ATOM     41  H   VAL d   1     -29.760 -20.383   7.002  0.00  0.00     0.028 H 
ATOM     42  H   VAL d   1     -29.861 -21.512   5.609  0.00  0.00     0.028 H 
ENDBRANCH  37  39
BRANCH  37  43
ATOM     43  CG2 VAL d   1     -28.570 -22.206   8.748  0.00  0.00    -0.071 C 
ATOM     44  H   VAL d   1     -28.653 -23.079   9.413  0.00  0.00     0.028 H 
ATOM     45  H   VAL d   1     -28.948 -21.313   9.267  0.00  0.00     0.028 H 
ATOM     46  H   VAL d   1     -27.516 -22.052   8.475  0.00  0.00     0.028 H 
ENDBRANCH  37  43
ENDBRANCH  13  37
ENDBRANCH  10  13
ENDBRANCH   7   9
BRANCH   7  47
ATOM     47  CB  LEU d   1     -34.804 -21.725   5.206  0.00  0.00    -0.035 C 
ATOM     48  H   LEU d   1     -34.943 -21.096   4.314  0.00  0.00     0.037 H 
ATOM     49  H   LEU d   1     -34.803 -21.092   6.105  0.00  0.00     0.037 H 
BRANCH  47  50
ATOM     50  CG  LEU d   1     -35.999 -22.685   5.301  0.00  0.00    -0.059 C 
ATOM     51  H   LEU d   1     -36.027 -23.268   4.369  0.00  0.00     0.038 H 
BRANCH  50  52
ATOM     52  CD1 LEU d   1     -35.896 -23.666   6.450  0.00  0.00    -0.073 C 
ATOM     53  H   LEU d   1     -36.782 -24.318   6.456  0.00  0.00     0.028 H 
ATOM     54  H   LEU d   1     -35.841 -23.114   7.400  0.00  0.00     0.028 H 
ATOM     55  H   LEU d   1     -34.990 -24.279   6.329  0.00  0.00     0.028 H 
ENDBRANCH  50  52
BRANCH  50  56
ATOM     56  CD2 LEU d   1     -37.297 -21.909   5.412  0.00  0.00    -0.073 C 
ATOM     57  H   LEU d   1     -37.371 -21.197   4.577  0.00  0.00     0.028 H 
ATOM     58  H   LEU d   1     -37.316 -21.360   6.365  0.00  0.00     0.028 H 
ATOM     59  H   LEU d   1     -38.146 -22.607   5.374  0.00  0.00     0.028 H 
ENDBRANCH  50  56
ENDBRANCH  47  50
ENDBRANCH   7  47
ENDBRANCH   4   7
ENDBRANCH   1   3
BRANCH   1  60
ATOM     60  C   LYS d   1     -32.491 -20.861   1.097  0.00  0.00     0.241 C 
ATOM     61  O   LYS d   1     -33.698 -20.771   1.111  0.00  0.00    -0.271 OA
ATOM     62  N   GLU d   1     -31.713 -19.891   0.639  0.00  0.00    -0.346 N 
ATOM     63  H   GLU d   1     -30.733 -20.074   0.560  0.00  0.00     0.163 HD
BRANCH  62  64
ATOM     64  CA  GLU d   1     -32.201 -18.563   0.239  0.00  0.00     0.090 C 
ATOM     65  H   GLU d   1     -31.310 -17.967  -0.008  0.00  0.00     0.087 H 
BRANCH  64  66
ATOM     66  C   GLU d   1     -32.943 -17.800   1.354  0.00  0.00     0.241 C 
ATOM     67  O   GLU d   1     -33.499 -16.713   1.121  0.00  0.00    -0.271 OA
ATOM     68  N   TYR d   1     -32.870 -18.346   2.569  0.00  0.00    -0.346 N 
ATOM     69  H   TYR d   1     -32.255 -19.124   2.695  0.00  0.00     0.163 HD
BRANCH  68  70
ATOM     70  CA  TYR d   1     -33.633 -17.880   3.732  0.00  0.00     0.093 C 
ATOM     71  H   TYR d   1     -33.305 -18.484   4.591  0.00  0.00     0.088 H 
BRANCH  70  72
ATOM     72  C   TYR d   1     -35.165 -18.102   3.592  0.00  0.00     0.241 C 
ATOM     73  O   TYR d   1     -35.955 -17.402   4.225  0.00  0.00    -0.271 OA
ATOM     74  N   GLY d   1     -35.576 -19.097   2.804  0.00  0.00    -0.351 N 
ATOM     75  H   GLY d   1     -34.891 -19.677   2.364  0.00  0.00     0.163 HD
BRANCH  74  76
ATOM     76  CA  GLY d   1     -37.001 -19.373   2.559  0.00  0.00     0.069 C 
ATOM     77  H   GLY d   1     -37.534 -19.236   3.511  0.00  0.00     0.078 H 
ATOM     78  H   GLY d   1     -37.086 -20.422   2.239  0.00  0.00     0.078 H 
BRANCH  76  79
ATOM     79  C   GLY d   1     -37.704 -18.512   1.509  0.00  0.00     0.236 C 
ATOM     80  O   GLY d   1     -38.816 -18.840   1.105  0.00  0.00    -0.272 OA
ATOM     81  N   VAL d   1     -37.054 -17.431   1.057  0.00  0.00    -0.345 N 
ATOM     82  H   VAL d   1     -36.102 -17.300   1.332  0.00  0.00     0.163 HD
BRANCH  81  83
ATOM     83  CA  VAL d   1     -37.672 -16.424   0.174  0.00  0.00     0.099 C 
ATOM     84  H   VAL d   1     -38.645 -16.139   0.600  0.00  0.00     0.090 H 
BRANCH  83  85
ATOM     85  C   VAL d   1     -37.871 -16.972  -1.227  0.00  0.00     0.197 C 
ATOM     86  O   VAL d   1     -36.916 -17.005  -2.014  0.00  0.00    -0.646 OA
ATOM     87  O2  VAL d   1     -39.003 -17.392  -1.588  0.00  0.00    -0.646 OA
ENDBRANCH  83  85
BRANCH  83  88
ATOM     88  CB  VAL d   1     -36.785 -15.160   0.025  0.00  0.00    -0.032 C 
ATOM     89  H   VAL d   1     -35.840 -15.461  -0.451  0.00  0.00     0.042 H 
BRANCH  88  90
ATOM     90  CG1 VAL d   1     -37.473 -14.140  -0.894  0.00  0.00    -0.071 C 
ATOM     91  H   VAL d   1     -36.837 -13.248  -0.993  0.00  0.00     0.028 H 
ATOM     92  H   VAL d   1     -38.443 -13.852  -0.462  0.00  0.00     0.028 H 
ATOM     93  H   VAL d   1     -37.632 -14.589  -1.886  0.00  0.00     0.028 H 
ENDBRANCH  88  90
BRANCH  88  94
ATOM     94  CG2 VAL d   1     -36.448 -14.560   1.384  0.00  0.00    -0.071 C 
ATOM     95  H   VAL d   1     -35.958 -15.321   2.009  0.00  0.00     0.028 H 
ATOM     96  H   VAL d   1     -37.372 -14.222   1.875  0.00  0.00     0.028 H 
ATOM     97  H   VAL d   1     -35.770 -13.704   1.249  0.00  0.00     0.028 H 
ENDBRANCH  88  94
ENDBRANCH  83  88
ENDBRANCH  81  83
ENDBRANCH  76  79
ENDBRANCH  74  76
ENDBRANCH  70  72
BRANCH  70  98
ATOM     98  CB  TYR d   1     -33.292 -16.410   4.053  0.00  0.00    -0.014 C 
ATOM     99  H   TYR d   1     -33.799 -16.135   4.989  0.00  0.00     0.043 H 
ATOM    100  H   TYR d   1     -33.669 -15.781   3.233  0.00  0.00     0.043 H 
BRANCH  98 101
ATOM    101  CG  TYR d   1     -31.812 -16.138   4.217  0.00  0.00    -0.056 A 
ATOM    102  CD1 TYR d   1     -31.055 -16.871   5.145  0.00  0.00    -0.074 A 
ATOM    103  CE1 TYR d   1     -29.687 -16.640   5.306  0.00  0.00    -0.051 A 
ATOM    104  H   TYR d   1     -31.541 -17.630   5.747  0.00  0.00     0.084 H 
ATOM    105  CZ  TYR d   1     -29.064 -15.658   4.540  0.00  0.00     0.065 A 
ATOM    106  H   TYR d   1     -29.115 -17.220   6.021  0.00  0.00     0.087 H 
ATOM    107  CE2 TYR d   1     -29.792 -14.914   3.612  0.00  0.00    -0.051 A 
ATOM    108  CD2 TYR d   1     -31.157 -15.161   3.457  0.00  0.00    -0.074 A 
ATOM    109  H   TYR d   1     -29.303 -14.151   3.017  0.00  0.00     0.087 H 
ATOM    110  H   TYR d   1     -31.722 -14.585   2.733  0.00  0.00     0.084 H 
BRANCH 105 111
ATOM    111  OH  TYR d   1     -27.714 -15.470   4.739  0.00  0.00    -0.361 OA
ATOM    112  H   TYR d   1     -27.407 -16.070   5.408  0.00  0.00     0.217 HD
ENDBRANCH 105 111
ENDBRANCH  98 101
ENDBRANCH  70  98
ENDBRANCH  68  70
ENDBRANCH  64  66
BRANCH  64 113
ATOM    113  CB  GLU d   1     -33.057 -18.641  -1.032  0.00  0.00    -0.029 C 
ATOM    114  H   GLU d   1     -33.342 -17.617  -1.316  0.00  0.00     0.037 H 
ATOM    115  H   GLU d   1     -33.962 -19.222  -0.800  0.00  0.00     0.037 H 
BRANCH 113 116
ATOM    116  CG  GLU d   1     -32.367 -19.294  -2.233  0.00  0.00     0.018 C 
ATOM    117  H   GLU d   1     -33.143 -19.564  -2.965  0.00  0.00     0.049 H 
ATOM    118  H   GLU d   1     -31.863 -20.206  -1.880  0.00  0.00     0.049 H 
BRANCH 116 119
ATOM    119  CD  GLU d   1     -31.331 -18.429  -2.944  0.00  0.00     0.172 C 
ATOM    120  OE1 GLU d   1     -31.035 -17.283  -2.523  0.00  0.00    -0.648 OA
ATOM    121  OE2 GLU d   1     -30.808 -18.930  -3.964  0.00  0.00    -0.648 OA
ENDBRANCH 116 119
ENDBRANCH 113 116
ENDBRANCH  64 113
ENDBRANCH  62  64
ENDBRANCH   1  60
BRANCH   1 122
ATOM    122  CB  LYS d   1     -31.446 -23.290   0.758  0.00  0.00    -0.038 C 
ATOM    123  H   LYS d   1     -31.805 -24.218   1.228  0.00  0.00     0.036 H 
ATOM    124  H   LYS d   1     -30.356 -23.346   0.620  0.00  0.00     0.036 H 
BRANCH 122 125
ATOM    125  CG  LYS d   1     -32.102 -23.146  -0.599  0.00  0.00    -0.061 C 
ATOM    126  H   LYS d   1     -32.020 -22.110  -0.960  0.00  0.00     0.033 H 
ATOM    127  H   LYS d   1     -33.162 -23.434  -0.549  0.00  0.00     0.033 H 
BRANCH 125 128
ATOM    128  CD  LYS d   1     -31.326 -24.101  -1.517  0.00  0.00    -0.043 C 
ATOM    129  H   LYS d   1     -31.477 -25.147  -1.211  0.00  0.00     0.035 H 
ATOM    130  H   LYS d   1     -30.251 -23.867  -1.506  0.00  0.00     0.035 H 
BRANCH 128 131
ATOM    131  CE  LYS d   1     -31.922 -23.848  -2.896  0.00  0.00     0.080 C 
ATOM    132  H   LYS d   1     -31.528 -22.915  -3.324  0.00  0.00     0.075 H 
ATOM    133  H   LYS d   1     -33.019 -23.791  -2.841  0.00  0.00     0.075 H 
BRANCH 131 134
ATOM    134  NZ  LYS d   1     -31.504 -25.000  -3.695  0.00  0.00    -0.079 N 
ATOM    135  H   LYS d   1     -31.863 -24.907  -4.632  0.00  0.00     0.274 HD
ATOM    136  H   LYS d   1     -31.864 -25.845  -3.280  0.00  0.00     0.274 HD
ATOM    137  H   LYS d   1     -30.497 -25.042  -3.723  0.00  0.00     0.274 HD
ENDBRANCH 131 134
ENDBRANCH 128 131
ENDBRANCH 125 128
ENDBRANCH 122 125
ENDBRANCH   1 122
TORSDOF 38
