REMARK WARNING: 32 MAX_TORS EXCEEDED!!!
REMARK  38 active torsions:
REMARK  status: ('A' for Active; 'I' for Inactive)
REMARK    1  A    between atoms: C_1  and  C1_3 
REMARK       I    between atoms: C_1  and  N_9 
REMARK    2  A    between atoms: N_9  and  CA_10 
REMARK    3  A    between atoms: CA_10  and  C_11 
REMARK       I    between atoms: C_11  and  N_13 
REMARK    4  A    between atoms: N_13  and  CA_14 
REMARK    5  A    between atoms: CA_14  and  C_15 
REMARK    6  A    between atoms: CA_14  and  CB_17 
REMARK       I    between atoms: C_15  and  N_20 
REMARK    7  A    between atoms: CB_17  and  CG1_18 
REMARK    8  A    between atoms: CB_17  and  CG2_19 
REMARK    9  A    between atoms: N_20  and  CA_21 
REMARK   10  A    between atoms: CA_21  and  C_22 
REMARK   11  A    between atoms: CA_21  and  CB_24 
REMARK       I    between atoms: C_22  and  N_28 
REMARK   12  A    between atoms: CB_24  and  CG_25 
REMARK   13  A    between atoms: CG_25  and  CD1_26 
REMARK   14  A    between atoms: CG_25  and  CD2_27 
REMARK   15  A    between atoms: N_28  and  CA_29 
REMARK   16  A    between atoms: CA_29  and  C_30 
REMARK   17  A    between atoms: CA_29  and  CB_32 
REMARK       I    between atoms: C_30  and  N_37 
REMARK   18  A    between atoms: CB_32  and  CG_33 
REMARK   19  A    between atoms: CG_33  and  CD_34 
REMARK   20  A    between atoms: CD_34  and  CE_35 
REMARK   21  A    between atoms: CE_35  and  NZ_36 
REMARK   22  A    between atoms: N_37  and  CA_38 
REMARK   23  A    between atoms: CA_38  and  C_39 
REMARK   24  A    between atoms: CA_38  and  CB_41 
REMARK       I    between atoms: C_39  and  N_46 
REMARK   25  A    between atoms: CB_41  and  CG_42 
REMARK   26  A    between atoms: CG_42  and  CD_43 
REMARK   27  A    between atoms: N_46  and  CA_47 
REMARK   28  A    between atoms: CA_47  and  C_48 
REMARK   29  A    between atoms: CA_47  and  CB_50 
REMARK       I    between atoms: C_48  and  N_58 
REMARK   30  A    between atoms: CB_50  and  CG_51 
REMARK   31  A    between atoms: CZ_56  and  OH_57 
REMARK   32  A    between atoms: N_58  and  CA_59 
REMARK   33  A    between atoms: CA_59  and  C_60 
REMARK       I    between atoms: C_60  and  N_62 
REMARK   34  A    between atoms: N_62  and  CA_63 
REMARK   35  A    between atoms: CA_63  and  C_64 
REMARK   36  A    between atoms: CA_63  and  CB_66 
REMARK   37  A    between atoms: CB_66  and  CG1_67 
REMARK   38  A    between atoms: CB_66  and  CG2_68 
ROOT
ATOM      1  CA  LYS d   1     -31.706 -22.139   1.760  0.00  0.00     0.089 C 
ATOM      2  H   LYS d   1     -30.707 -21.783   2.053  0.00  0.00     0.087 H 
ENDROOT
BRANCH   1   3
ATOM      3  N   LYS d   1     -32.402 -22.592   2.929  0.00  0.00    -0.346 N 
ATOM      4  C   LEU d   1     -32.477 -21.868   4.033  0.00  0.00     0.241 C 
ATOM      5  O   LEU d   1     -31.943 -20.770   4.168  0.00  0.00    -0.271 OA
ATOM      6  H   LYS d   1     -32.847 -23.488   2.909  0.00  0.00     0.163 HD
BRANCH   4   7
ATOM      7  CA  LEU d   1     -33.351 -22.461   5.115  0.00  0.00     0.089 C 
ATOM      8  H   LEU d   1     -33.555 -23.516   4.881  0.00  0.00     0.087 H 
BRANCH   7   9
ATOM      9  N   LEU d   1     -32.686 -22.398   6.384  0.00  0.00    -0.346 N 
ATOM     10  C   VAL d   1     -31.632 -23.149   6.602  0.00  0.00     0.241 C 
ATOM     11  O   VAL d   1     -31.300 -24.030   5.838  0.00  0.00    -0.271 OA
ATOM     12  H   LEU d   1     -33.023 -21.785   7.099  0.00  0.00     0.163 HD
BRANCH  10  13
ATOM     13  CA  VAL d   1     -30.849 -22.869   7.876  0.00  0.00     0.092 C 
ATOM     14  H   VAL d   1     -31.341 -22.054   8.427  0.00  0.00     0.088 H 
BRANCH  13  15
ATOM     15  N   VAL d   1     -30.800 -24.027   8.720  0.00  0.00    -0.346 N 
ATOM     16  C   GLY d   1     -31.802 -24.279   9.540  0.00  0.00     0.236 C 
ATOM     17  O   GLY d   1     -32.879 -23.649   9.514  0.00  0.00    -0.272 OA
ATOM     18  H   VAL d   1     -30.011 -24.640   8.687  0.00  0.00     0.163 HD
BRANCH  16  19
ATOM     19  CA  GLY d   1     -31.540 -25.384  10.526  0.00  0.00     0.069 C 
ATOM     20  H   GLY d   1     -31.649 -26.370  10.050  0.00  0.00     0.078 H 
ATOM     21  H   GLY d   1     -30.532 -25.295  10.958  0.00  0.00     0.078 H 
BRANCH  19  22
ATOM     22  N   GLY d   1     -32.588 -25.175  11.568  0.00  0.00    -0.348 N 
ATOM     23  C   BEZ d   1     -32.791 -26.039  12.594  0.00  0.00     0.252 C 
ATOM     24  O1  BEZ d   1     -32.174 -27.092  12.729  0.00  0.00    -0.268 OA
ATOM     25  H   GLY d   1     -33.166 -24.362  11.507  0.00  0.00     0.163 HD
BRANCH  23  26
ATOM     26  C1  BEZ d   1     -33.793 -25.709  13.506  0.00  0.00     0.032 A 
ATOM     27  C2  BEZ d   1     -34.925 -24.996  13.086  0.00  0.00    -0.068 A 
ATOM     28  C3  BEZ d   1     -35.925 -24.682  13.972  0.00  0.00    -0.082 A 
ATOM     29  H   BEZ d   1     -35.011 -24.689  12.050  0.00  0.00     0.085 H 
ATOM     30  C4  BEZ d   1     -35.763 -25.091  15.283  0.00  0.00    -0.083 A 
ATOM     31  H   BEZ d   1     -36.806 -24.135  13.657  0.00  0.00     0.083 H 
ATOM     32  C5  BEZ d   1     -34.644 -25.805  15.730  0.00  0.00    -0.082 A 
ATOM     33  H   BEZ d   1     -36.539 -24.847  15.999  0.00  0.00     0.083 H 
ATOM     34  C6  BEZ d   1     -33.645 -26.125  14.830  0.00  0.00    -0.068 A 
ATOM     35  H   BEZ d   1     -34.562 -26.103  16.769  0.00  0.00     0.083 H 
ATOM     36  H   BEZ d   1     -32.771 -26.684  15.144  0.00  0.00     0.085 H 
ENDBRANCH  23  26
ENDBRANCH  19  22
ENDBRANCH  16  19
ENDBRANCH  13  15
BRANCH  13  37
ATOM     37  CB  VAL d   1     -29.454 -22.435   7.492  0.00  0.00    -0.033 C 
ATOM     38  H   VAL d   1     -28.999 -23.209   6.856  0.00  0.00     0.042 H 
BRANCH  37  39
ATOM     39  CG1 VAL d   1     -29.533 -21.139   6.694  0.00  0.00    -0.071 C 
ATOM     40  H   VAL d   1     -28.519 -20.820   6.412  0.00  0.00     0.028 H 
ATOM     41  H   VAL d   1     -30.006 -20.358   7.308  0.00  0.00     0.028 H 
ATOM     42  H   VAL d   1     -30.131 -21.304   5.786  0.00  0.00     0.028 H 
ENDBRANCH  37  39
BRANCH  37  43
ATOM     43  CG2 VAL d   1     -28.618 -22.289   8.741  0.00  0.00    -0.071 C 
ATOM     44  H   VAL d   1     -28.593 -23.248   9.279  0.00  0.00     0.028 H 
ATOM     45  H   VAL d   1     -29.058 -21.517   9.389  0.00  0.00     0.028 H 
ATOM     46  H   VAL d   1     -27.594 -21.996   8.465  0.00  0.00     0.028 H 
ENDBRANCH  37  43
ENDBRANCH  13  37
ENDBRANCH  10  13
ENDBRANCH   7   9
BRANCH   7  47
ATOM     47  CB  LEU d   1     -34.671 -21.688   5.118  0.00  0.00    -0.035 C 
ATOM     48  H   LEU d   1     -34.967 -21.535   4.070  0.00  0.00     0.037 H 
ATOM     49  H   LEU d   1     -34.483 -20.713   5.592  0.00  0.00     0.037 H 
BRANCH  47  50
ATOM     50  CG  LEU d   1     -35.847 -22.326   5.837  0.00  0.00    -0.059 C 
ATOM     51  H   LEU d   1     -35.797 -22.056   6.902  0.00  0.00     0.038 H 
BRANCH  50  52
ATOM     52  CD1 LEU d   1     -37.104 -21.738   5.227  0.00  0.00    -0.073 C 
ATOM     53  H   LEU d   1     -37.987 -22.172   5.718  0.00  0.00     0.028 H 
ATOM     54  H   LEU d   1     -37.132 -21.968   4.152  0.00  0.00     0.028 H 
ATOM     55  H   LEU d   1     -37.105 -20.647   5.369  0.00  0.00     0.028 H 
ENDBRANCH  50  52
BRANCH  50  56
ATOM     56  CD2 LEU d   1     -35.877 -23.839   5.738  0.00  0.00    -0.073 C 
ATOM     57  H   LEU d   1     -34.961 -24.254   6.183  0.00  0.00     0.028 H 
ATOM     58  H   LEU d   1     -35.938 -24.136   4.681  0.00  0.00     0.028 H 
ATOM     59  H   LEU d   1     -36.754 -24.224   6.278  0.00  0.00     0.028 H 
ENDBRANCH  50  56
ENDBRANCH  47  50
ENDBRANCH   7  47
ENDBRANCH   4   7
ENDBRANCH   1   3
BRANCH   1  60
ATOM     60  C   LYS d   1     -32.452 -20.930   1.184  0.00  0.00     0.241 C 
ATOM     61  O   LYS d   1     -33.664 -20.881   1.235  0.00  0.00    -0.271 OA
ATOM     62  N   GLU d   1     -31.689 -19.959   0.677  0.00  0.00    -0.346 N 
ATOM     63  H   GLU d   1     -30.728 -20.175   0.503  0.00  0.00     0.163 HD
BRANCH  62  64
ATOM     64  CA  GLU d   1     -32.148 -18.582   0.349  0.00  0.00     0.090 C 
ATOM     65  H   GLU d   1     -31.256 -18.026   0.027  0.00  0.00     0.087 H 
BRANCH  64  66
ATOM     66  C   GLU d   1     -32.754 -17.804   1.543  0.00  0.00     0.241 C 
ATOM     67  O   GLU d   1     -33.360 -16.728   1.360  0.00  0.00    -0.271 OA
ATOM     68  N   TYR d   1     -32.571 -18.337   2.753  0.00  0.00    -0.346 N 
ATOM     69  H   TYR d   1     -31.902 -19.073   2.859  0.00  0.00     0.163 HD
BRANCH  68  70
ATOM     70  CA  TYR d   1     -33.313 -17.885   3.931  0.00  0.00     0.093 C 
ATOM     71  H   TYR d   1     -32.947 -18.465   4.791  0.00  0.00     0.088 H 
BRANCH  70  72
ATOM     72  C   TYR d   1     -34.824 -18.153   3.810  0.00  0.00     0.241 C 
ATOM     73  O   TYR d   1     -35.608 -17.643   4.610  0.00  0.00    -0.271 OA
ATOM     74  N   GLY d   1     -35.220 -18.980   2.836  0.00  0.00    -0.351 N 
ATOM     75  H   GLY d   1     -34.521 -19.396   2.255  0.00  0.00     0.163 HD
BRANCH  74  76
ATOM     76  CA  GLY d   1     -36.622 -19.308   2.576  0.00  0.00     0.069 C 
ATOM     77  H   GLY d   1     -37.121 -19.465   3.543  0.00  0.00     0.078 H 
ATOM     78  H   GLY d   1     -36.652 -20.240   1.992  0.00  0.00     0.078 H 
BRANCH  76  79
ATOM     79  C   GLY d   1     -37.396 -18.248   1.813  0.00  0.00     0.236 C 
ATOM     80  O   GLY d   1     -38.604 -18.380   1.649  0.00  0.00    -0.272 OA
ATOM     81  N   VAL d   1     -36.714 -17.207   1.333  0.00  0.00    -0.345 N 
ATOM     82  H   VAL d   1     -35.715 -17.219   1.383  0.00  0.00     0.163 HD
BRANCH  81  83
ATOM     83  CA  VAL d   1     -37.385 -16.034   0.728  0.00  0.00     0.099 C 
ATOM     84  H   VAL d   1     -38.182 -15.720   1.417  0.00  0.00     0.090 H 
BRANCH  83  85
ATOM     85  C   VAL d   1     -38.042 -16.395  -0.605  0.00  0.00     0.197 C 
ATOM     86  O   VAL d   1     -37.432 -17.069  -1.428  0.00  0.00    -0.646 OA
ATOM     87  O2  VAL d   1     -39.211 -15.999  -0.858  0.00  0.00    -0.646 OA
ENDBRANCH  83  85
BRANCH  83  88
ATOM     88  CB  VAL d   1     -36.405 -14.819   0.557  0.00  0.00    -0.032 C 
ATOM     89  H   VAL d   1     -35.384 -15.225   0.508  0.00  0.00     0.042 H 
BRANCH  88  90
ATOM     90  CG1 VAL d   1     -36.649 -14.042  -0.749  0.00  0.00    -0.071 C 
ATOM     91  H   VAL d   1     -35.938 -13.206  -0.816  0.00  0.00     0.028 H 
ATOM     92  H   VAL d   1     -37.677 -13.651  -0.756  0.00  0.00     0.028 H 
ATOM     93  H   VAL d   1     -36.507 -14.714  -1.608  0.00  0.00     0.028 H 
ENDBRANCH  88  90
BRANCH  88  94
ATOM     94  CG2 VAL d   1     -36.480 -13.894   1.781  0.00  0.00    -0.071 C 
ATOM     95  H   VAL d   1     -36.301 -14.480   2.695  0.00  0.00     0.028 H 
ATOM     96  H   VAL d   1     -37.477 -13.432   1.831  0.00  0.00     0.028 H 
ATOM     97  H   VAL d   1     -35.715 -13.108   1.694  0.00  0.00     0.028 H 
ENDBRANCH  88  94
ENDBRANCH  83  88
ENDBRANCH  81  83
ENDBRANCH  76  79
ENDBRANCH  74  76
ENDBRANCH  70  72
BRANCH  70  98
ATOM     98  CB  TYR d   1     -33.029 -16.401   4.219  0.00  0.00    -0.014 C 
ATOM     99  H   TYR d   1     -33.509 -16.130   5.171  0.00  0.00     0.043 H 
ATOM    100  H   TYR d   1     -33.459 -15.797   3.406  0.00  0.00     0.043 H 
BRANCH  98 101
ATOM    101  CG  TYR d   1     -31.532 -16.090   4.320  0.00  0.00    -0.056 A 
ATOM    102  CD1 TYR d   1     -30.738 -16.753   5.262  0.00  0.00    -0.074 A 
ATOM    103  CE1 TYR d   1     -29.384 -16.494   5.377  0.00  0.00    -0.051 A 
ATOM    104  H   TYR d   1     -31.194 -17.486   5.917  0.00  0.00     0.084 H 
ATOM    105  CZ  TYR d   1     -28.798 -15.569   4.560  0.00  0.00     0.065 A 
ATOM    106  H   TYR d   1     -28.790 -17.023   6.113  0.00  0.00     0.087 H 
ATOM    107  CE2 TYR d   1     -29.557 -14.882   3.610  0.00  0.00    -0.051 A 
ATOM    108  CD2 TYR d   1     -30.906 -15.150   3.485  0.00  0.00    -0.074 A 
ATOM    109  H   TYR d   1     -29.089 -14.141   2.973  0.00  0.00     0.087 H 
ATOM    110  H   TYR d   1     -31.488 -14.629   2.734  0.00  0.00     0.084 H 
BRANCH 105 111
ATOM    111  OH  TYR d   1     -27.436 -15.367   4.731  0.00  0.00    -0.361 OA
ATOM    112  H   TYR d   1     -27.118 -15.932   5.425  0.00  0.00     0.217 HD
ENDBRANCH 105 111
ENDBRANCH  98 101
ENDBRANCH  70  98
ENDBRANCH  68  70
ENDBRANCH  64  66
BRANCH  64 113
ATOM    113  CB  GLU d   1     -33.141 -18.579  -0.826  0.00  0.00    -0.029 C 
ATOM    114  H   GLU d   1     -33.328 -17.533  -1.110  0.00  0.00     0.037 H 
ATOM    115  H   GLU d   1     -34.079 -19.038  -0.480  0.00  0.00     0.037 H 
BRANCH 113 116
ATOM    116  CG  GLU d   1     -32.679 -19.330  -2.070  0.00  0.00     0.018 C 
ATOM    117  H   GLU d   1     -33.569 -19.733  -2.576  0.00  0.00     0.049 H 
ATOM    118  H   GLU d   1     -32.033 -20.160  -1.747  0.00  0.00     0.049 H 
BRANCH 116 119
ATOM    119  CD  GLU d   1     -31.903 -18.492  -3.076  0.00  0.00     0.172 C 
ATOM    120  OE1 GLU d   1     -32.520 -17.599  -3.703  0.00  0.00    -0.648 OA
ATOM    121  OE2 GLU d   1     -30.690 -18.765  -3.274  0.00  0.00    -0.648 OA
ENDBRANCH 116 119
ENDBRANCH 113 116
ENDBRANCH  64 113
ENDBRANCH  62  64
ENDBRANCH   1  60
BRANCH   1 122
ATOM    122  CB  LYS d   1     -31.503 -23.344   0.876  0.00  0.00    -0.038 C 
ATOM    123  H   LYS d   1     -32.045 -24.204   1.296  0.00  0.00     0.036 H 
ATOM    124  H   LYS d   1     -30.430 -23.580   0.816  0.00  0.00     0.036 H 
BRANCH 122 125
ATOM    125  CG  LYS d   1     -32.017 -23.046  -0.466  0.00  0.00    -0.061 C 
ATOM    126  H   LYS d   1     -31.807 -22.006  -0.755  0.00  0.00     0.033 H 
ATOM    127  H   LYS d   1     -33.099 -23.234  -0.533  0.00  0.00     0.033 H 
BRANCH 125 128
ATOM    128  CD  LYS d   1     -31.227 -24.031  -1.319  0.00  0.00    -0.043 C 
ATOM    129  H   LYS d   1     -31.379 -25.073  -1.002  0.00  0.00     0.035 H 
ATOM    130  H   LYS d   1     -30.151 -23.804  -1.330  0.00  0.00     0.035 H 
BRANCH 128 131
ATOM    131  CE  LYS d   1     -31.881 -23.737  -2.630  0.00  0.00     0.080 C 
ATOM    132  H   LYS d   1     -31.518 -22.777  -3.025  0.00  0.00     0.075 H 
ATOM    133  H   LYS d   1     -32.973 -23.693  -2.505  0.00  0.00     0.075 H 
BRANCH 131 134
ATOM    134  NZ  LYS d   1     -31.526 -24.815  -3.537  0.00  0.00    -0.079 N 
ATOM    135  H   LYS d   1     -31.951 -24.651  -4.436  0.00  0.00     0.274 HD
ATOM    136  H   LYS d   1     -31.857 -25.691  -3.164  0.00  0.00     0.274 HD
ATOM    137  H   LYS d   1     -30.524 -24.851  -3.640  0.00  0.00     0.274 HD
ENDBRANCH 131 134
ENDBRANCH 128 131
ENDBRANCH 125 128
ENDBRANCH 122 125
ENDBRANCH   1 122
TORSDOF 38
