REMARK  4 active torsions:
REMARK  status: ('A' for Active; 'I' for Inactive)
REMARK    1  A    between atoms: C7_6  and  C9_13 
REMARK    2  A    between atoms: C3_9  and  C20_10 
REMARK    3  A    between atoms: C12_16  and  C15_19 
REMARK    4  A    between atoms: C15_19  and  N1_20 
ROOT
ATOM      1  C9  T40 d   1       1.467  -4.427  -5.085  0.00  0.00    -0.011 A 
ATOM      2  C14 T40 d   1       0.614  -4.196  -3.998  0.00  0.00    -0.070 A 
ATOM      3  C13 T40 d   1      -0.763  -4.299  -4.144  0.00  0.00    -0.074 A 
ATOM      4  C12 T40 d   1      -1.332  -4.608  -5.378  0.00  0.00    -0.033 A 
ATOM      5  C11 T40 d   1      -0.481  -4.864  -6.449  0.00  0.00    -0.074 A 
ATOM      6  C10 T40 d   1       0.895  -4.777  -6.311  0.00  0.00    -0.070 A 
ATOM      7  H9  T40 d   1       1.033  -3.934  -3.033  0.00  0.00     0.084 H 
ATOM      8  H10 T40 d   1      -1.405  -4.137  -3.286  0.00  0.00     0.084 H 
ATOM      9  H11 T40 d   1      -0.903  -5.137  -7.410  0.00  0.00     0.084 H 
ATOM     10  H12 T40 d   1       1.534  -4.982  -7.162  0.00  0.00     0.084 H 
ENDROOT
BRANCH   1  11
ATOM     11  C7  T40 d   1       2.928  -4.269  -4.954  0.00  0.00     0.053 A 
ATOM     12  N   T40 d   1       3.388  -3.485  -3.894  0.00  0.00    -0.213 NA
ATOM     13  C6  T40 d   1       4.710  -3.219  -3.613  0.00  0.00     0.278 A 
ATOM     14  O   T40 d   1       5.019  -2.538  -2.642  0.00  0.00    -0.265 OA
ATOM     15  C5  T40 d   1       5.694  -3.816  -4.536  0.00  0.00     0.041 A 
ATOM     16  C   T40 d   1       7.059  -3.698  -4.269  0.00  0.00    -0.067 A 
ATOM     17  C4  T40 d   1       5.262  -4.587  -5.638  0.00  0.00    -0.031 A 
ATOM     18  C1  T40 d   1       7.981  -4.374  -5.051  0.00  0.00    -0.081 A 
ATOM     19  H1  T40 d   1       7.398  -3.076  -3.448  0.00  0.00     0.085 H 
ATOM     20  C2  T40 d   1       7.559  -5.124  -6.136  0.00  0.00    -0.077 A 
ATOM     21  H8  T40 d   1       9.037  -4.316  -4.813  0.00  0.00     0.083 H 
ATOM     22  C3  T40 d   1       6.210  -5.211  -6.479  0.00  0.00    -0.054 A 
ATOM     23  H7  T40 d   1       8.293  -5.655  -6.731  0.00  0.00     0.084 H 
ATOM     24  C8  T40 d   1       3.833  -4.811  -5.818  0.00  0.00     0.002 A 
ATOM     25  H2  T40 d   1       3.579  -4.430  -6.818  0.00  0.00     0.049 H 
ATOM     26  H3  T40 d   1       3.680  -5.900  -5.790  0.00  0.00     0.049 H 
BRANCH  22  27
ATOM     27  C20 T40 d   1       5.819  -5.890  -7.766  0.00  0.00    -0.051 C 
ATOM     28  H4  T40 d   1       6.716  -6.302  -8.251  0.00  0.00     0.033 H 
ATOM     29  H5  T40 d   1       5.343  -5.159  -8.436  0.00  0.00     0.033 H 
ATOM     30  H6  T40 d   1       5.112  -6.705  -7.551  0.00  0.00     0.033 H 
ENDBRANCH  22  27
ENDBRANCH   1  11
BRANCH   4  31
ATOM     31  C15 T40 d   1      -2.817  -4.423  -5.613  0.00  0.00     0.107 C 
ATOM     32  H13 T40 d   1      -2.941  -3.973  -6.609  0.00  0.00     0.083 H 
ATOM     33  H14 T40 d   1      -3.189  -3.726  -4.847  0.00  0.00     0.083 H 
BRANCH  31  34
ATOM     34  N1  T40 d   1      -3.664  -5.630  -5.563  0.00  0.00    -0.064 N 
ATOM     35  C19 T40 d   1      -4.690  -5.589  -6.616  0.00  0.00     0.106 C 
ATOM     36  C18 T40 d   1      -5.601  -6.795  -6.588  0.00  0.00     0.104 C 
ATOM     37  H16 T40 d   1      -4.189  -5.549  -7.595  0.00  0.00     0.078 H 
ATOM     38  H17 T40 d   1      -5.300  -4.684  -6.479  0.00  0.00     0.078 H 
ATOM     39  N2  T40 d   1      -4.808  -8.032  -6.680  0.00  0.00    -0.072 N 
ATOM     40  H18 T40 d   1      -6.297  -6.745  -7.439  0.00  0.00     0.078 H 
ATOM     41  H19 T40 d   1      -6.171  -6.798  -5.647  0.00  0.00     0.078 H 
ATOM     42  C17 T40 d   1      -3.793  -8.095  -5.625  0.00  0.00     0.104 C 
ATOM     43  H20 T40 d   1      -4.351  -8.062  -7.578  0.00  0.00     0.277 HD
ATOM     44  H21 T40 d   1      -5.424  -8.824  -6.590  0.00  0.00     0.277 HD
ATOM     45  C16 T40 d   1      -2.895  -6.876  -5.683  0.00  0.00     0.106 C 
ATOM     46  H22 T40 d   1      -3.184  -9.001  -5.762  0.00  0.00     0.078 H 
ATOM     47  H23 T40 d   1      -4.291  -8.132  -4.645  0.00  0.00     0.078 H 
ATOM     48  H24 T40 d   1      -2.169  -6.928  -4.858  0.00  0.00     0.078 H 
ATOM     49  H25 T40 d   1      -2.359  -6.873  -6.644  0.00  0.00     0.078 H 
ATOM     50  H15 T40 d   1      -4.129  -5.639  -4.668  0.00  0.00     0.280 HD
ENDBRANCH  31  34
ENDBRANCH   4  31
TORSDOF 4
