REMARK  4 active torsions:
REMARK  status: ('A' for Active; 'I' for Inactive)
REMARK    1  A    between atoms: S9_19  and  C10_5 
REMARK       I    between atoms: N1_14  and  C19_7 
REMARK    2  A    between atoms: C7_13  and  C6_12 
REMARK    3  A    between atoms: N8_15  and  C7_13 
REMARK    4  A    between atoms: N8_15  and  S9_19 
ROOT
ATOM      1  C7  64D d   1      25.302  52.694   8.916  0.00  0.00     0.006 C 
ATOM      2  H15 64D d   1      25.509  53.630   8.377  0.00  0.00     0.065 H 
ATOM      3  H16 64D d   1      25.427  51.841   8.232  0.00  0.00     0.065 H 
ENDROOT
BRANCH   1   4
ATOM      4  C6  64D d   1      23.881  52.718   9.433  0.00  0.00    -0.035 C 
ATOM      5  C4  64D d   1      23.647  53.843  10.405  0.00  0.00    -0.045 C 
ATOM      6  C2  64D d   1      22.165  53.919  10.681  0.00  0.00    -0.003 C 
ATOM      7  H6  64D d   1      24.192  53.648  11.341  0.00  0.00     0.036 H 
ATOM      8  H7  64D d   1      23.995  54.791   9.969  0.00  0.00     0.036 H 
ATOM      9  N1  64D d   1      21.627  52.639  11.074  0.00  0.00    -0.359 N 
ATOM     10  H10 64D d   1      21.650  54.257   9.770  0.00  0.00     0.064 H 
ATOM     11  H11 64D d   1      21.990  54.642  11.491  0.00  0.00     0.064 H 
ATOM     12  C19 64D d   1      20.719  52.567  12.102  0.00  0.00     0.171 C 
ATOM     13  C3  64D d   1      22.019  51.439  10.380  0.00  0.00    -0.003 C 
ATOM     14  O20 64D d   1      20.179  53.491  12.694  0.00  0.00    -0.284 OA
ATOM     15  H5  64D d   1      20.447  51.565  12.430  0.00  0.00     0.180 H 
ATOM     16  C5  64D d   1      23.502  51.424  10.107  0.00  0.00    -0.045 C 
ATOM     17  H12 64D d   1      21.759  50.567  10.998  0.00  0.00     0.064 H 
ATOM     18  H13 64D d   1      21.478  51.385   9.424  0.00  0.00     0.064 H 
ATOM     19  H8  64D d   1      23.749  50.578   9.449  0.00  0.00     0.036 H 
ATOM     20  H9  64D d   1      24.052  51.325  11.054  0.00  0.00     0.036 H 
ATOM     21  H14 64D d   1      23.216  52.865   8.569  0.00  0.00     0.042 H 
ENDBRANCH   1   4
BRANCH   1  22
ATOM     22  N8  64D d   1      26.243  52.560  10.040  0.00  0.00    -0.315 N 
ATOM     23  H17 64D d   1      25.995  52.818  10.974  0.00  0.00     0.172 HD
BRANCH  22  24
ATOM     24  S9  64D d   1      27.791  51.934   9.650  0.00  0.00     0.258 S 
ATOM     25  O11 64D d   1      27.661  50.829   8.720  0.00  0.00    -0.201 OA
ATOM     26  O12 64D d   1      28.579  51.832  10.862  0.00  0.00    -0.201 OA
BRANCH  24  27
ATOM     27  C10 64D d   1      28.497  53.273   8.732  0.00  0.00     0.079 A 
ATOM     28  C13 64D d   1      28.446  53.241   7.360  0.00  0.00    -0.059 A 
ATOM     29  C14 64D d   1      29.003  54.285   6.662  0.00  0.00    -0.060 A 
ATOM     30  H1  64D d   1      27.978  52.413   6.841  0.00  0.00     0.086 H 
ATOM     31  C15 64D d   1      29.598  55.322   7.343  0.00  0.00     0.034 A 
ATOM     32  H3  64D d   1      28.974  54.292   5.578  0.00  0.00     0.086 H 
ATOM     33  C16 64D d   1      29.645  55.337   8.717  0.00  0.00    -0.060 A 
ATOM     34 CL1  64D d   1      30.297  56.631   6.468  0.00  0.00    -0.084 Cl
ATOM     35  C17 64D d   1      29.087  54.300   9.425  0.00  0.00    -0.059 A 
ATOM     36  H4  64D d   1      30.119  56.161   9.238  0.00  0.00     0.086 H 
ATOM     37  H2  64D d   1      29.112  54.293  10.509  0.00  0.00     0.086 H 
ENDBRANCH  24  27
ENDBRANCH  22  24
ENDBRANCH   1  22
TORSDOF 4
