REMARK  26 active torsions:
REMARK  status: ('A' for Active; 'I' for Inactive)
REMARK    1  A    between atoms: P_1  and  O3P_33 
REMARK    2  A    between atoms: O5'_41  and  P_1 
REMARK    3  A    between atoms: C7_10  and  C7M_49 
REMARK    4  A    between atoms: C8_11  and  C8M_51 
REMARK    5  A    between atoms: O3P_33  and  PA_13 
REMARK    6  A    between atoms: PA_13  and  O5B_44 
REMARK    7  A    between atoms: N10_16  and  C1'_14 
REMARK    8  A    between atoms: C1'_14  and  C2'_21 
REMARK    9  A    between atoms: C1B_19  and  N9A_53 
REMARK   10  A    between atoms: C2'_21  and  O2'_22 
REMARK   11  A    between atoms: C2'_21  and  C3'_28 
REMARK   12  A    between atoms: C2B_25  and  O2B_26 
REMARK   13  A    between atoms: C3'_28  and  O3'_29 
REMARK   14  A    between atoms: C3'_28  and  C4'_34 
REMARK   15  A    between atoms: C3B_31  and  O3B_32 
REMARK   16  A    between atoms: C4'_34  and  O4'_35 
REMARK   17  A    between atoms: C4'_34  and  C5'_40 
REMARK   18  A    between atoms: C5B_43  and  C4B_37 
REMARK   19  A    between atoms: CAM_66  and  C4X_39 
REMARK   20  A    between atoms: C5'_40  and  O5'_41 
REMARK   21  A    between atoms: O5B_44  and  C5B_43 
REMARK   22  A    between atoms: CAL_65  and  CAM_66 
REMARK   23  A    between atoms: CAO_68  and  CAL_65 
REMARK   24  A    between atoms: CAM_66  and  CAP_69 
REMARK   25  A    between atoms: CAN_67  and  CAO_68 
REMARK   26  A    between atoms: CAN_67  and  CAQ_70 
ROOT
ATOM      1  N1  D69 d   1      -8.136  57.965  86.153  0.00  0.00    -0.318 N 
ATOM      2  C2  D69 d   1      -9.119  57.044  86.331  0.00  0.00     0.324 C 
ATOM      3  O2  D69 d   1      -9.513  56.741  87.480  0.00  0.00    -0.247 OA
ATOM      4  N3  D69 d   1      -9.665  56.434  85.267  0.00  0.00    -0.277 N 
ATOM      5  C4  D69 d   1      -9.255  56.725  84.023  0.00  0.00     0.258 C 
ATOM      6  O4  D69 d   1      -9.804  56.144  83.063  0.00  0.00    -0.270 OA
ATOM      7  N5  D69 d   1      -7.869  57.924  82.482  0.00  0.00    -0.367 N 
ATOM      8  C6  D69 d   1      -7.295  59.671  80.994  0.00  0.00    -0.049 A 
ATOM      9  C7  D69 d   1      -6.731  60.921  80.755  0.00  0.00    -0.054 A 
ATOM     10  C8  D69 d   1      -6.123  61.682  81.888  0.00  0.00    -0.054 A 
ATOM     11  C9  D69 d   1      -6.126  61.134  83.171  0.00  0.00    -0.049 A 
ATOM     12  C10 D69 d   1      -7.700  58.281  84.903  0.00  0.00     0.115 C 
ATOM     13  N10 D69 d   1      -6.713  59.278  84.705  0.00  0.00    -0.352 N 
ATOM     14  C4X D69 d   1      -7.871  57.249  83.826  0.00  0.00     0.159 C 
ATOM     15  C5X D69 d   1      -7.297  59.129  82.274  0.00  0.00     0.056 A 
ATOM     16  C9A D69 d   1      -6.689  59.877  83.414  0.00  0.00     0.059 A 
ATOM     17  H   D69 d   1      -7.729  58.415  86.948  0.00  0.00     0.166 HD
ATOM     18  H   D69 d   1     -10.386  55.755  85.403  0.00  0.00     0.173 HD
ATOM     19  H   D69 d   1      -8.322  57.448  81.689  0.00  0.00     0.161 HD
ATOM     20  H   D69 d   1      -7.737  59.115  80.175  0.00  0.00     0.087 H 
ATOM     21  H   D69 d   1      -5.686  61.690  83.991  0.00  0.00     0.087 H 
ATOM     22  H   D69 d   1      -8.562  58.907  84.628  0.00  0.00     0.112 H 
ENDROOT
BRANCH  13  23
ATOM     23  C1' D69 d   1      -6.128  59.998  85.852  0.00  0.00     0.024 C 
ATOM     24  H   D69 d   1      -5.279  60.594  85.487  0.00  0.00     0.068 H 
ATOM     25  H   D69 d   1      -5.769  59.254  86.578  0.00  0.00     0.068 H 
BRANCH  23  26
ATOM     26  C2' D69 d   1      -7.101  60.941  86.573  0.00  0.00     0.078 C 
ATOM     27  H   D69 d   1      -7.787  60.339  87.187  0.00  0.00     0.089 H 
BRANCH  26  28
ATOM     28  O2' D69 d   1      -7.859  61.699  85.627  0.00  0.00    -0.391 OA
ATOM     29  H   D69 d   1      -8.455  62.276  86.090  0.00  0.00     0.210 HD
ENDBRANCH  26  28
BRANCH  26  30
ATOM     30  C3' D69 d   1      -6.343  61.911  87.473  0.00  0.00     0.088 C 
ATOM     31  H   D69 d   1      -5.806  62.621  86.827  0.00  0.00     0.091 H 
BRANCH  30  32
ATOM     32  O3' D69 d   1      -5.396  61.181  88.257  0.00  0.00    -0.390 OA
ATOM     33  H   D69 d   1      -5.854  60.541  88.790  0.00  0.00     0.210 HD
ENDBRANCH  30  32
BRANCH  30  34
ATOM     34  C4' D69 d   1      -7.226  62.713  88.425  0.00  0.00     0.084 C 
ATOM     35  H   D69 d   1      -7.518  62.070  89.269  0.00  0.00     0.090 H 
BRANCH  34  36
ATOM     36  O4' D69 d   1      -8.413  63.178  87.767  0.00  0.00    -0.391 OA
ATOM     37  H   D69 d   1      -8.909  62.433  87.448  0.00  0.00     0.210 HD
ENDBRANCH  34  36
BRANCH  34  38
ATOM     38  C5' D69 d   1      -6.430  63.903  88.951  0.00  0.00     0.058 C 
ATOM     39  H   D69 d   1      -6.272  64.620  88.132  0.00  0.00     0.079 H 
ATOM     40  H   D69 d   1      -5.457  63.548  89.321  0.00  0.00     0.079 H 
BRANCH  38  41
ATOM     41  O5' D69 d   1      -7.124  64.558  90.016  0.00  0.00    -0.287 OA
BRANCH  41  42
ATOM     42  P   D69 d   1      -6.388  65.677  90.915  0.00  0.00     0.417 P 
ATOM     43  O1P D69 d   1      -5.239  65.019  91.640  0.00  0.00    -0.624 OA
ATOM     44  O2P D69 d   1      -7.458  66.395  91.701  0.00  0.00    -0.624 OA
BRANCH  42  45
ATOM     45  O3P D69 d   1      -5.719  66.690  89.850  0.00  0.00    -0.180 OA
BRANCH  45  46
ATOM     46  PA  D69 d   1      -6.542  67.667  88.863  0.00  0.00     0.417 P 
ATOM     47  O1A D69 d   1      -5.603  68.105  87.760  0.00  0.00    -0.624 OA
ATOM     48  O2A D69 d   1      -7.894  67.072  88.531  0.00  0.00    -0.624 OA
BRANCH  46  49
ATOM     49  O5B D69 d   1      -6.808  68.923  89.838  0.00  0.00    -0.287 OA
BRANCH  49  50
ATOM     50  C5B D69 d   1      -5.880  70.007  89.933  0.00  0.00     0.058 C 
ATOM     51  H   D69 d   1      -5.413  70.010  90.929  0.00  0.00     0.079 H 
ATOM     52  H   D69 d   1      -5.102  69.898  89.163  0.00  0.00     0.079 H 
BRANCH  50  53
ATOM     53  C4B D69 d   1      -6.637  71.306  89.717  0.00  0.00     0.089 C 
ATOM     54  C3B D69 d   1      -7.131  71.448  88.289  0.00  0.00     0.091 C 
ATOM     55  C2B D69 d   1      -6.369  72.630  87.711  0.00  0.00     0.105 C 
ATOM     56  H   D69 d   1      -6.947  70.536  87.702  0.00  0.00     0.091 H 
ATOM     57  C1B D69 d   1      -6.034  73.416  88.964  0.00  0.00     0.139 C 
ATOM     58  H   D69 d   1      -5.455  72.296  87.198  0.00  0.00     0.093 H 
ATOM     59  O4B D69 d   1      -5.775  72.415  89.951  0.00  0.00    -0.353 OA
ATOM     60  H   D69 d   1      -6.906  74.020  89.254  0.00  0.00     0.122 H 
ATOM     61  H   D69 d   1      -7.492  71.340  90.409  0.00  0.00     0.090 H 
BRANCH  54  62
ATOM     62  O3B D69 d   1      -8.528  71.728  88.358  0.00  0.00    -0.390 OA
ATOM     63  H   D69 d   1      -8.671  72.485  88.913  0.00  0.00     0.210 HD
ENDBRANCH  54  62
BRANCH  55  64
ATOM     64  O2B D69 d   1      -7.162  73.392  86.797  0.00  0.00    -0.388 OA
ATOM     65  H   D69 d   1      -7.976  73.642  87.218  0.00  0.00     0.210 HD
ENDBRANCH  55  64
BRANCH  57  66
ATOM     66  N9A D69 d   1      -4.865  74.321  88.849  0.00  0.00    -0.294 N 
ATOM     67  C4A D69 d   1      -4.796  75.496  89.475  0.00  0.00     0.167 A 
ATOM     68  N3A D69 d   1      -5.633  76.192  90.290  0.00  0.00    -0.222 NA
ATOM     69  C5A D69 d   1      -3.491  76.073  89.121  0.00  0.00     0.149 A 
ATOM     70  C2A D69 d   1      -5.281  77.393  90.784  0.00  0.00     0.091 A 
ATOM     71  N1A D69 d   1      -4.099  77.981  90.505  0.00  0.00    -0.222 NA
ATOM     72  H   D69 d   1      -5.977  77.911  91.434  0.00  0.00     0.146 H 
ATOM     73  C6A D69 d   1      -3.173  77.402  89.703  0.00  0.00     0.155 A 
ATOM     74  N6A D69 d   1      -1.999  78.018  89.438  0.00  0.00    -0.382 N 
ATOM     75  H   D69 d   1      -1.306  77.564  88.826  0.00  0.00     0.157 HD
ATOM     76  H   D69 d   1      -1.798  78.941  89.848  0.00  0.00     0.157 HD
ATOM     77  N7A D69 d   1      -2.879  75.181  88.312  0.00  0.00    -0.236 NA
ATOM     78  C8A D69 d   1      -3.723  74.126  88.159  0.00  0.00     0.071 A 
ATOM     79  H   D69 d   1      -3.506  73.243  87.560  0.00  0.00     0.144 H 
ENDBRANCH  57  66
ENDBRANCH  50  53
ENDBRANCH  49  50
ENDBRANCH  46  49
ENDBRANCH  45  46
ENDBRANCH  42  45
ENDBRANCH  41  42
ENDBRANCH  38  41
ENDBRANCH  34  38
ENDBRANCH  30  34
ENDBRANCH  26  30
ENDBRANCH  23  26
ENDBRANCH  13  23
BRANCH  14  80
ATOM     80  CAM D69 d   1      -6.919  56.018  83.796  0.00  0.00     0.013 C 
ATOM     81  H   D69 d   1      -6.054  56.540  83.361  0.00  0.00     0.052 H 
BRANCH  80  82
ATOM     82  CAL D69 d   1      -6.303  55.533  85.131  0.00  0.00    -0.019 C 
ATOM     83  H   D69 d   1      -6.953  54.749  85.547  0.00  0.00     0.043 H 
ATOM     84  H   D69 d   1      -6.267  56.386  85.825  0.00  0.00     0.043 H 
BRANCH  82  85
ATOM     85  CAO D69 d   1      -4.882  54.960  84.995  0.00  0.00     0.008 C 
ATOM     86  NAA D69 d   1      -4.005  55.555  84.180  0.00  0.00    -0.309 NA
ATOM     87  H   D69 d   1      -4.273  56.380  83.667  0.00  0.00     0.186 HD
BRANCH  85  88
ATOM     88  CAN D69 d   1      -4.505  53.693  85.798  0.00  0.00    -0.005 C 
ATOM     89  H   D69 d   1      -4.905  52.826  85.252  0.00  0.00     0.049 H 
ATOM     90  H   D69 d   1      -4.996  53.767  86.779  0.00  0.00     0.049 H 
BRANCH  88  91
ATOM     91  CAQ D69 d   1      -3.132  53.451  86.029  0.00  0.00    -0.053 A 
ATOM     92  CAJ D69 d   1      -2.105  54.276  85.556  0.00  0.00    -0.076 A 
ATOM     93  CAF D69 d   1      -0.764  53.972  85.820  0.00  0.00    -0.082 A 
ATOM     94  H   D69 d   1      -2.351  55.160  84.979  0.00  0.00     0.084 H 
ATOM     95  CAC D69 d   1      -0.428  52.837  86.560  0.00  0.00    -0.083 A 
ATOM     96  H   D69 d   1       0.019  54.623  85.447  0.00  0.00     0.083 H 
ATOM     97  CAG D69 d   1      -1.445  52.008  87.033  0.00  0.00    -0.082 A 
ATOM     98  H   D69 d   1       0.611  52.603  86.764  0.00  0.00     0.083 H 
ATOM     99  CAK D69 d   1      -2.785  52.314  86.769  0.00  0.00    -0.076 A 
ATOM    100  H   D69 d   1      -1.197  51.123  87.608  0.00  0.00     0.083 H 
ATOM    101  H   D69 d   1      -3.566  51.661  87.143  0.00  0.00     0.084 H 
ENDBRANCH  88  91
ENDBRANCH  85  88
ENDBRANCH  82  85
ENDBRANCH  80  82
BRANCH  80 102
ATOM    102  CAP D69 d   1      -6.964  54.923  82.911  0.00  0.00    -0.051 A 
ATOM    103  CAH D69 d   1      -7.897  53.893  83.087  0.00  0.00    -0.076 A 
ATOM    104  CAD D69 d   1      -7.943  52.810  82.212  0.00  0.00    -0.082 A 
ATOM    105  H   D69 d   1      -8.594  53.939  83.916  0.00  0.00     0.084 H 
ATOM    106  CAB D69 d   1      -7.041  52.743  81.151  0.00  0.00    -0.083 A 
ATOM    107  H   D69 d   1      -8.676  52.024  82.355  0.00  0.00     0.083 H 
ATOM    108  CAE D69 d   1      -6.103  53.759  80.970  0.00  0.00    -0.082 A 
ATOM    109  H   D69 d   1      -7.069  51.902  80.468  0.00  0.00     0.083 H 
ATOM    110  CAI D69 d   1      -6.065  54.847  81.843  0.00  0.00    -0.076 A 
ATOM    111  H   D69 d   1      -5.400  53.703  80.147  0.00  0.00     0.083 H 
ATOM    112  H   D69 d   1      -5.336  55.635  81.693  0.00  0.00     0.084 H 
ENDBRANCH  80 102
ENDBRANCH  14  80
BRANCH  10 113
ATOM    113  C8M D69 d   1      -5.504  63.040  81.667  0.00  0.00    -0.051 C 
ATOM    114  H   D69 d   1      -5.590  63.313  80.605  0.00  0.00     0.033 H 
ATOM    115  H   D69 d   1      -4.442  63.010  81.953  0.00  0.00     0.033 H 
ATOM    116  H   D69 d   1      -6.029  63.786  82.281  0.00  0.00     0.033 H 
ENDBRANCH  10 113
BRANCH   9 117
ATOM    117  C7M D69 d   1      -6.746  61.478  79.354  0.00  0.00    -0.051 C 
ATOM    118  H   D69 d   1      -7.238  60.761  78.680  0.00  0.00     0.033 H 
ATOM    119  H   D69 d   1      -5.713  61.650  79.017  0.00  0.00     0.033 H 
ATOM    120  H   D69 d   1      -7.298  62.429  79.344  0.00  0.00     0.033 H 
ENDBRANCH   9 117
TORSDOF 26
