REMARK  26 active torsions:
REMARK  status: ('A' for Active; 'I' for Inactive)
REMARK    1  A    between atoms: PA_1  and  O5B_4 
REMARK    2  A    between atoms: O3P_53  and  PA_1 
REMARK    3  A    between atoms: O5B_4  and  C5B_5 
REMARK    4  A    between atoms: C5B_5  and  C4B_6 
REMARK    5  A    between atoms: C3B_8  and  O3B_9 
REMARK    6  A    between atoms: C2B_10  and  O2B_11 
REMARK    7  A    between atoms: C1B_12  and  N9A_13 
REMARK    8  A    between atoms: CAM_60  and  C4X_29 
REMARK    9  A    between atoms: C7_33  and  C7M_34 
REMARK   10  A    between atoms: C8_35  and  C8M_36 
REMARK   11  A    between atoms: N10_39  and  C1'_41 
REMARK   12  A    between atoms: C1'_41  and  C2'_42 
REMARK   13  A    between atoms: C2'_42  and  O2'_43 
REMARK   14  A    between atoms: C2'_42  and  C3'_44 
REMARK   15  A    between atoms: C3'_44  and  O3'_45 
REMARK   16  A    between atoms: C3'_44  and  C4'_46 
REMARK   17  A    between atoms: C4'_46  and  O4'_47 
REMARK   18  A    between atoms: C4'_46  and  C5'_48 
REMARK   19  A    between atoms: C5'_48  and  O5'_49 
REMARK   20  A    between atoms: O5'_49  and  P_50 
REMARK   21  A    between atoms: P_50  and  O3P_53 
REMARK   22  A    between atoms: CAP_59  and  CAM_60 
REMARK   23  A    between atoms: CAM_60  and  CAL_61 
REMARK   24  A    between atoms: CAL_61  and  CAO_62 
REMARK   25  A    between atoms: CAO_62  and  CAN_64 
REMARK   26  A    between atoms: CAN_64  and  CAQ_65 
ROOT
ATOM      1  C1' D70 d   1      -6.336  59.919  85.270  0.00  0.00     0.024 C 
ATOM      2  H   D70 d   1      -5.486  60.502  84.886  0.00  0.00     0.068 H 
ATOM      3  H   D70 d   1      -5.967  59.143  85.957  0.00  0.00     0.068 H 
ENDROOT
BRANCH   1   4
ATOM      4  N10 D70 d   1      -7.019  59.268  84.137  0.00  0.00    -0.352 N 
ATOM      5  C9A D70 d   1      -6.914  59.820  82.834  0.00  0.00     0.059 A 
ATOM      6  C5X D70 d   1      -7.493  59.054  81.694  0.00  0.00     0.056 A 
ATOM      7  C9  D70 d   1      -6.294  61.046  82.575  0.00  0.00    -0.049 A 
ATOM      8  N5  D70 d   1      -8.107  57.874  81.919  0.00  0.00    -0.367 N 
ATOM      9  C6  D70 d   1      -7.419  59.551  80.395  0.00  0.00    -0.049 A 
ATOM     10  C4X D70 d   1      -8.128  57.211  83.262  0.00  0.00     0.159 C 
ATOM     11  H   D70 d   1      -8.582  57.408  81.133  0.00  0.00     0.161 HD
ATOM     12  C4  D70 d   1      -9.520  56.690  83.399  0.00  0.00     0.258 C 
ATOM     13  C10 D70 d   1      -8.010  58.268  84.332  0.00  0.00     0.115 C 
ATOM     14  N3  D70 d   1      -9.966  56.402  84.634  0.00  0.00    -0.277 N 
ATOM     15  O4  D70 d   1     -10.012  56.091  82.413  0.00  0.00    -0.270 OA
ATOM     16  C2  D70 d   1      -9.467  57.024  85.718  0.00  0.00     0.324 C 
ATOM     17  H   D70 d   1     -10.682  55.713  84.749  0.00  0.00     0.173 HD
ATOM     18  N1  D70 d   1      -8.516  57.986  85.574  0.00  0.00    -0.318 N 
ATOM     19  O2  D70 d   1      -9.905  56.728  86.856  0.00  0.00    -0.247 OA
ATOM     20  H   D70 d   1      -8.186  58.487  86.374  0.00  0.00     0.166 HD
ATOM     21  H   D70 d   1      -8.861  58.882  84.002  0.00  0.00     0.112 H 
ATOM     22  C7  D70 d   1      -6.804  60.771  80.138  0.00  0.00    -0.054 A 
ATOM     23  H   D70 d   1      -7.845  58.981  79.577  0.00  0.00     0.087 H 
ATOM     24  C8  D70 d   1      -6.219  61.546  81.273  0.00  0.00    -0.054 A 
ATOM     25  H   D70 d   1      -5.867  61.614  83.393  0.00  0.00     0.087 H 
BRANCH  10  26
ATOM     26  CAM D70 d   1      -7.167  55.984  83.298  0.00  0.00     0.013 C 
ATOM     27  H   D70 d   1      -6.336  56.480  82.775  0.00  0.00     0.052 H 
BRANCH  26  28
ATOM     28  CAP D70 d   1      -7.238  54.826  82.495  0.00  0.00    -0.051 A 
ATOM     29  CAH D70 d   1      -8.056  53.744  82.857  0.00  0.00    -0.076 A 
ATOM     30  CAD D70 d   1      -8.132  52.604  82.057  0.00  0.00    -0.082 A 
ATOM     31  H   D70 d   1      -8.637  53.795  83.771  0.00  0.00     0.084 H 
ATOM     32  CAB D70 d   1      -7.377  52.536  80.887  0.00  0.00    -0.083 A 
ATOM     33  H   D70 d   1      -8.773  51.778  82.343  0.00  0.00     0.083 H 
ATOM     34  CAE D70 d   1      -6.556  53.604  80.523  0.00  0.00    -0.082 A 
ATOM     35  H   D70 d   1      -7.428  51.653  80.260  0.00  0.00     0.083 H 
ATOM     36  CAI D70 d   1      -6.487  54.747  81.320  0.00  0.00    -0.076 A 
ATOM     37  H   D70 d   1      -5.968  53.545  79.615  0.00  0.00     0.083 H 
ATOM     38  H   D70 d   1      -5.850  55.574  81.027  0.00  0.00     0.084 H 
ENDBRANCH  26  28
BRANCH  26  39
ATOM     39  CAL D70 d   1      -6.448  55.608  84.614  0.00  0.00    -0.019 C 
ATOM     40  H   D70 d   1      -7.054  54.857  85.142  0.00  0.00     0.043 H 
ATOM     41  H   D70 d   1      -6.360  56.511  85.236  0.00  0.00     0.043 H 
BRANCH  39  42
ATOM     42  CAO D70 d   1      -5.042  55.031  84.386  0.00  0.00     0.004 C 
ATOM     43  NAA D70 d   1      -4.199  55.630  83.544  0.00  0.00    -0.309 NA
ATOM     44  H   D70 d   1      -3.278  55.249  83.397  0.00  0.00     0.186 HD
BRANCH  42  45
ATOM     45  CAN D70 d   1      -4.582  53.784  85.140  0.00  0.00    -0.032 C 
ATOM     46  H   D70 d   1      -4.479  52.947  84.434  0.00  0.00     0.041 H 
ATOM     47  H   D70 d   1      -5.325  53.526  85.909  0.00  0.00     0.041 H 
BRANCH  45  48
ATOM     48  CAQ D70 d   1      -3.354  54.033  85.747  0.00  0.00    -0.072 C 
ATOM     49  H   D70 d   1      -3.024  53.135  86.289  0.00  0.00     0.028 H 
ATOM     50  H   D70 d   1      -3.457  54.870  86.453  0.00  0.00     0.028 H 
ATOM     51  H   D70 d   1      -2.611  54.291  84.978  0.00  0.00     0.028 H 
ENDBRANCH  45  48
ENDBRANCH  42  45
ENDBRANCH  39  42
ENDBRANCH  26  39
ENDBRANCH  10  26
BRANCH  22  52
ATOM     52  C7M D70 d   1      -6.739  61.282  78.720  0.00  0.00    -0.051 C 
ATOM     53  H   D70 d   1      -7.227  60.561  78.048  0.00  0.00     0.033 H 
ATOM     54  H   D70 d   1      -5.687  61.407  78.423  0.00  0.00     0.033 H 
ATOM     55  H   D70 d   1      -7.256  62.251  78.655  0.00  0.00     0.033 H 
ENDBRANCH  22  52
BRANCH  24  56
ATOM     56  C8M D70 d   1      -5.549  62.873  81.029  0.00  0.00    -0.051 C 
ATOM     57  H   D70 d   1      -5.186  63.282  81.984  0.00  0.00     0.033 H 
ATOM     58  H   D70 d   1      -6.271  63.572  80.582  0.00  0.00     0.033 H 
ATOM     59  H   D70 d   1      -4.700  62.735  80.344  0.00  0.00     0.033 H 
ENDBRANCH  24  56
ENDBRANCH   1   4
BRANCH   1  60
ATOM     60  C2' D70 d   1      -7.271  60.854  86.037  0.00  0.00     0.078 C 
ATOM     61  H   D70 d   1      -7.976  60.248  86.624  0.00  0.00     0.089 H 
BRANCH  60  62
ATOM     62  O2' D70 d   1      -7.999  61.667  85.115  0.00  0.00    -0.391 OA
ATOM     63  H   D70 d   1      -8.579  62.247  85.595  0.00  0.00     0.210 HD
ENDBRANCH  60  62
BRANCH  60  64
ATOM     64  C3' D70 d   1      -6.493  61.764  86.980  0.00  0.00     0.088 C 
ATOM     65  H   D70 d   1      -5.898  62.461  86.371  0.00  0.00     0.091 H 
BRANCH  64  66
ATOM     66  O3' D70 d   1      -5.617  60.970  87.783  0.00  0.00    -0.390 OA
ATOM     67  H   D70 d   1      -6.128  60.349  88.288  0.00  0.00     0.210 HD
ENDBRANCH  64  66
BRANCH  64  68
ATOM     68  C4' D70 d   1      -7.379  62.577  87.915  0.00  0.00     0.084 C 
ATOM     69  H   D70 d   1      -7.712  61.934  88.743  0.00  0.00     0.090 H 
BRANCH  68  70
ATOM     70  O4' D70 d   1      -8.534  63.084  87.232  0.00  0.00    -0.391 OA
ATOM     71  H   D70 d   1      -9.042  62.358  86.890  0.00  0.00     0.210 HD
ENDBRANCH  68  70
BRANCH  68  72
ATOM     72  C5' D70 d   1      -6.554  63.731  88.472  0.00  0.00     0.058 C 
ATOM     73  H   D70 d   1      -6.333  64.437  87.658  0.00  0.00     0.079 H 
ATOM     74  H   D70 d   1      -5.612  63.333  88.878  0.00  0.00     0.079 H 
BRANCH  72  75
ATOM     75  O5' D70 d   1      -7.250  64.425  89.511  0.00  0.00    -0.287 OA
BRANCH  75  76
ATOM     76  P   D70 d   1      -6.470  65.522  90.398  0.00  0.00     0.417 P 
ATOM     77  O1P D70 d   1      -5.307  64.842  91.084  0.00  0.00    -0.624 OA
ATOM     78  O2P D70 d   1      -7.513  66.258  91.211  0.00  0.00    -0.624 OA
BRANCH  76  79
ATOM     79  O3P D70 d   1      -5.799  66.527  89.327  0.00  0.00    -0.180 OA
BRANCH  79  80
ATOM     80  PA  D70 d   1      -6.644  67.457  88.317  0.00  0.00     0.417 P 
ATOM     81  O1A D70 d   1      -5.722  67.869  87.184  0.00  0.00    -0.624 OA
ATOM     82  O2A D70 d   1      -7.972  66.801  88.017  0.00  0.00    -0.624 OA
BRANCH  80  83
ATOM     83  O5B D70 d   1      -6.971  68.740  89.235  0.00  0.00    -0.287 OA
BRANCH  83  84
ATOM     84  C5B D70 d   1      -6.030  69.805  89.372  0.00  0.00     0.058 C 
ATOM     85  H   D70 d   1      -5.211  69.665  88.651  0.00  0.00     0.079 H 
ATOM     86  H   D70 d   1      -5.623  69.805  90.394  0.00  0.00     0.079 H 
BRANCH  84  87
ATOM     87  C4B D70 d   1      -6.722  71.132  89.102  0.00  0.00     0.089 C 
ATOM     88  O4B D70 d   1      -5.825  72.215  89.342  0.00  0.00    -0.353 OA
ATOM     89  C1B D70 d   1      -6.069  73.219  88.361  0.00  0.00     0.139 C 
ATOM     90  C2B D70 d   1      -6.385  72.440  87.104  0.00  0.00     0.105 C 
ATOM     91  H   D70 d   1      -6.938  73.834  88.639  0.00  0.00     0.122 H 
ATOM     92  C3B D70 d   1      -7.176  71.269  87.658  0.00  0.00     0.091 C 
ATOM     93  H   D70 d   1      -5.465  72.097  86.609  0.00  0.00     0.093 H 
ATOM     94  H   D70 d   1      -6.981  70.353  87.081  0.00  0.00     0.091 H 
ATOM     95  H   D70 d   1      -7.594  71.215  89.768  0.00  0.00     0.090 H 
BRANCH  89  96
ATOM     96  N9A D70 d   1      -4.883  74.092  88.276  0.00  0.00    -0.294 N 
ATOM     97  C8A D70 d   1      -3.712  73.850  87.649  0.00  0.00     0.071 A 
ATOM     98  N7A D70 d   1      -2.851  74.890  87.810  0.00  0.00    -0.236 NA
ATOM     99  H   D70 d   1      -3.487  72.943  87.089  0.00  0.00     0.144 H 
ATOM    100  C5A D70 d   1      -3.485  75.812  88.564  0.00  0.00     0.149 A 
ATOM    101  C6A D70 d   1      -3.161  77.145  89.120  0.00  0.00     0.155 A 
ATOM    102  C4A D70 d   1      -4.823  75.279  88.872  0.00  0.00     0.167 A 
ATOM    103  N6A D70 d   1      -1.954  77.712  88.884  0.00  0.00    -0.382 N 
ATOM    104  N1A D70 d   1      -4.114  77.766  89.861  0.00  0.00    -0.222 NA
ATOM    105  H   D70 d   1      -1.736  78.640  89.274  0.00  0.00     0.157 HD
ATOM    106  H   D70 d   1      -1.254  77.215  88.314  0.00  0.00     0.157 HD
ATOM    107  C2A D70 d   1      -5.325  77.213  90.102  0.00  0.00     0.091 A 
ATOM    108  N3A D70 d   1      -5.686  76.008  89.628  0.00  0.00    -0.222 NA
ATOM    109  H   D70 d   1      -6.036  77.766  90.704  0.00  0.00     0.146 H 
ENDBRANCH  89  96
BRANCH  90 110
ATOM    110  O2B D70 d   1      -7.151  73.214  86.181  0.00  0.00    -0.388 OA
ATOM    111  H   D70 d   1      -7.921  73.556  86.619  0.00  0.00     0.210 HD
ENDBRANCH  90 110
BRANCH  92 112
ATOM    112  O3B D70 d   1      -8.574  71.563  87.675  0.00  0.00    -0.390 OA
ATOM    113  H   D70 d   1      -8.720  72.374  88.148  0.00  0.00     0.210 HD
ENDBRANCH  92 112
ENDBRANCH  84  87
ENDBRANCH  83  84
ENDBRANCH  80  83
ENDBRANCH  79  80
ENDBRANCH  76  79
ENDBRANCH  75  76
ENDBRANCH  72  75
ENDBRANCH  68  72
ENDBRANCH  64  68
ENDBRANCH  60  64
ENDBRANCH   1  60
TORSDOF 26
