REMARK  25 active torsions:
REMARK  status: ('A' for Active; 'I' for Inactive)
REMARK    1  A    between atoms: P_1  and  O3P_33 
REMARK    2  A    between atoms: O5'_41  and  P_1 
REMARK    3  A    between atoms: C7_10  and  C7M_49 
REMARK    4  A    between atoms: C8_11  and  C8M_51 
REMARK    5  A    between atoms: O3P_33  and  PA_13 
REMARK    6  A    between atoms: PA_13  and  O5B_44 
REMARK    7  A    between atoms: N10_16  and  C1'_14 
REMARK    8  A    between atoms: C1'_14  and  C2'_21 
REMARK    9  A    between atoms: C1B_19  and  N9A_53 
REMARK   10  A    between atoms: C2'_21  and  O2'_22 
REMARK   11  A    between atoms: C2'_21  and  C3'_28 
REMARK   12  A    between atoms: C2B_25  and  O2B_26 
REMARK   13  A    between atoms: C3'_28  and  O3'_29 
REMARK   14  A    between atoms: C3'_28  and  C4'_34 
REMARK   15  A    between atoms: C3B_31  and  O3B_32 
REMARK   16  A    between atoms: C4'_34  and  O4'_35 
REMARK   17  A    between atoms: C4'_34  and  C5'_40 
REMARK   18  A    between atoms: C5B_43  and  C4B_37 
REMARK   19  A    between atoms: CAM_61  and  C4X_39 
REMARK   20  A    between atoms: C5'_40  and  O5'_41 
REMARK   21  A    between atoms: O5B_44  and  C5B_43 
REMARK   22  A    between atoms: CAM_61  and  CAL_60 
REMARK   23  A    between atoms: CAL_60  and  CAO_63 
REMARK   24  A    between atoms: CAM_61  and  CAP_64 
REMARK   25  A    between atoms: CAO_63  and  CAN_62 
ROOT
ATOM      1  C1' D73 d   1      -6.254  60.467  85.373  0.00  0.00     0.024 C 
ATOM      2  H   D73 d   1      -5.378  61.023  85.008  0.00  0.00     0.068 H 
ATOM      3  H   D73 d   1      -5.928  59.702  86.093  0.00  0.00     0.068 H 
ENDROOT
BRANCH   1   4
ATOM      4  N10 D73 d   1      -6.887  59.789  84.227  0.00  0.00    -0.352 N 
ATOM      5  C10 D73 d   1      -7.873  58.786  84.410  0.00  0.00     0.115 C 
ATOM      6  N1  D73 d   1      -8.371  58.503  85.648  0.00  0.00    -0.318 N 
ATOM      7  C4X D73 d   1      -7.986  57.730  83.346  0.00  0.00     0.159 C 
ATOM      8  H   D73 d   1      -8.726  59.397  84.079  0.00  0.00     0.112 H 
ATOM      9  C2  D73 d   1      -9.328  57.548  85.798  0.00  0.00     0.324 C 
ATOM     10  H   D73 d   1      -8.032  58.999  86.447  0.00  0.00     0.166 HD
ATOM     11  O2  D73 d   1      -9.769  57.250  86.931  0.00  0.00    -0.247 OA
ATOM     12  N3  D73 d   1      -9.823  56.918  84.723  0.00  0.00    -0.277 N 
ATOM     13  C4  D73 d   1      -9.373  57.200  83.492  0.00  0.00     0.258 C 
ATOM     14  H   D73 d   1     -10.537  56.228  84.841  0.00  0.00     0.173 HD
ATOM     15  O4  D73 d   1      -9.876  56.594  82.520  0.00  0.00    -0.270 OA
ATOM     16  N5  D73 d   1      -7.958  58.389  81.997  0.00  0.00    -0.367 N 
ATOM     17  C5X D73 d   1      -7.387  59.592  81.785  0.00  0.00     0.056 A 
ATOM     18  H   D73 d   1      -8.393  57.902  81.201  0.00  0.00     0.161 HD
ATOM     19  C6  D73 d   1      -7.346  60.113  80.496  0.00  0.00    -0.049 A 
ATOM     20  C9A D73 d   1      -6.815  60.360  82.929  0.00  0.00     0.059 A 
ATOM     21  C7  D73 d   1      -6.773  61.359  80.260  0.00  0.00    -0.054 A 
ATOM     22  H   D73 d   1      -7.762  59.546  79.671  0.00  0.00     0.087 H 
ATOM     23  C8  D73 d   1      -6.202  62.138  81.398  0.00  0.00    -0.054 A 
ATOM     24  C9  D73 d   1      -6.245  61.611  82.687  0.00  0.00    -0.049 A 
ATOM     25  H   D73 d   1      -5.831  62.179  83.512  0.00  0.00     0.087 H 
BRANCH   7  26
ATOM     26  CAM D73 d   1      -7.022  56.506  83.341  0.00  0.00     0.013 C 
ATOM     27  H   D73 d   1      -6.165  57.031  82.893  0.00  0.00     0.052 H 
BRANCH  26  28
ATOM     28  CAL D73 d   1      -6.396  56.059  84.683  0.00  0.00    -0.019 C 
ATOM     29  H   D73 d   1      -7.021  55.259  85.107  0.00  0.00     0.043 H 
ATOM     30  H   D73 d   1      -6.391  56.921  85.366  0.00  0.00     0.043 H 
BRANCH  28  31
ATOM     31  CAO D73 d   1      -4.954  55.532  84.556  0.00  0.00     0.000 C 
ATOM     32  NAA D73 d   1      -4.085  56.123  83.733  0.00  0.00    -0.309 NA
ATOM     33  H   D73 d   1      -3.144  55.771  83.657  0.00  0.00     0.186 HD
BRANCH  31  34
ATOM     34  CAN D73 d   1      -4.487  54.357  85.420  0.00  0.00    -0.040 C 
ATOM     35  H   D73 d   1      -5.327  53.995  86.032  0.00  0.00     0.035 H 
ATOM     36  H   D73 d   1      -3.670  54.688  86.078  0.00  0.00     0.035 H 
ATOM     37  H   D73 d   1      -4.129  53.544  84.771  0.00  0.00     0.035 H 
ENDBRANCH  31  34
ENDBRANCH  28  31
ENDBRANCH  26  28
BRANCH  26  38
ATOM     38  CAP D73 d   1      -7.044  55.388  82.481  0.00  0.00    -0.051 A 
ATOM     39  CAH D73 d   1      -7.906  54.309  82.724  0.00  0.00    -0.076 A 
ATOM     40  CAD D73 d   1      -7.930  53.205  81.874  0.00  0.00    -0.082 A 
ATOM     41  H   D73 d   1      -8.563  54.334  83.586  0.00  0.00     0.084 H 
ATOM     42  CAB D73 d   1      -7.080  53.169  80.771  0.00  0.00    -0.083 A 
ATOM     43  H   D73 d   1      -8.605  52.380  82.070  0.00  0.00     0.083 H 
ATOM     44  CAE D73 d   1      -6.215  54.235  80.522  0.00  0.00    -0.082 A 
ATOM     45  H   D73 d   1      -7.091  52.313  80.106  0.00  0.00     0.083 H 
ATOM     46  CAI D73 d   1      -6.196  55.342  81.371  0.00  0.00    -0.076 A 
ATOM     47  H   D73 d   1      -5.554  54.203  79.664  0.00  0.00     0.083 H 
ATOM     48  H   D73 d   1      -5.523  56.167  81.169  0.00  0.00     0.084 H 
ENDBRANCH  26  38
ENDBRANCH   7  26
BRANCH  21  49
ATOM     49  C7M D73 d   1      -6.739  61.901  78.854  0.00  0.00    -0.051 C 
ATOM     50  H   D73 d   1      -7.208  61.177  78.171  0.00  0.00     0.033 H 
ATOM     51  H   D73 d   1      -5.695  62.069  78.551  0.00  0.00     0.033 H 
ATOM     52  H   D73 d   1      -7.290  62.852  78.814  0.00  0.00     0.033 H 
ENDBRANCH  21  49
BRANCH  23  53
ATOM     53  C8M D73 d   1      -5.577  63.494  81.178  0.00  0.00    -0.051 C 
ATOM     54  H   D73 d   1      -5.628  63.752  80.110  0.00  0.00     0.033 H 
ATOM     55  H   D73 d   1      -4.525  63.469  81.499  0.00  0.00     0.033 H 
ATOM     56  H   D73 d   1      -6.122  64.248  81.764  0.00  0.00     0.033 H 
ENDBRANCH  23  53
ENDBRANCH   1   4
BRANCH   1  57
ATOM     57  C2' D73 d   1      -7.185  61.449  86.096  0.00  0.00     0.078 C 
ATOM     58  H   D73 d   1      -7.933  60.875  86.663  0.00  0.00     0.089 H 
BRANCH  57  59
ATOM     59  O2' D73 d   1      -7.854  62.282  85.147  0.00  0.00    -0.391 OA
ATOM     60  H   D73 d   1      -8.427  62.885  85.605  0.00  0.00     0.210 HD
ENDBRANCH  57  59
BRANCH  57  61
ATOM     61  C3' D73 d   1      -6.402  62.334  87.062  0.00  0.00     0.088 C 
ATOM     62  H   D73 d   1      -5.764  63.003  86.466  0.00  0.00     0.091 H 
BRANCH  61  63
ATOM     63  O3' D73 d   1      -5.581  61.507  87.888  0.00  0.00    -0.390 OA
ATOM     64  H   D73 d   1      -6.130  60.905  88.377  0.00  0.00     0.210 HD
ENDBRANCH  61  63
BRANCH  61  65
ATOM     65  C4' D73 d   1      -7.263  63.194  87.986  0.00  0.00     0.084 C 
ATOM     66  H   D73 d   1      -7.559  62.582  88.851  0.00  0.00     0.090 H 
BRANCH  65  67
ATOM     67  O4' D73 d   1      -8.456  63.665  87.339  0.00  0.00    -0.391 OA
ATOM     68  H   D73 d   1      -8.977  62.922  87.058  0.00  0.00     0.210 HD
ENDBRANCH  65  67
BRANCH  65  69
ATOM     69  C5' D73 d   1      -6.440  64.381  88.481  0.00  0.00     0.058 C 
ATOM     70  H   D73 d   1      -6.294  65.092  87.655  0.00  0.00     0.079 H 
ATOM     71  H   D73 d   1      -5.462  64.023  88.835  0.00  0.00     0.079 H 
BRANCH  69  72
ATOM     72  O5' D73 d   1      -7.119  65.037  89.554  0.00  0.00    -0.287 OA
BRANCH  72  73
ATOM     73  P   D73 d   1      -6.392  66.157  90.458  0.00  0.00     0.417 P 
ATOM     74  O1P D73 d   1      -5.220  65.522  91.163  0.00  0.00    -0.624 OA
ATOM     75  O2P D73 d   1      -7.480  66.834  91.255  0.00  0.00    -0.624 OA
BRANCH  73  76
ATOM     76  O3P D73 d   1      -5.751  67.195  89.403  0.00  0.00    -0.180 OA
BRANCH  76  77
ATOM     77  PA  D73 d   1      -6.583  68.143  88.397  0.00  0.00     0.417 P 
ATOM     78  O1A D73 d   1      -5.613  68.586  87.321  0.00  0.00    -0.624 OA
ATOM     79  O2A D73 d   1      -7.906  67.503  88.031  0.00  0.00    -0.624 OA
BRANCH  77  80
ATOM     80  O5B D73 d   1      -6.919  69.400  89.349  0.00  0.00    -0.287 OA
BRANCH  80  81
ATOM     81  C5B D73 d   1      -5.976  70.457  89.541  0.00  0.00     0.058 C 
ATOM     82  H   D73 d   1      -5.610  70.445  90.578  0.00  0.00     0.079 H 
ATOM     83  H   D73 d   1      -5.128  70.329  88.852  0.00  0.00     0.079 H 
BRANCH  81  84
ATOM     84  C4B D73 d   1      -6.675  71.776  89.257  0.00  0.00     0.089 C 
ATOM     85  C3B D73 d   1      -7.108  71.894  87.805  0.00  0.00     0.091 C 
ATOM     86  C2B D73 d   1      -6.328  73.074  87.251  0.00  0.00     0.105 C 
ATOM     87  H   D73 d   1      -6.886  70.976  87.241  0.00  0.00     0.091 H 
ATOM     88  C1B D73 d   1      -6.012  73.863  88.509  0.00  0.00     0.139 C 
ATOM     89  H   D73 d   1      -5.405  72.734  86.760  0.00  0.00     0.093 H 
ATOM     90  O4B D73 d   1      -5.790  72.867  89.511  0.00  0.00    -0.353 OA
ATOM     91  H   D73 d   1      -6.881  74.481  88.778  0.00  0.00     0.122 H 
ATOM     92  H   D73 d   1      -7.558  71.854  89.908  0.00  0.00     0.090 H 
BRANCH  85  93
ATOM     93  O3B D73 d   1      -8.509  72.161  87.790  0.00  0.00    -0.390 OA
ATOM     94  H   D73 d   1      -8.690  72.926  88.323  0.00  0.00     0.210 HD
ENDBRANCH  85  93
BRANCH  86  95
ATOM     95  O2B D73 d   1      -7.089  73.846  86.318  0.00  0.00    -0.388 OA
ATOM     96  H   D73 d   1      -7.909  74.109  86.720  0.00  0.00     0.210 HD
ENDBRANCH  86  95
BRANCH  88  97
ATOM     97  N9A D73 d   1      -4.833  74.754  88.387  0.00  0.00    -0.294 N 
ATOM     98  C4A D73 d   1      -4.748  75.934  88.994  0.00  0.00     0.167 A 
ATOM     99  N3A D73 d   1      -5.569  76.652  89.808  0.00  0.00    -0.222 NA
ATOM    100  C5A D73 d   1      -3.435  76.489  88.623  0.00  0.00     0.149 A 
ATOM    101  C2A D73 d   1      -5.195  77.854  90.281  0.00  0.00     0.091 A 
ATOM    102  N1A D73 d   1      -4.005  78.422  89.987  0.00  0.00    -0.222 NA
ATOM    103  H   D73 d   1      -5.879  78.391  90.927  0.00  0.00     0.146 H 
ATOM    104  C6A D73 d   1      -3.094  77.822  89.188  0.00  0.00     0.155 A 
ATOM    105  N6A D73 d   1      -1.912  78.417  88.908  0.00  0.00    -0.382 N 
ATOM    106  H   D73 d   1      -1.230  77.945  88.297  0.00  0.00     0.157 HD
ATOM    107  H   D73 d   1      -1.694  79.342  89.305  0.00  0.00     0.157 HD
ATOM    108  N7A D73 d   1      -2.840  75.580  87.820  0.00  0.00    -0.236 NA
ATOM    109  C8A D73 d   1      -3.701  74.537  87.690  0.00  0.00     0.071 A 
ATOM    110  H   D73 d   1      -3.502  73.644  87.100  0.00  0.00     0.144 H 
ENDBRANCH  88  97
ENDBRANCH  81  84
ENDBRANCH  80  81
ENDBRANCH  77  80
ENDBRANCH  76  77
ENDBRANCH  73  76
ENDBRANCH  72  73
ENDBRANCH  69  72
ENDBRANCH  65  69
ENDBRANCH  61  65
ENDBRANCH  57  61
ENDBRANCH   1  57
TORSDOF 25
