REMARK  23 active torsions:
REMARK  status: ('A' for Active; 'I' for Inactive)
REMARK    1  A    between atoms: P_1  and  O3P_33 
REMARK    2  A    between atoms: O5'_41  and  P_1 
REMARK    3  A    between atoms: C7_10  and  C7M_49 
REMARK    4  A    between atoms: C8_11  and  C8M_51 
REMARK    5  A    between atoms: O3P_33  and  PA_13 
REMARK    6  A    between atoms: PA_13  and  O5B_44 
REMARK    7  A    between atoms: N10_16  and  C1'_14 
REMARK    8  A    between atoms: C1'_14  and  C2'_21 
REMARK    9  A    between atoms: C1B_19  and  N9A_53 
REMARK   10  A    between atoms: C2'_21  and  O2'_22 
REMARK   11  A    between atoms: C2'_21  and  C3'_28 
REMARK   12  A    between atoms: C2B_25  and  O2B_26 
REMARK   13  A    between atoms: C3'_28  and  O3'_29 
REMARK   14  A    between atoms: C3'_28  and  C4'_34 
REMARK   15  A    between atoms: C3B_31  and  O3B_32 
REMARK   16  A    between atoms: C4'_34  and  O4'_35 
REMARK   17  A    between atoms: C4'_34  and  C5'_40 
REMARK   18  A    between atoms: C5B_43  and  C4B_37 
REMARK   19  A    between atoms: C5'_40  and  O5'_41 
REMARK   20  A    between atoms: O5B_44  and  C5B_43 
REMARK   21  A    between atoms: CAO_63  and  NAA_54 
REMARK   22  A    between atoms: CAM_61  and  CAP_64 
REMARK   23  A    between atoms: CAO_63  and  CAN_62 
ROOT
ATOM      1  C1' D51 d   1      -6.362  60.415  85.281  0.00  0.00     0.024 C 
ATOM      2  H   D51 d   1      -5.485  60.982  84.936  0.00  0.00     0.068 H 
ATOM      3  H   D51 d   1      -6.040  59.631  85.982  0.00  0.00     0.068 H 
ENDROOT
BRANCH   1   4
ATOM      4  N10 D51 d   1      -6.968  59.751  84.103  0.00  0.00    -0.352 N 
ATOM      5  C10 D51 d   1      -7.994  58.792  84.272  0.00  0.00     0.115 C 
ATOM      6  N1  D51 d   1      -8.379  58.428  85.530  0.00  0.00    -0.318 N 
ATOM      7  C4X D51 d   1      -8.317  57.871  83.130  0.00  0.00     0.163 C 
ATOM      8  H   D51 d   1      -8.827  59.489  84.097  0.00  0.00     0.112 H 
ATOM      9  C2  D51 d   1      -9.408  57.565  85.718  0.00  0.00     0.324 C 
ATOM     10  H   D51 d   1      -7.897  58.802  86.322  0.00  0.00     0.166 HD
ATOM     11  O2  D51 d   1      -9.765  57.256  86.877  0.00  0.00    -0.247 OA
ATOM     12  N3  D51 d   1     -10.022  57.002  84.671  0.00  0.00    -0.277 N 
ATOM     13  C4  D51 d   1      -9.672  57.289  83.410  0.00  0.00     0.259 C 
ATOM     14  H   D51 d   1     -10.762  56.349  84.834  0.00  0.00     0.173 HD
ATOM     15  O4  D51 d   1     -10.319  56.723  82.507  0.00  0.00    -0.270 OA
ATOM     16  N5  D51 d   1      -8.205  58.539  81.777  0.00  0.00    -0.324 N 
ATOM     17  CAM D51 d   1      -7.314  56.714  83.019  0.00  0.00     0.012 C 
ATOM     18  C5X D51 d   1      -7.559  59.734  81.649  0.00  0.00     0.060 A 
ATOM     19  CAO D51 d   1      -7.897  57.525  80.774  0.00  0.00     0.196 C 
ATOM     20  C6  D51 d   1      -7.505  60.359  80.403  0.00  0.00    -0.049 A 
ATOM     21  C9A D51 d   1      -6.921  60.396  82.831  0.00  0.00     0.059 A 
ATOM     22  C7  D51 d   1      -6.873  61.581  80.230  0.00  0.00    -0.054 A 
ATOM     23  H   D51 d   1      -7.968  59.878  79.549  0.00  0.00     0.087 H 
ATOM     24  C8  D51 d   1      -6.240  62.248  81.405  0.00  0.00    -0.054 A 
ATOM     25  C9  D51 d   1      -6.289  61.632  82.654  0.00  0.00    -0.049 A 
ATOM     26  H   D51 d   1      -5.828  62.120  83.505  0.00  0.00     0.087 H 
ATOM     27  CAL D51 d   1      -7.694  56.265  81.610  0.00  0.00    -0.007 C 
ATOM     28  H   D51 d   1      -8.624  55.678  81.639  0.00  0.00     0.040 H 
ATOM     29  H   D51 d   1      -6.888  55.653  81.179  0.00  0.00     0.040 H 
ATOM     30  H   D51 d   1      -7.949  56.053  83.626  0.00  0.00     0.052 H 
BRANCH  22  31
ATOM     31  C7M D51 d   1      -6.847  62.201  78.855  0.00  0.00    -0.051 C 
ATOM     32  H   D51 d   1      -7.369  61.542  78.146  0.00  0.00     0.033 H 
ATOM     33  H   D51 d   1      -5.804  62.334  78.532  0.00  0.00     0.033 H 
ATOM     34  H   D51 d   1      -7.349  63.179  78.884  0.00  0.00     0.033 H 
ENDBRANCH  22  31
BRANCH  24  35
ATOM     35  C8M D51 d   1      -5.545  63.578  81.261  0.00  0.00    -0.051 C 
ATOM     36  H   D51 d   1      -5.604  63.911  80.214  0.00  0.00     0.033 H 
ATOM     37  H   D51 d   1      -4.490  63.474  81.553  0.00  0.00     0.033 H 
ATOM     38  H   D51 d   1      -6.034  64.319  81.910  0.00  0.00     0.033 H 
ENDBRANCH  24  35
BRANCH  19  39
ATOM     39  NAA D51 d   1      -6.725  57.623  79.973  0.00  0.00    -0.053 N 
ATOM     40  H   D51 d   1      -6.682  56.838  79.343  0.00  0.00     0.277 HD
ATOM     41  H   D51 d   1      -5.911  57.621  80.567  0.00  0.00     0.277 HD
ATOM     42  H   D51 d   1      -6.752  58.479  79.442  0.00  0.00     0.277 HD
ENDBRANCH  19  39
BRANCH  19  43
ATOM     43  CAN D51 d   1      -9.072  57.277  79.809  0.00  0.00    -0.029 C 
ATOM     44  H   D51 d   1     -10.007  57.193  80.383  0.00  0.00     0.033 H 
ATOM     45  H   D51 d   1      -8.899  56.344  79.252  0.00  0.00     0.033 H 
ATOM     46  H   D51 d   1      -9.150  58.116  79.102  0.00  0.00     0.033 H 
ENDBRANCH  19  43
BRANCH  17  47
ATOM     47  CAP D51 d   1      -6.185  56.029  83.459  0.00  0.00    -0.051 A 
ATOM     48  CAH D51 d   1      -6.181  55.463  84.736  0.00  0.00    -0.076 A 
ATOM     49  CAD D51 d   1      -5.055  54.775  85.196  0.00  0.00    -0.082 A 
ATOM     50  H   D51 d   1      -7.054  55.558  85.372  0.00  0.00     0.084 H 
ATOM     51  CAB D51 d   1      -3.928  54.654  84.380  0.00  0.00    -0.083 A 
ATOM     52  H   D51 d   1      -5.056  54.335  86.187  0.00  0.00     0.083 H 
ATOM     53  CAE D51 d   1      -3.936  55.220  83.104  0.00  0.00    -0.082 A 
ATOM     54  H   D51 d   1      -3.052  54.124  84.736  0.00  0.00     0.083 H 
ATOM     55  CAI D51 d   1      -5.058  55.909  82.642  0.00  0.00    -0.076 A 
ATOM     56  H   D51 d   1      -3.064  55.123  82.467  0.00  0.00     0.083 H 
ATOM     57  H   D51 d   1      -5.055  56.350  81.652  0.00  0.00     0.084 H 
ENDBRANCH  17  47
ENDBRANCH   1   4
BRANCH   1  58
ATOM     58  C2' D51 d   1      -7.282  61.386  86.046  0.00  0.00     0.078 C 
ATOM     59  H   D51 d   1      -7.993  60.793  86.640  0.00  0.00     0.089 H 
BRANCH  58  60
ATOM     60  O2' D51 d   1      -8.018  62.207  85.134  0.00  0.00    -0.391 OA
ATOM     61  H   D51 d   1      -8.579  62.798  85.623  0.00  0.00     0.210 HD
ENDBRANCH  58  60
BRANCH  58  62
ATOM     62  C3' D51 d   1      -6.481  62.282  86.995  0.00  0.00     0.088 C 
ATOM     63  H   D51 d   1      -5.858  62.948  86.380  0.00  0.00     0.091 H 
BRANCH  62  64
ATOM     64  O3' D51 d   1      -5.639  61.453  87.798  0.00  0.00    -0.390 OA
ATOM     65  H   D51 d   1      -6.175  60.848  88.297  0.00  0.00     0.210 HD
ENDBRANCH  62  64
BRANCH  62  66
ATOM     66  C4' D51 d   1      -7.311  63.157  87.945  0.00  0.00     0.084 C 
ATOM     67  H   D51 d   1      -7.588  62.543  88.815  0.00  0.00     0.090 H 
BRANCH  66  68
ATOM     68  O4' D51 d   1      -8.521  63.633  87.333  0.00  0.00    -0.391 OA
ATOM     69  H   D51 d   1      -9.056  62.892  87.073  0.00  0.00     0.210 HD
ENDBRANCH  66  68
BRANCH  66  70
ATOM     70  C5' D51 d   1      -6.482  64.345  88.435  0.00  0.00     0.058 C 
ATOM     71  H   D51 d   1      -6.390  65.083  87.625  0.00  0.00     0.079 H 
ATOM     72  H   D51 d   1      -5.481  63.994  88.727  0.00  0.00     0.079 H 
BRANCH  70  73
ATOM     73  O5' D51 d   1      -7.116  64.957  89.563  0.00  0.00    -0.287 OA
BRANCH  73  74
ATOM     74  P   D51 d   1      -6.419  66.129  90.429  0.00  0.00     0.417 P 
ATOM     75  O1P D51 d   1      -5.224  65.561  91.155  0.00  0.00    -0.624 OA
ATOM     76  O2P D51 d   1      -7.522  66.804  91.203  0.00  0.00    -0.624 OA
BRANCH  74  77
ATOM     77  O3P D51 d   1      -5.802  67.142  89.335  0.00  0.00    -0.180 OA
BRANCH  77  78
ATOM     78  PA  D51 d   1      -6.665  68.119  88.391  0.00  0.00     0.417 P 
ATOM     79  O1A D51 d   1      -8.004  67.484  88.079  0.00  0.00    -0.624 OA
ATOM     80  O2A D51 d   1      -5.757  68.580  87.273  0.00  0.00    -0.624 OA
BRANCH  78  81
ATOM     81  O5B D51 d   1      -6.922  69.366  89.382  0.00  0.00    -0.287 OA
BRANCH  81  82
ATOM     82  C5B D51 d   1      -5.979  70.437  89.489  0.00  0.00     0.058 C 
ATOM     83  H   D51 d   1      -5.543  70.445  90.499  0.00  0.00     0.079 H 
ATOM     84  H   D51 d   1      -5.180  70.301  88.745  0.00  0.00     0.079 H 
BRANCH  82  85
ATOM     85  C4B D51 d   1      -6.697  71.754  89.232  0.00  0.00     0.089 C 
ATOM     86  C3B D51 d   1      -7.144  71.894  87.788  0.00  0.00     0.091 C 
ATOM     87  C2B D51 d   1      -6.360  73.072  87.236  0.00  0.00     0.105 C 
ATOM     88  H   D51 d   1      -6.944  70.980  87.210  0.00  0.00     0.091 H 
ATOM     89  C1B D51 d   1      -6.052  73.860  88.493  0.00  0.00     0.139 C 
ATOM     90  H   D51 d   1      -5.435  72.733  86.747  0.00  0.00     0.093 H 
ATOM     91  O4B D51 d   1      -5.829  72.859  89.488  0.00  0.00    -0.353 OA
ATOM     92  H   D51 d   1      -6.926  74.472  88.760  0.00  0.00     0.122 H 
ATOM     93  H   D51 d   1      -7.574  71.809  89.894  0.00  0.00     0.090 H 
BRANCH  86  94
ATOM     94  O3B D51 d   1      -8.541  72.188  87.797  0.00  0.00    -0.390 OA
ATOM     95  H   D51 d   1      -8.700  72.950  88.343  0.00  0.00     0.210 HD
ENDBRANCH  86  94
BRANCH  87  96
ATOM     96  O2B D51 d   1      -7.124  73.838  86.303  0.00  0.00    -0.388 OA
ATOM     97  H   D51 d   1      -7.946  74.094  86.704  0.00  0.00     0.210 HD
ENDBRANCH  87  96
BRANCH  89  98
ATOM     98  N9A D51 d   1      -4.875  74.758  88.390  0.00  0.00    -0.294 N 
ATOM     99  C4A D51 d   1      -4.808  75.946  88.994  0.00  0.00     0.167 A 
ATOM    100  N3A D51 d   1      -5.651  76.665  89.786  0.00  0.00    -0.222 NA
ATOM    101  C5A D51 d   1      -3.492  76.507  88.648  0.00  0.00     0.149 A 
ATOM    102  C2A D51 d   1      -5.297  77.872  90.263  0.00  0.00     0.091 A 
ATOM    103  N1A D51 d   1      -4.104  78.444  89.991  0.00  0.00    -0.222 NA
ATOM    104  H   D51 d   1      -5.998  78.408  90.892  0.00  0.00     0.146 H 
ATOM    105  C6A D51 d   1      -3.172  77.843  89.215  0.00  0.00     0.155 A 
ATOM    106  N6A D51 d   1      -1.988  78.448  88.964  0.00  0.00    -0.382 N 
ATOM    107  H   D51 d   1      -1.286  77.981  88.372  0.00  0.00     0.157 HD
ATOM    108  H   D51 d   1      -1.788  79.376  89.365  0.00  0.00     0.157 HD
ATOM    109  N7A D51 d   1      -2.876  75.597  87.863  0.00  0.00    -0.236 NA
ATOM    110  C8A D51 d   1      -3.725  74.545  87.718  0.00  0.00     0.071 A 
ATOM    111  H   D51 d   1      -3.506  73.650  87.137  0.00  0.00     0.144 H 
ENDBRANCH  89  98
ENDBRANCH  82  85
ENDBRANCH  81  82
ENDBRANCH  78  81
ENDBRANCH  77  78
ENDBRANCH  74  77
ENDBRANCH  73  74
ENDBRANCH  70  73
ENDBRANCH  66  70
ENDBRANCH  62  66
ENDBRANCH  58  62
ENDBRANCH   1  58
TORSDOF 23
