REMARK  26 active torsions:
REMARK  status: ('A' for Active; 'I' for Inactive)
REMARK    1  A    between atoms: P_1  and  O3P_33 
REMARK    2  A    between atoms: O5'_41  and  P_1 
REMARK    3  A    between atoms: CAP_69  and  N5_8 
REMARK    4  A    between atoms: C7_10  and  C7M_49 
REMARK    5  A    between atoms: C8_11  and  C8M_51 
REMARK    6  A    between atoms: O3P_33  and  PA_13 
REMARK    7  A    between atoms: PA_13  and  O5B_44 
REMARK    8  A    between atoms: N10_16  and  C1'_14 
REMARK    9  A    between atoms: C1'_14  and  C2'_21 
REMARK   10  A    between atoms: C1B_19  and  N9A_53 
REMARK   11  A    between atoms: C2'_21  and  O2'_22 
REMARK   12  A    between atoms: C2'_21  and  C3'_28 
REMARK   13  A    between atoms: C2B_25  and  O2B_26 
REMARK   14  A    between atoms: C3'_28  and  O3'_29 
REMARK   15  A    between atoms: C3'_28  and  C4'_34 
REMARK   16  A    between atoms: C3B_31  and  O3B_32 
REMARK   17  A    between atoms: C4'_34  and  O4'_35 
REMARK   18  A    between atoms: C4'_34  and  C5'_40 
REMARK   19  A    between atoms: C5B_43  and  C4B_37 
REMARK   20  A    between atoms: C5'_40  and  O5'_41 
REMARK   21  A    between atoms: O5B_44  and  C5B_43 
REMARK   22  A    between atoms: CAP_69  and  NAA_54 
REMARK   23  A    between atoms: CAM_66  and  CAL_65 
REMARK   24  A    between atoms: CAL_65  and  CAN_67 
REMARK   25  A    between atoms: CAP_69  and  CAM_66 
REMARK   26  A    between atoms: CAO_68  and  CAP_69 
ROOT
ATOM      1  N1  D52 d   1      -8.640  58.140  85.814  0.00  0.00    -0.178 NA
ATOM      2  C2  D52 d   1      -9.634  57.214  85.967  0.00  0.00     0.350 C 
ATOM      3  O2  D52 d   1     -10.021  56.876  87.113  0.00  0.00    -0.244 OA
ATOM      4  N3  D52 d   1     -10.242  56.645  84.907  0.00  0.00    -0.276 N 
ATOM      5  C4  D52 d   1     -10.037  57.060  83.649  0.00  0.00     0.251 C 
ATOM      6  O4  D52 d   1     -10.511  56.385  82.707  0.00  0.00    -0.271 OA
ATOM      7  N5  D52 d   1      -8.382  58.261  82.013  0.00  0.00    -0.223 NA
ATOM      8  C6  D52 d   1      -7.676  60.095  80.652  0.00  0.00    -0.054 A 
ATOM      9  C7  D52 d   1      -7.005  61.292  80.485  0.00  0.00    -0.054 A 
ATOM     10  C8  D52 d   1      -6.350  61.929  81.655  0.00  0.00    -0.054 A 
ATOM     11  C9  D52 d   1      -6.410  61.306  82.909  0.00  0.00    -0.049 A 
ATOM     12  C10 D52 d   1      -8.185  58.500  84.578  0.00  0.00     0.140 C 
ATOM     13  N10 D52 d   1      -7.148  59.448  84.367  0.00  0.00    -0.329 N 
ATOM     14  C4X D52 d   1      -8.839  57.894  83.388  0.00  0.00     0.137 C 
ATOM     15  C5X D52 d   1      -7.742  59.460  81.895  0.00  0.00     0.042 A 
ATOM     16  C9A D52 d   1      -7.080  60.089  83.089  0.00  0.00     0.058 A 
ATOM     17  H   D52 d   1     -10.871  55.883  85.065  0.00  0.00     0.173 HD
ATOM     18  H   D52 d   1      -8.163  59.638  79.798  0.00  0.00     0.087 H 
ATOM     19  H   D52 d   1      -5.927  61.776  83.758  0.00  0.00     0.087 H 
ATOM     20  H   D52 d   1      -8.175  57.017  83.404  0.00  0.00     0.092 H 
ENDROOT
BRANCH  13  21
ATOM     21  C1' D52 d   1      -6.419  60.012  85.528  0.00  0.00     0.028 C 
ATOM     22  H   D52 d   1      -5.544  60.572  85.167  0.00  0.00     0.069 H 
ATOM     23  H   D52 d   1      -6.085  59.190  86.178  0.00  0.00     0.069 H 
BRANCH  21  24
ATOM     24  C2' D52 d   1      -7.323  60.955  86.333  0.00  0.00     0.078 C 
ATOM     25  H   D52 d   1      -7.964  60.344  86.985  0.00  0.00     0.089 H 
BRANCH  24  26
ATOM     26  O2' D52 d   1      -8.149  61.709  85.437  0.00  0.00    -0.391 OA
ATOM     27  H   D52 d   1      -8.708  62.292  85.938  0.00  0.00     0.210 HD
ENDBRANCH  24  26
BRANCH  24  28
ATOM     28  C3' D52 d   1      -6.539  61.930  87.204  0.00  0.00     0.088 C 
ATOM     29  H   D52 d   1      -5.924  62.569  86.553  0.00  0.00     0.091 H 
BRANCH  28  30
ATOM     30  O3' D52 d   1      -5.693  61.196  88.087  0.00  0.00    -0.390 OA
ATOM     31  H   D52 d   1      -6.224  60.633  88.638  0.00  0.00     0.210 HD
ENDBRANCH  28  30
BRANCH  28  32
ATOM     32  C4' D52 d   1      -7.452  62.816  88.046  0.00  0.00     0.084 C 
ATOM     33  H   D52 d   1      -7.859  62.214  88.872  0.00  0.00     0.090 H 
BRANCH  32  34
ATOM     34  O4' D52 d   1      -8.558  63.334  87.280  0.00  0.00    -0.391 OA
ATOM     35  H   D52 d   1      -9.074  62.611  86.942  0.00  0.00     0.210 HD
ENDBRANCH  32  34
BRANCH  32  36
ATOM     36  C5' D52 d   1      -6.619  63.959  88.632  0.00  0.00     0.058 C 
ATOM     37  H   D52 d   1      -6.389  64.676  87.830  0.00  0.00     0.079 H 
ATOM     38  H   D52 d   1      -5.682  63.544  89.032  0.00  0.00     0.079 H 
BRANCH  36  39
ATOM     39  O5' D52 d   1      -7.303  64.652  89.687  0.00  0.00    -0.287 OA
BRANCH  39  40
ATOM     40  P   D52 d   1      -6.490  65.707  90.590  0.00  0.00     0.417 P 
ATOM     41  O1P D52 d   1      -5.323  65.017  91.277  0.00  0.00    -0.624 OA
ATOM     42  O2P D52 d   1      -7.555  66.416  91.408  0.00  0.00    -0.624 OA
BRANCH  40  43
ATOM     43  O3P D52 d   1      -5.812  66.745  89.552  0.00  0.00    -0.180 OA
BRANCH  43  44
ATOM     44  PA  D52 d   1      -6.628  67.635  88.481  0.00  0.00     0.417 P 
ATOM     45  O1A D52 d   1      -5.633  68.102  87.430  0.00  0.00    -0.624 OA
ATOM     46  O2A D52 d   1      -7.932  66.944  88.111  0.00  0.00    -0.624 OA
BRANCH  44  47
ATOM     47  O5B D52 d   1      -7.114  68.928  89.313  0.00  0.00    -0.287 OA
BRANCH  47  48
ATOM     48  C5B D52 d   1      -6.211  69.966  89.683  0.00  0.00     0.058 C 
ATOM     49  H   D52 d   1      -5.984  69.887  90.756  0.00  0.00     0.079 H 
ATOM     50  H   D52 d   1      -5.282  69.865  89.103  0.00  0.00     0.079 H 
BRANCH  48  51
ATOM     51  C4B D52 d   1      -6.837  71.318  89.399  0.00  0.00     0.089 C 
ATOM     52  C3B D52 d   1      -7.296  71.451  87.958  0.00  0.00     0.091 C 
ATOM     53  C2B D52 d   1      -6.390  72.527  87.370  0.00  0.00     0.105 C 
ATOM     54  H   D52 d   1      -7.180  70.507  87.405  0.00  0.00     0.091 H 
ATOM     55  C1B D52 d   1      -6.069  73.335  88.596  0.00  0.00     0.139 C 
ATOM     56  H   D52 d   1      -5.486  72.076  86.934  0.00  0.00     0.093 H 
ATOM     57  O4B D52 d   1      -5.861  72.337  89.587  0.00  0.00    -0.353 OA
ATOM     58  H   D52 d   1      -6.924  73.975  88.858  0.00  0.00     0.122 H 
ATOM     59  H   D52 d   1      -7.689  71.471  90.078  0.00  0.00     0.090 H 
BRANCH  52  60
ATOM     60  O3B D52 d   1      -8.681  71.832  87.990  0.00  0.00    -0.390 OA
ATOM     61  H   D52 d   1      -8.781  72.614  88.521  0.00  0.00     0.210 HD
ENDBRANCH  52  60
BRANCH  53  62
ATOM     62  O2B D52 d   1      -7.007  73.355  86.393  0.00  0.00    -0.388 OA
ATOM     63  H   D52 d   1      -7.810  73.718  86.749  0.00  0.00     0.210 HD
ENDBRANCH  53  62
BRANCH  55  64
ATOM     64  N9A D52 d   1      -4.868  74.182  88.475  0.00  0.00    -0.294 N 
ATOM     65  C4A D52 d   1      -4.789  75.388  89.041  0.00  0.00     0.167 A 
ATOM     66  N3A D52 d   1      -5.636  76.156  89.788  0.00  0.00    -0.222 NA
ATOM     67  C5A D52 d   1      -3.435  75.886  88.703  0.00  0.00     0.149 A 
ATOM     68  C2A D52 d   1      -5.236  77.368  90.224  0.00  0.00     0.091 A 
ATOM     69  N1A D52 d   1      -4.012  77.893  89.955  0.00  0.00    -0.222 NA
ATOM     70  H   D52 d   1      -5.927  77.954  90.820  0.00  0.00     0.146 H 
ATOM     71  C6A D52 d   1      -3.085  77.223  89.219  0.00  0.00     0.155 A 
ATOM     72  N6A D52 d   1      -1.868  77.734  88.938  0.00  0.00    -0.382 N 
ATOM     73  H   D52 d   1      -1.198  77.189  88.376  0.00  0.00     0.157 HD
ATOM     74  H   D52 d   1      -1.609  78.668  89.285  0.00  0.00     0.157 HD
ATOM     75  N7A D52 d   1      -2.812  74.939  87.967  0.00  0.00    -0.236 NA
ATOM     76  C8A D52 d   1      -3.695  73.908  87.845  0.00  0.00     0.071 A 
ATOM     77  H   D52 d   1      -3.487  72.982  87.311  0.00  0.00     0.144 H 
ENDBRANCH  55  64
ENDBRANCH  48  51
ENDBRANCH  47  48
ENDBRANCH  44  47
ENDBRANCH  43  44
ENDBRANCH  40  43
ENDBRANCH  39  40
ENDBRANCH  36  39
ENDBRANCH  32  36
ENDBRANCH  28  32
ENDBRANCH  24  28
ENDBRANCH  21  24
ENDBRANCH  13  21
BRANCH   7  78
ATOM     78  CAP D52 d   1      -7.647  57.113  81.434  0.00  0.00     0.212 C 
BRANCH  78  79
ATOM     79  NAA D52 d   1      -6.358  57.793  81.288  0.00  0.00    -0.052 N 
ATOM     80  H   D52 d   1      -5.685  57.156  80.891  0.00  0.00     0.277 HD
ATOM     81  H   D52 d   1      -6.037  58.101  82.192  0.00  0.00     0.277 HD
ATOM     82  H   D52 d   1      -6.465  58.590  80.680  0.00  0.00     0.277 HD
ENDBRANCH  78  79
BRANCH  78  83
ATOM     83  CAM D52 d   1      -7.300  55.774  82.109  0.00  0.00    -0.013 C 
ATOM     84  H   D52 d   1      -6.993  55.961  83.149  0.00  0.00     0.039 H 
ATOM     85  H   D52 d   1      -8.186  55.123  82.100  0.00  0.00     0.039 H 
BRANCH  83  86
ATOM     86  CAL D52 d   1      -6.149  55.077  81.356  0.00  0.00    -0.037 C 
ATOM     87  H   D52 d   1      -5.191  55.332  81.834  0.00  0.00     0.040 H 
ATOM     88  H   D52 d   1      -6.138  55.415  80.309  0.00  0.00     0.040 H 
BRANCH  86  89
ATOM     89  CAN D52 d   1      -6.334  53.704  81.396  0.00  0.00    -0.058 A 
ATOM     90  CAH D52 d   1      -7.576  53.127  81.079  0.00  0.00    -0.077 A 
ATOM     91  CAD D52 d   1      -7.732  51.738  81.136  0.00  0.00    -0.082 A 
ATOM     92  H   D52 d   1      -8.410  53.756  80.791  0.00  0.00     0.084 H 
ATOM     93  CAB D52 d   1      -6.648  50.929  81.508  0.00  0.00    -0.083 A 
ATOM     94  H   D52 d   1      -8.688  51.288  80.893  0.00  0.00     0.083 H 
ATOM     95  CAE D52 d   1      -5.410  51.504  81.823  0.00  0.00    -0.082 A 
ATOM     96  H   D52 d   1      -6.769  49.853  81.552  0.00  0.00     0.083 H 
ATOM     97  CAI D52 d   1      -5.254  52.896  81.766  0.00  0.00    -0.077 A 
ATOM     98  H   D52 d   1      -4.575  50.875  82.110  0.00  0.00     0.083 H 
ATOM     99  H   D52 d   1      -4.298  53.345  82.008  0.00  0.00     0.084 H 
ENDBRANCH  86  89
ENDBRANCH  83  86
ENDBRANCH  78  83
BRANCH  78 100
ATOM    100  CAO D52 d   1      -8.194  56.821  80.157  0.00  0.00    -0.007 A 
ATOM    101  CAJ D52 d   1      -7.555  57.245  78.982  0.00  0.00    -0.073 A 
ATOM    102  CAF D52 d   1      -8.081  56.965  77.720  0.00  0.00    -0.082 A 
ATOM    103  H   D52 d   1      -6.629  57.804  79.056  0.00  0.00     0.084 H 
ATOM    104  CAC D52 d   1      -9.263  56.241  77.603  0.00  0.00    -0.083 A 
ATOM    105  H   D52 d   1      -7.568  57.312  76.830  0.00  0.00     0.083 H 
ATOM    106  CAG D52 d   1      -9.903  55.805  78.759  0.00  0.00    -0.082 A 
ATOM    107  H   D52 d   1      -9.679  56.020  76.627  0.00  0.00     0.083 H 
ATOM    108  CAK D52 d   1      -9.377  56.090  80.021  0.00  0.00    -0.073 A 
ATOM    109  H   D52 d   1     -10.822  55.236  78.679  0.00  0.00     0.083 H 
ATOM    110  H   D52 d   1      -9.894  55.739  80.907  0.00  0.00     0.084 H 
ENDBRANCH  78 100
ENDBRANCH   7  78
BRANCH  10 111
ATOM    111  C8M D52 d   1      -5.630  63.243  81.481  0.00  0.00    -0.051 C 
ATOM    112  H   D52 d   1      -5.697  63.562  80.430  0.00  0.00     0.033 H 
ATOM    113  H   D52 d   1      -4.573  63.122  81.760  0.00  0.00     0.033 H 
ATOM    114  H   D52 d   1      -6.095  64.004  82.126  0.00  0.00     0.033 H 
ENDBRANCH  10 111
BRANCH   9 115
ATOM    115  C7M D52 d   1      -6.953  61.934  79.125  0.00  0.00    -0.051 C 
ATOM    116  H   D52 d   1      -7.495  61.306  78.402  0.00  0.00     0.033 H 
ATOM    117  H   D52 d   1      -5.905  62.036  78.808  0.00  0.00     0.033 H 
ATOM    118  H   D52 d   1      -7.421  62.928  79.171  0.00  0.00     0.033 H 
ENDBRANCH   9 115
TORSDOF 26
