REMARK  4 active torsions:
REMARK  status: ('A' for Active; 'I' for Inactive)
REMARK    1  A    between atoms: N2_5  and  C12_6 
REMARK    2  A    between atoms: C12_6  and  C9_7 
REMARK    3  A    between atoms: C6_12  and  C5_13 
REMARK    4  A    between atoms: C17_16  and  C21_17 
ROOT
ATOM      1  C9  U1T d   1     -38.222 -11.026   7.951  0.00  0.00    -0.033 A 
ATOM      2  C10 U1T d   1     -37.776 -10.192   8.967  0.00  0.00    -0.074 A 
ATOM      3  C11 U1T d   1     -37.846 -10.586  10.284  0.00  0.00    -0.070 A 
ATOM      4  C8  U1T d   1     -38.723 -12.294   8.291  0.00  0.00    -0.074 A 
ATOM      5  C7  U1T d   1     -38.799 -12.688   9.644  0.00  0.00    -0.070 A 
ATOM      6  C6  U1T d   1     -38.309 -11.852  10.660  0.00  0.00    -0.009 A 
ATOM      7  H12 U1T d   1     -37.368  -9.219   8.720  0.00  0.00     0.084 H 
ATOM      8  H13 U1T d   1     -37.532  -9.893  11.056  0.00  0.00     0.084 H 
ATOM      9  H14 U1T d   1     -39.052 -12.972   7.512  0.00  0.00     0.084 H 
ATOM     10  H15 U1T d   1     -39.240 -13.645   9.901  0.00  0.00     0.084 H 
ENDROOT
BRANCH   6  11
ATOM     11  C5  U1T d   1     -38.374 -12.121  12.042  0.00  0.00     0.046 A 
ATOM     12  C4  U1T d   1     -39.219 -13.096  12.571  0.00  0.00    -0.045 A 
ATOM     13  C3  U1T d   1     -39.278 -13.290  13.948  0.00  0.00    -0.012 A 
ATOM     14  H16 U1T d   1     -39.832 -13.705  11.908  0.00  0.00     0.088 H 
ATOM     15  C17 U1T d   1     -40.113 -14.291  14.489  0.00  0.00    -0.051 A 
ATOM     16  C2  U1T d   1     -38.503 -12.472  14.801  0.00  0.00     0.043 A 
ATOM     17  C18 U1T d   1     -40.180 -14.441  15.883  0.00  0.00    -0.076 A 
ATOM     18  C19 U1T d   1     -39.436 -13.627  16.719  0.00  0.00    -0.081 A 
ATOM     19  H20 U1T d   1     -40.822 -15.203  16.310  0.00  0.00     0.084 H 
ATOM     20  C20 U1T d   1     -38.577 -12.648  16.171  0.00  0.00    -0.067 A 
ATOM     21  H21 U1T d   1     -39.512 -13.740  17.794  0.00  0.00     0.083 H 
ATOM     22  H22 U1T d   1     -37.973 -12.032  16.827  0.00  0.00     0.085 H 
ATOM     23  C1  U1T d   1     -37.633 -11.493  14.265  0.00  0.00     0.257 A 
ATOM     24  O1  U1T d   1     -36.878 -10.784  14.937  0.00  0.00    -0.267 OA
ATOM     25  N1  U1T d   1     -37.577 -11.346  12.920  0.00  0.00    -0.322 N 
ATOM     26  H23 U1T d   1     -36.952 -10.668  12.534  0.00  0.00     0.169 HD
BRANCH  15  27
ATOM     27  C21 U1T d   1     -40.922 -15.131  13.671  0.00  0.00    -0.050 C 
ATOM     28  H17 U1T d   1     -41.484 -15.831  14.307  0.00  0.00     0.033 H 
ATOM     29  H18 U1T d   1     -40.281 -15.698  12.980  0.00  0.00     0.033 H 
ATOM     30  H19 U1T d   1     -41.626 -14.513  13.095  0.00  0.00     0.033 H 
ENDBRANCH  15  27
ENDBRANCH   6  11
BRANCH   1  31
ATOM     31  C12 U1T d   1     -38.022 -10.512   6.648  0.00  0.00     0.107 C 
ATOM     32  H10 U1T d   1     -38.255  -9.437   6.674  0.00  0.00     0.083 H 
ATOM     33  H11 U1T d   1     -36.961 -10.652   6.394  0.00  0.00     0.083 H 
BRANCH  31  34
ATOM     34  N2  U1T d   1     -38.811 -11.107   5.585  0.00  0.00    -0.067 N 
ATOM     35  C13 U1T d   1     -37.895 -10.899   4.485  0.00  0.00     0.084 C 
ATOM     36  C14 U1T d   1     -38.796 -10.482   3.352  0.00  0.00    -0.041 C 
ATOM     37  H1  U1T d   1     -37.169 -10.107   4.722  0.00  0.00     0.076 H 
ATOM     38  H2  U1T d   1     -37.358 -11.827   4.239  0.00  0.00     0.076 H 
ATOM     39  C15 U1T d   1     -39.669  -9.488   4.155  0.00  0.00    -0.041 C 
ATOM     40  H3  U1T d   1     -39.380 -11.322   2.948  0.00  0.00     0.035 H 
ATOM     41  H4  U1T d   1     -38.245  -9.992   2.535  0.00  0.00     0.035 H 
ATOM     42  C16 U1T d   1     -39.903 -10.158   5.510  0.00  0.00     0.084 C 
ATOM     43  H5  U1T d   1     -40.626  -9.314   3.641  0.00  0.00     0.035 H 
ATOM     44  H6  U1T d   1     -39.143  -8.531   4.285  0.00  0.00     0.035 H 
ATOM     45  H7  U1T d   1     -40.876 -10.670   5.537  0.00  0.00     0.076 H 
ATOM     46  H8  U1T d   1     -39.850  -9.426   6.330  0.00  0.00     0.076 H 
ATOM     47  H9  U1T d   1     -39.100 -12.064   5.715  0.00  0.00     0.280 HD
ENDBRANCH  31  34
ENDBRANCH   1  31
TORSDOF 4
