REMARK  1 active torsions:
REMARK  status: ('A' for Active; 'I' for Inactive)
REMARK    1  A    between atoms: CAB_3  and  CAA_4 
ROOT
ATOM      1  CAH W8L d   1     -39.663 -12.691  12.562  0.00  0.00    -0.045 A 
ATOM      2  CAG W8L d   1     -39.764 -12.885  13.944  0.00  0.00    -0.012 A 
ATOM      3  CAB W8L d   1     -40.619 -13.884  14.445  0.00  0.00    -0.051 A 
ATOM      4  CAC W8L d   1     -40.718 -14.036  15.835  0.00  0.00    -0.076 A 
ATOM      5  CAD W8L d   1     -39.995 -13.215  16.717  0.00  0.00    -0.081 A 
ATOM      6  CAE W8L d   1     -39.142 -12.229  16.214  0.00  0.00    -0.067 A 
ATOM      7  CAF W8L d   1     -39.026 -12.072  14.833  0.00  0.00     0.043 A 
ATOM      8  CAK W8L d   1     -38.136 -11.105  14.293  0.00  0.00     0.257 A 
ATOM      9  OAL W8L d   1     -37.413 -10.398  14.985  0.00  0.00    -0.267 OA
ATOM     10  NAJ W8L d   1     -38.073 -10.939  12.930  0.00  0.00    -0.322 N 
ATOM     11  CAI W8L d   1     -38.828 -11.726  12.033  0.00  0.00     0.046 A 
ATOM     12  CAM W8L d   1     -38.742 -11.474  10.618  0.00  0.00    -0.009 A 
ATOM     13  CAN W8L d   1     -38.367 -10.185  10.203  0.00  0.00    -0.069 A 
ATOM     14  CAO W8L d   1     -38.292  -9.860   8.841  0.00  0.00    -0.061 A 
ATOM     15  CAP W8L d   1     -38.607 -10.818   7.874  0.00  0.00     0.034 A 
ATOM     16 CL   W8L d   1     -38.500 -10.477   6.133  0.00  0.00    -0.084 Cl
ATOM     17  CAR W8L d   1     -39.018 -12.091   8.273  0.00  0.00    -0.061 A 
ATOM     18  CAS W8L d   1     -39.094 -12.411   9.628  0.00  0.00    -0.069 A 
ATOM     19  H1  W8L d   1     -40.254 -13.312  11.891  0.00  0.00     0.088 H 
ATOM     20  H5  W8L d   1     -41.367 -14.805  16.239  0.00  0.00     0.084 H 
ATOM     21  H6  W8L d   1     -40.099 -13.347  17.788  0.00  0.00     0.083 H 
ATOM     22  H7  W8L d   1     -38.578 -11.595  16.888  0.00  0.00     0.085 H 
ATOM     23  H8  W8L d   1     -37.469 -10.233  12.559  0.00  0.00     0.169 HD
ATOM     24  H9  W8L d   1     -38.132  -9.431  10.946  0.00  0.00     0.085 H 
ATOM     25  H10 W8L d   1     -37.989  -8.864   8.538  0.00  0.00     0.086 H 
ATOM     26  H11 W8L d   1     -39.279 -12.833   7.527  0.00  0.00     0.086 H 
ATOM     27  H12 W8L d   1     -39.430 -13.398   9.924  0.00  0.00     0.085 H 
ENDROOT
BRANCH   3  28
ATOM     28  CAA W8L d   1     -41.394 -14.725  13.578  0.00  0.00    -0.050 C 
ATOM     29  H2  W8L d   1     -41.985 -15.429  14.182  0.00  0.00     0.033 H 
ATOM     30  H3  W8L d   1     -40.721 -15.288  12.915  0.00  0.00     0.033 H 
ATOM     31  H4  W8L d   1     -42.070 -14.104  12.973  0.00  0.00     0.033 H 
ENDBRANCH   3  28
TORSDOF 1
