REMARK  3 active torsions:
REMARK  status: ('A' for Active; 'I' for Inactive)
REMARK    1  A    between atoms: CAI_1  and  CAH_2 
REMARK    2  A    between atoms: CAB_4  and  CAA_5 
REMARK    3  A    between atoms: CAJ_13  and  CAN_14 
ROOT
ATOM      1  CAH NYJ d   1     -40.892 -12.116  12.246  0.00  0.00    -0.022 A 
ATOM      2  CAG NYJ d   1     -41.061 -12.346  13.642  0.00  0.00    -0.006 A 
ATOM      3  CAB NYJ d   1     -41.979 -13.309  14.198  0.00  0.00    -0.050 A 
ATOM      4  CAC NYJ d   1     -42.108 -13.456  15.588  0.00  0.00    -0.076 A 
ATOM      5  CAD NYJ d   1     -41.332 -12.678  16.455  0.00  0.00    -0.081 A 
ATOM      6  CAE NYJ d   1     -40.442 -11.750  15.932  0.00  0.00    -0.067 A 
ATOM      7  CAF NYJ d   1     -40.285 -11.577  14.558  0.00  0.00     0.043 A 
ATOM      8  CAL NYJ d   1     -39.347 -10.638  14.092  0.00  0.00     0.257 A 
ATOM      9  OAM NYJ d   1     -38.629  -9.967  14.850  0.00  0.00    -0.267 OA
ATOM     10  NAK NYJ d   1     -39.189 -10.435  12.714  0.00  0.00    -0.322 N 
ATOM     11  CAJ NYJ d   1     -39.960 -11.144  11.774  0.00  0.00     0.052 A 
ATOM     12  H7  NYJ d   1     -42.812 -14.175  15.992  0.00  0.00     0.084 H 
ATOM     13  H8  NYJ d   1     -41.425 -12.799  17.528  0.00  0.00     0.083 H 
ATOM     14  H9  NYJ d   1     -39.853 -11.143  16.611  0.00  0.00     0.085 H 
ATOM     15  H10 NYJ d   1     -38.514  -9.772  12.392  0.00  0.00     0.169 HD
ENDROOT
BRANCH  11  16
ATOM     16  CAN NYJ d   1     -39.709 -10.867  10.405  0.00  0.00    -0.009 A 
ATOM     17  CAO NYJ d   1     -39.584 -11.879   9.443  0.00  0.00    -0.071 A 
ATOM     18  CAP NYJ d   1     -39.270 -11.565   8.111  0.00  0.00    -0.082 A 
ATOM     19  H11 NYJ d   1     -39.731 -12.914   9.730  0.00  0.00     0.084 H 
ATOM     20  CAQ NYJ d   1     -39.108 -10.231   7.713  0.00  0.00    -0.083 A 
ATOM     21  H12 NYJ d   1     -39.152 -12.361   7.385  0.00  0.00     0.083 H 
ATOM     22  CAR NYJ d   1     -39.204  -9.232   8.676  0.00  0.00    -0.082 A 
ATOM     23  H13 NYJ d   1     -38.912  -9.983   6.676  0.00  0.00     0.083 H 
ATOM     24  CAS NYJ d   1     -39.498  -9.557   9.981  0.00  0.00    -0.071 A 
ATOM     25  H14 NYJ d   1     -39.047  -8.196   8.399  0.00  0.00     0.083 H 
ATOM     26  H15 NYJ d   1     -39.568  -8.758  10.711  0.00  0.00     0.084 H 
ENDBRANCH  11  16
BRANCH   1  27
ATOM     27  CAI NYJ d   1     -41.665 -12.805  11.254  0.00  0.00    -0.048 C 
ATOM     28  H1  NYJ d   1     -42.339 -13.521  11.747  0.00  0.00     0.033 H 
ATOM     29  H2  NYJ d   1     -40.990 -13.345  10.573  0.00  0.00     0.033 H 
ATOM     30  H3  NYJ d   1     -42.258 -12.077  10.681  0.00  0.00     0.033 H 
ENDBRANCH   1  27
BRANCH   3  31
ATOM     31  CAA NYJ d   1     -42.818 -14.170  13.425  0.00  0.00    -0.050 C 
ATOM     32  H4  NYJ d   1     -43.416 -14.802  14.099  0.00  0.00     0.033 H 
ATOM     33  H5  NYJ d   1     -42.195 -14.808  12.781  0.00  0.00     0.033 H 
ATOM     34  H6  NYJ d   1     -43.489 -13.563  12.800  0.00  0.00     0.033 H 
ENDBRANCH   3  31
TORSDOF 3
