REMARK  0 active torsions:
REMARK  status: ('A' for Active; 'I' for Inactive)
ROOT
ATOM      1  CAF H2W d   1     -39.266 -12.930  12.472  0.00  0.00    -0.042 A 
ATOM      2  CAE H2W d   1     -39.308 -13.146  13.839  0.00  0.00     0.020 A 
ATOM      3  CAO H2W d   1     -40.147 -14.147  14.337  0.00  0.00     0.127 A 
ATOM      4  FAP H2W d   1     -40.847 -14.903  13.497  0.00  0.00    -0.205 F 
ATOM      5  CAQ H2W d   1     -40.234 -14.367  15.710  0.00  0.00    -0.045 A 
ATOM      6  CAR H2W d   1     -39.470 -13.606  16.591  0.00  0.00    -0.079 A 
ATOM      7  CAS H2W d   1     -38.612 -12.602  16.099  0.00  0.00    -0.067 A 
ATOM      8  CAD H2W d   1     -38.526 -12.384  14.727  0.00  0.00     0.045 A 
ATOM      9  CAB H2W d   1     -37.687 -11.394  14.202  0.00  0.00     0.257 A 
ATOM     10  OAC H2W d   1     -36.918 -10.724  14.890  0.00  0.00    -0.267 OA
ATOM     11  NAA H2W d   1     -37.649 -11.210  12.840  0.00  0.00    -0.322 N 
ATOM     12  CAG H2W d   1     -38.438 -11.941  11.941  0.00  0.00     0.046 A 
ATOM     13  CAH H2W d   1     -38.342 -11.651  10.554  0.00  0.00    -0.009 A 
ATOM     14  CAI H2W d   1     -37.868 -10.376  10.131  0.00  0.00    -0.069 A 
ATOM     15  CAJ H2W d   1     -37.752 -10.044   8.797  0.00  0.00    -0.061 A 
ATOM     16  CAK H2W d   1     -38.130 -10.970   7.834  0.00  0.00     0.034 A 
ATOM     17 CL   H2W d   1     -37.943 -10.589   6.137  0.00  0.00    -0.084 Cl
ATOM     18  CAM H2W d   1     -38.611 -12.225   8.222  0.00  0.00    -0.061 A 
ATOM     19  CAN H2W d   1     -38.727 -12.563   9.576  0.00  0.00    -0.069 A 
ATOM     20  H1  H2W d   1     -39.882 -13.535  11.808  0.00  0.00     0.088 H 
ATOM     21  H2  H2W d   1     -40.898 -15.133  16.094  0.00  0.00     0.088 H 
ATOM     22  H3  H2W d   1     -39.535 -13.786  17.658  0.00  0.00     0.083 H 
ATOM     23  H4  H2W d   1     -38.023 -12.004  16.785  0.00  0.00     0.085 H 
ATOM     24  H5  H2W d   1     -37.027 -10.519  12.472  0.00  0.00     0.169 HD
ATOM     25  H6  H2W d   1     -37.590  -9.644  10.880  0.00  0.00     0.085 H 
ATOM     26  H7  H2W d   1     -37.371  -9.072   8.504  0.00  0.00     0.086 H 
ATOM     27  H8  H2W d   1     -38.898 -12.945   7.465  0.00  0.00     0.086 H 
ATOM     28  H9  H2W d   1     -39.116 -13.534   9.862  0.00  0.00     0.085 H 
ENDROOT
TORSDOF 0
