REMARK  3 active torsions:
REMARK  status: ('A' for Active; 'I' for Inactive)
REMARK    1  A    between atoms: C3_3  and  OAB_20 
REMARK    2  A    between atoms: C14_10  and  CAI_17 
REMARK    3  A    between atoms: OAB_20  and  CAA_19 
ROOT
ATOM      1  C1  SGW d   1     -39.988 -13.641  16.873  0.00  0.00    -0.079 A 
ATOM      2  C2  SGW d   1     -40.736 -14.444  16.014  0.00  0.00    -0.050 A 
ATOM      3  C3  SGW d   1     -40.690 -14.238  14.629  0.00  0.00     0.079 A 
ATOM      4  C4  SGW d   1     -39.889 -13.196  14.110  0.00  0.00     0.015 A 
ATOM      5  C5  SGW d   1     -39.140 -12.388  15.003  0.00  0.00     0.045 A 
ATOM      6  C6  SGW d   1     -39.180 -12.609  16.374  0.00  0.00    -0.067 A 
ATOM      7  C11 SGW d   1     -38.337 -11.369  14.503  0.00  0.00     0.257 A 
ATOM      8  N12 SGW d   1     -38.308 -11.145  13.125  0.00  0.00    -0.322 N 
ATOM      9  O13 SGW d   1     -37.657 -10.665  15.241  0.00  0.00    -0.267 OA
ATOM     10  CAI SGW d   1     -39.043 -11.930  12.188  0.00  0.00     0.046 A 
ATOM     11  CAH SGW d   1     -39.842 -12.962  12.726  0.00  0.00    -0.043 A 
ATOM     12  H1  SGW d   1     -40.031 -13.816  17.942  0.00  0.00     0.083 H 
ATOM     13  H2  SGW d   1     -41.358 -15.233  16.420  0.00  0.00     0.087 H 
ATOM     14  H3  SGW d   1     -38.596 -11.993  17.048  0.00  0.00     0.085 H 
ATOM     15  H4  SGW d   1     -37.743 -10.396  12.777  0.00  0.00     0.169 HD
ATOM     16  H9  SGW d   1     -40.432 -13.587  12.057  0.00  0.00     0.088 H 
ENDROOT
BRANCH  10  17
ATOM     17  C14 SGW d   1     -38.996 -11.640  10.783  0.00  0.00    -0.009 A 
ATOM     18  C15 SGW d   1     -39.607 -12.457   9.811  0.00  0.00    -0.069 A 
ATOM     19  C16 SGW d   1     -39.558 -12.136   8.441  0.00  0.00    -0.061 A 
ATOM     20  H5  SGW d   1     -40.127 -13.354  10.126  0.00  0.00     0.085 H 
ATOM     21  C17 SGW d   1     -38.938 -10.970   7.992  0.00  0.00     0.034 A 
ATOM     22  H6  SGW d   1     -40.011 -12.808   7.721  0.00  0.00     0.086 H 
ATOM     23  C18 SGW d   1     -38.348 -10.132   8.935  0.00  0.00    -0.061 A 
ATOM     24 CL   SGW d   1     -38.884 -10.564   6.236  0.00  0.00    -0.084 Cl
ATOM     25  C19 SGW d   1     -38.380 -10.463  10.293  0.00  0.00    -0.069 A 
ATOM     26  H7  SGW d   1     -37.861  -9.218   8.614  0.00  0.00     0.086 H 
ATOM     27  H8  SGW d   1     -37.913  -9.789  11.002  0.00  0.00     0.085 H 
ENDBRANCH  10  17
BRANCH   3  28
ATOM     28  OAB SGW d   1     -41.416 -15.005  13.729  0.00  0.00    -0.355 OA
BRANCH  28  29
ATOM     29  CAA SGW d   1     -41.765 -16.328  14.183  0.00  0.00     0.010 C 
ATOM     30  H10 SGW d   1     -42.335 -16.846  13.398  0.00  0.00     0.066 H 
ATOM     31  H11 SGW d   1     -42.378 -16.253  15.093  0.00  0.00     0.066 H 
ATOM     32  H12 SGW d   1     -40.848 -16.894  14.404  0.00  0.00     0.066 H 
ENDBRANCH  28  29
ENDBRANCH   3  28
TORSDOF 3
