REMARK  4 active torsions:
REMARK  status: ('A' for Active; 'I' for Inactive)
REMARK    1  A    between atoms: C8_8  and  C10_14 
REMARK    2  A    between atoms: C1_11  and  O_12 
REMARK    3  A    between atoms: O_12  and  C_13 
REMARK    4  A    between atoms: C13_17  and  C14_20 
ROOT
ATOM      1  O1  92R d   1      18.753 -18.821 -20.694  0.00  0.00    -0.265 OA
ATOM      2  C9  92R d   1      19.321 -18.203 -21.591  0.00  0.00     0.278 A 
ATOM      3  C5  92R d   1      18.635 -17.688 -22.786  0.00  0.00     0.043 A 
ATOM      4  C4  92R d   1      17.265 -17.891 -22.942  0.00  0.00    -0.067 A 
ATOM      5  C3  92R d   1      16.612 -17.410 -24.064  0.00  0.00    -0.079 A 
ATOM      6  C2  92R d   1      17.309 -16.723 -25.042  0.00  0.00    -0.050 A 
ATOM      7  N   92R d   1      20.670 -17.950 -21.528  0.00  0.00    -0.213 NA
ATOM      8  C8  92R d   1      21.404 -17.265 -22.482  0.00  0.00     0.053 A 
ATOM      9  C7  92R d   1      20.776 -16.793 -23.586  0.00  0.00     0.004 A 
ATOM     10  C6  92R d   1      19.364 -16.993 -23.768  0.00  0.00    -0.003 A 
ATOM     11  C1  92R d   1      18.671 -16.518 -24.895  0.00  0.00     0.075 A 
ATOM     12  H1  92R d   1      16.709 -18.427 -22.182  0.00  0.00     0.085 H 
ATOM     13  H2  92R d   1      15.546 -17.573 -24.177  0.00  0.00     0.083 H 
ATOM     14  H3  92R d   1      16.792 -16.348 -25.918  0.00  0.00     0.087 H 
ATOM     15  H4  92R d   1      21.273 -17.255 -24.452  0.00  0.00     0.049 H 
ATOM     16  H5  92R d   1      20.944 -15.706 -23.603  0.00  0.00     0.049 H 
ENDROOT
BRANCH   8  17
ATOM     17  C10 92R d   1      22.842 -17.085 -22.219  0.00  0.00    -0.011 A 
ATOM     18  C18 92R d   1      23.282 -16.541 -21.017  0.00  0.00    -0.071 A 
ATOM     19  C17 92R d   1      24.633 -16.374 -20.773  0.00  0.00    -0.076 A 
ATOM     20  H9  92R d   1      22.560 -16.245 -20.265  0.00  0.00     0.084 H 
ATOM     21  C13 92R d   1      25.581 -16.742 -21.714  0.00  0.00    -0.062 A 
ATOM     22  H10 92R d   1      24.956 -15.948 -19.830  0.00  0.00     0.084 H 
ATOM     23  C12 92R d   1      25.141 -17.284 -22.911  0.00  0.00    -0.076 A 
ATOM     24  C11 92R d   1      23.792 -17.455 -23.164  0.00  0.00    -0.071 A 
ATOM     25  H11 92R d   1      25.866 -17.579 -23.661  0.00  0.00     0.084 H 
ATOM     26  H12 92R d   1      23.473 -17.881 -24.108  0.00  0.00     0.084 H 
BRANCH  21  27
ATOM     27  C14 92R d   1      27.054 -16.558 -21.442  0.00  0.00    -0.051 C 
ATOM     28  H13 92R d   1      27.190 -16.116 -20.444  0.00  0.00     0.033 H 
ATOM     29  H14 92R d   1      27.486 -15.889 -22.201  0.00  0.00     0.033 H 
ATOM     30  H15 92R d   1      27.559 -17.534 -21.483  0.00  0.00     0.033 H 
ENDBRANCH  21  27
ENDBRANCH   8  17
BRANCH  11  31
ATOM     31  O   92R d   1      19.445 -15.855 -25.807  0.00  0.00    -0.355 OA
BRANCH  31  32
ATOM     32  C   92R d   1      18.799 -15.344 -26.970  0.00  0.00     0.010 C 
ATOM     33  H6  92R d   1      19.539 -14.839 -27.608  0.00  0.00     0.066 H 
ATOM     34  H7  92R d   1      18.021 -14.626 -26.672  0.00  0.00     0.066 H 
ATOM     35  H8  92R d   1      18.338 -16.173 -27.527  0.00  0.00     0.066 H 
ENDBRANCH  31  32
ENDBRANCH  11  31
TORSDOF 4
