REMARK  3 active torsions:
REMARK  status: ('A' for Active; 'I' for Inactive)
REMARK    1  A    between atoms: N20_20  and  C4_4 
REMARK    2  A    between atoms: N21_21  and  C8_8 
REMARK    3  A    between atoms: C17_17  and  C18_18 
ROOT
ATOM      1  C7  EUT d   1      16.945 -15.716 -22.822  0.00  0.00     0.026 A 
ATOM      2  C8  EUT d   1      17.643 -14.596 -22.589  0.00  0.00     0.124 A 
ATOM      3  C9  EUT d   1      17.661 -16.931 -23.256  0.00  0.00     0.265 A 
ATOM      4  C10 EUT d   1      19.667 -15.598 -23.117  0.00  0.00     0.692 A 
ATOM      5  C11 EUT d   1      21.169 -17.969 -23.245  0.00  0.00    -0.021 C 
ATOM      6  C12 EUT d   1      19.770 -17.955 -23.809  0.00  0.00     0.022 C 
ATOM      7  C17 EUT d   1      21.875 -16.676 -23.578  0.00  0.00     0.129 C 
ATOM      8  N19 EUT d   1      19.001 -14.554 -22.743  0.00  0.00    -0.176 N 
ATOM      9  N20 EUT d   1      21.039 -15.532 -23.264  0.00  0.00    -0.169 N 
ATOM     10  N22 EUT d   1      19.025 -16.795 -23.378  0.00  0.00    -0.147 N 
ATOM     11  O23 EUT d   1      17.031 -17.957 -23.475  0.00  0.00    -0.267 OA
ATOM     12  H   EUT d   1      15.864 -15.729 -22.693  0.00  0.00     0.098 H 
ATOM     13  H   EUT d   1      21.728 -18.811 -23.679  0.00  0.00     0.038 H 
ATOM     14  H   EUT d   1      21.120 -18.086 -22.152  0.00  0.00     0.038 H 
ATOM     15  H   EUT d   1      19.243 -18.860 -23.474  0.00  0.00     0.066 H 
ATOM     16  H   EUT d   1      19.830 -17.951 -24.907  0.00  0.00     0.066 H 
ATOM     17  H   EUT d   1      22.781 -16.621 -22.957  0.00  0.00     0.088 H 
ATOM     18  H   EUT d   1      19.503 -13.674 -22.558  0.00  0.00     0.186 HD
ENDROOT
BRANCH   2  19
ATOM     19  N21 EUT d   1      16.975 -13.458 -22.185  0.00  0.00    -0.363 N 
ATOM     20  C13 EUT d   1      15.627 -13.196 -22.660  0.00  0.00     0.016 C 
ATOM     21  C15 EUT d   1      14.958 -12.233 -21.706  0.00  0.00     0.034 C 
ATOM     22  H   EUT d   1      15.668 -12.753 -23.666  0.00  0.00     0.067 H 
ATOM     23  H   EUT d   1      15.058 -14.137 -22.697  0.00  0.00     0.067 H 
ATOM     24  O24 EUT d   1      15.716 -11.030 -21.673  0.00  0.00    -0.388 OA
ATOM     25  H   EUT d   1      14.919 -12.675 -20.699  0.00  0.00     0.076 H 
ATOM     26  H   EUT d   1      13.936 -12.018 -22.052  0.00  0.00     0.076 H 
ATOM     27  C16 EUT d   1      16.957 -11.314 -21.041  0.00  0.00     0.034 C 
ATOM     28  C14 EUT d   1      17.741 -12.247 -21.934  0.00  0.00     0.016 C 
ATOM     29  H   EUT d   1      17.520 -10.381 -20.892  0.00  0.00     0.076 H 
ATOM     30  H   EUT d   1      16.777 -11.794 -20.068  0.00  0.00     0.076 H 
ATOM     31  H   EUT d   1      18.689 -12.511 -21.442  0.00  0.00     0.067 H 
ATOM     32  H   EUT d   1      17.952 -11.745 -22.890  0.00  0.00     0.067 H 
ENDBRANCH   2  19
BRANCH   9  33
ATOM     33  C4  EUT d   1      21.743 -14.630 -22.452  0.00  0.00     0.058 A 
ATOM     34  C1  EUT d   1      22.157 -14.979 -21.183  0.00  0.00    -0.019 A 
ATOM     35  C5  EUT d   1      22.832 -14.068 -20.399  0.00  0.00     0.121 A 
ATOM     36  H   EUT d   1      21.951 -15.973 -20.801  0.00  0.00     0.091 H 
ATOM     37  C3  EUT d   1      23.099 -12.800 -20.866  0.00  0.00    -0.008 A 
ATOM     38  F25 EUT d   1      23.233 -14.419 -19.168  0.00  0.00    -0.206 F 
ATOM     39  C6  EUT d   1      22.680 -12.456 -22.132  0.00  0.00     0.121 A 
ATOM     40  H   EUT d   1      23.630 -12.085 -20.248  0.00  0.00     0.092 H 
ATOM     41  C2  EUT d   1      22.003 -13.360 -22.920  0.00  0.00    -0.019 A 
ATOM     42  F26 EUT d   1      22.929 -11.225 -22.603  0.00  0.00    -0.206 F 
ATOM     43  H   EUT d   1      21.674 -13.072 -23.912  0.00  0.00     0.091 H 
ENDBRANCH   9  33
BRANCH   7  44
ATOM     44  C18 EUT d   1      22.299 -16.607 -25.028  0.00  0.00     0.408 C 
ATOM     45  F27 EUT d   1      22.781 -17.803 -25.463  0.00  0.00    -0.169 F 
ATOM     46  F28 EUT d   1      21.275 -16.241 -25.846  0.00  0.00    -0.169 F 
ATOM     47  F29 EUT d   1      23.283 -15.682 -25.169  0.00  0.00    -0.169 F 
ENDBRANCH   7  44
TORSDOF 3
