REMARK  7 active torsions:
REMARK  status: ('A' for Active; 'I' for Inactive)
REMARK    1  A    between atoms: N5_5  and  C18_18 
REMARK    2  A    between atoms: C8_8  and  C9_9 
REMARK    3  A    between atoms: C18_18  and  C21_21 
REMARK    4  A    between atoms: C21_21  and  O22_22 
REMARK    5  A    between atoms: O22_22  and  C25_25 
REMARK    6  A    between atoms: C25_25  and  C26_26 
REMARK    7  A    between atoms: C25_25  and  C27_27 
ROOT
ATOM      1  C1  RBQ d   1      18.757 -16.884 -24.497  0.00  0.00     0.687 A 
ATOM      2  N2  RBQ d   1      18.161 -15.691 -24.159  0.00  0.00    -0.180 N 
ATOM      3  N3  RBQ d   1      18.010 -18.070 -24.635  0.00  0.00    -0.150 N 
ATOM      4  C4  RBQ d   1      16.744 -15.594 -23.934  0.00  0.00     0.104 A 
ATOM      5  N5  RBQ d   1      20.226 -16.887 -24.696  0.00  0.00    -0.202 N 
ATOM      6  C6  RBQ d   1      16.568 -18.020 -24.477  0.00  0.00     0.245 A 
ATOM      7  C7  RBQ d   1      15.968 -16.770 -24.098  0.00  0.00     0.063 A 
ATOM      8  C8  RBQ d   1      20.828 -18.144 -25.182  0.00  0.00     0.124 C 
ATOM      9  N10 RBQ d   1      16.281 -14.371 -23.735  0.00  0.00    -0.366 N 
ATOM     10  C11 RBQ d   1      18.666 -19.408 -24.831  0.00  0.00     0.022 C 
ATOM     11  C12 RBQ d   1      20.169 -19.377 -24.541  0.00  0.00    -0.021 C 
ATOM     12  O13 RBQ d   1      15.980 -19.053 -24.770  0.00  0.00    -0.272 OA
ATOM     13  O17 RBQ d   1      15.313 -11.884 -22.822  0.00  0.00    -0.388 OA
ATOM     14  C19 RBQ d   1      17.205 -13.235 -23.534  0.00  0.00     0.016 C 
ATOM     15  C20 RBQ d   1      14.864 -13.996 -23.916  0.00  0.00     0.016 C 
ATOM     16  C23 RBQ d   1      14.451 -13.016 -22.849  0.00  0.00     0.034 C 
ATOM     17  C24 RBQ d   1      16.644 -12.290 -22.502  0.00  0.00     0.034 C 
ATOM     18  H   RBQ d   1      18.744 -14.847 -24.065  0.00  0.00     0.185 HD
ATOM     19  H   RBQ d   1      15.216 -16.541 -24.868  0.00  0.00     0.059 H 
ATOM     20  H   RBQ d   1      15.465 -16.947 -23.136  0.00  0.00     0.059 H 
ATOM     21  H   RBQ d   1      21.870 -18.145 -24.829  0.00  0.00     0.087 H 
ATOM     22  H   RBQ d   1      18.515 -19.725 -25.874  0.00  0.00     0.066 H 
ATOM     23  H   RBQ d   1      18.192 -20.135 -24.155  0.00  0.00     0.066 H 
ATOM     24  H   RBQ d   1      20.325 -19.343 -23.453  0.00  0.00     0.038 H 
ATOM     25  H   RBQ d   1      20.633 -20.287 -24.950  0.00  0.00     0.038 H 
ATOM     26  H   RBQ d   1      17.336 -12.699 -24.486  0.00  0.00     0.067 H 
ATOM     27  H   RBQ d   1      18.179 -13.614 -23.190  0.00  0.00     0.067 H 
ATOM     28  H   RBQ d   1      14.237 -14.897 -23.846  0.00  0.00     0.067 H 
ATOM     29  H   RBQ d   1      14.733 -13.534 -24.906  0.00  0.00     0.067 H 
ATOM     30  H   RBQ d   1      13.424 -12.679 -23.051  0.00  0.00     0.076 H 
ATOM     31  H   RBQ d   1      14.487 -13.517 -21.870  0.00  0.00     0.076 H 
ATOM     32  H   RBQ d   1      16.637 -12.794 -21.524  0.00  0.00     0.076 H 
ATOM     33  H   RBQ d   1      17.285 -11.398 -22.450  0.00  0.00     0.076 H 
ENDROOT
BRANCH   5  34
ATOM     34  C18 RBQ d   1      20.984 -16.230 -23.629  0.00  0.00     0.032 C 
ATOM     35  H   RBQ d   1      21.973 -16.709 -23.585  0.00  0.00     0.068 H 
ATOM     36  H   RBQ d   1      20.448 -16.409 -22.686  0.00  0.00     0.068 H 
BRANCH  34  37
ATOM     37  C21 RBQ d   1      21.205 -14.755 -23.745  0.00  0.00     0.035 C 
ATOM     38  H   RBQ d   1      20.309 -14.280 -24.172  0.00  0.00     0.076 H 
ATOM     39  H   RBQ d   1      22.069 -14.561 -24.397  0.00  0.00     0.076 H 
BRANCH  37  40
ATOM     40  O22 RBQ d   1      21.457 -14.223 -22.443  0.00  0.00    -0.385 OA
BRANCH  40  41
ATOM     41  C25 RBQ d   1      21.135 -12.841 -22.206  0.00  0.00     0.031 C 
ATOM     42  H   RBQ d   1      20.099 -12.623 -22.506  0.00  0.00     0.082 H 
BRANCH  41  43
ATOM     43  C26 RBQ d   1      22.085 -12.005 -23.009  0.00  0.00    -0.052 C 
ATOM     44  H   RBQ d   1      21.863 -10.940 -22.848  0.00  0.00     0.030 H 
ATOM     45  H   RBQ d   1      21.973 -12.245 -24.076  0.00  0.00     0.030 H 
ATOM     46  H   RBQ d   1      23.117 -12.216 -22.692  0.00  0.00     0.030 H 
ENDBRANCH  41  43
BRANCH  41  47
ATOM     47  C27 RBQ d   1      21.304 -12.612 -20.755  0.00  0.00    -0.052 C 
ATOM     48  H   RBQ d   1      21.069 -11.564 -20.519  0.00  0.00     0.030 H 
ATOM     49  H   RBQ d   1      22.344 -12.828 -20.468  0.00  0.00     0.030 H 
ATOM     50  H   RBQ d   1      20.625 -13.274 -20.198  0.00  0.00     0.030 H 
ENDBRANCH  41  47
ENDBRANCH  40  41
ENDBRANCH  37  40
ENDBRANCH  34  37
ENDBRANCH   5  34
BRANCH   8  51
ATOM     51  C9  RBQ d   1      20.905 -18.182 -26.694  0.00  0.00     0.408 C 
ATOM     52  F14 RBQ d   1      21.401 -19.335 -27.138  0.00  0.00    -0.169 F 
ATOM     53  F15 RBQ d   1      19.723 -18.020 -27.280  0.00  0.00    -0.169 F 
ATOM     54  F16 RBQ d   1      21.689 -17.222 -27.159  0.00  0.00    -0.169 F 
ENDBRANCH   8  51
TORSDOF 7
