REMARK  6 active torsions:
REMARK  status: ('A' for Active; 'I' for Inactive)
REMARK    1  A    between atoms: C19_19  and  C6_6 
REMARK    2  A    between atoms: C8_8  and  N22_22 
REMARK    3  A    between atoms: C17_17  and  C20_20 
REMARK    4  A    between atoms: C18_18  and  C19_19 
REMARK    5  A    between atoms: C18_18  and  N24_24 
REMARK    6  A    between atoms: C19_19  and  O27_27 
ROOT
ATOM      1  C7  JXM d   1      16.721 -15.940 -22.657  0.00  0.00     0.026 A 
ATOM      2  C8  JXM d   1      17.422 -14.764 -22.523  0.00  0.00     0.124 A 
ATOM      3  C9  JXM d   1      17.430 -17.192 -23.078  0.00  0.00     0.265 A 
ATOM      4  C10 JXM d   1      19.471 -15.811 -23.159  0.00  0.00     0.687 A 
ATOM      5  C11 JXM d   1      21.051 -18.165 -23.325  0.00  0.00    -0.021 C 
ATOM      6  C12 JXM d   1      19.576 -18.267 -23.708  0.00  0.00     0.022 C 
ATOM      7  C17 JXM d   1      21.661 -16.854 -23.865  0.00  0.00     0.124 C 
ATOM      8  N21 JXM d   1      18.787 -14.759 -22.771  0.00  0.00    -0.176 N 
ATOM      9  N23 JXM d   1      18.817 -17.061 -23.304  0.00  0.00    -0.147 N 
ATOM     10  N24 JXM d   1      20.852 -15.699 -23.431  0.00  0.00    -0.201 N 
ATOM     11  O25 JXM d   1      16.801 -18.232 -23.194  0.00  0.00    -0.267 OA
ATOM     12  H   JXM d   1      15.651 -15.961 -22.457  0.00  0.00     0.098 H 
ATOM     13  H   JXM d   1      21.596 -19.020 -23.752  0.00  0.00     0.038 H 
ATOM     14  H   JXM d   1      21.142 -18.182 -22.229  0.00  0.00     0.038 H 
ATOM     15  H   JXM d   1      19.139 -19.145 -23.211  0.00  0.00     0.066 H 
ATOM     16  H   JXM d   1      19.499 -18.387 -24.799  0.00  0.00     0.066 H 
ATOM     17  H   JXM d   1      22.677 -16.752 -23.456  0.00  0.00     0.087 H 
ATOM     18  H   JXM d   1      19.297 -13.873 -22.643  0.00  0.00     0.186 HD
ENDROOT
BRANCH  10  19
ATOM     19  C18 JXM d   1      21.559 -14.407 -23.301  0.00  0.00     0.040 C 
ATOM     20  H   JXM d   1      22.287 -14.317 -24.121  0.00  0.00     0.069 H 
ATOM     21  H   JXM d   1      20.824 -13.592 -23.372  0.00  0.00     0.069 H 
BRANCH  19  22
ATOM     22  C19 JXM d   1      22.301 -14.287 -21.967  0.00  0.00     0.077 C 
ATOM     23  H   JXM d   1      23.270 -14.798 -22.067  0.00  0.00     0.093 H 
BRANCH  22  24
ATOM     24  C6  JXM d   1      22.554 -12.834 -21.610  0.00  0.00    -0.028 A 
ATOM     25  C4  JXM d   1      21.602 -12.054 -20.867  0.00  0.00    -0.074 A 
ATOM     26  C2  JXM d   1      21.860 -10.699 -20.536  0.00  0.00    -0.082 A 
ATOM     27  H   JXM d   1      20.670 -12.510 -20.554  0.00  0.00     0.084 H 
ATOM     28  C1  JXM d   1      23.071 -10.110 -20.949  0.00  0.00    -0.083 A 
ATOM     29  H   JXM d   1      21.134 -10.124 -19.972  0.00  0.00     0.083 H 
ATOM     30  C3  JXM d   1      24.021 -10.865 -21.680  0.00  0.00    -0.082 A 
ATOM     31  H   JXM d   1      23.277  -9.074 -20.706  0.00  0.00     0.083 H 
ATOM     32  C5  JXM d   1      23.771 -12.223 -22.013  0.00  0.00    -0.074 A 
ATOM     33  H   JXM d   1      24.950 -10.400 -21.989  0.00  0.00     0.083 H 
ATOM     34  H   JXM d   1      24.506 -12.790 -22.572  0.00  0.00     0.084 H 
ENDBRANCH  22  24
BRANCH  22  35
ATOM     35  O27 JXM d   1      21.573 -14.900 -20.915  0.00  0.00    -0.389 OA
ATOM     36  H   JXM d   1      22.057 -14.810 -20.102  0.00  0.00     0.210 HD
ENDBRANCH  22  35
ENDBRANCH  19  22
ENDBRANCH  10  19
BRANCH   7  37
ATOM     37  C20 JXM d   1      21.748 -16.846 -25.386  0.00  0.00     0.408 C 
ATOM     38  F28 JXM d   1      22.384 -17.952 -25.803  0.00  0.00    -0.169 F 
ATOM     39  F29 JXM d   1      20.542 -16.833 -26.005  0.00  0.00    -0.169 F 
ATOM     40  F30 JXM d   1      22.457 -15.769 -25.818  0.00  0.00    -0.169 F 
ENDBRANCH   7  37
BRANCH   2  41
ATOM     41  N22 JXM d   1      16.823 -13.526 -22.143  0.00  0.00    -0.363 N 
ATOM     42  C13 JXM d   1      17.698 -12.300 -22.037  0.00  0.00     0.016 C 
ATOM     43  C15 JXM d   1      17.086 -11.285 -21.089  0.00  0.00     0.034 C 
ATOM     44  H   JXM d   1      18.689 -12.595 -21.660  0.00  0.00     0.067 H 
ATOM     45  H   JXM d   1      17.805 -11.845 -23.033  0.00  0.00     0.067 H 
ATOM     46  O26 JXM d   1      15.780 -10.986 -21.574  0.00  0.00    -0.388 OA
ATOM     47  H   JXM d   1      17.698 -10.371 -21.069  0.00  0.00     0.076 H 
ATOM     48  H   JXM d   1      17.023 -11.707 -20.075  0.00  0.00     0.076 H 
ATOM     49  C16 JXM d   1      14.883 -12.101 -21.493  0.00  0.00     0.034 C 
ATOM     50  C14 JXM d   1      15.384 -13.241 -22.381  0.00  0.00     0.016 C 
ATOM     51  H   JXM d   1      14.827 -12.449 -20.451  0.00  0.00     0.076 H 
ATOM     52  H   JXM d   1      13.883 -11.789 -21.830  0.00  0.00     0.076 H 
ATOM     53  H   JXM d   1      15.245 -12.960 -23.435  0.00  0.00     0.067 H 
ATOM     54  H   JXM d   1      14.800 -14.147 -22.163  0.00  0.00     0.067 H 
ENDBRANCH   2  41
TORSDOF 6
