REMARK  5 active torsions:
REMARK  status: ('A' for Active; 'I' for Inactive)
REMARK    1  A    between atoms: C1_1  and  C18_18 
REMARK    2  A    between atoms: C28_28  and  N4_4 
REMARK    3  A    between atoms: C12_12  and  C29_29 
REMARK    4  A    between atoms: C16_16  and  C30_30 
REMARK    5  A    between atoms: C23_23  and  C28_28 
ROOT
ATOM      1  C1  UJB d   1      20.673 -18.338 -25.476  0.00  0.00     0.097 C 
ATOM      2  C2  UJB d   1      18.802 -17.055 -24.442  0.00  0.00     0.166 A 
ATOM      3  N3  UJB d   1      18.045 -18.213 -24.392  0.00  0.00    -0.293 N 
ATOM      4  N4  UJB d   1      20.222 -17.136 -24.756  0.00  0.00    -0.236 NA
ATOM      5  N5  UJB d   1      18.281 -15.837 -24.150  0.00  0.00    -0.322 N 
ATOM      6  C6  UJB d   1      16.650 -18.122 -24.068  0.00  0.00     0.233 A 
ATOM      7  C7  UJB d   1      18.576 -19.555 -24.755  0.00  0.00     0.007 C 
ATOM      8  C8  UJB d   1      16.936 -15.682 -23.689  0.00  0.00     0.091 A 
ATOM      9  C9  UJB d   1      16.129 -16.823 -23.697  0.00  0.00     0.062 A 
ATOM     10  O10 UJB d   1      16.033 -19.172 -24.122  0.00  0.00    -0.273 OA
ATOM     11  C11 UJB d   1      20.101 -19.629 -24.865  0.00  0.00    -0.026 C 
ATOM     12  C12 UJB d   1      15.087 -14.059 -23.648  0.00  0.00     0.030 C 
ATOM     13  C13 UJB d   1      14.677 -12.903 -22.771  0.00  0.00     0.038 C 
ATOM     14  O14 UJB d   1      15.555 -11.783 -22.919  0.00  0.00    -0.387 OA
ATOM     15  C15 UJB d   1      16.897 -12.077 -22.494  0.00  0.00     0.038 C 
ATOM     16  C16 UJB d   1      17.478 -13.401 -22.979  0.00  0.00     0.030 C 
ATOM     17  N17 UJB d   1      16.510 -14.457 -23.418  0.00  0.00    -0.357 N 
ATOM     18  H   UJB d   1      21.762 -18.396 -25.335  0.00  0.00     0.078 H 
ATOM     19  H   UJB d   1      18.871 -15.000 -24.264  0.00  0.00     0.169 HD
ATOM     20  H   UJB d   1      18.148 -19.842 -25.727  0.00  0.00     0.065 H 
ATOM     21  H   UJB d   1      18.253 -20.271 -23.986  0.00  0.00     0.065 H 
ATOM     22  H   UJB d   1      15.733 -16.929 -22.676  0.00  0.00     0.058 H 
ATOM     23  H   UJB d   1      15.302 -16.612 -24.391  0.00  0.00     0.058 H 
ATOM     24  H   UJB d   1      20.527 -19.772 -23.861  0.00  0.00     0.038 H 
ATOM     25  H   UJB d   1      20.375 -20.481 -25.504  0.00  0.00     0.038 H 
ATOM     26  H   UJB d   1      14.473 -14.917 -23.337  0.00  0.00     0.075 H 
ATOM     27  H   UJB d   1      14.692 -13.230 -21.721  0.00  0.00     0.077 H 
ATOM     28  H   UJB d   1      13.657 -12.594 -23.044  0.00  0.00     0.077 H 
ATOM     29  H   UJB d   1      16.907 -12.088 -21.394  0.00  0.00     0.077 H 
ATOM     30  H   UJB d   1      17.550 -11.270 -22.858  0.00  0.00     0.077 H 
ATOM     31  H   UJB d   1      18.074 -13.170 -23.874  0.00  0.00     0.075 H 
ENDROOT
BRANCH  12  32
ATOM     32  C29 UJB d   1      14.764 -13.819 -25.117  0.00  0.00    -0.055 C 
ATOM     33  H   UJB d   1      15.082 -14.689 -25.709  0.00  0.00     0.030 H 
ATOM     34  H   UJB d   1      15.296 -12.922 -25.468  0.00  0.00     0.030 H 
ATOM     35  H   UJB d   1      13.680 -13.672 -25.235  0.00  0.00     0.030 H 
ENDBRANCH  12  32
BRANCH  16  36
ATOM     36  C30 UJB d   1      18.445 -13.868 -21.906  0.00  0.00    -0.055 C 
ATOM     37  H   UJB d   1      18.894 -14.825 -22.209  0.00  0.00     0.030 H 
ATOM     38  H   UJB d   1      17.904 -14.001 -20.957  0.00  0.00     0.030 H 
ATOM     39  H   UJB d   1      19.237 -13.117 -21.774  0.00  0.00     0.030 H 
ENDBRANCH  16  36
BRANCH   4  40
ATOM     40  C28 UJB d   1      21.036 -16.991 -23.506  0.00  0.00     0.017 C 
ATOM     41  H   UJB d   1      21.925 -17.633 -23.589  0.00  0.00     0.064 H 
ATOM     42  H   UJB d   1      20.427 -17.317 -22.650  0.00  0.00     0.064 H 
BRANCH  40  43
ATOM     43  C23 UJB d   1      21.461 -15.651 -23.279  0.00  0.00    -0.002 A 
ATOM     44  S22 UJB d   1      22.145 -15.198 -21.822  0.00  0.00    -0.081 SA
ATOM     45  C26 UJB d   1      22.295 -13.570 -22.421  0.00  0.00     0.075 A 
ATOM     46  C25 UJB d   1      21.815 -13.425 -23.677  0.00  0.00    -0.054 A 
ATOM     47 CL   UJB d   1      22.949 -12.277 -21.571  0.00  0.00    -0.076 Cl
ATOM     48  C24 UJB d   1      21.341 -14.652 -24.183  0.00  0.00    -0.067 A 
ATOM     49  H   UJB d   1      21.797 -12.484 -24.225  0.00  0.00     0.086 H 
ATOM     50  H   UJB d   1      20.928 -14.780 -25.182  0.00  0.00     0.085 H 
ENDBRANCH  40  43
ENDBRANCH   4  40
BRANCH   1  51
ATOM     51  C18 UJB d   1      20.451 -18.200 -26.970  0.00  0.00     0.403 C 
ATOM     52  F19 UJB d   1      19.236 -17.765 -27.281  0.00  0.00    -0.169 F 
ATOM     53  F20 UJB d   1      20.621 -19.354 -27.608  0.00  0.00    -0.169 F 
ATOM     54  F21 UJB d   1      21.306 -17.337 -27.503  0.00  0.00    -0.169 F 
ENDBRANCH   1  51
TORSDOF 5
