REMARK  8 active torsions:
REMARK  status: ('A' for Active; 'I' for Inactive)
REMARK    1  A    between atoms: C2_2  and  N12_12 
REMARK    2  A    between atoms: N8_8  and  C23_23 
REMARK    3  A    between atoms: C9_9  and  C13_13 
REMARK    4  A    between atoms: C21_21  and  C22_22 
REMARK    5  A    between atoms: C23_23  and  C24_24 
REMARK    6  A    between atoms: C24_24  and  C26_26 
REMARK    7  A    between atoms: C26_26  and  C27_27 
REMARK    8  A    between atoms: C26_26  and  C28_28 
ROOT
ATOM      1  C1  7A5 d   1     -30.591  16.856  -7.037  0.00  0.00     0.065 A 
ATOM      2  C2  7A5 d   1     -29.762  15.732  -7.111  0.00  0.00     0.130 A 
ATOM      3  N3  7A5 d   1     -28.427  15.845  -6.882  0.00  0.00    -0.051 NA
ATOM      4  C4  7A5 d   1     -30.058  18.138  -6.664  0.00  0.00     0.245 A 
ATOM      5  O5  7A5 d   1     -30.717  19.170  -6.534  0.00  0.00    -0.272 OA
ATOM      6  N6  7A5 d   1     -28.676  18.174  -6.428  0.00  0.00    -0.149 N 
ATOM      7  C7  7A5 d   1     -27.893  16.985  -6.527  0.00  0.00     0.710 A 
ATOM      8  N8  7A5 d   1     -26.452  17.020  -6.272  0.00  0.00    -0.195 N 
ATOM      9  C9  7A5 d   1     -25.866  18.269  -5.756  0.00  0.00     0.124 C 
ATOM     10  C10 7A5 d   1     -26.565  19.504  -6.336  0.00  0.00    -0.021 C 
ATOM     11  C11 7A5 d   1     -28.076  19.477  -6.073  0.00  0.00     0.022 C 
ATOM     12  H   7A5 d   1     -31.378  16.618  -6.306  0.00  0.00     0.059 H 
ATOM     13  H   7A5 d   1     -31.041  16.981  -8.033  0.00  0.00     0.059 H 
ATOM     14  H   7A5 d   1     -24.815  18.301  -6.079  0.00  0.00     0.087 H 
ATOM     15  H   7A5 d   1     -26.393  19.534  -7.422  0.00  0.00     0.038 H 
ATOM     16  H   7A5 d   1     -26.139  20.406  -5.872  0.00  0.00     0.038 H 
ATOM     17  H   7A5 d   1     -28.254  19.671  -5.005  0.00  0.00     0.066 H 
ATOM     18  H   7A5 d   1     -28.555  20.264  -6.674  0.00  0.00     0.066 H 
ENDROOT
BRANCH   2  19
ATOM     19  N12 7A5 d   1     -30.318  14.406  -7.498  0.00  0.00    -0.360 N 
ATOM     20  C17 7A5 d   1     -29.356  13.295  -7.446  0.00  0.00     0.016 C 
ATOM     21  C18 7A5 d   1     -29.811  12.162  -8.329  0.00  0.00     0.034 C 
ATOM     22  H   7A5 d   1     -29.273  12.936  -6.410  0.00  0.00     0.067 H 
ATOM     23  H   7A5 d   1     -28.373  13.650  -7.790  0.00  0.00     0.067 H 
ATOM     24  O19 7A5 d   1     -31.136  11.738  -8.003  0.00  0.00    -0.388 OA
ATOM     25  H   7A5 d   1     -29.123  11.313  -8.202  0.00  0.00     0.076 H 
ATOM     26  H   7A5 d   1     -29.791  12.496  -9.377  0.00  0.00     0.076 H 
ATOM     27  C20 7A5 d   1     -32.101  12.814  -8.119  0.00  0.00     0.038 C 
ATOM     28  C21 7A5 d   1     -31.754  13.996  -7.258  0.00  0.00     0.030 C 
ATOM     29  H   7A5 d   1     -33.089  12.436  -7.817  0.00  0.00     0.077 H 
ATOM     30  H   7A5 d   1     -32.139  13.142  -9.168  0.00  0.00     0.077 H 
ATOM     31  H   7A5 d   1     -32.392  14.830  -7.585  0.00  0.00     0.075 H 
BRANCH  28  32
ATOM     32  C22 7A5 d   1     -32.042  13.780  -5.780  0.00  0.00    -0.055 C 
ATOM     33  H   7A5 d   1     -33.094  13.484  -5.651  0.00  0.00     0.030 H 
ATOM     34  H   7A5 d   1     -31.854  14.713  -5.229  0.00  0.00     0.030 H 
ATOM     35  H   7A5 d   1     -31.387  12.986  -5.391  0.00  0.00     0.030 H 
ENDBRANCH  28  32
ENDBRANCH   2  19
BRANCH   8  36
ATOM     36  C23 7A5 d   1     -25.659  15.807  -6.384  0.00  0.00     0.068 C 
ATOM     37  H   7A5 d   1     -26.231  14.972  -5.953  0.00  0.00     0.076 H 
ATOM     38  H   7A5 d   1     -24.726  15.944  -5.817  0.00  0.00     0.076 H 
BRANCH  36  39
ATOM     39  C24 7A5 d   1     -25.308  15.464  -7.817  0.00  0.00     0.148 C 
ATOM     40  O25 7A5 d   1     -25.494  16.280  -8.694  0.00  0.00    -0.296 OA
BRANCH  39  41
ATOM     41  C26 7A5 d   1     -24.740  14.082  -8.060  0.00  0.00    -0.002 C 
ATOM     42  H   7A5 d   1     -24.519  13.619  -7.087  0.00  0.00     0.050 H 
BRANCH  41  43
ATOM     43  C27 7A5 d   1     -25.763  13.219  -8.775  0.00  0.00    -0.067 C 
ATOM     44  H   7A5 d   1     -25.342  12.218  -8.947  0.00  0.00     0.028 H 
ATOM     45  H   7A5 d   1     -26.020  13.679  -9.740  0.00  0.00     0.028 H 
ATOM     46  H   7A5 d   1     -26.668  13.134  -8.156  0.00  0.00     0.028 H 
ENDBRANCH  41  43
BRANCH  41  47
ATOM     47  C28 7A5 d   1     -23.441  14.179  -8.845  0.00  0.00    -0.067 C 
ATOM     48  H   7A5 d   1     -22.727  14.811  -8.296  0.00  0.00     0.028 H 
ATOM     49  H   7A5 d   1     -23.641  14.623  -9.831  0.00  0.00     0.028 H 
ATOM     50  H   7A5 d   1     -23.015  13.173  -8.976  0.00  0.00     0.028 H 
ENDBRANCH  41  47
ENDBRANCH  39  41
ENDBRANCH  36  39
ENDBRANCH   8  36
BRANCH   9  51
ATOM     51  C13 7A5 d   1     -25.883  18.290  -4.165  0.00  0.00     0.408 C 
ATOM     52  F14 7A5 d   1     -27.098  18.144  -3.648  0.00  0.00    -0.169 F 
ATOM     53  F15 7A5 d   1     -25.147  17.291  -3.697  0.00  0.00    -0.169 F 
ATOM     54  F16 7A5 d   1     -25.382  19.409  -3.657  0.00  0.00    -0.169 F 
ENDBRANCH   9  51
TORSDOF 8
