REMARK  3 active torsions:
REMARK  status: ('A' for Active; 'I' for Inactive)
REMARK    1  A    between atoms: C01_1  and  C02_2 
REMARK    2  A    between atoms: C05_5  and  C08_8 
REMARK    3  A    between atoms: N15_15  and  C16_16 
ROOT
ATOM      1  C08 E9L d   1     -39.006 -11.647  12.060  0.00  0.00     0.047 A 
ATOM      2  C09 E9L d   1     -39.915 -12.674  12.575  0.00  0.00    -0.030 A 
ATOM      3  C10 E9L d   1     -39.987 -12.936  14.064  0.00  0.00     0.048 A 
ATOM      4  C11 E9L d   1     -39.209 -12.160  14.941  0.00  0.00     0.058 A 
ATOM      5  C12 E9L d   1     -39.276 -12.367  16.351  0.00  0.00    -0.068 A 
ATOM      6  C13 E9L d   1     -40.156 -13.337  16.796  0.00  0.00    -0.085 A 
ATOM      7  C14 E9L d   1     -40.908 -14.105  15.901  0.00  0.00     0.010 A 
ATOM      8  N15 E9L d   1     -40.802 -13.885  14.532  0.00  0.00    -0.381 N 
ATOM      9  C17 E9L d   1     -38.270 -11.114  14.388  0.00  0.00     0.258 A 
ATOM     10  O18 E9L d   1     -37.523 -10.444  15.107  0.00  0.00    -0.267 OA
ATOM     11  N19 E9L d   1     -38.252 -10.874  12.950  0.00  0.00    -0.322 N 
ATOM     12  H8  E9L d   1     -40.537 -13.247  11.889  0.00  0.00     0.090 H 
ATOM     13  H9  E9L d   1     -38.664 -11.790  17.043  0.00  0.00     0.084 H 
ATOM     14  H10 E9L d   1     -40.266 -13.506  17.866  0.00  0.00     0.079 H 
ATOM     15  H11 E9L d   1     -41.965 -13.955  16.165  0.00  0.00     0.070 H 
ATOM     16  H12 E9L d   1     -40.632 -15.155  16.075  0.00  0.00     0.070 H 
ATOM     17  H16 E9L d   1     -37.684 -10.135  12.589  0.00  0.00     0.169 HD
ENDROOT
BRANCH   1  18
ATOM     18  C05 E9L d   1     -38.960 -11.339  10.556  0.00  0.00    -0.009 A 
ATOM     19  C04 E9L d   1     -38.517 -10.092  10.115  0.00  0.00    -0.070 A 
ATOM     20  C03 E9L d   1     -38.537  -9.774   8.761  0.00  0.00    -0.076 A 
ATOM     21  H5  E9L d   1     -38.154  -9.365  10.833  0.00  0.00     0.084 H 
ATOM     22  C02 E9L d   1     -39.012 -10.714   7.810  0.00  0.00    -0.062 A 
ATOM     23  H4  E9L d   1     -38.188  -8.803   8.430  0.00  0.00     0.084 H 
ATOM     24  C07 E9L d   1     -39.473 -11.977   8.266  0.00  0.00    -0.076 A 
ATOM     25  C06 E9L d   1     -39.474 -12.291   9.579  0.00  0.00    -0.070 A 
ATOM     26  H7  E9L d   1     -39.831 -12.704   7.546  0.00  0.00     0.084 H 
ATOM     27  H6  E9L d   1     -39.857 -13.251   9.907  0.00  0.00     0.084 H 
BRANCH  22  28
ATOM     28  C01 E9L d   1     -39.036 -10.427   6.327  0.00  0.00    -0.051 C 
ATOM     29  H1  E9L d   1     -38.649  -9.414   6.143  0.00  0.00     0.033 H 
ATOM     30  H2  E9L d   1     -40.069 -10.498   5.957  0.00  0.00     0.033 H 
ATOM     31  H3  E9L d   1     -38.407 -11.161   5.801  0.00  0.00     0.033 H 
ENDBRANCH  22  28
ENDBRANCH   1  18
BRANCH   8  32
ATOM     32  C16 E9L d   1     -41.668 -14.706  13.647  0.00  0.00    -0.018 C 
ATOM     33  H13 E9L d   1     -41.484 -14.432  12.598  0.00  0.00     0.056 H 
ATOM     34  H14 E9L d   1     -42.724 -14.523  13.895  0.00  0.00     0.056 H 
ATOM     35  H15 E9L d   1     -41.437 -15.771  13.793  0.00  0.00     0.056 H 
ENDBRANCH   8  32
TORSDOF 3
