REMARK WARNING: 32 MAX_TORS EXCEEDED!!!
REMARK  40 active torsions:
REMARK  status: ('A' for Active; 'I' for Inactive)
REMARK    1  A    between atoms: CA_2  and  C_3 
REMARK       I    between atoms: C_3  and  N_8 
REMARK    2  A    between atoms: N_8  and  CA_9 
REMARK    3  A    between atoms: CA_9  and  C_10 
REMARK    4  A    between atoms: CA_9  and  CB_12 
REMARK       I    between atoms: C_10  and  N_19 
REMARK    5  A    between atoms: CB_12  and  CG_13 
REMARK    6  A    between atoms: CG_13  and  CD_14 
REMARK    7  A    between atoms: CD_14  and  NE_15 
REMARK       I    between atoms: NE_15  and  CZ_16 
REMARK       I    between atoms: CZ_16  and  NH1_17 
REMARK    8  A    between atoms: CA_20  and  C_21 
REMARK       I    between atoms: C_21  and  N_26 
REMARK    9  A    between atoms: N_26  and  CA_27 
REMARK   10  A    between atoms: CA_27  and  C_28 
REMARK   11  A    between atoms: CA_27  and  CB_30 
REMARK       I    between atoms: C_28  and  N_33 
REMARK   12  A    between atoms: CB_30  and  OG1_31 
REMARK   13  A    between atoms: CB_30  and  CG2_32 
REMARK   14  A    between atoms: N_33  and  CA_34 
REMARK   15  A    between atoms: CA_34  and  C_35 
REMARK   16  A    between atoms: CA_34  and  CB_37 
REMARK       I    between atoms: C_35  and  N_41 
REMARK   17  A    between atoms: CB_37  and  CG_38 
REMARK   18  A    between atoms: CG_38  and  CD1_39 
REMARK   19  A    between atoms: CG_38  and  CD2_40 
REMARK   20  A    between atoms: N_41  and  CA_42 
REMARK   21  A    between atoms: CA_42  and  C_43 
REMARK   22  A    between atoms: CA_42  and  CB_45 
REMARK       I    between atoms: C_43  and  N_50 
REMARK   23  A    between atoms: CB_45  and  CG_46 
REMARK   24  A    between atoms: CG_46  and  CD_47 
REMARK       I    between atoms: CD_47  and  NE2_49 
REMARK   25  A    between atoms: N_50  and  CA_51 
REMARK   26  A    between atoms: CA_51  and  C_52 
REMARK   27  A    between atoms: CA_51  and  CB_54 
REMARK       I    between atoms: C_52  and  N_58 
REMARK   28  A    between atoms: CB_54  and  CG_55 
REMARK   29  A    between atoms: CG_55  and  CD1_56 
REMARK   30  A    between atoms: CG_55  and  CD2_57 
REMARK   31  A    between atoms: CA_59  and  C_60 
REMARK       I    between atoms: C_60  and  N_65 
REMARK   32  A    between atoms: N_65  and  CA_66 
REMARK   33  A    between atoms: CA_66  and  C_67 
REMARK   34  A    between atoms: CA_66  and  CB_69 
REMARK       I    between atoms: C_67  and  N_73 
REMARK   35  A    between atoms: CB_69  and  CG_70 
REMARK   36  A    between atoms: CG_70  and  CD1_71 
REMARK   37  A    between atoms: CG_70  and  CD2_72 
REMARK   38  A    between atoms: N_73  and  CA_74 
REMARK   39  A    between atoms: CA_74  and  C_75 
REMARK   40  A    between atoms: CA_74  and  CB_77 
ROOT
ATOM      1  CA  LEU d   1      48.660  15.619 107.335  0.00  0.00     0.089 C 
ATOM      2  H38 LEU d   1      49.583  15.023 107.400  0.00  0.00     0.087 H 
ENDROOT
BRANCH   1   3
ATOM      3  N   LEU d   1      47.733  14.957 106.400  0.00  0.00    -0.346 N 
ATOM      4  C   THR d   1      47.887  13.733 105.833  0.00  0.00     0.243 C 
ATOM      5  O   THR d   1      48.859  12.999 106.060  0.00  0.00    -0.271 OA
ATOM      6  H37 LEU d   1      46.904  15.462 106.158  0.00  0.00     0.163 HD
BRANCH   4   7
ATOM      7  CA  THR d   1      46.778  13.325 104.816  0.00  0.00     0.113 C 
ATOM      8  H31 THR d   1      45.829  13.738 105.188  0.00  0.00     0.091 H 
BRANCH   7   9
ATOM      9  N   THR d   1      47.104  13.990 103.551  0.00  0.00    -0.344 N 
ATOM     10  C   PRO d   1      46.371  14.958 102.970  0.00  0.00     0.241 C 
ATOM     11  O   PRO d   1      45.317  15.388 103.439  0.00  0.00    -0.271 OA
ATOM     12  H30 THR d   1      47.938  13.701 103.082  0.00  0.00     0.163 HD
BRANCH  10  13
ATOM     13  CA  PRO d   1      46.932  15.526 101.667  0.00  0.00     0.091 C 
ATOM     14  N   PRO d   1      45.937  16.236 100.842  0.00  0.00    -0.337 N 
ATOM     15  C   ARG d   1      45.066  15.522 100.082  0.00  0.00     0.243 C 
ATOM     16  CD  PRO d   1      46.088  17.704 100.959  0.00  0.00    -0.001 C 
ATOM     17  O   ARG d   1      45.092  14.286 100.061  0.00  0.00    -0.271 OA
ATOM     18  CG  PRO d   1      47.233  17.871 101.926  0.00  0.00    -0.048 C 
ATOM     19  H28 PRO d   1      45.170  18.162 101.356  0.00  0.00     0.064 H 
ATOM     20  H29 PRO d   1      46.330  18.152  99.984  0.00  0.00     0.064 H 
ATOM     21  CB  PRO d   1      47.987  16.599 101.946  0.00  0.00    -0.036 C 
ATOM     22  H26 PRO d   1      47.888  18.691 101.595  0.00  0.00     0.035 H 
ATOM     23  H27 PRO d   1      46.846  18.094 102.931  0.00  0.00     0.035 H 
ATOM     24  H24 PRO d   1      48.763  16.594 101.166  0.00  0.00     0.036 H 
ATOM     25  H25 PRO d   1      48.454  16.439 102.929  0.00  0.00     0.036 H 
ATOM     26  H23 PRO d   1      47.370  14.698 101.091  0.00  0.00     0.087 H 
BRANCH  15  27
ATOM     27  CA  ARG d   1      44.091  16.268  99.130  0.00  0.00     0.089 C 
ATOM     28  H11 ARG d   1      44.317  17.344  99.176  0.00  0.00     0.087 H 
BRANCH  27  29
ATOM     29  N   ARG d   1      44.289  15.804  97.744  0.00  0.00    -0.346 N 
ATOM     30  C   PRO d   1      45.482  15.700  97.094  0.00  0.00     0.249 C 
ATOM     31  O   PRO d   1      46.572  16.002  97.599  0.00  0.00    -0.271 OA
ATOM     32  H10 ARG d   1      43.471  15.541  97.233  0.00  0.00     0.163 HD
BRANCH  30  33
ATOM     33  CA  PRO d   1      45.440  15.174  95.659  0.00  0.00     0.178 C 
ATOM     34  N   PRO d   1      46.568  15.665  94.847  0.00  0.00    -0.062 N 
ATOM     35  CD  PRO d   1      47.455  14.569  94.411  0.00  0.00     0.083 C 
ATOM     36  H1  PRO d   1      47.104  16.318  95.396  0.00  0.00     0.278 HD
ATOM     37  H2  PRO d   1      46.203  16.132  94.032  0.00  0.00     0.278 HD
ATOM     38  CG  PRO d   1      47.024  13.409  95.261  0.00  0.00    -0.040 C 
ATOM     39  H8  PRO d   1      48.510  14.820  94.595  0.00  0.00     0.075 H 
ATOM     40  H9  PRO d   1      47.311  14.348  93.343  0.00  0.00     0.075 H 
ATOM     41  CB  PRO d   1      45.598  13.649  95.621  0.00  0.00    -0.028 C 
ATOM     42  H6  PRO d   1      47.120  12.470  94.697  0.00  0.00     0.035 H 
ATOM     43  H7  PRO d   1      47.641  13.355  96.170  0.00  0.00     0.035 H 
ATOM     44  H4  PRO d   1      44.931  13.211  94.864  0.00  0.00     0.036 H 
ATOM     45  H5  PRO d   1      45.371  13.214  96.605  0.00  0.00     0.036 H 
ATOM     46  H3  PRO d   1      44.485  15.472  95.201  0.00  0.00     0.099 H 
ENDBRANCH  30  33
ENDBRANCH  27  29
BRANCH  27  47
ATOM     47  CB  ARG d   1      42.623  16.062  99.552  0.00  0.00    -0.036 C 
ATOM     48  H12 ARG d   1      42.484  15.001  99.807  0.00  0.00     0.036 H 
ATOM     49  H13 ARG d   1      41.980  16.321  98.698  0.00  0.00     0.036 H 
BRANCH  47  50
ATOM     50  CG  ARG d   1      42.190  16.902 100.749  0.00  0.00    -0.048 C 
ATOM     51  H14 ARG d   1      42.288  17.966 100.489  0.00  0.00     0.035 H 
ATOM     52  H15 ARG d   1      42.847  16.671 101.600  0.00  0.00     0.035 H 
BRANCH  50  53
ATOM     53  CD  ARG d   1      40.750  16.627 101.154  0.00  0.00     0.009 C 
ATOM     54  H16 ARG d   1      40.150  16.478 100.244  0.00  0.00     0.064 H 
ATOM     55  H17 ARG d   1      40.367  17.497 101.707  0.00  0.00     0.064 H 
BRANCH  53  56
ATOM     56  NE  ARG d   1      40.623  15.438 102.001  0.00  0.00    -0.227 N 
ATOM     57  CZ  ARG d   1      40.029  14.307 101.630  0.00  0.00     0.665 C 
ATOM     58  NH1 ARG d   1      39.492  14.195 100.420  0.00  0.00    -0.235 N 
ATOM     59  NH2 ARG d   1      39.959  13.282 102.469  0.00  0.00    -0.235 N 
ATOM     60  H19 ARG d   1      39.034  13.316 100.139  0.00  0.00     0.174 HD
ATOM     61  H20 ARG d   1      39.534  14.987  99.763  0.00  0.00     0.174 HD
ATOM     62  H21 ARG d   1      40.372  13.357 103.410  0.00  0.00     0.174 HD
ATOM     63  H22 ARG d   1      39.492  12.411 102.180  0.00  0.00     0.174 HD
ATOM     64  H18 ARG d   1      41.022  15.481 102.950  0.00  0.00     0.177 HD
ENDBRANCH  53  56
ENDBRANCH  50  53
ENDBRANCH  47  50
ENDBRANCH  27  47
ENDBRANCH  15  27
ENDBRANCH  10  13
ENDBRANCH   7   9
BRANCH   7  65
ATOM     65  CB  THR d   1      46.539  11.794 104.610  0.00  0.00     0.060 C 
ATOM     66  H32 THR d   1      45.563  11.683 104.115  0.00  0.00     0.086 H 
BRANCH  65  67
ATOM     67  OG1 THR d   1      46.466  11.126 105.873  0.00  0.00    -0.393 OA
ATOM     68  H33 THR d   1      47.281  11.252 106.344  0.00  0.00     0.210 HD
ENDBRANCH  65  67
BRANCH  65  69
ATOM     69  CG2 THR d   1      47.581  11.119 103.708  0.00  0.00    -0.050 C 
ATOM     70  H34 THR d   1      47.345  10.049 103.613  0.00  0.00     0.031 H 
ATOM     71  H35 THR d   1      48.581  11.236 104.151  0.00  0.00     0.031 H 
ATOM     72  H36 THR d   1      47.564  11.588 102.713  0.00  0.00     0.031 H 
ENDBRANCH  65  69
ENDBRANCH   7  65
ENDBRANCH   4   7
ENDBRANCH   1   3
BRANCH   1  73
ATOM     73  C   LEU d   1      48.061  15.747 108.747  0.00  0.00     0.241 C 
ATOM     74  O   LEU d   1      46.837  15.759 108.901  0.00  0.00    -0.271 OA
ATOM     75  N   GLN d   1      48.925  15.858 109.775  0.00  0.00    -0.346 N 
ATOM     76  H48 GLN d   1      49.906  15.871 109.580  0.00  0.00     0.163 HD
BRANCH  75  77
ATOM     77  CA  GLN d   1      48.482  15.960 111.171  0.00  0.00     0.090 C 
ATOM     78  H49 GLN d   1      47.411  16.211 111.158  0.00  0.00     0.087 H 
BRANCH  77  79
ATOM     79  C   GLN d   1      49.210  17.057 111.974  0.00  0.00     0.241 C 
ATOM     80  O   GLN d   1      50.418  17.229 111.825  0.00  0.00    -0.271 OA
ATOM     81  N   LEU d   1      48.458  17.784 112.838  0.00  0.00    -0.346 N 
ATOM     82  H56 LEU d   1      47.472  17.618 112.842  0.00  0.00     0.163 HD
BRANCH  81  83
ATOM     83  CA  LEU d   1      48.976  18.794 113.766  0.00  0.00     0.090 C 
ATOM     84  H57 LEU d   1      50.057  18.893 113.587  0.00  0.00     0.087 H 
BRANCH  83  85
ATOM     85  C   LEU d   1      48.754  18.314 115.205  0.00  0.00     0.243 C 
ATOM     86  O   LEU d   1      47.591  18.163 115.609  0.00  0.00    -0.271 OA
ATOM     87  N   PRO d   1      49.828  18.091 116.003  0.00  0.00    -0.337 N 
ATOM     88  CA  PRO d   1      49.626  17.671 117.399  0.00  0.00     0.091 C 
ATOM     89  CD  PRO d   1      51.263  18.223 115.677  0.00  0.00    -0.001 C 
ATOM     90  CB  PRO d   1      51.007  17.151 117.811  0.00  0.00    -0.036 C 
ATOM     91  H67 PRO d   1      48.878  16.866 117.460  0.00  0.00     0.087 H 
ATOM     92  CG  PRO d   1      51.962  17.938 116.977  0.00  0.00    -0.048 C 
ATOM     93  H68 PRO d   1      51.098  16.076 117.597  0.00  0.00     0.036 H 
ATOM     94  H69 PRO d   1      51.187  17.329 118.882  0.00  0.00     0.036 H 
ATOM     95  H70 PRO d   1      52.877  17.355 116.796  0.00  0.00     0.035 H 
ATOM     96  H71 PRO d   1      52.221  18.880 117.483  0.00  0.00     0.035 H 
ATOM     97  H72 PRO d   1      51.492  19.240 115.326  0.00  0.00     0.064 H 
ATOM     98  H73 PRO d   1      51.557  17.494 114.907  0.00  0.00     0.064 H 
BRANCH  88  99
ATOM     99  C   PRO d   1      49.162  18.848 118.262  0.00  0.00     0.241 C 
ATOM    100  O   PRO d   1      49.967  19.599 118.819  0.00  0.00    -0.271 OA
ATOM    101  N   LEU d   1      47.849  19.019 118.347  0.00  0.00    -0.346 N 
ATOM    102  H74 LEU d   1      47.251  18.380 117.864  0.00  0.00     0.163 HD
BRANCH 101 103
ATOM    103  CA  LEU d   1      47.240  20.101 119.116  0.00  0.00     0.089 C 
ATOM    104  H75 LEU d   1      48.003  20.878 119.273  0.00  0.00     0.087 H 
BRANCH 103 105
ATOM    105  C   LEU d   1      46.783  19.602 120.486  0.00  0.00     0.241 C 
ATOM    106  O   LEU d   1      46.102  18.567 120.587  0.00  0.00    -0.271 OA
ATOM    107  N   ALA d   1      47.166  20.344 121.542  0.00  0.00    -0.345 N 
ATOM    108  H85 ALA d   1      47.732  21.151 121.372  0.00  0.00     0.163 HD
BRANCH 107 109
ATOM    109  CA  ALA d   1      46.800  20.036 122.923  0.00  0.00     0.093 C 
ATOM    110  H86 ALA d   1      46.791  18.943 123.047  0.00  0.00     0.089 H 
BRANCH 109 111
ATOM    111  C   ALA d   1      45.402  20.572 123.246  0.00  0.00     0.196 C 
ATOM    112  O   ALA d   1      44.977  21.585 122.689  0.00  0.00    -0.646 OA
ATOM    113  OXT ALA d   1      44.686  19.996 124.067  0.00  0.00    -0.646 OA
ENDBRANCH 109 111
BRANCH 109 114
ATOM    114  CB  ALA d   1      47.825  20.623 123.878  0.00  0.00    -0.048 C 
ATOM    115  H87 ALA d   1      47.540  20.385 124.913  0.00  0.00     0.030 H 
ATOM    116  H88 ALA d   1      47.863  21.715 123.750  0.00  0.00     0.030 H 
ATOM    117  H89 ALA d   1      48.815  20.194 123.663  0.00  0.00     0.030 H 
ENDBRANCH 109 114
ENDBRANCH 107 109
ENDBRANCH 103 105
BRANCH 103 118
ATOM    118  CB  LEU d   1      46.065  20.736 118.344  0.00  0.00    -0.035 C 
ATOM    119  H76 LEU d   1      45.785  21.664 118.864  0.00  0.00     0.037 H 
ATOM    120  H77 LEU d   1      45.223  20.029 118.375  0.00  0.00     0.037 H 
BRANCH 118 121
ATOM    121  CG  LEU d   1      46.327  21.086 116.873  0.00  0.00    -0.059 C 
ATOM    122  H78 LEU d   1      46.814  20.215 116.411  0.00  0.00     0.038 H 
BRANCH 121 123
ATOM    123  CD1 LEU d   1      45.034  21.326 116.128  0.00  0.00    -0.073 C 
ATOM    124  H79 LEU d   1      45.256  21.574 115.079  0.00  0.00     0.028 H 
ATOM    125  H80 LEU d   1      44.491  22.161 116.595  0.00  0.00     0.028 H 
ATOM    126  H81 LEU d   1      44.414  20.418 116.167  0.00  0.00     0.028 H 
ENDBRANCH 121 123
BRANCH 121 127
ATOM    127  CD2 LEU d   1      47.279  22.259 116.734  0.00  0.00    -0.073 C 
ATOM    128  H82 LEU d   1      48.205  22.047 117.288  0.00  0.00     0.028 H 
ATOM    129  H83 LEU d   1      46.807  23.165 117.142  0.00  0.00     0.028 H 
ATOM    130  H84 LEU d   1      47.515  22.416 115.671  0.00  0.00     0.028 H 
ENDBRANCH 121 127
ENDBRANCH 118 121
ENDBRANCH 103 118
ENDBRANCH 101 103
ENDBRANCH  88  99
ENDBRANCH  83  85
BRANCH  83 131
ATOM    131  CB  LEU d   1      48.337  20.197 113.600  0.00  0.00    -0.035 C 
ATOM    132  H58 LEU d   1      48.697  20.807 114.442  0.00  0.00     0.037 H 
ATOM    133  H59 LEU d   1      47.249  20.058 113.687  0.00  0.00     0.037 H 
BRANCH 131 134
ATOM    134  CG  LEU d   1      48.569  21.013 112.345  0.00  0.00    -0.059 C 
ATOM    135  H60 LEU d   1      48.252  20.405 111.485  0.00  0.00     0.038 H 
BRANCH 134 136
ATOM    136  CD1 LEU d   1      47.724  22.269 112.375  0.00  0.00    -0.073 C 
ATOM    137  H61 LEU d   1      47.901  22.852 111.459  0.00  0.00     0.028 H 
ATOM    138  H62 LEU d   1      47.996  22.873 113.253  0.00  0.00     0.028 H 
ATOM    139  H63 LEU d   1      46.661  21.994 112.434  0.00  0.00     0.028 H 
ENDBRANCH 134 136
BRANCH 134 140
ATOM    140  CD2 LEU d   1      50.036  21.372 112.146  0.00  0.00    -0.073 C 
ATOM    141  H64 LEU d   1      50.639  20.452 112.126  0.00  0.00     0.028 H 
ATOM    142  H65 LEU d   1      50.372  22.013 112.974  0.00  0.00     0.028 H 
ATOM    143  H66 LEU d   1      50.156  21.910 111.194  0.00  0.00     0.028 H 
ENDBRANCH 134 140
ENDBRANCH 131 134
ENDBRANCH  83 131
ENDBRANCH  81  83
ENDBRANCH  77  79
BRANCH  77 144
ATOM    144  CB  GLN d   1      48.654  14.609 111.898  0.00  0.00    -0.030 C 
ATOM    145  H50 GLN d   1      48.670  14.803 112.981  0.00  0.00     0.037 H 
ATOM    146  H51 GLN d   1      49.616  14.175 111.589  0.00  0.00     0.037 H 
BRANCH 144 147
ATOM    147  CG  GLN d   1      47.545  13.572 111.612  0.00  0.00     0.011 C 
ATOM    148  H52 GLN d   1      47.934  12.579 111.880  0.00  0.00     0.047 H 
ATOM    149  H53 GLN d   1      47.324  13.601 110.535  0.00  0.00     0.047 H 
BRANCH 147 150
ATOM    150  CD  GLN d   1      46.234  13.781 112.365  0.00  0.00     0.215 C 
ATOM    151  OE1 GLN d   1      45.146  13.798 111.772  0.00  0.00    -0.274 OA
ATOM    152  NE2 GLN d   1      46.290  13.875 113.693  0.00  0.00    -0.370 N 
ATOM    153  H54 GLN d   1      45.452  14.012 114.220  0.00  0.00     0.159 HD
ATOM    154  H55 GLN d   1      47.170  13.808 114.162  0.00  0.00     0.159 HD
ENDBRANCH 147 150
ENDBRANCH 144 147
ENDBRANCH  77 144
ENDBRANCH  75  77
ENDBRANCH   1  73
BRANCH   1 155
ATOM    155  CB  LEU d   1      48.999  17.024 106.777  0.00  0.00    -0.035 C 
ATOM    156  H39 LEU d   1      49.062  17.701 107.642  0.00  0.00     0.037 H 
ATOM    157  H40 LEU d   1      48.155  17.323 106.138  0.00  0.00     0.037 H 
BRANCH 155 158
ATOM    158  CG  LEU d   1      50.284  17.244 105.947  0.00  0.00    -0.059 C 
ATOM    159  H41 LEU d   1      51.125  17.348 106.649  0.00  0.00     0.038 H 
BRANCH 158 160
ATOM    160  CD1 LEU d   1      50.591  16.097 105.004  0.00  0.00    -0.073 C 
ATOM    161  H42 LEU d   1      51.514  16.317 104.447  0.00  0.00     0.028 H 
ATOM    162  H43 LEU d   1      49.758  15.970 104.297  0.00  0.00     0.028 H 
ATOM    163  H44 LEU d   1      50.725  15.172 105.584  0.00  0.00     0.028 H 
ENDBRANCH 158 160
BRANCH 158 164
ATOM    164  CD2 LEU d   1      50.172  18.508 105.129  0.00  0.00    -0.073 C 
ATOM    165  H45 LEU d   1      49.949  19.356 105.793  0.00  0.00     0.028 H 
ATOM    166  H46 LEU d   1      49.363  18.397 104.392  0.00  0.00     0.028 H 
ATOM    167  H47 LEU d   1      51.122  18.692 104.606  0.00  0.00     0.028 H 
ENDBRANCH 158 164
ENDBRANCH 155 158
ENDBRANCH   1 155
TORSDOF 40
