REMARK  5 active torsions:
REMARK  status: ('A' for Active; 'I' for Inactive)
REMARK    1  A    between atoms: CAA_1  and  N_2 
REMARK    2  A    between atoms: N_2  and  CAB_3 
REMARK    3  A    between atoms: N_2  and  CA_4 
REMARK    4  A    between atoms: CA_4  and  C_5 
REMARK       I    between atoms: C_5  and  NAM_7 
REMARK    5  A    between atoms: NAM_7  and  CAP_8 
ROOT
ATOM      1  CAP P34 d   1      10.306  22.775  27.490  0.00  0.00     0.035 A 
ATOM      2  CAK P34 d   1      10.362  22.361  28.828  0.00  0.00    -0.044 A 
ATOM      3  CAU P34 d   1       9.481  22.911  29.767  0.00  0.00     0.004 A 
ATOM      4  CAT P34 d   1       9.519  22.570  31.224  0.00  0.00    -0.008 A 
ATOM      5  CAI P34 d   1      10.480  21.709  31.764  0.00  0.00    -0.071 A 
ATOM      6  CAF P34 d   1      10.443  21.389  33.123  0.00  0.00    -0.082 A 
ATOM      7  CAE P34 d   1       9.492  21.981  33.958  0.00  0.00    -0.082 A 
ATOM      8  CAH P34 d   1       8.553  22.869  33.432  0.00  0.00    -0.067 A 
ATOM      9  CAS P34 d   1       8.563  23.159  32.063  0.00  0.00     0.043 A 
ATOM     10  CAQ P34 d   1       7.565  24.115  31.483  0.00  0.00     0.257 A 
ATOM     11  OAD P34 d   1       6.716  24.645  32.230  0.00  0.00    -0.267 OA
ATOM     12  NAN P34 d   1       7.559  24.411  30.168  0.00  0.00    -0.322 N 
ATOM     13  CAR P34 d   1       8.445  23.891  29.303  0.00  0.00     0.046 A 
ATOM     14  CAJ P34 d   1       8.387  24.236  27.953  0.00  0.00    -0.054 A 
ATOM     15  CAG P34 d   1       9.300  23.659  27.060  0.00  0.00    -0.055 A 
ATOM     16  H11 P34 d   1      11.087  21.616  29.135  0.00  0.00     0.088 H 
ATOM     17  H12 P34 d   1      11.252  21.291  31.129  0.00  0.00     0.084 H 
ATOM     18  H13 P34 d   1      11.154  20.680  33.531  0.00  0.00     0.083 H 
ATOM     19  H14 P34 d   1       9.484  21.750  35.017  0.00  0.00     0.083 H 
ATOM     20  H15 P34 d   1       7.819  23.332  34.081  0.00  0.00     0.085 H 
ATOM     21  H16 P34 d   1       6.866  25.044  29.822  0.00  0.00     0.169 HD
ATOM     22  H17 P34 d   1       7.645  24.942  27.599  0.00  0.00     0.087 H 
ATOM     23  H18 P34 d   1       9.229  23.901  26.006  0.00  0.00     0.087 H 
ENDROOT
BRANCH   1  24
ATOM     24  NAM P34 d   1      11.082  22.145  26.570  0.00  0.00    -0.326 N 
ATOM     25  C   P34 d   1      12.160  22.660  25.970  0.00  0.00     0.248 C 
ATOM     26  O   P34 d   1      12.128  23.685  25.301  0.00  0.00    -0.271 OA
ATOM     27  H10 P34 d   1      10.824  21.212  26.319  0.00  0.00     0.169 HD
BRANCH  25  28
ATOM     28  CA  P34 d   1      13.451  21.872  26.115  0.00  0.00     0.155 C 
ATOM     29  H8  P34 d   1      13.407  20.993  25.455  0.00  0.00     0.090 H 
ATOM     30  H9  P34 d   1      14.294  22.512  25.817  0.00  0.00     0.090 H 
BRANCH  28  31
ATOM     31  N   P34 d   1      13.663  21.421  27.491  0.00  0.00    -0.070 N 
ATOM     32  H4  P34 d   1      12.699  21.625  27.703  0.00  0.00     0.279 HD
BRANCH  31  33
ATOM     33  CAA P34 d   1      14.091  22.358  28.525  0.00  0.00     0.066 C 
ATOM     34  H1  P34 d   1      14.193  21.826  29.483  0.00  0.00     0.068 H 
ATOM     35  H2  P34 d   1      13.343  23.158  28.628  0.00  0.00     0.068 H 
ATOM     36  H3  P34 d   1      15.060  22.796  28.244  0.00  0.00     0.068 H 
ENDBRANCH  31  33
BRANCH  31  37
ATOM     37  CAB P34 d   1      13.451  20.027  27.850  0.00  0.00     0.066 C 
ATOM     38  H5  P34 d   1      13.134  19.463  26.960  0.00  0.00     0.068 H 
ATOM     39  H6  P34 d   1      12.671  19.962  28.623  0.00  0.00     0.068 H 
ATOM     40  H7  P34 d   1      14.388  19.602  28.238  0.00  0.00     0.068 H 
ENDBRANCH  31  37
ENDBRANCH  28  31
ENDBRANCH  25  28
ENDBRANCH   1  24
TORSDOF 5
