REMARK  20 active torsions:
REMARK  status: ('A' for Active; 'I' for Inactive)
REMARK    1  A    between atoms: C1E_13  and  N1B_1 
REMARK    2  A    between atoms: C5B_8  and  C7B_9 
REMARK    3  A    between atoms: C5E_10  and  C4E_11 
REMARK    4  A    between atoms: O5E_20  and  C5E_10 
REMARK    5  A    between atoms: C3E_15  and  O3E_16 
REMARK    6  A    between atoms: PA_17  and  O5E_20 
REMARK    7  A    between atoms: PA_17  and  O3A_21 
REMARK    8  A    between atoms: O3A_21  and  PB_22 
REMARK    9  A    between atoms: PB_22  and  O3B_25 
REMARK   10  A    between atoms: O3B_25  and  PC_26 
REMARK   11  A    between atoms: PC_26  and  O3C_29 
REMARK   12  A    between atoms: O3C_29  and  PD_30 
REMARK   13  A    between atoms: PD_30  and  O3D_33 
REMARK   14  A    between atoms: O3D_33  and  PE_34 
REMARK   15  A    between atoms: PE_34  and  O5F_37 
REMARK   16  A    between atoms: O5F_37  and  C5F_38 
REMARK   17  A    between atoms: C5F_38  and  C4F_39 
REMARK   18  A    between atoms: C1F_41  and  N9A_46 
REMARK   19  A    between atoms: C2F_42  and  O2F_43 
REMARK   20  A    between atoms: C3F_44  and  O3F_45 
ROOT
ATOM      1  PC  T5A d   1      21.142 -17.895   9.249  0.00  0.00     0.427 P 
ATOM      2  O1C T5A d   1      20.745 -17.792  10.706  0.00  0.00    -0.624 OA
ATOM      3  O2C T5A d   1      22.590 -17.770   8.832  0.00  0.00    -0.624 OA
ENDROOT
BRANCH   1   4
ATOM      4  O3B T5A d   1      20.628 -19.383   8.903  0.00  0.00    -0.180 OA
BRANCH   4   5
ATOM      5  PB  T5A d   1      20.853 -20.154   7.496  0.00  0.00     0.427 P 
ATOM      6  O1B T5A d   1      20.532 -19.275   6.340  0.00  0.00    -0.624 OA
ATOM      7  O2X T5A d   1      22.230 -20.741   7.574  0.00  0.00    -0.624 OA
BRANCH   5   8
ATOM      8  O3A T5A d   1      19.994 -21.471   7.595  0.00  0.00    -0.180 OA
BRANCH   8   9
ATOM      9  PA  T5A d   1      19.196 -22.089   8.811  0.00  0.00     0.417 P 
ATOM     10  O1A T5A d   1      19.906 -23.151   9.552  0.00  0.00    -0.624 OA
ATOM     11  O2A T5A d   1      18.305 -21.105   9.560  0.00  0.00    -0.624 OA
BRANCH   9  12
ATOM     12  O5E T5A d   1      18.185 -23.027   7.966  0.00  0.00    -0.287 OA
BRANCH  12  13
ATOM     13  C5E T5A d   1      17.126 -22.403   7.210  0.00  0.00     0.058 C 
ATOM     14  H6  T5A d   1      16.281 -22.176   7.877  0.00  0.00     0.079 H 
ATOM     15  H7  T5A d   1      17.496 -21.471   6.757  0.00  0.00     0.079 H 
BRANCH  13  16
ATOM     16  C4E T5A d   1      16.675 -23.349   6.125  0.00  0.00     0.087 C 
ATOM     17  O4E T5A d   1      15.954 -24.470   6.645  0.00  0.00    -0.356 OA
ATOM     18  C1E T5A d   1      14.628 -24.381   6.102  0.00  0.00     0.116 C 
ATOM     19  C2E T5A d   1      14.416 -22.966   5.583  0.00  0.00     0.002 C 
ATOM     20  H9  T5A d   1      14.546 -25.079   5.256  0.00  0.00     0.118 H 
ATOM     21  C3E T5A d   1      15.806 -22.638   5.113  0.00  0.00     0.066 C 
ATOM     22  H10 T5A d   1      14.086 -22.285   6.381  0.00  0.00     0.043 H 
ATOM     23  H11 T5A d   1      13.691 -22.941   4.756  0.00  0.00     0.043 H 
ATOM     24  H12 T5A d   1      15.989 -21.554   5.094  0.00  0.00     0.087 H 
ATOM     25  H8  T5A d   1      17.573 -23.725   5.612  0.00  0.00     0.090 H 
BRANCH  18  26
ATOM     26  N1B T5A d   1      13.626 -24.759   7.096  0.00  0.00    -0.282 N 
ATOM     27  C6B T5A d   1      13.355 -23.949   8.135  0.00  0.00    -0.002 A 
ATOM     28  C5B T5A d   1      12.434 -24.315   9.091  0.00  0.00     0.022 A 
ATOM     29  H1  T5A d   1      13.870 -22.993   8.221  0.00  0.00     0.113 H 
ATOM     30  C4B T5A d   1      11.777 -25.610   8.933  0.00  0.00     0.256 A 
ATOM     31  N3B T5A d   1      12.108 -26.396   7.886  0.00  0.00    -0.275 N 
ATOM     32  O4B T5A d   1      10.937 -25.954   9.772  0.00  0.00    -0.267 OA
ATOM     33  C2B T5A d   1      13.001 -26.013   6.960  0.00  0.00     0.331 A 
ATOM     34  H2  T5A d   1      11.674 -27.293   7.798  0.00  0.00     0.173 HD
ATOM     35  O2B T5A d   1      13.280 -26.745   5.976  0.00  0.00    -0.246 OA
BRANCH  28  36
ATOM     36  C7B T5A d   1      12.113 -23.408  10.255  0.00  0.00    -0.045 C 
ATOM     37  H3  T5A d   1      12.716 -22.491  10.182  0.00  0.00     0.033 H 
ATOM     38  H4  T5A d   1      12.345 -23.925  11.198  0.00  0.00     0.033 H 
ATOM     39  H5  T5A d   1      11.044 -23.148  10.233  0.00  0.00     0.033 H 
ENDBRANCH  28  36
ENDBRANCH  18  26
BRANCH  21  40
ATOM     40  O3E T5A d   1      16.038 -23.218   3.818  0.00  0.00    -0.393 OA
ATOM     41  H13 T5A d   1      16.918 -23.005   3.530  0.00  0.00     0.210 HD
ENDBRANCH  21  40
ENDBRANCH  13  16
ENDBRANCH  12  13
ENDBRANCH   9  12
ENDBRANCH   8   9
ENDBRANCH   5   8
ENDBRANCH   4   5
ENDBRANCH   1   4
BRANCH   1  42
ATOM     42  O3C T5A d   1      20.190 -17.048   8.292  0.00  0.00    -0.180 OA
BRANCH  42  43
ATOM     43  PD  T5A d   1      20.136 -15.485   8.093  0.00  0.00     0.427 P 
ATOM     44  O1D T5A d   1      20.197 -14.753   9.422  0.00  0.00    -0.624 OA
ATOM     45  O2D T5A d   1      18.932 -15.228   7.308  0.00  0.00    -0.624 OA
BRANCH  43  46
ATOM     46  O3D T5A d   1      21.498 -15.276   7.294  0.00  0.00    -0.180 OA
BRANCH  46  47
ATOM     47  PE  T5A d   1      21.811 -13.868   6.576  0.00  0.00     0.417 P 
ATOM     48  O1E T5A d   1      23.181 -13.438   6.895  0.00  0.00    -0.624 OA
ATOM     49  O2E T5A d   1      20.654 -12.990   6.919  0.00  0.00    -0.624 OA
BRANCH  47  50
ATOM     50  O5F T5A d   1      21.571 -14.269   5.018  0.00  0.00    -0.287 OA
BRANCH  50  51
ATOM     51  C5F T5A d   1      22.503 -14.426   3.966  0.00  0.00     0.058 C 
ATOM     52  H14 T5A d   1      23.478 -14.037   4.296  0.00  0.00     0.079 H 
ATOM     53  H15 T5A d   1      22.154 -13.851   3.096  0.00  0.00     0.079 H 
BRANCH  51  54
ATOM     54  C4F T5A d   1      22.671 -15.889   3.553  0.00  0.00     0.089 C 
ATOM     55  O4F T5A d   1      24.031 -15.976   3.129  0.00  0.00    -0.353 OA
ATOM     56  C1F T5A d   1      24.817 -16.864   3.909  0.00  0.00     0.139 C 
ATOM     57  C2F T5A d   1      23.888 -17.454   4.931  0.00  0.00     0.105 C 
ATOM     58  H17 T5A d   1      25.219 -17.662   3.268  0.00  0.00     0.122 H 
ATOM     59  C3F T5A d   1      22.501 -16.933   4.643  0.00  0.00     0.091 C 
ATOM     60  H18 T5A d   1      24.191 -17.176   5.951  0.00  0.00     0.093 H 
ATOM     61  H20 T5A d   1      22.083 -16.461   5.544  0.00  0.00     0.091 H 
ATOM     62  H16 T5A d   1      21.977 -16.116   2.731  0.00  0.00     0.090 H 
BRANCH  56  63
ATOM     63  N9A T5A d   1      25.954 -16.158   4.560  0.00  0.00    -0.294 N 
ATOM     64  C4A T5A d   1      27.253 -16.417   4.356  0.00  0.00     0.167 A 
ATOM     65  N3A T5A d   1      27.952 -17.300   3.590  0.00  0.00    -0.222 NA
ATOM     66  C5A T5A d   1      27.984 -15.465   5.214  0.00  0.00     0.149 A 
ATOM     67  C2A T5A d   1      29.300 -17.308   3.607  0.00  0.00     0.091 A 
ATOM     68  N1A T5A d   1      30.024 -16.454   4.368  0.00  0.00    -0.222 NA
ATOM     69  H22 T5A d   1      29.825 -18.026   2.987  0.00  0.00     0.146 H 
ATOM     70  C6A T5A d   1      29.458 -15.519   5.186  0.00  0.00     0.155 A 
ATOM     71  N6A T5A d   1      30.188 -14.664   5.962  0.00  0.00    -0.382 N 
ATOM     72  H23 T5A d   1      29.709 -13.977   6.562  0.00  0.00     0.157 HD
ATOM     73  H24 T5A d   1      31.217 -14.707   5.947  0.00  0.00     0.157 HD
ATOM     74  N7A T5A d   1      27.071 -14.720   5.862  0.00  0.00    -0.236 NA
ATOM     75  C8A T5A d   1      25.851 -15.147   5.454  0.00  0.00     0.071 A 
ATOM     76  H25 T5A d   1      24.907 -14.729   5.802  0.00  0.00     0.144 H 
ENDBRANCH  56  63
BRANCH  57  77
ATOM     77  O2F T5A d   1      23.965 -18.859   4.759  0.00  0.00    -0.388 OA
ATOM     78  H19 T5A d   1      23.392 -19.285   5.386  0.00  0.00     0.210 HD
ENDBRANCH  57  77
BRANCH  59  79
ATOM     79  O3F T5A d   1      21.637 -17.998   4.242  0.00  0.00    -0.390 OA
ATOM     80  H21 T5A d   1      21.586 -18.642   4.938  0.00  0.00     0.210 HD
ENDBRANCH  59  79
ENDBRANCH  51  54
ENDBRANCH  50  51
ENDBRANCH  47  50
ENDBRANCH  46  47
ENDBRANCH  43  46
ENDBRANCH  42  43
ENDBRANCH   1  42
TORSDOF 20
