REMARK  10 active torsions:
REMARK  status: ('A' for Active; 'I' for Inactive)
REMARK    1  A    between atoms: PA_1  and  O3A_4 
REMARK    2  A    between atoms: PA_1  and  O5'_13 
REMARK    3  A    between atoms: O3A_4  and  PB_5 
REMARK    4  A    between atoms: PB_5  and  O3B_8 
REMARK    5  A    between atoms: O3B_8  and  PG_9 
REMARK    6  A    between atoms: O5'_13  and  C5'_14 
REMARK    7  A    between atoms: C5'_14  and  C4'_15 
REMARK    8  A    between atoms: C3'_17  and  O3'_18 
REMARK    9  A    between atoms: C1'_20  and  N1_21 
REMARK   10  A    between atoms: C5_27  and  C5M_28 
ROOT
ATOM      1  C4' TTP d   1      19.114 -10.806  67.873  0.00  0.00     0.087 C 
ATOM      2  O4' TTP d   1      17.725 -10.827  68.237  0.00  0.00    -0.356 OA
ATOM      3  C3' TTP d   1      19.276  -9.608  66.962  0.00  0.00     0.066 C 
ATOM      4  C2' TTP d   1      17.978  -8.830  66.993  0.00  0.00     0.002 C 
ATOM      5  C1' TTP d   1      16.967  -9.719  67.696  0.00  0.00     0.116 C 
ATOM      6  H3  TTP d   1      19.352 -11.715  67.301  0.00  0.00     0.090 H 
ATOM      7  H4  TTP d   1      20.116  -8.976  67.286  0.00  0.00     0.087 H 
ATOM      8  H6  TTP d   1      17.643  -8.607  65.969  0.00  0.00     0.043 H 
ATOM      9  H7  TTP d   1      18.110  -7.890  67.549  0.00  0.00     0.043 H 
ATOM     10  H8  TTP d   1      16.229 -10.091  66.970  0.00  0.00     0.118 H 
ENDROOT
BRANCH   1  11
ATOM     11  C5' TTP d   1      20.016 -10.794  69.107  0.00  0.00     0.058 C 
ATOM     12  H1  TTP d   1      20.413  -9.777  69.244  0.00  0.00     0.079 H 
ATOM     13  H2  TTP d   1      19.417 -11.075  69.985  0.00  0.00     0.079 H 
BRANCH  11  14
ATOM     14  O5' TTP d   1      21.113 -11.704  68.989  0.00  0.00    -0.287 OA
BRANCH  14  15
ATOM     15  PA  TTP d   1      22.547 -11.577  69.738  0.00  0.00     0.417 P 
ATOM     16  O1A TTP d   1      22.308 -11.295  71.190  0.00  0.00    -0.624 OA
ATOM     17  O2A TTP d   1      23.356 -12.817  69.430  0.00  0.00    -0.624 OA
BRANCH  15  18
ATOM     18  O3A TTP d   1      23.189 -10.336  68.970  0.00  0.00    -0.180 OA
BRANCH  18  19
ATOM     19  PB  TTP d   1      24.678  -9.842  69.250  0.00  0.00     0.428 P 
ATOM     20  O1B TTP d   1      24.558  -8.334  69.296  0.00  0.00    -0.624 OA
ATOM     21  O2B TTP d   1      25.712 -10.433  68.305  0.00  0.00    -0.624 OA
BRANCH  19  22
ATOM     22  O3B TTP d   1      24.918 -10.499  70.694  0.00  0.00    -0.173 OA
BRANCH  22  23
ATOM     23  PG  TTP d   1      26.186 -11.456  71.017  0.00  0.00     0.431 P 
ATOM     24  O1G TTP d   1      27.433 -10.791  70.453  0.00  0.00    -0.616 OA
ATOM     25  O2G TTP d   1      25.781 -12.757  70.353  0.00  0.00    -0.616 OA
ATOM     26  O3G TTP d   1      26.230 -11.537  72.531  0.00  0.00    -0.616 OA
ENDBRANCH  22  23
ENDBRANCH  19  22
ENDBRANCH  18  19
ENDBRANCH  15  18
ENDBRANCH  14  15
ENDBRANCH  11  14
ENDBRANCH   1  11
BRANCH   3  27
ATOM     27  O3' TTP d   1      19.495 -10.102  65.645  0.00  0.00    -0.393 OA
ATOM     28  H5  TTP d   1      19.601  -9.371  65.047  0.00  0.00     0.210 HD
ENDBRANCH   3  27
BRANCH   5  29
ATOM     29  N1  TTP d   1      16.259  -8.986  68.757  0.00  0.00    -0.282 N 
ATOM     30  C2  TTP d   1      14.850  -8.933  68.856  0.00  0.00     0.331 A 
ATOM     31  O2  TTP d   1      14.125  -9.496  68.037  0.00  0.00    -0.246 OA
ATOM     32  N3  TTP d   1      14.223  -8.279  69.832  0.00  0.00    -0.275 N 
ATOM     33  C4  TTP d   1      14.917  -7.644  70.788  0.00  0.00     0.256 A 
ATOM     34  H9  TTP d   1      13.223  -8.261  69.852  0.00  0.00     0.173 HD
ATOM     35  O4  TTP d   1      14.329  -7.025  71.713  0.00  0.00    -0.267 OA
ATOM     36  C5  TTP d   1      16.400  -7.684  70.728  0.00  0.00     0.022 A 
ATOM     37  C6  TTP d   1      17.003  -8.374  69.687  0.00  0.00    -0.002 A 
ATOM     38  H13 TTP d   1      18.089  -8.418  69.626  0.00  0.00     0.113 H 
BRANCH  36  39
ATOM     39  C5M TTP d   1      17.240  -6.973  71.746  0.00  0.00    -0.045 C 
ATOM     40  H10 TTP d   1      18.304  -7.131  71.518  0.00  0.00     0.033 H 
ATOM     41  H11 TTP d   1      17.017  -7.370  72.747  0.00  0.00     0.033 H 
ATOM     42  H12 TTP d   1      17.015  -5.897  71.720  0.00  0.00     0.033 H 
ENDBRANCH  36  39
ENDBRANCH   5  29
TORSDOF 10
