REMARK  4 active torsions:
REMARK  status: ('A' for Active; 'I' for Inactive)
REMARK    1  A    between atoms: C2_15  and  N17_27 
REMARK    2  A    between atoms: C8_18  and  C9_19 
REMARK    3  A    between atoms: N20_25  and  C25_20 
REMARK    4  A    between atoms: N26_26  and  C29_21 
ROOT
ATOM      1  C23 5P8 d   1      47.090 -19.020  -5.825  0.00  0.00     0.120 C 
ATOM      2  C12 5P8 d   1      39.668 -19.373  -2.363  0.00  0.00    -0.064 A 
ATOM      3  C13 5P8 d   1      38.727 -18.318  -2.526  0.00  0.00    -0.045 A 
ATOM      4  C6  5P8 d   1      42.586 -19.638  -5.993  0.00  0.00    -0.035 A 
ATOM      5  C15 5P8 d   1      38.509 -18.877  -4.903  0.00  0.00    -0.036 A 
ATOM      6  C4  5P8 d   1      44.099 -18.020  -6.956  0.00  0.00     0.015 A 
ATOM      7  C19 5P8 d   1      46.199 -19.300  -4.761  0.00  0.00     0.145 A 
ATOM      8  C5  5P8 d   1      43.832 -18.969  -5.917  0.00  0.00    -0.000 A 
ATOM      9  C18 5P8 d   1      44.791 -19.286  -4.763  0.00  0.00     0.043 A 
ATOM     10  C11 5P8 d   1      40.055 -20.211  -3.466  0.00  0.00     0.041 A 
ATOM     11  C10 5P8 d   1      39.461 -19.959  -4.777  0.00  0.00    -0.011 A 
ATOM     12  C1  5P8 d   1      41.638 -19.380  -7.045  0.00  0.00     0.116 A 
ATOM     13  C14 5P8 d   1      38.139 -18.063  -3.796  0.00  0.00     0.117 A 
ATOM     14  C22 5P8 d   1      44.450 -19.656  -3.359  0.00  0.00     0.086 A 
ATOM     15  C2  5P8 d   1      42.035 -18.416  -8.011  0.00  0.00     0.154 A 
ATOM     16  C27 5P8 d   1      41.041 -21.321  -3.213  0.00  0.00     0.254 C 
ATOM     17  C28 5P8 d   1      43.067 -19.809  -2.703  0.00  0.00     0.040 C 
ATOM     18  C8  5P8 d   1      39.779 -20.807  -6.052  0.00  0.00     0.068 C 
ATOM     19  N24 5P8 d   1      47.818 -18.762  -6.696  0.00  0.00    -0.190 NA
ATOM     20  N3  5P8 d   1      43.229 -17.753  -7.974  0.00  0.00    -0.240 NA
ATOM     21  N21 5P8 d   1      45.531 -19.845  -2.692  0.00  0.00    -0.174 NA
ATOM     22  N20 5P8 d   1      46.549 -19.654  -3.445  0.00  0.00    -0.263 N 
ATOM     23  N26 5P8 d   1      42.379 -21.132  -2.874  0.00  0.00    -0.347 N 
ATOM     24  O30 5P8 d   1      40.584 -22.476  -3.323  0.00  0.00    -0.267 OA
ATOM     25  O7  5P8 d   1      40.399 -20.019  -7.158  0.00  0.00    -0.338 OA
ATOM     26  F16 5P8 d   1      37.250 -17.078  -3.948  0.00  0.00    -0.206 F 
ATOM     27  H1  5P8 d   1      40.103 -19.549  -1.386  0.00  0.00     0.085 H 
ATOM     28  H2  5P8 d   1      38.456 -17.703  -1.675  0.00  0.00     0.088 H 
ATOM     29  H3  5P8 d   1      42.338 -20.370  -5.233  0.00  0.00     0.089 H 
ATOM     30  H4  5P8 d   1      38.063 -18.680  -5.871  0.00  0.00     0.089 H 
ATOM     31  H5  5P8 d   1      45.042 -17.485  -6.933  0.00  0.00     0.116 H 
ATOM     32  H6  5P8 d   1      42.410 -19.035  -3.127  0.00  0.00     0.074 H 
ATOM     33  H7  5P8 d   1      43.190 -19.635  -1.624  0.00  0.00     0.074 H 
ATOM     34  H8  5P8 d   1      40.460 -21.622  -5.767  0.00  0.00     0.091 H 
ENDROOT
BRANCH  22  35
ATOM     35  C25 5P8 d   1      47.924 -19.790  -2.968  0.00  0.00     0.004 C 
ATOM     36  H12 5P8 d   1      47.917 -20.074  -1.905  0.00  0.00     0.059 H 
ATOM     37  H13 5P8 d   1      48.450 -18.831  -3.088  0.00  0.00     0.059 H 
ATOM     38  H14 5P8 d   1      48.440 -20.567  -3.552  0.00  0.00     0.059 H 
ENDBRANCH  22  35
BRANCH  23  39
ATOM     39  C29 5P8 d   1      43.241 -22.314  -2.642  0.00  0.00    -0.015 C 
ATOM     40  H15 5P8 d   1      42.653 -23.232  -2.790  0.00  0.00     0.056 H 
ATOM     41  H16 5P8 d   1      43.629 -22.289  -1.613  0.00  0.00     0.056 H 
ATOM     42  H17 5P8 d   1      44.082 -22.300  -3.351  0.00  0.00     0.056 H 
ENDBRANCH  23  39
BRANCH  15  43
ATOM     43  N17 5P8 d   1      41.163 -18.117  -9.075  0.00  0.00    -0.382 N 
ATOM     44  H18 5P8 d   1      41.435 -17.421  -9.784  0.00  0.00     0.157 HD
ATOM     45  H19 5P8 d   1      40.253 -18.594  -9.145  0.00  0.00     0.157 HD
ENDBRANCH  15  43
BRANCH  18  46
ATOM     46  C9  5P8 d   1      38.474 -21.388  -6.612  0.00  0.00    -0.048 C 
ATOM     47  H9  5P8 d   1      38.694 -21.985  -7.509  0.00  0.00     0.031 H 
ATOM     48  H10 5P8 d   1      37.791 -20.567  -6.876  0.00  0.00     0.031 H 
ATOM     49  H11 5P8 d   1      38.002 -22.028  -5.852  0.00  0.00     0.031 H 
ENDBRANCH  18  46
TORSDOF 4
