REMARK  9 active torsions:
REMARK  status: ('A' for Active; 'I' for Inactive)
REMARK    1  A    between atoms: C20_12  and  N3_2 
REMARK    2  A    between atoms: C5_4  and  C4_3 
REMARK    3  A    between atoms: C6_5  and  C11_26 
REMARK    4  A    between atoms: N2_29  and  C13_9 
REMARK    5  A    between atoms: C17_11  and  C19_33 
REMARK    6  A    between atoms: C16_31  and  C20_12 
REMARK    7  A    between atoms: C3_24  and  C2_23 
REMARK    8  A    between atoms: C12_27  and  C9_25 
REMARK       I    between atoms: C12_27  and  N2_29 
REMARK    9  A    between atoms: N4_39  and  C25_38 
ROOT
ATOM      1  C13 0LI d   1      -0.938  -3.866  16.909  0.00  0.00     0.035 A 
ATOM      2  C15 0LI d   1      -1.328  -4.208  19.215  0.00  0.00    -0.072 A 
ATOM      3  C17 0LI d   1      -1.157  -1.967  18.382  0.00  0.00     0.058 A 
ATOM      4  C14 0LI d   1      -1.107  -4.732  17.964  0.00  0.00    -0.057 A 
ATOM      5  C16 0LI d   1      -1.351  -2.842  19.439  0.00  0.00    -0.017 A 
ATOM      6  C18 0LI d   1      -0.966  -2.499  17.118  0.00  0.00    -0.042 A 
ATOM      7  H   0LI d   1      -1.489  -4.882  20.049  0.00  0.00     0.084 H 
ATOM      8  H   0LI d   1      -1.067  -5.804  17.812  0.00  0.00     0.086 H 
ATOM      9  H   0LI d   1      -0.836  -1.830  16.275  0.00  0.00     0.088 H 
ENDROOT
BRANCH   1  10
ATOM     10  N2  0LI d   1      -0.773  -4.440  15.635  0.00  0.00    -0.323 N 
ATOM     11  C12 0LI d   1       0.099  -3.968  14.682  0.00  0.00     0.256 C 
ATOM     12  O1  0LI d   1       0.915  -3.065  14.799  0.00  0.00    -0.267 OA
ATOM     13  H   0LI d   1      -1.325  -5.242  15.408  0.00  0.00     0.169 HD
BRANCH  11  14
ATOM     14  C9  0LI d   1      -0.010  -4.610  13.369  0.00  0.00     0.033 A 
ATOM     15  C8  0LI d   1      -0.758  -5.750  13.151  0.00  0.00    -0.067 A 
ATOM     16  C7  0LI d   1      -0.845  -6.251  11.866  0.00  0.00    -0.075 A 
ATOM     17  H   0LI d   1      -1.267  -6.242  13.972  0.00  0.00     0.085 H 
ATOM     18  C6  0LI d   1      -0.162  -5.641  10.828  0.00  0.00    -0.043 A 
ATOM     19  H   0LI d   1      -1.452  -7.127  11.670  0.00  0.00     0.084 H 
ATOM     20  C5  0LI d   1       0.584  -4.493  11.073  0.00  0.00     0.025 A 
ATOM     21  C10 0LI d   1       0.651  -3.971  12.346  0.00  0.00    -0.049 A 
ATOM     22  H   0LI d   1       1.218  -3.067  12.539  0.00  0.00     0.087 H 
BRANCH  18  23
ATOM     23  C11 0LI d   1      -0.230  -6.235   9.457  0.00  0.00    -0.050 C 
ATOM     24  H   0LI d   1       0.367  -5.625   8.763  0.00  0.00     0.033 H 
ATOM     25  H   0LI d   1      -1.276  -6.257   9.118  0.00  0.00     0.033 H 
ATOM     26  H   0LI d   1       0.170  -7.260   9.481  0.00  0.00     0.033 H 
ENDBRANCH  18  23
BRANCH  20  27
ATOM     27  C4  0LI d   1       1.310  -3.798  10.060  0.00  0.00    -0.059 C 
ATOM     28  C3  0LI d   1       1.904  -3.200   9.209  0.00  0.00    -0.040 C 
BRANCH  28  29
ATOM     29  C2  0LI d   1       2.546  -2.444   8.199  0.00  0.00     0.131 A 
ATOM     30  N82 0LI d   1       3.859  -2.499   7.856  0.00  0.00    -0.206 N 
ATOM     31  N81 0LI d   1       4.776  -3.255   8.448  0.00  0.00    -0.177 NA
ATOM     32  C84 0LI d   1       4.046  -1.605   6.838  0.00  0.00     0.151 A 
ATOM     33  C83 0LI d   1       5.962  -3.093   7.947  0.00  0.00     0.022 A 
ATOM     34  C82 0LI d   1       6.343  -2.208   6.835  0.00  0.00    -0.061 A 
ATOM     35  H   0LI d   1       6.763  -3.676   8.399  0.00  0.00     0.117 H 
ATOM     36  C81 0LI d   1       5.344  -1.489   6.313  0.00  0.00    -0.035 A 
ATOM     37  H   0LI d   1       7.365  -2.143   6.464  0.00  0.00     0.086 H 
ATOM     38  H   0LI d   1       5.536  -0.813   5.481  0.00  0.00     0.089 H 
ATOM     39  N1  0LI d   1       2.928  -0.987   6.517  0.00  0.00    -0.238 NA
ATOM     40  C1  0LI d   1       1.984  -1.500   7.366  0.00  0.00     0.041 A 
ATOM     41  H   0LI d   1       0.936  -1.204   7.381  0.00  0.00     0.119 H 
ENDBRANCH  28  29
ENDBRANCH  20  27
ENDBRANCH  11  14
ENDBRANCH   1  10
BRANCH   3  42
ATOM     42  C19 0LI d   1      -1.167  -0.469  18.563  0.00  0.00     0.418 C 
ATOM     43  F1  0LI d   1      -0.987   0.180  17.388  0.00  0.00    -0.166 F 
ATOM     44  F2  0LI d   1      -2.298   0.051  19.143  0.00  0.00    -0.166 F 
ATOM     45  F3  0LI d   1      -0.147  -0.027  19.339  0.00  0.00    -0.166 F 
ENDBRANCH   3  42
BRANCH   5  46
ATOM     46  C20 0LI d   1      -1.571  -2.336  20.832  0.00  0.00     0.108 C 
ATOM     47  H   0LI d   1      -1.029  -1.384  20.934  0.00  0.00     0.083 H 
ATOM     48  H   0LI d   1      -2.649  -2.159  20.959  0.00  0.00     0.083 H 
BRANCH  46  49
ATOM     49  N3  0LI d   1      -1.129  -3.224  21.919  0.00  0.00    -0.064 N 
ATOM     50  C21 0LI d   1       0.301  -3.008  22.220  0.00  0.00     0.106 C 
ATOM     51  C22 0LI d   1       0.650  -4.010  23.287  0.00  0.00     0.105 C 
ATOM     52  H   0LI d   1       0.465  -1.984  22.587  0.00  0.00     0.078 H 
ATOM     53  H   0LI d   1       0.912  -3.177  21.321  0.00  0.00     0.078 H 
ATOM     54  N4  0LI d   1      -0.192  -3.656  24.464  0.00  0.00    -0.072 N 
ATOM     55  H   0LI d   1       1.717  -3.940  23.544  0.00  0.00     0.078 H 
ATOM     56  H   0LI d   1       0.421  -5.030  22.945  0.00  0.00     0.078 H 
ATOM     57  C23 0LI d   1      -1.640  -3.927  24.258  0.00  0.00     0.105 C 
ATOM     58  H   0LI d   1      -0.099  -2.662  24.605  0.00  0.00     0.279 HD
ATOM     59  C24 0LI d   1      -2.118  -3.155  23.033  0.00  0.00     0.106 C 
ATOM     60  H   0LI d   1      -1.795  -5.004  24.099  0.00  0.00     0.078 H 
ATOM     61  H   0LI d   1      -2.206  -3.602  25.143  0.00  0.00     0.078 H 
ATOM     62  H   0LI d   1      -3.071  -3.584  22.691  0.00  0.00     0.078 H 
ATOM     63  H   0LI d   1      -2.269  -2.102  23.312  0.00  0.00     0.078 H 
ATOM     64  H   0LI d   1      -1.184  -4.168  21.570  0.00  0.00     0.280 HD
BRANCH  54  65
ATOM     65  C25 0LI d   1       0.320  -4.324  25.681  0.00  0.00     0.066 C 
ATOM     66  H   0LI d   1       1.391  -4.101  25.799  0.00  0.00     0.068 H 
ATOM     67  H   0LI d   1       0.180  -5.411  25.589  0.00  0.00     0.068 H 
ATOM     68  H   0LI d   1      -0.230  -3.957  26.560  0.00  0.00     0.068 H 
ENDBRANCH  54  65
ENDBRANCH  46  49
ENDBRANCH   5  46
TORSDOF 9
