REMARK  3 active torsions:
REMARK  status: ('A' for Active; 'I' for Inactive)
REMARK    1  A    between atoms: C1_1  and  C2_2 
REMARK    2  A    between atoms: C5_5  and  C6_6 
REMARK    3  A    between atoms: C10_10  and  C13_13 
REMARK       I    between atoms: C13_13  and  N15_15 
ROOT
ATOM      1  C2  TJM d   1       0.499  -3.936  -2.346  0.00  0.00    -0.020 A 
ATOM      2  C3  TJM d   1      -0.307  -3.418  -1.360  0.00  0.00    -0.058 A 
ATOM      3  C4  TJM d   1       0.420  -2.937  -0.236  0.00  0.00     0.006 A 
ATOM      4  C5  TJM d   1       1.786  -3.095  -0.363  0.00  0.00    -0.008 A 
ATOM      5  S7  TJM d   1       2.160  -3.819  -1.892  0.00  0.00    -0.099 SA
ATOM      6  C8  TJM d   1      -0.308  -2.355   0.866  0.00  0.00     0.064 A 
ATOM      7  C9  TJM d   1       0.083  -1.225   1.635  0.00  0.00    -0.020 A 
ATOM      8  C10 TJM d   1      -0.963  -1.061   2.522  0.00  0.00     0.146 A 
ATOM      9  N11 TJM d   1      -1.854  -2.055   2.228  0.00  0.00    -0.169 NA
ATOM     10  N12 TJM d   1      -1.491  -2.859   1.221  0.00  0.00    -0.277 N 
ATOM     11  H   TJM d   1      -1.393  -3.380  -1.432  0.00  0.00     0.086 H 
ATOM     12  H   TJM d   1       0.991  -0.630   1.546  0.00  0.00     0.091 H 
ATOM     13  H   TJM d   1      -1.997  -3.663   0.822  0.00  0.00     0.189 HD
ENDROOT
BRANCH   4  14
ATOM     14  C6  TJM d   1       2.828  -2.716   0.594  0.00  0.00    -0.044 C 
ATOM     15  H   TJM d   1       3.815  -2.980   0.186  0.00  0.00     0.034 H 
ATOM     16  H   TJM d   1       2.668  -3.252   1.541  0.00  0.00     0.034 H 
ATOM     17  H   TJM d   1       2.784  -1.632   0.774  0.00  0.00     0.034 H 
ENDBRANCH   4  14
BRANCH   1  18
ATOM     18  C1  TJM d   1       0.072  -4.510  -3.634  0.00  0.00    -0.045 C 
ATOM     19  H   TJM d   1      -1.025  -4.480  -3.703  0.00  0.00     0.034 H 
ATOM     20  H   TJM d   1       0.415  -5.553  -3.703  0.00  0.00     0.034 H 
ATOM     21  H   TJM d   1       0.507  -3.926  -4.458  0.00  0.00     0.034 H 
ENDBRANCH   1  18
BRANCH   8  22
ATOM     22  C13 TJM d   1      -1.230  -0.127   3.565  0.00  0.00     0.269 C 
ATOM     23  O14 TJM d   1      -2.128  -0.333   4.355  0.00  0.00    -0.266 OA
ATOM     24  N15 TJM d   1      -0.430   0.996   3.612  0.00  0.00    -0.365 N 
ATOM     25  H   TJM d   1      -0.575   1.683   4.324  0.00  0.00     0.159 HD
ATOM     26  H   TJM d   1       0.294   1.123   2.934  0.00  0.00     0.159 HD
ENDBRANCH   8  22
TORSDOF 3
