REMARK  3 active torsions:
REMARK  status: ('A' for Active; 'I' for Inactive)
REMARK    1  A    between atoms: C01_1  and  N05_2 
REMARK    2  A    between atoms: C11_6  and  C22_13 
REMARK    3  A    between atoms: N15_9  and  C16_10 
REMARK       I    between atoms: C22_13  and  N23_14 
ROOT
ATOM      1  N05 V1T d   1      23.793  50.286  -0.999  0.00  0.00    -0.302 N 
ATOM      2  C06 V1T d   1      25.108  50.687  -0.790  0.00  0.00     0.065 A 
ATOM      3  C07 V1T d   1      25.874  51.675  -1.387  0.00  0.00    -0.054 A 
ATOM      4  C09 V1T d   1      27.179  51.851  -0.956  0.00  0.00    -0.065 A 
ATOM      5  C11 V1T d   1      27.728  51.048   0.049  0.00  0.00     0.034 A 
ATOM      6  C12 V1T d   1      26.946  50.056   0.654  0.00  0.00    -0.039 A 
ATOM      7  C14 V1T d   1      25.639  49.886   0.212  0.00  0.00     0.066 A 
ATOM      8  N15 V1T d   1      24.624  49.000   0.595  0.00  0.00    -0.302 N 
ATOM      9  C20 V1T d   1      23.491  49.238  -0.157  0.00  0.00     0.329 A 
ATOM     10  O21 V1T d   1      22.421  48.655  -0.074  0.00  0.00    -0.246 OA
ATOM     11  H   V1T d   1      25.462  52.296  -2.174  0.00  0.00     0.087 H 
ATOM     12  H   V1T d   1      27.787  52.627  -1.407  0.00  0.00     0.085 H 
ATOM     13  H   V1T d   1      27.350  49.437   1.447  0.00  0.00     0.088 H 
ENDROOT
BRANCH   5  14
ATOM     14  C22 V1T d   1      29.145  51.263   0.513  0.00  0.00     0.249 C 
ATOM     15  N23 V1T d   1      29.924  52.077  -0.196  0.00  0.00    -0.366 N 
ATOM     16  H   V1T d   1      30.869  52.238   0.089  0.00  0.00     0.159 HD
ATOM     17  H   V1T d   1      29.564  52.527  -1.013  0.00  0.00     0.159 HD
ATOM     18  O26 V1T d   1      29.540  50.712   1.548  0.00  0.00    -0.268 OA
ENDBRANCH   5  14
BRANCH   8  19
ATOM     19  C16 V1T d   1      24.728  47.963   1.621  0.00  0.00    -0.009 C 
ATOM     20  H   V1T d   1      25.733  47.987   2.066  0.00  0.00     0.057 H 
ATOM     21  H   V1T d   1      24.553  46.977   1.165  0.00  0.00     0.057 H 
ATOM     22  H   V1T d   1      23.976  48.144   2.403  0.00  0.00     0.057 H 
ENDBRANCH   8  19
BRANCH   1  23
ATOM     23  C01 V1T d   1      22.866  50.854  -1.970  0.00  0.00    -0.009 C 
ATOM     24  H   V1T d   1      23.359  51.676  -2.510  0.00  0.00     0.057 H 
ATOM     25  H   V1T d   1      21.978  51.239  -1.448  0.00  0.00     0.057 H 
ATOM     26  H   V1T d   1      22.562  50.076  -2.686  0.00  0.00     0.057 H 
ENDBRANCH   1  23
TORSDOF 3
