REMARK  6 active torsions:
REMARK  status: ('A' for Active; 'I' for Inactive)
REMARK    1  A    between atoms: C1_1  and  C2_2 
REMARK    2  A    between atoms: C4_4  and  N1_5 
REMARK    3  A    between atoms: N1_5  and  C5_6 
REMARK    4  A    between atoms: C13_15  and  C19_23 
REMARK       I    between atoms: N2_19  and  C17_20 
REMARK    5  A    between atoms: C17_20  and  C18_21 
REMARK    6  A    between atoms: C22_26  and  C25_29 
ROOT
ATOM      1  C2  73B d   1       4.096 -26.442  14.815  0.00  0.00     0.018 C 
ATOM      2  C3  73B d   1       5.141 -26.840  15.890  0.00  0.00    -0.023 C 
ATOM      3  C4  73B d   1       6.606 -26.657  15.467  0.00  0.00     0.039 C 
ATOM      4  C11 73B d   1       6.770 -27.128  14.066  0.00  0.00    -0.008 A 
ATOM      5  C12 73B d   1       7.837 -27.961  13.715  0.00  0.00    -0.062 A 
ATOM      6  C13 73B d   1       7.970 -28.440  12.406  0.00  0.00    -0.025 A 
ATOM      7  C14 73B d   1       7.020 -28.056  11.465  0.00  0.00    -0.070 A 
ATOM      8  C15 73B d   1       5.934 -27.273  11.811  0.00  0.00    -0.056 A 
ATOM      9  C16 73B d   1       5.826 -26.809  13.103  0.00  0.00     0.046 A 
ATOM     10  N2  73B d   1       4.749 -25.993  13.561  0.00  0.00    -0.313 N 
ATOM     11  C17 73B d   1       4.279 -24.884  12.945  0.00  0.00     0.220 C 
ATOM     12  O1  73B d   1       3.547 -24.108  13.532  0.00  0.00    -0.273 OA
ATOM     13  H   73B d   1       3.530 -25.588  15.215  0.00  0.00     0.073 H 
ATOM     14  H   73B d   1       4.987 -27.900  16.140  0.00  0.00     0.039 H 
ATOM     15  H   73B d   1       4.964 -26.223  16.784  0.00  0.00     0.039 H 
ATOM     16  H   73B d   1       6.827 -25.580  15.497  0.00  0.00     0.080 H 
ATOM     17  H   73B d   1       8.569 -28.239  14.464  0.00  0.00     0.085 H 
ATOM     18  H   73B d   1       7.134 -28.378  10.436  0.00  0.00     0.084 H 
ATOM     19  H   73B d   1       5.177 -27.028  11.075  0.00  0.00     0.087 H 
ENDROOT
BRANCH   3  20
ATOM     20  N1  73B d   1       7.568 -27.322  16.343  0.00  0.00    -0.381 N 
ATOM     21  H   73B d   1       7.334 -28.248  16.729  0.00  0.00     0.160 HD
BRANCH  20  22
ATOM     22  C5  73B d   1       8.803 -26.739  16.676  0.00  0.00     0.028 A 
ATOM     23  C6  73B d   1       9.265 -25.604  16.005  0.00  0.00    -0.056 A 
ATOM     24  C7  73B d   1      10.474 -25.015  16.365  0.00  0.00    -0.060 A 
ATOM     25  H   73B d   1       8.678 -25.179  15.199  0.00  0.00     0.087 H 
ATOM     26  C8  73B d   1      11.217 -25.536  17.394  0.00  0.00     0.034 A 
ATOM     27  H   73B d   1      10.830 -24.142  15.830  0.00  0.00     0.086 H 
ATOM     28 CL1  73B d   1      12.726 -24.752  17.802  0.00  0.00    -0.084 Cl
ATOM     29  C9  73B d   1      10.789 -26.655  18.090  0.00  0.00    -0.060 A 
ATOM     30  C10 73B d   1       9.581 -27.256  17.739  0.00  0.00    -0.056 A 
ATOM     31  H   73B d   1      11.387 -27.059  18.899  0.00  0.00     0.086 H 
ATOM     32  H   73B d   1       9.235 -28.126  18.285  0.00  0.00     0.087 H 
ENDBRANCH  20  22
ENDBRANCH   3  20
BRANCH   1  33
ATOM     33  C1  73B d   1       3.101 -27.550  14.538  0.00  0.00    -0.057 C 
ATOM     34  H   73B d   1       2.631 -27.865  15.481  0.00  0.00     0.030 H 
ATOM     35  H   73B d   1       3.622 -28.406  14.084  0.00  0.00     0.030 H 
ATOM     36  H   73B d   1       2.327 -27.184  13.847  0.00  0.00     0.030 H 
ENDBRANCH   1  33
BRANCH   6  37
ATOM     37  C19 73B d   1       9.101 -29.335  12.017  0.00  0.00    -0.026 A 
ATOM     38  C20 73B d   1       9.643 -29.295  10.723  0.00  0.00    -0.071 A 
ATOM     39  C21 73B d   1      10.804 -29.995  10.403  0.00  0.00    -0.066 A 
ATOM     40  H   73B d   1       9.149 -28.708   9.958  0.00  0.00     0.084 H 
ATOM     41  C22 73B d   1      11.442 -30.797  11.358  0.00  0.00     0.040 A 
ATOM     42  H   73B d   1      11.218 -29.918   9.404  0.00  0.00     0.085 H 
ATOM     43  C23 73B d   1      10.894 -30.868  12.634  0.00  0.00    -0.066 A 
ATOM     44  C24 73B d   1       9.732 -30.163  12.952  0.00  0.00    -0.071 A 
ATOM     45  H   73B d   1      11.375 -31.478  13.390  0.00  0.00     0.085 H 
ATOM     46  H   73B d   1       9.309 -30.259  13.945  0.00  0.00     0.084 H 
BRANCH  41  47
ATOM     47  C25 73B d   1      12.683 -31.561  11.019  0.00  0.00     0.209 C 
ATOM     48  O2  73B d   1      13.335 -32.129  11.979  0.00  0.00    -0.644 OA
ATOM     49  O3  73B d   1      13.050 -31.670   9.857  0.00  0.00    -0.644 OA
ENDBRANCH  41  47
ENDBRANCH   6  37
BRANCH  11  50
ATOM     50  C18 73B d   1       4.695 -24.616  11.530  0.00  0.00    -0.002 C 
ATOM     51  H   73B d   1       4.229 -23.683  11.181  0.00  0.00     0.040 H 
ATOM     52  H   73B d   1       4.372 -25.449  10.889  0.00  0.00     0.040 H 
ATOM     53  H   73B d   1       5.790 -24.519  11.482  0.00  0.00     0.040 H 
ENDBRANCH  11  50
TORSDOF 6
