REMARK  7 active torsions:
REMARK  status: ('A' for Active; 'I' for Inactive)
REMARK    1  A    between atoms: C17_2  and  C18_3 
REMARK       I    between atoms: C17_2  and  N2_4 
REMARK    2  A    between atoms: C2_5  and  C1_6 
REMARK    3  A    between atoms: C4_9  and  N1_10 
REMARK    4  A    between atoms: N1_10  and  C5_11 
REMARK    5  A    between atoms: C13_20  and  C19_22 
REMARK    6  A    between atoms: C22_25  and  C23_28 
REMARK    7  A    between atoms: C23_28  and  N3_29 
ROOT
ATOM      1  O   9S3 d   1      21.499   8.469  -8.019  0.00  0.00    -0.273 OA
ATOM      2  C17 9S3 d   1      20.386   8.908  -8.269  0.00  0.00     0.220 C 
ATOM      3  N2  9S3 d   1      20.099   9.358  -9.528  0.00  0.00    -0.313 N 
ATOM      4  C2  9S3 d   1      21.215   9.330 -10.520  0.00  0.00     0.018 C 
ATOM      5  C16 9S3 d   1      18.812   9.785  -9.986  0.00  0.00     0.046 A 
ATOM      6  C11 9S3 d   1      18.832  10.919 -10.735  0.00  0.00    -0.008 A 
ATOM      7  C4  9S3 d   1      20.126  11.611 -11.065  0.00  0.00     0.039 C 
ATOM      8  C3  9S3 d   1      21.181  10.570 -11.420  0.00  0.00    -0.023 C 
ATOM      9  C15 9S3 d   1      17.628   9.101  -9.685  0.00  0.00    -0.056 A 
ATOM     10  C14 9S3 d   1      16.430   9.597 -10.189  0.00  0.00    -0.070 A 
ATOM     11  C13 9S3 d   1      16.420  10.757 -10.983  0.00  0.00    -0.025 A 
ATOM     12  C12 9S3 d   1      17.634  11.410 -11.264  0.00  0.00    -0.062 A 
ATOM     13  H   9S3 d   1      22.157   9.377  -9.953  0.00  0.00     0.073 H 
ATOM     14  H   9S3 d   1      20.468  12.159 -10.175  0.00  0.00     0.080 H 
ATOM     15  H   9S3 d   1      20.993  10.235 -12.451  0.00  0.00     0.039 H 
ATOM     16  H   9S3 d   1      22.167  11.055 -11.366  0.00  0.00     0.039 H 
ATOM     17  H   9S3 d   1      17.644   8.206  -9.074  0.00  0.00     0.087 H 
ATOM     18  H   9S3 d   1      15.500   9.086  -9.968  0.00  0.00     0.084 H 
ATOM     19  H   9S3 d   1      17.641  12.294 -11.891  0.00  0.00     0.085 H 
ENDROOT
BRANCH  11  20
ATOM     20  C19 9S3 d   1      15.143  11.275 -11.557  0.00  0.00    -0.026 A 
ATOM     21  C30 9S3 d   1      13.908  11.060 -10.936  0.00  0.00    -0.072 A 
ATOM     22  C29 9S3 d   1      12.733  11.539 -11.512  0.00  0.00    -0.074 A 
ATOM     23  H   9S3 d   1      13.865  10.516  -9.999  0.00  0.00     0.084 H 
ATOM     24  C22 9S3 d   1      12.788  12.218 -12.728  0.00  0.00    -0.033 A 
ATOM     25  H   9S3 d   1      11.781  11.384 -11.017  0.00  0.00     0.084 H 
ATOM     26  C21 9S3 d   1      14.006  12.426 -13.363  0.00  0.00    -0.074 A 
ATOM     27  C20 9S3 d   1      15.174  11.950 -12.785  0.00  0.00    -0.072 A 
ATOM     28  H   9S3 d   1      14.044  12.958 -14.307  0.00  0.00     0.084 H 
ATOM     29  H   9S3 d   1      16.122  12.102 -13.289  0.00  0.00     0.084 H 
BRANCH  24  30
ATOM     30  C23 9S3 d   1      11.533  12.761 -13.354  0.00  0.00     0.107 C 
ATOM     31  H   9S3 d   1      10.696  12.088 -13.115  0.00  0.00     0.083 H 
ATOM     32  H   9S3 d   1      11.669  12.803 -14.445  0.00  0.00     0.083 H 
BRANCH  30  33
ATOM     33  N3  9S3 d   1      11.216  14.101 -12.865  0.00  0.00    -0.067 N 
ATOM     34  C28 9S3 d   1      11.947  15.126 -13.598  0.00  0.00     0.084 C 
ATOM     35  C27 9S3 d   1      11.774  16.423 -12.810  0.00  0.00    -0.042 C 
ATOM     36  H   9S3 d   1      11.533  15.238 -14.611  0.00  0.00     0.076 H 
ATOM     37  H   9S3 d   1      13.012  14.860 -13.664  0.00  0.00     0.076 H 
ATOM     38  C26 9S3 d   1      10.304  16.824 -12.750  0.00  0.00    -0.062 C 
ATOM     39  H   9S3 d   1      12.347  17.223 -13.301  0.00  0.00     0.035 H 
ATOM     40  H   9S3 d   1      12.151  16.277 -11.787  0.00  0.00     0.035 H 
ATOM     41  C25 9S3 d   1       9.450  15.671 -12.238  0.00  0.00    -0.042 C 
ATOM     42  H   9S3 d   1       9.965  17.104 -13.758  0.00  0.00     0.033 H 
ATOM     43  H   9S3 d   1      10.192  17.684 -12.073  0.00  0.00     0.033 H 
ATOM     44  C24 9S3 d   1       9.816  14.371 -12.944  0.00  0.00     0.084 C 
ATOM     45  H   9S3 d   1       8.390  15.897 -12.425  0.00  0.00     0.035 H 
ATOM     46  H   9S3 d   1       9.614  15.553 -11.157  0.00  0.00     0.035 H 
ATOM     47  H   9S3 d   1       9.266  13.543 -12.473  0.00  0.00     0.076 H 
ATOM     48  H   9S3 d   1       9.527  14.447 -14.003  0.00  0.00     0.076 H 
ATOM     49  H   9S3 d   1      11.492  14.149 -11.897  0.00  0.00     0.280 HD
ENDBRANCH  30  33
ENDBRANCH  24  30
ENDBRANCH  11  20
BRANCH   7  50
ATOM     50  N1  9S3 d   1      19.927  12.574 -12.140  0.00  0.00    -0.381 N 
ATOM     51  H   9S3 d   1      20.005  12.249 -13.114  0.00  0.00     0.160 HD
BRANCH  50  52
ATOM     52  C5  9S3 d   1      19.641  13.890 -11.909  0.00  0.00     0.028 A 
ATOM     53  C10 9S3 d   1      19.672  14.773 -12.993  0.00  0.00    -0.058 A 
ATOM     54  C9  9S3 d   1      19.410  16.129 -12.808  0.00  0.00    -0.081 A 
ATOM     55  H   9S3 d   1      19.902  14.400 -13.985  0.00  0.00     0.086 H 
ATOM     56  C8  9S3 d   1      19.119  16.615 -11.535  0.00  0.00    -0.083 A 
ATOM     57  H   9S3 d   1      19.433  16.806 -13.655  0.00  0.00     0.083 H 
ATOM     58  C7  9S3 d   1      19.090  15.749 -10.444  0.00  0.00    -0.081 A 
ATOM     59  H   9S3 d   1      18.915  17.670 -11.393  0.00  0.00     0.083 H 
ATOM     60  C6  9S3 d   1      19.347  14.392 -10.632  0.00  0.00    -0.058 A 
ATOM     61  H   9S3 d   1      18.869  16.129  -9.453  0.00  0.00     0.083 H 
ATOM     62  H   9S3 d   1      19.320  13.718  -9.784  0.00  0.00     0.086 H 
ENDBRANCH  50  52
ENDBRANCH   7  50
BRANCH   2  63
ATOM     63  C18 9S3 d   1      19.306   8.961  -7.221  0.00  0.00    -0.002 C 
ATOM     64  H   9S3 d   1      18.392   9.389  -7.658  0.00  0.00     0.040 H 
ATOM     65  H   9S3 d   1      19.640   9.589  -6.382  0.00  0.00     0.040 H 
ATOM     66  H   9S3 d   1      19.098   7.944  -6.857  0.00  0.00     0.040 H 
ENDBRANCH   2  63
BRANCH   4  67
ATOM     67  C1  9S3 d   1      21.231   8.014 -11.287  0.00  0.00    -0.057 C 
ATOM     68  H   9S3 d   1      22.061   8.021 -12.009  0.00  0.00     0.030 H 
ATOM     69  H   9S3 d   1      20.279   7.891 -11.824  0.00  0.00     0.030 H 
ATOM     70  H   9S3 d   1      21.365   7.180 -10.582  0.00  0.00     0.030 H 
ENDBRANCH   4  67
TORSDOF 7
