REMARK  7 active torsions:
REMARK  status: ('A' for Active; 'I' for Inactive)
REMARK    1  A    between atoms: C16_2  and  O18_3 
REMARK    2  A    between atoms: C16_2  and  C7_6 
REMARK    3  A    between atoms: O18_3  and  C19_4 
REMARK    4  A    between atoms: C19_4  and  C20_5 
REMARK    5  A    between atoms: C2_11  and  C15_20 
REMARK    6  A    between atoms: C23_22  and  S25_25 
REMARK    7  A    between atoms: S25_25  and  C26_26 
ROOT
ATOM      1  C7  Y3M d   1      26.173  -8.029  12.229  0.00  0.00     0.138 A 
ATOM      2  C3  Y3M d   1      26.862  -6.712  12.382  0.00  0.00     0.098 A 
ATOM      3  N6  Y3M d   1      25.838  -8.532  13.448  0.00  0.00    -0.358 N 
ATOM      4  C5  Y3M d   1      26.250  -7.675  14.432  0.00  0.00    -0.013 A 
ATOM      5  C4  Y3M d   1      26.889  -6.560  13.825  0.00  0.00     0.000 A 
ATOM      6  C2  Y3M d   1      27.495  -5.425  14.497  0.00  0.00     0.037 A 
ATOM      7  C8  Y3M d   1      28.063  -4.479  13.524  0.00  0.00     0.055 A 
ATOM      8  C13 Y3M d   1      28.741  -3.248  14.053  0.00  0.00     0.137 C 
ATOM      9  O14 Y3M d   1      28.794  -3.050  15.256  0.00  0.00    -0.297 OA
ATOM     10  C12 Y3M d   1      29.330  -2.258  13.090  0.00  0.00    -0.009 C 
ATOM     11  C11 Y3M d   1      29.756  -2.951  11.794  0.00  0.00    -0.054 C 
ATOM     12  C10 Y3M d   1      28.579  -3.674  11.107  0.00  0.00    -0.027 C 
ATOM     13  C9  Y3M d   1      27.978  -4.706  12.046  0.00  0.00     0.025 A 
ATOM     14  N1  Y3M d   1      27.388  -5.808  11.534  0.00  0.00    -0.254 NA
ATOM     15  H   Y3M d   1      25.348  -9.424  13.606  0.00  0.00     0.165 HD
ATOM     16  H   Y3M d   1      26.111  -7.823  15.502  0.00  0.00     0.112 H 
ATOM     17  H   Y3M d   1      28.310  -5.778  15.146  0.00  0.00     0.059 H 
ATOM     18  H   Y3M d   1      29.017  -5.027  13.547  0.00  0.00     0.062 H 
ATOM     19  H   Y3M d   1      30.209  -1.784  13.552  0.00  0.00     0.044 H 
ATOM     20  H   Y3M d   1      28.578  -1.489  12.858  0.00  0.00     0.044 H 
ATOM     21  H   Y3M d   1      30.538  -3.689  12.027  0.00  0.00     0.034 H 
ATOM     22  H   Y3M d   1      30.159  -2.195  11.104  0.00  0.00     0.034 H 
ATOM     23  H   Y3M d   1      28.942  -4.177  10.198  0.00  0.00     0.042 H 
ATOM     24  H   Y3M d   1      27.808  -2.937  10.835  0.00  0.00     0.042 H 
ENDROOT
BRANCH   6  25
ATOM     25  C15 Y3M d   1      26.444  -4.821  15.334  0.00  0.00     0.064 A 
ATOM     26  O24 Y3M d   1      26.071  -5.419  16.491  0.00  0.00    -0.307 OA
ATOM     27  C23 Y3M d   1      25.066  -4.613  16.884  0.00  0.00     0.120 A 
ATOM     28  C22 Y3M d   1      24.814  -3.523  16.044  0.00  0.00    -0.041 A 
ATOM     29  C21 Y3M d   1      25.734  -3.667  15.007  0.00  0.00    -0.050 A 
ATOM     30  H   Y3M d   1      24.068  -2.740  16.172  0.00  0.00     0.088 H 
ATOM     31  H   Y3M d   1      25.868  -3.024  14.138  0.00  0.00     0.087 H 
BRANCH  27  32
ATOM     32  S25 Y3M d   1      24.207  -5.009  18.347  0.00  0.00    -0.027 SA
BRANCH  32  33
ATOM     33  C26 Y3M d   1      25.049  -4.476  19.774  0.00  0.00     0.174 A 
ATOM     34  N28 Y3M d   1      24.662  -4.749  21.021  0.00  0.00    -0.333 N 
ATOM     35  C29 Y3M d   1      25.566  -4.087  21.778  0.00  0.00     0.063 A 
ATOM     36  H   Y3M d   1      23.867  -5.325  21.332  0.00  0.00     0.168 HD
ATOM     37  C34 Y3M d   1      25.693  -3.947  23.153  0.00  0.00    -0.055 A 
ATOM     38  C30 Y3M d   1      26.481  -3.446  20.928  0.00  0.00     0.086 A 
ATOM     39  C33 Y3M d   1      26.715  -3.153  23.669  0.00  0.00    -0.081 A 
ATOM     40  H   Y3M d   1      25.003  -4.451  23.820  0.00  0.00     0.087 H 
ATOM     41  C32 Y3M d   1      27.621  -2.516  22.822  0.00  0.00    -0.081 A 
ATOM     42  H   Y3M d   1      26.807  -3.029  24.742  0.00  0.00     0.083 H 
ATOM     43  C31 Y3M d   1      27.518  -2.672  21.451  0.00  0.00    -0.053 A 
ATOM     44  H   Y3M d   1      28.408  -1.897  23.238  0.00  0.00     0.083 H 
ATOM     45  H   Y3M d   1      28.235  -2.198  20.790  0.00  0.00     0.087 H 
ATOM     46  N27 Y3M d   1      26.136  -3.711  19.659  0.00  0.00    -0.222 NA
ENDBRANCH  32  33
ENDBRANCH  27  32
ENDBRANCH   6  25
BRANCH   1  47
ATOM     47  C16 Y3M d   1      25.958  -8.584  10.856  0.00  0.00     0.312 C 
ATOM     48  O17 Y3M d   1      25.411  -9.661  10.671  0.00  0.00    -0.258 OA
BRANCH  47  49
ATOM     49  O18 Y3M d   1      26.417  -7.830   9.700  0.00  0.00    -0.317 OA
BRANCH  49  50
ATOM     50  C19 Y3M d   1      26.207  -8.337   8.384  0.00  0.00     0.026 C 
ATOM     51  H   Y3M d   1      26.126  -9.433   8.422  0.00  0.00     0.074 H 
ATOM     52  H   Y3M d   1      27.055  -8.054   7.742  0.00  0.00     0.074 H 
BRANCH  50  53
ATOM     53  C20 Y3M d   1      24.928  -7.755   7.817  0.00  0.00    -0.056 C 
ATOM     54  H   Y3M d   1      24.766  -8.146   6.802  0.00  0.00     0.030 H 
ATOM     55  H   Y3M d   1      25.009  -6.659   7.779  0.00  0.00     0.030 H 
ATOM     56  H   Y3M d   1      24.080  -8.038   8.459  0.00  0.00     0.030 H 
ENDBRANCH  50  53
ENDBRANCH  49  50
ENDBRANCH  47  49
ENDBRANCH   1  47
TORSDOF 7
