REMARK  7 active torsions:
REMARK  status: ('A' for Active; 'I' for Inactive)
REMARK    1  A    between atoms: C20_20  and  C1_1 
REMARK    2  A    between atoms: C7_7  and  C15_15 
REMARK    3  A    between atoms: C15_15  and  O17_17 
REMARK    4  A    between atoms: O17_17  and  C18_18 
REMARK    5  A    between atoms: C18_18  and  C19_19 
REMARK    6  A    between atoms: O35_35  and  C22_22 
REMARK    7  A    between atoms: C33_33  and  O35_35 
ROOT
ATOM      1  C1  QMN d   1      58.274 -10.128  44.410  0.00  0.00     0.031 A 
ATOM      2  N2  QMN d   1      58.277 -11.463  41.863  0.00  0.00    -0.356 N 
ATOM      3  C3  QMN d   1      57.484 -11.984  42.850  0.00  0.00     0.074 A 
ATOM      4  C4  QMN d   1      57.496 -11.407  44.158  0.00  0.00    -0.000 A 
ATOM      5  C5  QMN d   1      56.647 -12.178  44.921  0.00  0.00    -0.013 A 
ATOM      6  N6  QMN d   1      56.133 -13.160  44.137  0.00  0.00    -0.359 N 
ATOM      7  C7  QMN d   1      56.645 -13.063  42.868  0.00  0.00     0.135 A 
ATOM      8  C8  QMN d   1      59.091  -9.671  43.205  0.00  0.00     0.023 A 
ATOM      9  C9  QMN d   1      59.106 -10.381  42.039  0.00  0.00     0.020 A 
ATOM     10  C10 QMN d   1      59.935 -10.000  40.853  0.00  0.00    -0.026 C 
ATOM     11  C11 QMN d   1      60.404  -8.550  40.828  0.00  0.00    -0.054 C 
ATOM     12  C12 QMN d   1      60.803  -8.030  42.196  0.00  0.00    -0.005 C 
ATOM     13  C13 QMN d   1      59.858  -8.420  43.303  0.00  0.00     0.158 C 
ATOM     14  O14 QMN d   1      59.780  -7.706  44.291  0.00  0.00    -0.293 OA
ATOM     15  H   QMN d   1      59.001 -10.351  45.205  0.00  0.00     0.062 H 
ATOM     16  H   QMN d   1      58.251 -11.908  40.934  0.00  0.00     0.166 HD
ATOM     17  H   QMN d   1      56.425 -12.025  45.976  0.00  0.00     0.112 H 
ATOM     18  H   QMN d   1      55.458 -13.873  44.449  0.00  0.00     0.165 HD
ATOM     19  H   QMN d   1      59.337 -10.180  39.948  0.00  0.00     0.042 H 
ATOM     20  H   QMN d   1      60.825 -10.646  40.838  0.00  0.00     0.042 H 
ATOM     21  H   QMN d   1      59.587  -7.924  40.440  0.00  0.00     0.034 H 
ATOM     22  H   QMN d   1      61.273  -8.475  40.158  0.00  0.00     0.034 H 
ATOM     23  H   QMN d   1      60.845  -6.932  42.149  0.00  0.00     0.044 H 
ATOM     24  H   QMN d   1      61.800  -8.425  42.438  0.00  0.00     0.044 H 
ENDROOT
BRANCH   1  25
ATOM     25  C20 QMN d   1      57.342  -9.042  44.958  0.00  0.00    -0.042 C 
ATOM     26  C21 QMN d   1      56.956  -9.071  46.293  0.00  0.00    -0.043 C 
ATOM     27  C22 QMN d   1      55.760  -8.481  46.693  0.00  0.00     0.080 C 
ATOM     28  H   QMN d   1      57.590  -9.556  47.027  0.00  0.00     0.088 H 
ATOM     29  C23 QMN d   1      54.986  -7.776  45.790  0.00  0.00    -0.050 C 
ATOM     30  C24 QMN d   1      55.431  -7.644  44.489  0.00  0.00    -0.080 C 
ATOM     31  H   QMN d   1      54.045  -7.334  46.098  0.00  0.00     0.087 H 
ATOM     32  C25 QMN d   1      56.601  -8.262  44.079  0.00  0.00    -0.076 C 
ATOM     33  H   QMN d   1      54.860  -7.052  43.783  0.00  0.00     0.083 H 
ATOM     34  H   QMN d   1      56.943  -8.135  43.058  0.00  0.00     0.084 H 
BRANCH  27  35
ATOM     35  O35 QMN d   1      55.255  -8.654  48.010  0.00  0.00    -0.278 OA
BRANCH  35  36
ATOM     36  C33 QMN d   1      56.008  -8.064  48.989  0.00  0.00     0.252 A 
ATOM     37  N32 QMN d   1      57.167  -7.415  48.654  0.00  0.00    -0.206 NA
ATOM     38  C31 QMN d   1      57.684  -6.948  49.849  0.00  0.00     0.087 A 
ATOM     39  C28 QMN d   1      58.778  -6.140  50.131  0.00  0.00    -0.053 A 
ATOM     40  C30 QMN d   1      56.783  -7.350  50.841  0.00  0.00     0.064 A 
ATOM     41  C27 QMN d   1      58.945  -5.713  51.442  0.00  0.00    -0.081 A 
ATOM     42  H   QMN d   1      59.477  -5.853  49.354  0.00  0.00     0.087 H 
ATOM     43  C26 QMN d   1      58.048  -6.104  52.443  0.00  0.00    -0.081 A 
ATOM     44  H   QMN d   1      59.780  -5.069  51.693  0.00  0.00     0.083 H 
ATOM     45  C29 QMN d   1      56.971  -6.937  52.159  0.00  0.00    -0.055 A 
ATOM     46  H   QMN d   1      58.195  -5.751  53.457  0.00  0.00     0.083 H 
ATOM     47  H   QMN d   1      56.294  -7.257  52.943  0.00  0.00     0.087 H 
ATOM     48  N34 QMN d   1      55.725  -8.059  50.273  0.00  0.00    -0.318 N 
ATOM     49  H   QMN d   1      54.913  -8.480  50.747  0.00  0.00     0.169 HD
ENDBRANCH  35  36
ENDBRANCH  27  35
ENDBRANCH   1  25
BRANCH   7  50
ATOM     50  C15 QMN d   1      56.256 -14.018  41.843  0.00  0.00     0.312 C 
ATOM     51  O16 QMN d   1      55.437 -14.898  42.038  0.00  0.00    -0.258 OA
BRANCH  50  52
ATOM     52  O17 QMN d   1      56.893 -13.778  40.674  0.00  0.00    -0.317 OA
BRANCH  52  53
ATOM     53  C18 QMN d   1      56.685 -14.726  39.579  0.00  0.00     0.026 C 
ATOM     54  H   QMN d   1      56.337 -15.685  39.990  0.00  0.00     0.074 H 
ATOM     55  H   QMN d   1      57.634 -14.879  39.045  0.00  0.00     0.074 H 
BRANCH  53  56
ATOM     56  C19 QMN d   1      55.682 -14.206  38.645  0.00  0.00    -0.056 C 
ATOM     57  H   QMN d   1      55.534 -14.927  37.827  0.00  0.00     0.030 H 
ATOM     58  H   QMN d   1      56.028 -13.248  38.231  0.00  0.00     0.030 H 
ATOM     59  H   QMN d   1      54.731 -14.054  39.176  0.00  0.00     0.030 H 
ENDBRANCH  53  56
ENDBRANCH  52  53
ENDBRANCH  50  52
ENDBRANCH   7  50
TORSDOF 7
