REMARK  1 active torsions:
REMARK  status: ('A' for Active; 'I' for Inactive)
REMARK    1  A    between atoms: C14_7  and  C16_9 
ROOT
ATOM      1  C8  JVE d   1      26.762  -5.727   7.761  0.00  0.00     0.120 C 
ATOM      2  N9  JVE d   1      26.950  -4.260   7.762  0.00  0.00    -0.063 N 
ATOM      3  C10 JVE d   1      27.986  -3.795   8.707  0.00  0.00     0.140 C 
ATOM      4  C11 JVE d   1      27.705  -4.272  10.143  0.00  0.00     0.184 C 
ATOM      5  C12 JVE d   1      26.468  -6.233   9.171  0.00  0.00     0.047 A 
ATOM      6  C13 JVE d   1      26.898  -5.564  10.315  0.00  0.00     0.027 A 
ATOM      7  C14 JVE d   1      26.588  -6.085  11.767  0.00  0.00     0.036 A 
ATOM      8  O15 JVE d   1      28.109  -3.652  11.081  0.00  0.00    -0.291 OA
ATOM      9  C23 JVE d   1      25.394  -8.012  10.491  0.00  0.00     0.156 A 
ATOM     10  C24 JVE d   1      25.781  -7.402  11.743  0.00  0.00     0.020 A 
ATOM     11  N25 JVE d   1      24.714  -9.132  10.695  0.00  0.00    -0.156 NA
ATOM     12  N26 JVE d   1      25.690  -7.502   9.282  0.00  0.00    -0.341 N 
ATOM     13  C27 JVE d   1      25.299  -8.209  12.704  0.00  0.00     0.007 A 
ATOM     14  N28 JVE d   1      24.587  -9.367  12.107  0.00  0.00    -0.287 N 
ATOM     15  H   JVE d   1      27.678  -6.208   7.388  0.00  0.00     0.085 H 
ATOM     16  H   JVE d   1      25.919  -5.983   7.102  0.00  0.00     0.085 H 
ATOM     17  H   JVE d   1      26.075  -3.827   8.011  0.00  0.00     0.278 HD
ATOM     18  H   JVE d   1      27.215  -3.972   6.833  0.00  0.00     0.278 HD
ATOM     19  H   JVE d   1      28.011  -2.695   8.695  0.00  0.00     0.088 H 
ATOM     20  H   JVE d   1      28.962  -4.187   8.386  0.00  0.00     0.088 H 
ATOM     21  H   JVE d   1      27.558  -6.289  12.244  0.00  0.00     0.063 H 
ATOM     22  H   JVE d   1      25.379  -7.989   8.430  0.00  0.00     0.167 HD
ATOM     23  H   JVE d   1      25.415  -8.037  13.773  0.00  0.00     0.114 H 
ATOM     24  H   JVE d   1      24.117 -10.148  12.587  0.00  0.00     0.188 HD
ENDROOT
BRANCH   7  25
ATOM     25  C16 JVE d   1      25.828  -5.071  12.670  0.00  0.00    -0.006 A 
ATOM     26  C17 JVE d   1      26.037  -5.014  14.082  0.00  0.00     0.123 A 
ATOM     27  C19 JVE d   1      25.351  -4.098  14.914  0.00  0.00    -0.045 A 
ATOM     28  F20 JVE d   1      26.910  -5.846  14.676  0.00  0.00    -0.206 F 
ATOM     29  C22 JVE d   1      24.420  -3.200  14.338  0.00  0.00    -0.080 A 
ATOM     30  H   JVE d   1      25.536  -4.084  15.982  0.00  0.00     0.088 H 
ATOM     31  C21 JVE d   1      24.184  -3.223  12.943  0.00  0.00    -0.082 A 
ATOM     32  H   JVE d   1      23.888  -2.495  14.966  0.00  0.00     0.083 H 
ATOM     33  C18 JVE d   1      24.878  -4.148  12.120  0.00  0.00    -0.073 A 
ATOM     34  H   JVE d   1      23.473  -2.534  12.503  0.00  0.00     0.083 H 
ATOM     35  H   JVE d   1      24.686  -4.157  11.053  0.00  0.00     0.084 H 
ENDBRANCH   7  25
TORSDOF 1
