REMARK  9 active torsions:
REMARK  status: ('A' for Active; 'I' for Inactive)
REMARK    1  A    between atoms: C20_12  and  N3_2 
REMARK    2  A    between atoms: C5_4  and  C4_3 
REMARK    3  A    between atoms: C6_5  and  C11_26 
REMARK    4  A    between atoms: N2_29  and  C13_9 
REMARK    5  A    between atoms: C17_11  and  C19_33 
REMARK    6  A    between atoms: C16_31  and  C20_12 
REMARK    7  A    between atoms: C3_24  and  C2_23 
REMARK    8  A    between atoms: C12_27  and  C9_25 
REMARK       I    between atoms: C12_27  and  N2_29 
REMARK    9  A    between atoms: N4_39  and  C25_38 
ROOT
ATOM      1  C13 0LI d   1      88.086   0.847  20.633  0.00  0.00     0.035 A 
ATOM      2  C15 0LI d   1      87.609   1.256  22.939  0.00  0.00    -0.072 A 
ATOM      3  C17 0LI d   1      87.007  -0.839  21.971  0.00  0.00     0.058 A 
ATOM      4  C14 0LI d   1      88.123   1.679  21.727  0.00  0.00    -0.057 A 
ATOM      5  C16 0LI d   1      87.030   0.004  23.079  0.00  0.00    -0.017 A 
ATOM      6  C18 0LI d   1      87.540  -0.409  20.767  0.00  0.00    -0.042 A 
ATOM      7  H   0LI d   1      87.660   1.917  23.797  0.00  0.00     0.084 H 
ATOM      8  H   0LI d   1      88.556   2.669  21.639  0.00  0.00     0.086 H 
ATOM      9  H   0LI d   1      87.527  -1.076  19.913  0.00  0.00     0.088 H 
ENDROOT
BRANCH   1  10
ATOM     10  N2  0LI d   1      88.599   1.274  19.405  0.00  0.00    -0.323 N 
ATOM     11  C12 0LI d   1      88.153   0.951  18.133  0.00  0.00     0.256 C 
ATOM     12  O1  0LI d   1      87.281   0.137  17.907  0.00  0.00    -0.267 OA
ATOM     13  H   0LI d   1      89.386   1.889  19.450  0.00  0.00     0.169 HD
BRANCH  11  14
ATOM     14  C9  0LI d   1      88.802   1.677  16.996  0.00  0.00     0.033 A 
ATOM     15  C8  0LI d   1      89.857   2.555  17.126  0.00  0.00    -0.067 A 
ATOM     16  C7  0LI d   1      90.404   3.161  16.012  0.00  0.00    -0.075 A 
ATOM     17  H   0LI d   1      90.260   2.771  18.109  0.00  0.00     0.085 H 
ATOM     18  C6  0LI d   1      89.918   2.905  14.739  0.00  0.00    -0.043 A 
ATOM     19  H   0LI d   1      91.231   3.851  16.136  0.00  0.00     0.084 H 
ATOM     20  C5  0LI d   1      88.838   2.042  14.617  0.00  0.00     0.025 A 
ATOM     21  C10 0LI d   1      88.301   1.422  15.722  0.00  0.00    -0.049 A 
ATOM     22  H   0LI d   1      87.478   0.727  15.599  0.00  0.00     0.087 H 
BRANCH  18  23
ATOM     23  C11 0LI d   1      90.534   3.547  13.546  0.00  0.00    -0.050 C 
ATOM     24  H   0LI d   1      90.007   3.216  12.639  0.00  0.00     0.033 H 
ATOM     25  H   0LI d   1      91.594   3.259  13.481  0.00  0.00     0.033 H 
ATOM     26  H   0LI d   1      90.456   4.641  13.637  0.00  0.00     0.033 H 
ENDBRANCH  18  23
BRANCH  20  27
ATOM     27  C4  0LI d   1      88.342   1.694  13.325  0.00  0.00    -0.059 C 
ATOM     28  C3  0LI d   1      88.013   1.250  12.260  0.00  0.00    -0.040 C 
BRANCH  28  29
ATOM     29  C2  0LI d   1      87.614   0.604  11.065  0.00  0.00     0.131 A 
ATOM     30  N82 0LI d   1      86.644   1.068  10.218  0.00  0.00    -0.206 N 
ATOM     31  N81 0LI d   1      85.911   2.226  10.355  0.00  0.00    -0.177 NA
ATOM     32  C84 0LI d   1      86.518   0.126   9.211  0.00  0.00     0.151 A 
ATOM     33  C83 0LI d   1      85.046   2.390   9.402  0.00  0.00     0.022 A 
ATOM     34  C82 0LI d   1      84.841   1.495   8.309  0.00  0.00    -0.061 A 
ATOM     35  H   0LI d   1      84.425   3.284   9.439  0.00  0.00     0.117 H 
ATOM     36  C81 0LI d   1      85.571   0.382   8.211  0.00  0.00    -0.035 A 
ATOM     37  H   0LI d   1      84.089   1.720   7.555  0.00  0.00     0.086 H 
ATOM     38  H   0LI d   1      85.434  -0.307   7.378  0.00  0.00     0.089 H 
ATOM     39  N1  0LI d   1      87.362  -0.880   9.403  0.00  0.00    -0.238 NA
ATOM     40  C1  0LI d   1      88.029  -0.600  10.564  0.00  0.00     0.041 A 
ATOM     41  H   0LI d   1      88.780  -1.241  11.023  0.00  0.00     0.119 H 
ENDBRANCH  28  29
ENDBRANCH  20  27
ENDBRANCH  11  14
ENDBRANCH   1  10
BRANCH   3  42
ATOM     42  C19 0LI d   1      86.394  -2.209  22.008  0.00  0.00     0.418 C 
ATOM     43  F1  0LI d   1      85.087  -2.151  22.378  0.00  0.00    -0.166 F 
ATOM     44  F2  0LI d   1      87.043  -3.083  22.834  0.00  0.00    -0.166 F 
ATOM     45  F3  0LI d   1      86.374  -2.842  20.810  0.00  0.00    -0.166 F 
ENDBRANCH   3  42
BRANCH   5  46
ATOM     46  C20 0LI d   1      86.449  -0.420  24.419  0.00  0.00     0.108 C 
ATOM     47  H   0LI d   1      85.614  -1.109  24.224  0.00  0.00     0.083 H 
ATOM     48  H   0LI d   1      87.236  -0.947  24.979  0.00  0.00     0.083 H 
BRANCH  46  49
ATOM     49  N3  0LI d   1      85.939   0.690  25.276  0.00  0.00    -0.064 N 
ATOM     50  C21 0LI d   1      84.612   1.188  24.820  0.00  0.00     0.106 C 
ATOM     51  C22 0LI d   1      84.198   2.387  25.643  0.00  0.00     0.105 C 
ATOM     52  H   0LI d   1      83.864   0.390  24.937  0.00  0.00     0.078 H 
ATOM     53  H   0LI d   1      84.676   1.478  23.761  0.00  0.00     0.078 H 
ATOM     54  N4  0LI d   1      84.143   2.035  27.095  0.00  0.00    -0.072 N 
ATOM     55  H   0LI d   1      83.204   2.725  25.315  0.00  0.00     0.078 H 
ATOM     56  H   0LI d   1      84.928   3.197  25.495  0.00  0.00     0.078 H 
ATOM     57  C23 0LI d   1      85.447   1.496  27.549  0.00  0.00     0.105 C 
ATOM     58  H   0LI d   1      83.469   1.292  27.193  0.00  0.00     0.279 HD
ATOM     59  C24 0LI d   1      85.857   0.315  26.698  0.00  0.00     0.106 C 
ATOM     60  H   0LI d   1      86.212   2.283  27.469  0.00  0.00     0.078 H 
ATOM     61  H   0LI d   1      85.361   1.174  28.597  0.00  0.00     0.078 H 
ATOM     62  H   0LI d   1      86.841  -0.044  27.032  0.00  0.00     0.078 H 
ATOM     63  H   0LI d   1      85.114  -0.488  26.816  0.00  0.00     0.078 H 
ATOM     64  H   0LI d   1      86.596   1.451  25.198  0.00  0.00     0.280 HD
BRANCH  54  65
ATOM     65  C25 0LI d   1      83.660   3.155  27.929  0.00  0.00     0.066 C 
ATOM     66  H   0LI d   1      82.693   3.509  27.543  0.00  0.00     0.068 H 
ATOM     67  H   0LI d   1      84.390   3.977  27.898  0.00  0.00     0.068 H 
ATOM     68  H   0LI d   1      83.537   2.813  28.967  0.00  0.00     0.068 H 
ENDBRANCH  54  65
ENDBRANCH  46  49
ENDBRANCH   5  46
TORSDOF 9
