REMARK  12 active torsions:
REMARK  status: ('A' for Active; 'I' for Inactive)
REMARK    1  A    between atoms: C1_4  and  C_1 
REMARK    2  A    between atoms: C6_15  and  N_2 
REMARK    3  A    between atoms: C22_31  and  O1_6 
REMARK    4  A    between atoms: O1_6  and  C24_33 
REMARK       I    between atoms: N2_8  and  C12_21 
REMARK    5  A    between atoms: C13_22  and  N2_8 
REMARK    6  A    between atoms: C20_29  and  O2_9 
REMARK    7  A    between atoms: O2_9  and  C25_34 
REMARK    8  A    between atoms: C4_12  and  C5_14 
REMARK    9  A    between atoms: C12_21  and  C9_18 
REMARK   10  A    between atoms: C16_25  and  C15_24 
REMARK   11  A    between atoms: C17_26  and  C16_25 
REMARK   12  A    between atoms: C18_27  and  C17_26 
ROOT
ATOM      1  O   66T d   1      85.728   2.621   8.786  0.00  0.00    -0.267 OA
ATOM      2  N2  66T d   1      86.608   0.558   8.370  0.00  0.00    -0.308 N 
ATOM      3  C12 66T d   1      85.727   1.583   8.130  0.00  0.00     0.257 C 
ATOM      4  H   66T d   1      86.611  -0.198   7.715  0.00  0.00     0.170 HD
ENDROOT
BRANCH   2   5
ATOM      5  C13 66T d   1      87.490   0.469   9.427  0.00  0.00     0.126 A 
ATOM      6  N4  66T d   1      88.371  -0.560   9.544  0.00  0.00    -0.262 N 
ATOM      7  N3  66T d   1      89.097  -0.462  10.694  0.00  0.00    -0.178 NA
ATOM      8  H   66T d   1      88.476  -1.316   8.853  0.00  0.00     0.191 HD
ATOM      9  C15 66T d   1      88.695   0.662  11.264  0.00  0.00     0.058 A 
ATOM     10  C14 66T d   1      87.691   1.288  10.506  0.00  0.00    -0.014 A 
ATOM     11  H   66T d   1      87.182   2.224  10.729  0.00  0.00     0.092 H 
BRANCH   9  12
ATOM     12  C16 66T d   1      89.315   1.132  12.552  0.00  0.00    -0.019 C 
ATOM     13  H   66T d   1      90.191   1.751  12.308  0.00  0.00     0.042 H 
ATOM     14  H   66T d   1      89.637   0.248  13.123  0.00  0.00     0.042 H 
BRANCH  12  15
ATOM     15  C17 66T d   1      88.370   1.962  13.440  0.00  0.00    -0.036 C 
ATOM     16  H   66T d   1      87.386   1.473  13.489  0.00  0.00     0.040 H 
ATOM     17  H   66T d   1      88.258   2.971  13.017  0.00  0.00     0.040 H 
BRANCH  15  18
ATOM     18  C18 66T d   1      88.959   2.057  14.829  0.00  0.00    -0.052 A 
ATOM     19  C19 66T d   1      88.469   1.260  15.861  0.00  0.00    -0.045 A 
ATOM     20  C20 66T d   1      89.056   1.310  17.119  0.00  0.00     0.071 A 
ATOM     21  H   66T d   1      87.628   0.600  15.682  0.00  0.00     0.088 H 
ATOM     22  C21 66T d   1      90.161   2.113  17.352  0.00  0.00    -0.019 A 
ATOM     23  C22 66T d   1      90.666   2.878  16.311  0.00  0.00     0.071 A 
ATOM     24  H   66T d   1      90.623   2.143  18.332  0.00  0.00     0.092 H 
ATOM     25  C23 66T d   1      90.078   2.851  15.057  0.00  0.00    -0.045 A 
ATOM     26  H   66T d   1      90.490   3.449  14.253  0.00  0.00     0.088 H 
BRANCH  20  27
ATOM     27  O2  66T d   1      88.791   0.291  18.005  0.00  0.00    -0.356 OA
BRANCH  27  28
ATOM     28  C25 66T d   1      89.022   0.518  19.407  0.00  0.00     0.010 C 
ATOM     29  H   66T d   1      88.762  -0.389  19.973  0.00  0.00     0.066 H 
ATOM     30  H   66T d   1      88.398   1.356  19.750  0.00  0.00     0.066 H 
ATOM     31  H   66T d   1      90.083   0.760  19.569  0.00  0.00     0.066 H 
ENDBRANCH  27  28
ENDBRANCH  20  27
BRANCH  23  32
ATOM     32  O1  66T d   1      91.805   3.639  16.371  0.00  0.00    -0.356 OA
BRANCH  32  33
ATOM     33  C24 66T d   1      92.616   3.568  17.552  0.00  0.00     0.010 C 
ATOM     34  H   66T d   1      93.485   4.233  17.441  0.00  0.00     0.066 H 
ATOM     35  H   66T d   1      92.962   2.534  17.698  0.00  0.00     0.066 H 
ATOM     36  H   66T d   1      92.023   3.882  18.424  0.00  0.00     0.066 H 
ENDBRANCH  32  33
ENDBRANCH  23  32
ENDBRANCH  15  18
ENDBRANCH  12  15
ENDBRANCH   9  12
ENDBRANCH   2   5
BRANCH   3  37
ATOM     37  C9  66T d   1      84.749   1.368   7.019  0.00  0.00     0.032 A 
ATOM     38  C8  66T d   1      85.096   0.640   5.884  0.00  0.00    -0.066 A 
ATOM     39  C7  66T d   1      84.189   0.441   4.862  0.00  0.00    -0.056 A 
ATOM     40  H   66T d   1      86.093   0.223   5.801  0.00  0.00     0.085 H 
ATOM     41  C6  66T d   1      82.910   1.003   4.922  0.00  0.00     0.030 A 
ATOM     42  H   66T d   1      84.472  -0.158   4.004  0.00  0.00     0.086 H 
ATOM     43  C11 66T d   1      82.550   1.697   6.084  0.00  0.00    -0.056 A 
ATOM     44  C10 66T d   1      83.464   1.894   7.103  0.00  0.00    -0.066 A 
ATOM     45  H   66T d   1      81.543   2.084   6.186  0.00  0.00     0.086 H 
ATOM     46  H   66T d   1      83.175   2.465   7.978  0.00  0.00     0.085 H 
BRANCH  41  47
ATOM     47  N   66T d   1      81.955   0.714   3.942  0.00  0.00    -0.377 N 
ATOM     48  C2  66T d   1      81.220   1.852   3.396  0.00  0.00     0.021 C 
ATOM     49  C1  66T d   1      79.948   1.396   2.806  0.00  0.00     0.114 C 
ATOM     50  H   66T d   1      81.828   2.339   2.619  0.00  0.00     0.067 H 
ATOM     51  H   66T d   1      81.010   2.571   4.202  0.00  0.00     0.067 H 
ATOM     52  N1  66T d   1      80.202   0.358   1.790  0.00  0.00    -0.064 N 
ATOM     53  H   66T d   1      79.352   0.950   3.616  0.00  0.00     0.086 H 
ATOM     54  C4  66T d   1      80.966  -0.798   2.294  0.00  0.00     0.114 C 
ATOM     55  H   66T d   1      80.721   0.775   1.033  0.00  0.00     0.278 HD
ATOM     56  H   66T d   1      79.314   0.026   1.447  0.00  0.00     0.278 HD
ATOM     57  C3  66T d   1      82.249  -0.368   3.007  0.00  0.00     0.021 C 
ATOM     58  H   66T d   1      80.342  -1.311   3.041  0.00  0.00     0.086 H 
ATOM     59  H   66T d   1      82.665  -1.224   3.558  0.00  0.00     0.067 H 
ATOM     60  H   66T d   1      82.981  -0.020   2.264  0.00  0.00     0.067 H 
BRANCH  49  61
ATOM     61  C   66T d   1      79.117   2.508   2.184  0.00  0.00    -0.048 C 
ATOM     62  H   66T d   1      78.924   3.286   2.937  0.00  0.00     0.030 H 
ATOM     63  H   66T d   1      78.161   2.096   1.829  0.00  0.00     0.030 H 
ATOM     64  H   66T d   1      79.665   2.946   1.337  0.00  0.00     0.030 H 
ENDBRANCH  49  61
BRANCH  54  65
ATOM     65  C5  66T d   1      81.206  -1.774   1.155  0.00  0.00    -0.048 C 
ATOM     66  H   66T d   1      81.776  -2.638   1.527  0.00  0.00     0.030 H 
ATOM     67  H   66T d   1      81.776  -1.274   0.358  0.00  0.00     0.030 H 
ATOM     68  H   66T d   1      80.240  -2.116   0.756  0.00  0.00     0.030 H 
ENDBRANCH  54  65
ENDBRANCH  41  47
ENDBRANCH   3  37
TORSDOF 12
