REMARK  4 active torsions:
REMARK  status: ('A' for Active; 'I' for Inactive)
REMARK    1  A    between atoms: C1_1  and  N2_2 
REMARK    2  A    between atoms: C9_9  and  C14_14 
REMARK    3  A    between atoms: C14_14  and  C15_15 
REMARK       I    between atoms: C15_15  and  N17_17 
REMARK    4  A    between atoms: C19_19  and  C26_26 
ROOT
ATOM      1  C14 J82 d   1      10.572  -5.924   9.657  0.00  0.00     0.064 C 
ATOM      2  H11 J82 d   1      11.151  -6.088  10.578  0.00  0.00     0.059 H 
ATOM      3  H12 J82 d   1      11.230  -5.509   8.879  0.00  0.00     0.059 H 
ENDROOT
BRANCH   1   4
ATOM      4  C9  J82 d   1       9.472  -4.957   9.936  0.00  0.00     0.117 A 
ATOM      5  N8  J82 d   1       8.928  -4.282   8.978  0.00  0.00    -0.217 NA
ATOM      6  C1  J82 d   1       7.913  -3.412   9.294  0.00  0.00     0.133 A 
ATOM      7  C12 J82 d   1       7.483  -3.250  10.557  0.00  0.00     0.027 A 
ATOM      8  C11 J82 d   1       8.107  -4.029  11.650  0.00  0.00     0.250 A 
ATOM      9  H10 J82 d   1       6.679  -2.549  10.775  0.00  0.00     0.098 H 
ATOM     10  N10 J82 d   1       9.106  -4.876  11.249  0.00  0.00    -0.311 N 
ATOM     11  O13 J82 d   1       7.729  -3.897  12.804  0.00  0.00    -0.268 OA
ATOM     12  H9  J82 d   1       9.574  -5.443  11.927  0.00  0.00     0.170 HD
BRANCH   6  13
ATOM     13  N2  J82 d   1       7.313  -2.672   8.293  0.00  0.00    -0.362 N 
ATOM     14  C3  J82 d   1       6.096  -1.913   8.526  0.00  0.00     0.016 C 
ATOM     15  C4  J82 d   1       6.111  -0.690   7.637  0.00  0.00     0.034 C 
ATOM     16  H1  J82 d   1       6.049  -1.604   9.581  0.00  0.00     0.067 H 
ATOM     17  H2  J82 d   1       5.221  -2.534   8.286  0.00  0.00     0.067 H 
ATOM     18  O5  J82 d   1       6.191  -1.121   6.284  0.00  0.00    -0.388 OA
ATOM     19  H3  J82 d   1       6.983  -0.065   7.880  0.00  0.00     0.076 H 
ATOM     20  H4  J82 d   1       5.189  -0.109   7.788  0.00  0.00     0.076 H 
ATOM     21  C6  J82 d   1       7.466  -1.716   6.069  0.00  0.00     0.034 C 
ATOM     22  C7  J82 d   1       7.571  -2.980   6.895  0.00  0.00     0.016 C 
ATOM     23  H5  J82 d   1       8.256  -1.013   6.371  0.00  0.00     0.076 H 
ATOM     24  H6  J82 d   1       7.582  -1.962   5.003  0.00  0.00     0.076 H 
ATOM     25  H7  J82 d   1       6.832  -3.712   6.539  0.00  0.00     0.067 H 
ATOM     26  H8  J82 d   1       8.582  -3.401   6.793  0.00  0.00     0.067 H 
ENDBRANCH   6  13
ENDBRANCH   1   4
BRANCH   1  27
ATOM     27  C15 J82 d   1      10.018  -7.230   9.186  0.00  0.00     0.231 C 
ATOM     28  O16 J82 d   1       9.260  -7.865   9.905  0.00  0.00    -0.273 OA
ATOM     29  N17 J82 d   1      10.422  -7.588   7.910  0.00  0.00    -0.312 N 
ATOM     30  C19 J82 d   1      11.471  -6.945   7.132  0.00  0.00     0.020 C 
ATOM     31  C21 J82 d   1      10.101  -8.802   7.302  0.00  0.00     0.044 A 
ATOM     32  C18 J82 d   1      11.559  -7.695   5.811  0.00  0.00    -0.020 C 
ATOM     33  H15 J82 d   1      11.242  -5.880   6.977  0.00  0.00     0.073 H 
ATOM     34  C20 J82 d   1      10.740  -8.897   6.099  0.00  0.00    -0.029 A 
ATOM     35  H13 J82 d   1      12.598  -7.965   5.570  0.00  0.00     0.043 H 
ATOM     36  H14 J82 d   1      11.132  -7.106   4.985  0.00  0.00     0.043 H 
ATOM     37  C25 J82 d   1      10.591 -10.010   5.305  0.00  0.00    -0.075 A 
ATOM     38  C24 J82 d   1       9.780 -11.027   5.763  0.00  0.00    -0.082 A 
ATOM     39  H19 J82 d   1      11.095 -10.085   4.348  0.00  0.00     0.084 H 
ATOM     40  C23 J82 d   1       9.129 -10.927   6.977  0.00  0.00    -0.081 A 
ATOM     41  H18 J82 d   1       9.651 -11.919   5.161  0.00  0.00     0.083 H 
ATOM     42  C22 J82 d   1       9.285  -9.808   7.769  0.00  0.00    -0.056 A 
ATOM     43  H17 J82 d   1       8.489 -11.736   7.311  0.00  0.00     0.083 H 
ATOM     44  H16 J82 d   1       8.783  -9.724   8.726  0.00  0.00     0.086 H 
BRANCH  30  45
ATOM     45  C26 J82 d   1      12.812  -7.109   7.809  0.00  0.00    -0.056 C 
ATOM     46  H20 J82 d   1      13.590  -6.617   7.206  0.00  0.00     0.030 H 
ATOM     47  H21 J82 d   1      13.046  -8.180   7.905  0.00  0.00     0.030 H 
ATOM     48  H22 J82 d   1      12.777  -6.650   8.808  0.00  0.00     0.030 H 
ENDBRANCH  30  45
ENDBRANCH   1  27
TORSDOF 4
