REMARK WARNING: 32 MAX_TORS EXCEEDED!!!
REMARK  41 active torsions:
REMARK  status: ('A' for Active; 'I' for Inactive)
REMARK    1  A    between atoms: N_1  and  CA_2 
REMARK    2  A    between atoms: CA_2  and  C_3 
REMARK    3  A    between atoms: CA_2  and  CB_5 
REMARK       I    between atoms: C_3  and  N_7 
REMARK    4  A    between atoms: CB_5  and  OG_6 
REMARK    5  A    between atoms: N_7  and  CA_8 
REMARK    6  A    between atoms: CA_8  and  C_9 
REMARK    7  A    between atoms: CA_8  and  CB_11 
REMARK       I    between atoms: C_9  and  N_15 
REMARK    8  A    between atoms: CB_11  and  CG_12 
REMARK    9  A    between atoms: N_15  and  CA_16 
REMARK   10  A    between atoms: CA_16  and  C_17 
REMARK   11  A    between atoms: CA_16  and  CB_19 
REMARK       I    between atoms: C_17  and  N_20 
REMARK   12  A    between atoms: N_20  and  CA_21 
REMARK   13  A    between atoms: CA_21  and  CB_22 
REMARK   14  A    between atoms: CA_21  and  C_29 
REMARK   15  A    between atoms: CB_22  and  CG2_23 
REMARK   16  A    between atoms: CB_22  and  OG1_24 
REMARK   17  A    between atoms: OG1_24  and  P_25 
REMARK       I    between atoms: C_29  and  N_31 
REMARK   18  A    between atoms: N_31  and  CA_32 
REMARK   19  A    between atoms: CA_32  and  C_33 
REMARK   20  A    between atoms: CA_32  and  CB_35 
REMARK       I    between atoms: C_33  and  N_40 
REMARK   21  A    between atoms: CB_35  and  CG_36 
REMARK   22  A    between atoms: CG_36  and  CD_37 
REMARK   23  A    between atoms: N_40  and  CA_41 
REMARK   24  A    between atoms: CA_41  and  C_42 
REMARK       I    between atoms: C_42  and  N_44 
REMARK   25  A    between atoms: N_44  and  CA_45 
REMARK   26  A    between atoms: CA_45  and  C_46 
REMARK   27  A    between atoms: CA_45  and  CB_48 
REMARK       I    between atoms: C_46  and  N_54 
REMARK   28  A    between atoms: CB_48  and  CG_49 
REMARK   29  A    between atoms: N_54  and  CA_55 
REMARK   30  A    between atoms: CA_55  and  C_56 
REMARK   31  A    between atoms: CA_55  and  CB_58 
REMARK       I    between atoms: C_56  and  N_62 
REMARK   32  A    between atoms: CB_58  and  CG_59 
REMARK   33  A    between atoms: N_62  and  CA_63 
REMARK   34  A    between atoms: CA_63  and  C_64 
REMARK   35  A    between atoms: CA_63  and  CB_66 
REMARK       I    between atoms: C_64  and  N_71 
REMARK   36  A    between atoms: CB_66  and  CG_67 
REMARK   37  A    between atoms: CG_67  and  CD_68 
REMARK   38  A    between atoms: N_71  and  CA_72 
REMARK   39  A    between atoms: CA_72  and  C_73 
REMARK   40  A    between atoms: CA_72  and  CB_75 
REMARK   41  A    between atoms: CB_75  and  CG_76 
ROOT
ATOM      1  C   GLU d   1     -10.452  -0.003  68.670  0.00  0.00     0.240 C 
ATOM      2  O   GLU d   1      -9.491  -0.649  68.254  0.00  0.00    -0.271 OA
ATOM      3  N   GLY d   1     -11.277   0.685  67.877  0.00  0.00    -0.351 N 
ATOM      4  H29 GLY d   1     -12.082   1.119  68.281  0.00  0.00     0.163 HD
ENDROOT
BRANCH   1   5
ATOM      5  CA  GLU d   1     -10.768   0.030  70.163  0.00  0.00     0.090 C 
ATOM      6  H24 GLU d   1     -11.861   0.070  70.280  0.00  0.00     0.087 H 
BRANCH   5   7
ATOM      7  N   GLU d   1     -10.284  -1.159  70.854  0.00  0.00    -0.346 N 
ATOM      8  C   TPO d   1     -10.877  -2.341  70.676  0.00  0.00     0.243 C 
ATOM      9  O   TPO d   1     -11.861  -2.479  69.964  0.00  0.00    -0.271 OA
ATOM     10  H23 GLU d   1      -9.498  -1.088  71.469  0.00  0.00     0.163 HD
BRANCH   8  11
ATOM     11  CA  TPO d   1     -10.275  -3.543  71.405  0.00  0.00     0.114 C 
ATOM     12  H18 TPO d   1      -9.433  -3.180  72.012  0.00  0.00     0.091 H 
BRANCH  11  13
ATOM     13  N   TPO d   1     -11.223  -4.213  72.300  0.00  0.00    -0.344 N 
ATOM     14  C   ALA d   1     -11.812  -3.612  73.329  0.00  0.00     0.240 C 
ATOM     15  O   ALA d   1     -11.601  -2.442  73.645  0.00  0.00    -0.271 OA
ATOM     16  H17 TPO d   1     -11.438  -5.174  72.127  0.00  0.00     0.163 HD
BRANCH  14  17
ATOM     17  CA  ALA d   1     -12.766  -4.473  74.142  0.00  0.00     0.086 C 
ATOM     18  H13 ALA d   1     -12.723  -5.507  73.769  0.00  0.00     0.086 H 
BRANCH  17  19
ATOM     19  N   ALA d   1     -12.328  -4.452  75.536  0.00  0.00    -0.346 N 
ATOM     20  C   ASP d   1     -11.225  -5.091  75.913  0.00  0.00     0.241 C 
ATOM     21  O   ASP d   1     -10.609  -5.860  75.176  0.00  0.00    -0.271 OA
ATOM     22  H12 ALA d   1     -12.865  -3.951  76.215  0.00  0.00     0.163 HD
BRANCH  20  23
ATOM     23  CA  ASP d   1     -10.721  -4.814  77.318  0.00  0.00     0.098 C 
ATOM     24  H9  ASP d   1     -11.558  -4.444  77.929  0.00  0.00     0.088 H 
BRANCH  23  25
ATOM     25  N   ASP d   1     -10.197  -6.023  77.940  0.00  0.00    -0.345 N 
ATOM     26  C   SER d   1     -10.970  -6.799  78.692  0.00  0.00     0.251 C 
ATOM     27  O   SER d   1     -12.167  -6.576  78.873  0.00  0.00    -0.271 OA
ATOM     28  H8  ASP d   1      -9.239  -6.273  77.798  0.00  0.00     0.163 HD
BRANCH  26  29
ATOM     29  CA  SER d   1     -10.304  -8.008  79.342  0.00  0.00     0.195 C 
ATOM     30  H4  SER d   1      -9.218  -7.837  79.368  0.00  0.00     0.102 H 
BRANCH  29  31
ATOM     31  N   SER d   1     -10.776  -8.190  80.708  0.00  0.00    -0.064 N 
ATOM     32  H1  SER d   1     -10.323  -8.993  81.116  0.00  0.00     0.275 HD
ATOM     33  H2  SER d   1     -11.774  -8.334  80.702  0.00  0.00     0.275 HD
ATOM     34  H3  SER d   1     -10.558  -7.369  81.251  0.00  0.00     0.275 HD
ENDBRANCH  29  31
BRANCH  29  35
ATOM     35  CB  SER d   1     -10.580  -9.259  78.522  0.00  0.00     0.051 C 
ATOM     36  H5  SER d   1      -9.877  -9.302  77.677  0.00  0.00     0.077 H 
ATOM     37  H6  SER d   1     -11.611  -9.223  78.140  0.00  0.00     0.077 H 
BRANCH  35  38
ATOM     38  OG  SER d   1     -10.418 -10.415  79.325  0.00  0.00    -0.398 OA
ATOM     39  H7  SER d   1     -10.593 -11.189  78.803  0.00  0.00     0.209 HD
ENDBRANCH  35  38
ENDBRANCH  29  35
ENDBRANCH  26  29
ENDBRANCH  23  25
BRANCH  23  40
ATOM     40  CB  ASP d   1      -9.648  -3.733  77.244  0.00  0.00     0.043 C 
ATOM     41  H10 ASP d   1     -10.072  -2.853  76.739  0.00  0.00     0.052 H 
ATOM     42  H11 ASP d   1      -8.801  -4.119  76.658  0.00  0.00     0.052 H 
BRANCH  40  43
ATOM     43  CG  ASP d   1      -9.140  -3.310  78.605  0.00  0.00     0.175 C 
ATOM     44  OD1 ASP d   1      -9.923  -3.310  79.584  0.00  0.00    -0.648 OA
ATOM     45  OD2 ASP d   1      -7.950  -2.958  78.682  0.00  0.00    -0.648 OA
ENDBRANCH  40  43
ENDBRANCH  23  40
ENDBRANCH  20  23
ENDBRANCH  17  19
BRANCH  17  46
ATOM     46  CB  ALA d   1     -14.191  -3.973  74.006  0.00  0.00    -0.049 C 
ATOM     47  H14 ALA d   1     -14.490  -4.001  72.948  0.00  0.00     0.030 H 
ATOM     48  H15 ALA d   1     -14.254  -2.939  74.377  0.00  0.00     0.030 H 
ATOM     49  H16 ALA d   1     -14.863  -4.616  74.594  0.00  0.00     0.030 H 
ENDBRANCH  17  46
ENDBRANCH  14  17
ENDBRANCH  11  13
BRANCH  11  50
ATOM     50  CB  TPO d   1      -9.745  -4.561  70.393  0.00  0.00     0.076 C 
ATOM     51  H19 TPO d   1     -10.563  -4.949  69.769  0.00  0.00     0.087 H 
BRANCH  50  52
ATOM     52  CG2 TPO d   1      -8.693  -3.884  69.517  0.00  0.00    -0.049 C 
ATOM     53  H20 TPO d   1      -8.305  -4.607  68.785  0.00  0.00     0.031 H 
ATOM     54  H21 TPO d   1      -7.868  -3.522  70.148  0.00  0.00     0.031 H 
ATOM     55  H22 TPO d   1      -9.149  -3.035  68.987  0.00  0.00     0.031 H 
ENDBRANCH  50  52
BRANCH  50  56
ATOM     56  OG1 TPO d   1      -9.143  -5.615  71.137  0.00  0.00    -0.275 OA
BRANCH  56  57
ATOM     57  P   TPO d   1      -9.935  -7.023  70.992  0.00  0.00     0.422 P 
ATOM     58  O1P TPO d   1     -10.144  -7.350  69.559  0.00  0.00    -0.617 OA
ATOM     59  O2P TPO d   1      -9.013  -8.129  71.681  0.00  0.00    -0.617 OA
ATOM     60  O3P TPO d   1     -11.328  -6.880  71.756  0.00  0.00    -0.617 OA
ENDBRANCH  56  57
ENDBRANCH  50  56
ENDBRANCH  11  50
ENDBRANCH   8  11
ENDBRANCH   5   7
BRANCH   5  61
ATOM     61  CB  GLU d   1     -10.168   1.288  70.788  0.00  0.00    -0.029 C 
ATOM     62  H25 GLU d   1     -10.214   2.103  70.051  0.00  0.00     0.037 H 
ATOM     63  H26 GLU d   1      -9.118   1.086  71.047  0.00  0.00     0.037 H 
BRANCH  61  64
ATOM     64  CG  GLU d   1     -10.906   1.727  72.049  0.00  0.00     0.018 C 
ATOM     65  H27 GLU d   1     -10.825   0.928  72.801  0.00  0.00     0.049 H 
ATOM     66  H28 GLU d   1     -11.965   1.889  71.799  0.00  0.00     0.049 H 
BRANCH  64  67
ATOM     67  CD  GLU d   1     -10.346   3.005  72.638  0.00  0.00     0.172 C 
ATOM     68  OE1 GLU d   1      -9.106   3.137  72.699  0.00  0.00    -0.648 OA
ATOM     69  OE2 GLU d   1     -11.149   3.875  73.035  0.00  0.00    -0.648 OA
ENDBRANCH  64  67
ENDBRANCH  61  64
ENDBRANCH   5  61
ENDBRANCH   1   5
BRANCH   3  70
ATOM     70  CA  GLY d   1     -11.048   0.826  66.450  0.00  0.00     0.069 C 
ATOM     71  H30 GLY d   1     -12.018   0.801  65.933  0.00  0.00     0.078 H 
ATOM     72  H31 GLY d   1     -10.428  -0.016  66.107  0.00  0.00     0.078 H 
BRANCH  70  73
ATOM     73  C   GLY d   1     -10.343   2.124  66.100  0.00  0.00     0.236 C 
ATOM     74  O   GLY d   1      -9.680   2.735  66.944  0.00  0.00    -0.272 OA
ATOM     75  N   HIS d   1     -10.483   2.561  64.853  0.00  0.00    -0.346 N 
ATOM     76  H32 HIS d   1     -11.124   2.106  64.235  0.00  0.00     0.163 HD
BRANCH  75  77
ATOM     77  CA  HIS d   1      -9.705   3.701  64.383  0.00  0.00     0.094 C 
ATOM     78  H33 HIS d   1      -8.651   3.514  64.636  0.00  0.00     0.088 H 
BRANCH  77  79
ATOM     79  C   HIS d   1     -10.128   5.002  65.062  0.00  0.00     0.241 C 
ATOM     80  O   HIS d   1     -11.228   5.108  65.612  0.00  0.00    -0.271 OA
ATOM     81  N   ASP d   1      -9.227   5.973  65.026  0.00  0.00    -0.345 N 
ATOM     82  H39 ASP d   1      -8.325   5.775  64.643  0.00  0.00     0.163 HD
BRANCH  81  83
ATOM     83  CA  ASP d   1      -9.497   7.322  65.523  0.00  0.00     0.098 C 
ATOM     84  H40 ASP d   1      -9.645   7.267  66.612  0.00  0.00     0.088 H 
BRANCH  83  85
ATOM     85  C   ASP d   1     -10.757   7.910  64.884  0.00  0.00     0.241 C 
ATOM     86  O   ASP d   1     -11.021   7.691  63.706  0.00  0.00    -0.271 OA
ATOM     87  N   GLU d   1     -11.511   8.674  65.662  0.00  0.00    -0.346 N 
ATOM     88  H43 GLU d   1     -11.250   8.799  66.619  0.00  0.00     0.163 HD
BRANCH  87  89
ATOM     89  CA  GLU d   1     -12.712   9.339  65.161  0.00  0.00     0.090 C 
ATOM     90  H44 GLU d   1     -12.923   8.954  64.153  0.00  0.00     0.087 H 
BRANCH  89  91
ATOM     91  C   GLU d   1     -12.516  10.849  65.066  0.00  0.00     0.241 C 
ATOM     92  O   GLU d   1     -13.357  11.563  64.525  0.00  0.00    -0.271 OA
ATOM     93  N   ASP d   1     -11.406  11.326  65.615  0.00  0.00    -0.344 N 
ATOM     94  H49 ASP d   1     -10.807  10.700  66.115  0.00  0.00     0.163 HD
BRANCH  93  95
ATOM     95  CA  ASP d   1     -11.028  12.732  65.515  0.00  0.00     0.105 C 
ATOM     96  H50 ASP d   1     -11.246  13.079  64.494  0.00  0.00     0.090 H 
BRANCH  95  97
ATOM     97  C   ASP d   1      -9.539  12.877  65.770  0.00  0.00     0.197 C 
ATOM     98  O   ASP d   1      -8.849  11.860  65.827  0.00  0.00    -0.646 OA
ATOM     99  OXT ASP d   1      -9.011  13.982  65.923  0.00  0.00    -0.646 OA
ENDBRANCH  95  97
BRANCH  95 100
ATOM    100  CB  ASP d   1     -11.821  13.597  66.496  0.00  0.00     0.044 C 
ATOM    101  H51 ASP d   1     -12.860  13.664  66.142  0.00  0.00     0.053 H 
ATOM    102  H52 ASP d   1     -11.375  14.602  66.516  0.00  0.00     0.053 H 
BRANCH 100 103
ATOM    103  CG  ASP d   1     -11.827  13.041  67.914  0.00  0.00     0.175 C 
ATOM    104  OD1 ASP d   1     -10.848  12.385  68.336  0.00  0.00    -0.648 OA
ATOM    105  OD2 ASP d   1     -12.827  13.284  68.626  0.00  0.00    -0.648 OA
ENDBRANCH 100 103
ENDBRANCH  95 100
ENDBRANCH  93  95
ENDBRANCH  89  91
BRANCH  89 106
ATOM    106  CB  GLU d   1     -13.905   9.027  66.058  0.00  0.00    -0.029 C 
ATOM    107  H45 GLU d   1     -14.760   9.629  65.718  0.00  0.00     0.037 H 
ATOM    108  H46 GLU d   1     -13.645   9.309  67.089  0.00  0.00     0.037 H 
BRANCH 106 109
ATOM    109  CG  GLU d   1     -14.318   7.564  66.052  0.00  0.00     0.018 C 
ATOM    110  H47 GLU d   1     -14.973   7.381  66.916  0.00  0.00     0.049 H 
ATOM    111  H48 GLU d   1     -13.414   6.944  66.139  0.00  0.00     0.049 H 
BRANCH 109 112
ATOM    112  CD  GLU d   1     -15.061   7.164  64.787  0.00  0.00     0.172 C 
ATOM    113  OE1 GLU d   1     -15.333   8.042  63.937  0.00  0.00    -0.648 OA
ATOM    114  OE2 GLU d   1     -15.377   5.963  64.643  0.00  0.00    -0.648 OA
ENDBRANCH 109 112
ENDBRANCH 106 109
ENDBRANCH  89 106
ENDBRANCH  87  89
ENDBRANCH  83  85
BRANCH  83 115
ATOM    115  CB  ASP d   1      -8.322   8.252  65.229  0.00  0.00     0.043 C 
ATOM    116  H41 ASP d   1      -8.576   9.261  65.585  0.00  0.00     0.052 H 
ATOM    117  H42 ASP d   1      -8.159   8.277  64.141  0.00  0.00     0.052 H 
BRANCH 115 118
ATOM    118  CG  ASP d   1      -7.031   7.813  65.901  0.00  0.00     0.175 C 
ATOM    119  OD1 ASP d   1      -7.095   7.050  66.891  0.00  0.00    -0.648 OA
ATOM    120  OD2 ASP d   1      -5.953   8.261  65.435  0.00  0.00    -0.648 OA
ENDBRANCH 115 118
ENDBRANCH  83 115
ENDBRANCH  81  83
ENDBRANCH  77  79
BRANCH  77 121
ATOM    121  CB  HIS d   1      -9.813   3.846  62.857  0.00  0.00     0.004 C 
ATOM    122  H34 HIS d   1      -9.424   2.928  62.393  0.00  0.00     0.046 H 
ATOM    123  H35 HIS d   1      -9.198   4.703  62.546  0.00  0.00     0.046 H 
BRANCH 121 124
ATOM    124  CG  HIS d   1     -11.210   4.066  62.368  0.00  0.00     0.053 A 
ATOM    125  ND1 HIS d   1     -11.868   5.271  62.511  0.00  0.00    -0.247 NA
ATOM    126  CE1 HIS d   1     -13.082   5.168  61.998  0.00  0.00     0.064 A 
ATOM    127  NE2 HIS d   1     -13.235   3.942  61.531  0.00  0.00    -0.359 N 
ATOM    128  H37 HIS d   1     -13.829   5.960  61.966  0.00  0.00     0.143 H 
ATOM    129  CD2 HIS d   1     -12.080   3.232  61.752  0.00  0.00     0.002 A 
ATOM    130  H38 HIS d   1     -14.083   3.577  61.075  0.00  0.00     0.166 HD
ATOM    131  H36 HIS d   1     -11.898   2.193  61.482  0.00  0.00     0.114 H 
ENDBRANCH 121 124
ENDBRANCH  77 121
ENDBRANCH  75  77
ENDBRANCH  70  73
ENDBRANCH   3  70
TORSDOF 41
