REMARK  2 active torsions:
REMARK  status: ('A' for Active; 'I' for Inactive)
REMARK    1  A    between atoms: C17_6  and  O03_2 
REMARK    2  A    between atoms: O03_2  and  C37_13 
ROOT
ATOM      1 BR   BQ1 d   1    -161.892  64.287  29.888  0.00  0.00    -0.051 Br
ATOM      2  N05 BQ1 d   1    -156.625  65.496  27.108  0.00  0.00    -0.224 NA
ATOM      3  C10 BQ1 d   1    -155.894  66.753  29.013  0.00  0.00    -0.031 A 
ATOM      4  C15 BQ1 d   1    -157.084  66.483  29.648  0.00  0.00    -0.067 A 
ATOM      5  C17 BQ1 d   1    -155.662  66.250  27.731  0.00  0.00     0.164 A 
ATOM      6  C22 BQ1 d   1    -158.036  65.726  29.025  0.00  0.00    -0.006 A 
ATOM      7  C24 BQ1 d   1    -157.804  65.234  27.745  0.00  0.00     0.070 A 
ATOM      8  C33 BQ1 d   1    -159.237  65.455  29.663  0.00  0.00    -0.054 A 
ATOM      9  C34 BQ1 d   1    -158.796  64.455  27.095  0.00  0.00    -0.053 A 
ATOM     10  C35 BQ1 d   1    -160.228  64.673  29.011  0.00  0.00     0.011 A 
ATOM     11  C36 BQ1 d   1    -159.999  64.181  27.741  0.00  0.00    -0.064 A 
ATOM     12  H1  BQ1 d   1    -155.139  67.354  29.506  0.00  0.00     0.090 H 
ATOM     13  H2  BQ1 d   1    -157.267  66.871  30.643  0.00  0.00     0.085 H 
ATOM     14  H3  BQ1 d   1    -159.420  65.840  30.660  0.00  0.00     0.086 H 
ATOM     15  H4  BQ1 d   1    -158.618  64.073  26.096  0.00  0.00     0.087 H 
ATOM     16  H5  BQ1 d   1    -160.755  63.582  27.247  0.00  0.00     0.085 H 
ENDROOT
BRANCH   5  17
ATOM     17  O03 BQ1 d   1    -154.435  66.519  27.067  0.00  0.00    -0.339 OA
BRANCH  17  18
ATOM     18  C37 BQ1 d   1    -154.210  65.677  25.913  0.00  0.00     0.012 C 
ATOM     19  H6  BQ1 d   1    -153.247  65.939  25.450  0.00  0.00     0.067 H 
ATOM     20  H7  BQ1 d   1    -155.020  65.829  25.184  0.00  0.00     0.067 H 
ATOM     21  H8  BQ1 d   1    -154.192  64.623  26.226  0.00  0.00     0.067 H 
ENDBRANCH  17  18
ENDBRANCH   5  17
TORSDOF 2
