REMARK  11 active torsions:
REMARK  status: ('A' for Active; 'I' for Inactive)
REMARK    1  A    between atoms: C8_1  and  C2_2 
REMARK    2  A    between atoms: C3_8  and  C9_9 
REMARK    3  A    between atoms: C12_14  and  N15_15 
REMARK       I    between atoms: N15_15  and  C16_16 
REMARK    4  A    between atoms: N15_15  and  C17_26 
REMARK    5  A    between atoms: C16_16  and  C18_18 
REMARK    6  A    between atoms: C30_21  and  O33_22 
REMARK    7  A    between atoms: C32_24  and  O34_25 
REMARK    8  A    between atoms: C17_26  and  C20_27 
REMARK    9  A    between atoms: C23_32  and  C26_33 
REMARK   10  A    between atoms: C26_33  and  N27_34 
REMARK       I    between atoms: N27_34  and  C35_35 
REMARK   11  A    between atoms: C35_35  and  C36_37 
ROOT
ATOM      1  N15 SZ6 d   1      41.399 -49.526 -10.048  0.00  0.00    -0.309 N 
ATOM      2  C16 SZ6 d   1      40.205 -49.214 -10.494  0.00  0.00     0.261 C 
ATOM      3  O19 SZ6 d   1      39.427 -50.021 -10.931  0.00  0.00    -0.267 OA
ENDROOT
BRANCH   1   4
ATOM      4  C12 SZ6 d   1      42.240 -48.607  -9.624  0.00  0.00     0.037 A 
ATOM      5  C13 SZ6 d   1      42.769 -48.625  -8.364  0.00  0.00    -0.056 A 
ATOM      6  C14 SZ6 d   1      43.667 -47.651  -7.966  0.00  0.00    -0.069 A 
ATOM      7  H   SZ6 d   1      42.483 -49.408  -7.671  0.00  0.00     0.087 H 
ATOM      8  C9  SZ6 d   1      44.061 -46.651  -8.820  0.00  0.00    -0.007 A 
ATOM      9  H   SZ6 d   1      44.068 -47.678  -6.959  0.00  0.00     0.085 H 
ATOM     10  C10 SZ6 d   1      43.543 -46.647 -10.086  0.00  0.00    -0.069 A 
ATOM     11  C11 SZ6 d   1      42.653 -47.619 -10.480  0.00  0.00    -0.056 A 
ATOM     12  H   SZ6 d   1      43.836 -45.872 -10.784  0.00  0.00     0.085 H 
ATOM     13  H   SZ6 d   1      42.268 -47.603 -11.493  0.00  0.00     0.087 H 
BRANCH   8  14
ATOM     14  C3  SZ6 d   1      44.959 -45.660  -8.461  0.00  0.00     0.077 A 
ATOM     15  C2  SZ6 d   1      45.003 -45.093  -7.212  0.00  0.00    -0.015 A 
ATOM     16  C1  SZ6 d   1      45.922 -44.106  -6.952  0.00  0.00     0.013 A 
ATOM     17  N6  SZ6 d   1      46.744 -43.704  -7.876  0.00  0.00    -0.230 NA
ATOM     18  H   SZ6 d   1      45.963 -43.657  -5.966  0.00  0.00     0.115 H 
ATOM     19  C5  SZ6 d   1      46.691 -44.252  -9.073  0.00  0.00     0.223 A 
ATOM     20 CL7  SZ6 d   1      47.742 -43.715 -10.288  0.00  0.00    -0.041 Cl
ATOM     21  N4  SZ6 d   1      45.811 -45.199  -9.358  0.00  0.00    -0.217 NA
BRANCH  15  22
ATOM     22  C8  SZ6 d   1      44.080 -45.528  -6.108  0.00  0.00    -0.048 C 
ATOM     23  H   SZ6 d   1      44.291 -44.942  -5.201  0.00  0.00     0.033 H 
ATOM     24  H   SZ6 d   1      44.237 -46.596  -5.899  0.00  0.00     0.033 H 
ATOM     25  H   SZ6 d   1      43.037 -45.364  -6.416  0.00  0.00     0.033 H 
ENDBRANCH  15  22
ENDBRANCH   8  14
ENDBRANCH   1   4
BRANCH   1  26
ATOM     26  C17 SZ6 d   1      41.836 -50.903 -10.010  0.00  0.00     0.027 C 
ATOM     27  H   SZ6 d   1      40.953 -51.552 -10.104  0.00  0.00     0.072 H 
ATOM     28  H   SZ6 d   1      42.325 -51.087  -9.042  0.00  0.00     0.072 H 
BRANCH  26  29
ATOM     29  C20 SZ6 d   1      42.797 -51.251 -11.099  0.00  0.00    -0.040 A 
ATOM     30  C25 SZ6 d   1      44.136 -51.420 -10.855  0.00  0.00    -0.075 A 
ATOM     31  C24 SZ6 d   1      44.994 -51.734 -11.880  0.00  0.00    -0.075 A 
ATOM     32  H   SZ6 d   1      44.519 -51.305  -9.848  0.00  0.00     0.084 H 
ATOM     33  C23 SZ6 d   1      44.492 -51.921 -13.139  0.00  0.00    -0.041 A 
ATOM     34  H   SZ6 d   1      46.057 -51.833 -11.694  0.00  0.00     0.084 H 
ATOM     35  C22 SZ6 d   1      43.157 -51.751 -13.373  0.00  0.00    -0.075 A 
ATOM     36  C21 SZ6 d   1      42.310 -51.429 -12.356  0.00  0.00    -0.075 A 
ATOM     37  H   SZ6 d   1      42.768 -51.873 -14.377  0.00  0.00     0.084 H 
ATOM     38  H   SZ6 d   1      41.249 -51.315 -12.548  0.00  0.00     0.084 H 
BRANCH  33  39
ATOM     39  C26 SZ6 d   1      45.376 -52.254 -14.308  0.00  0.00     0.019 C 
ATOM     40  H   SZ6 d   1      46.354 -51.778 -14.144  0.00  0.00     0.071 H 
ATOM     41  H   SZ6 d   1      44.914 -51.839 -15.216  0.00  0.00     0.071 H 
BRANCH  39  42
ATOM     42  N27 SZ6 d   1      45.596 -53.675 -14.523  0.00  0.00    -0.352 N 
ATOM     43  C35 SZ6 d   1      46.756 -54.190 -14.209  0.00  0.00     0.283 C 
ATOM     44  O37 SZ6 d   1      47.651 -53.566 -13.690  0.00  0.00    -0.267 OA
ATOM     45  H   SZ6 d   1      44.872 -54.249 -14.905  0.00  0.00     0.162 HD
BRANCH  43  46
ATOM     46  C36 SZ6 d   1      46.974 -55.634 -14.459  0.00  0.00     0.283 C 
ATOM     47  F39 SZ6 d   1      45.784 -56.270 -14.466  0.00  0.00    -0.204 F 
ATOM     48  F38 SZ6 d   1      47.746 -56.087 -13.433  0.00  0.00    -0.204 F 
ATOM     49  H   SZ6 d   1      47.485 -55.788 -15.421  0.00  0.00     0.161 H 
ENDBRANCH  43  46
ENDBRANCH  39  42
ENDBRANCH  33  39
ENDBRANCH  26  29
ENDBRANCH   1  26
BRANCH   2  50
ATOM     50  C18 SZ6 d   1      39.779 -47.783 -10.422  0.00  0.00     0.065 A 
ATOM     51  C28 SZ6 d   1      39.678 -47.151  -9.207  0.00  0.00    -0.062 A 
ATOM     52  C29 SZ6 d   1      39.270 -45.840  -9.148  0.00  0.00    -0.050 A 
ATOM     53  H   SZ6 d   1      39.920 -47.686  -8.296  0.00  0.00     0.085 H 
ATOM     54  C30 SZ6 d   1      38.952 -45.181 -10.292  0.00  0.00     0.068 A 
ATOM     55  H   SZ6 d   1      39.202 -45.334  -8.192  0.00  0.00     0.087 H 
ATOM     56  C31 SZ6 d   1      39.045 -45.803 -11.491  0.00  0.00    -0.018 A 
ATOM     57  C32 SZ6 d   1      39.436 -47.108 -11.548  0.00  0.00     0.084 A 
ATOM     58  H   SZ6 d   1      38.809 -45.265 -12.402  0.00  0.00     0.092 H 
BRANCH  54  59
ATOM     59  O33 SZ6 d   1      38.569 -43.922 -10.256  0.00  0.00    -0.361 OA
ATOM     60  H   SZ6 d   1      38.388 -43.622 -11.139  0.00  0.00     0.217 HD
ENDBRANCH  54  59
BRANCH  57  61
ATOM     61  O34 SZ6 d   1      39.526 -47.728 -12.710  0.00  0.00    -0.360 OA
ATOM     62  H   SZ6 d   1      38.676 -47.727 -13.135  0.00  0.00     0.217 HD
ENDBRANCH  57  61
ENDBRANCH   2  50
TORSDOF 11
