REMARK  6 active torsions:
REMARK  status: ('A' for Active; 'I' for Inactive)
REMARK    1  A    between atoms: CAW_13  and  CAV_14 
REMARK    2  A    between atoms: CAU_19  and  CAS_20 
REMARK    3  A    between atoms: CAS_20  and  CBB_21 
REMARK    4  A    between atoms: CBB_21  and  PBC_22 
REMARK    5  A    between atoms: CBB_21  and  PBD_26 
REMARK    6  A    between atoms: CBB_21  and  OAC_30 
ROOT
ATOM      1  CAV B29 d   1       1.648 -12.792  -7.228  0.00  0.00    -0.047 A 
ATOM      2  CAR B29 d   1       0.331 -12.651  -6.709  0.00  0.00    -0.070 A 
ATOM      3  CAM B29 d   1       1.910 -12.253  -8.548  0.00  0.00    -0.076 A 
ATOM      4  CAJ B29 d   1       0.897 -11.618  -9.291  0.00  0.00    -0.082 A 
ATOM      5  CAL B29 d   1      -0.388 -11.492  -8.759  0.00  0.00    -0.077 A 
ATOM      6  CAU B29 d   1      -0.673 -12.001  -7.483  0.00  0.00    -0.053 A 
ATOM      7  H10 B29 d   1       0.091 -13.038  -5.725  0.00  0.00     0.085 H 
ATOM      8  H11 B29 d   1       2.904 -12.341  -8.971  0.00  0.00     0.084 H 
ATOM      9  H12 B29 d   1       1.115 -11.226 -10.278  0.00  0.00     0.083 H 
ATOM     10  H13 B29 d   1      -1.166 -11.001  -9.332  0.00  0.00     0.084 H 
ENDROOT
BRANCH   1  11
ATOM     11  CAW B29 d   1       2.666 -13.468  -6.422  0.00  0.00     0.022 A 
ATOM     12  CBA B29 d   1       3.255 -12.736  -5.288  0.00  0.00     0.073 A 
ATOM     13  OAT B29 d   1       2.778 -12.142  -4.161  0.00  0.00    -0.313 OA
ATOM     14  CAZ B29 d   1       4.668 -12.568  -5.292  0.00  0.00     0.007 A 
ATOM     15  CAX B29 d   1       3.829 -11.611  -3.457  0.00  0.00     0.086 A 
ATOM     16  CAY B29 d   1       5.019 -11.875  -4.166  0.00  0.00     0.010 A 
ATOM     17  CAO B29 d   1       3.899 -10.908  -2.238  0.00  0.00    -0.049 A 
ATOM     18  CAP B29 d   1       6.272 -11.439  -3.674  0.00  0.00    -0.069 A 
ATOM     19  CAI B29 d   1       6.336 -10.736  -2.458  0.00  0.00    -0.082 A 
ATOM     20  H1  B29 d   1       7.178 -11.646  -4.232  0.00  0.00     0.085 H 
ATOM     21  CAH B29 d   1       5.150 -10.471  -1.740  0.00  0.00    -0.080 A 
ATOM     22  H2  B29 d   1       7.292 -10.399  -2.074  0.00  0.00     0.083 H 
ATOM     23  H3  B29 d   1       5.197  -9.930  -0.802  0.00  0.00     0.083 H 
ATOM     24  H4  B29 d   1       2.993 -10.701  -1.680  0.00  0.00     0.087 H 
ATOM     25  CAQ B29 d   1       5.446 -13.081  -6.337  0.00  0.00    -0.073 A 
ATOM     26  CAK B29 d   1       4.848 -13.769  -7.386  0.00  0.00    -0.101 A 
ATOM     27  H5  B29 d   1       6.526 -12.940  -6.328  0.00  0.00     0.084 H 
ATOM     28  CAN B29 d   1       3.446 -13.954  -7.405  0.00  0.00    -0.037 A 
ATOM     29  H6  B29 d   1       5.460 -14.166  -8.195  0.00  0.00     0.076 H 
ATOM     30  H7  B29 d   1       3.275 -15.040  -7.431  0.00  0.00     0.040 H 
ATOM     31  H8  B29 d   1       3.085 -13.504  -8.341  0.00  0.00     0.040 H 
ATOM     32  H9  B29 d   1       2.183 -14.332  -5.943  0.00  0.00     0.058 H 
ENDBRANCH   1  11
BRANCH   6  33
ATOM     33  CAS B29 d   1      -2.071 -11.848  -6.938  0.00  0.00     0.014 C 
ATOM     34  H14 B29 d   1      -2.499 -11.342  -7.816  0.00  0.00     0.046 H 
ATOM     35  H15 B29 d   1      -1.829 -11.102  -6.166  0.00  0.00     0.046 H 
BRANCH  33  36
ATOM     36  CBB B29 d   1      -3.343 -12.294  -6.357  0.00  0.00     0.289 C 
BRANCH  36  37
ATOM     37  PBC B29 d   1      -4.117 -10.832  -5.467  0.00  0.00     0.310 P 
ATOM     38  OAD B29 d   1      -5.596 -10.639  -6.081  0.00  0.00    -0.637 OA
ATOM     39  OAE B29 d   1      -4.270 -11.263  -3.933  0.00  0.00    -0.637 OA
ATOM     40  OAA B29 d   1      -3.308  -9.595  -5.593  0.00  0.00    -0.637 OA
ENDBRANCH  36  37
BRANCH  36  41
ATOM     41  PBD B29 d   1      -4.459 -12.937  -7.713  0.00  0.00     0.310 P 
ATOM     42  OAF B29 d   1      -4.432 -11.825  -8.872  0.00  0.00    -0.637 OA
ATOM     43  OAG B29 d   1      -3.779 -14.265  -8.299  0.00  0.00    -0.637 OA
ATOM     44  OAB B29 d   1      -5.836 -13.195  -7.240  0.00  0.00    -0.637 OA
ENDBRANCH  36  41
BRANCH  36  45
ATOM     45  OAC B29 d   1      -3.098 -13.337  -5.424  0.00  0.00    -0.365 OA
ATOM     46  H16 B29 d   1      -2.707 -14.077  -5.873  0.00  0.00     0.212 HD
ENDBRANCH  36  45
ENDBRANCH  33  36
ENDBRANCH   6  33
TORSDOF 6
