REMARK  6 active torsions:
REMARK  status: ('A' for Active; 'I' for Inactive)
REMARK       I    between atoms: N17_27  and  C18_2 
REMARK       I    between atoms: C18_2  and  N20_29 
REMARK    1  A    between atoms: C12_4  and  N14_26 
REMARK    2  A    between atoms: C16_6  and  N17_27 
REMARK    3  A    between atoms: N20_29  and  C21_11 
REMARK    4  A    between atoms: C02_18  and  C01_17 
REMARK    5  A    between atoms: N05_21  and  C04_20 
REMARK       I    between atoms: C06_22  and  N05_21 
REMARK    6  A    between atoms: C06_22  and  C08_24 
ROOT
ATOM      1  C10 3H8 d   1      76.500  76.811  29.719  0.00  0.00    -0.080 A 
ATOM      2  C11 3H8 d   1      75.444  77.500  30.314  0.00  0.00    -0.055 A 
ATOM      3  C12 3H8 d   1      74.902  77.044  31.524  0.00  0.00     0.059 A 
ATOM      4  C13 3H8 d   1      75.402  75.879  32.096  0.00  0.00    -0.040 A 
ATOM      5  C08 3H8 d   1      76.445  75.174  31.491  0.00  0.00     0.034 A 
ATOM      6  C09 3H8 d   1      77.000  75.641  30.294  0.00  0.00    -0.068 A 
ATOM      7  H1  3H8 d   1      76.937  77.187  28.801  0.00  0.00     0.083 H 
ATOM      8  H2  3H8 d   1      75.042  78.389  29.841  0.00  0.00     0.087 H 
ATOM      9  H3  3H8 d   1      74.977  75.513  33.024  0.00  0.00     0.088 H 
ATOM     10  H16 3H8 d   1      77.810  75.100  29.818  0.00  0.00     0.085 H 
ENDROOT
BRANCH   3  11
ATOM     11  N14 3H8 d   1      73.908  77.710  32.138  0.00  0.00    -0.243 N 
ATOM     12  C15 3H8 d   1      73.840  79.052  32.277  0.00  0.00     0.032 A 
ATOM     13  C16 3H8 d   1      72.637  79.360  32.882  0.00  0.00     0.073 A 
ATOM     14  H4  3H8 d   1      74.601  79.766  31.966  0.00  0.00     0.118 H 
ATOM     15  C28 3H8 d   1      72.030  78.149  33.197  0.00  0.00     0.049 A 
ATOM     16  N29 3H8 d   1      72.814  77.153  32.733  0.00  0.00    -0.178 NA
ATOM     17  H10 3H8 d   1      71.086  78.026  33.726  0.00  0.00     0.121 H 
BRANCH  13  18
ATOM     18  N17 3H8 d   1      72.256  80.576  33.345  0.00  0.00    -0.306 N 
ATOM     19  C18 3H8 d   1      72.841  81.817  32.989  0.00  0.00     0.325 C 
ATOM     20  O19 3H8 d   1      73.647  81.859  32.098  0.00  0.00    -0.247 OA
ATOM     21  N20 3H8 d   1      72.465  83.048  33.595  0.00  0.00    -0.307 N 
ATOM     22  H18 3H8 d   1      72.831  83.896  33.211  0.00  0.00     0.170 HD
ATOM     23  H17 3H8 d   1      71.496  80.599  33.994  0.00  0.00     0.171 HD
BRANCH  21  24
ATOM     24  C21 3H8 d   1      71.591  83.138  34.725  0.00  0.00     0.058 A 
ATOM     25  C22 3H8 d   1      71.838  82.317  35.863  0.00  0.00    -0.055 A 
ATOM     26  C23 3H8 d   1      71.021  82.395  36.998  0.00  0.00    -0.081 A 
ATOM     27  H7  3H8 d   1      72.670  81.622  35.850  0.00  0.00     0.087 H 
ATOM     28  C24 3H8 d   1      69.956  83.308  37.014  0.00  0.00    -0.081 A 
ATOM     29  H5  3H8 d   1      71.209  81.757  37.854  0.00  0.00     0.083 H 
ATOM     30  C25 3H8 d   1      69.751  84.144  35.911  0.00  0.00    -0.060 A 
ATOM     31  H6  3H8 d   1      69.298  83.365  37.873  0.00  0.00     0.083 H 
ATOM     32  C26 3H8 d   1      70.538  84.040  34.742  0.00  0.00     0.060 A 
ATOM     33  H19 3H8 d   1      68.967  84.892  35.954  0.00  0.00     0.086 H 
ATOM     34 CL   3H8 d   1      70.238  85.110  33.393  0.00  0.00    -0.082 Cl
ENDBRANCH  21  24
ENDBRANCH  13  18
ENDBRANCH   3  11
BRANCH   5  35
ATOM     35  C06 3H8 d   1      76.947  73.964  32.196  0.00  0.00     0.256 C 
ATOM     36  N05 3H8 d   1      76.002  73.133  32.907  0.00  0.00    -0.323 N 
ATOM     37  H15 3H8 d   1      75.038  73.393  32.842  0.00  0.00     0.169 HD
ATOM     38  O07 3H8 d   1      78.150  73.721  32.190  0.00  0.00    -0.267 OA
BRANCH  36  39
ATOM     39  C04 3H8 d   1      76.304  71.976  33.695  0.00  0.00     0.038 A 
ATOM     40  C30 3H8 d   1      77.446  71.945  34.504  0.00  0.00    -0.040 A 
ATOM     41  C31 3H8 d   1      77.693  70.853  35.339  0.00  0.00     0.005 A 
ATOM     42  H9  3H8 d   1      78.144  72.774  34.482  0.00  0.00     0.089 H 
ATOM     43  N32 3H8 d   1      76.811  69.832  35.364  0.00  0.00    -0.266 NA
ATOM     44  H8  3H8 d   1      78.582  70.826  35.959  0.00  0.00     0.114 H 
ATOM     45  C02 3H8 d   1      75.686  69.849  34.625  0.00  0.00     0.032 A 
ATOM     46  C03 3H8 d   1      75.387  70.927  33.784  0.00  0.00    -0.034 A 
ATOM     47  H14 3H8 d   1      74.465  70.947  33.215  0.00  0.00     0.090 H 
BRANCH  45  48
ATOM     48  C01 3H8 d   1      74.767  68.699  34.719  0.00  0.00    -0.035 C 
ATOM     49  H11 3H8 d   1      73.903  68.865  34.059  0.00  0.00     0.035 H 
ATOM     50  H12 3H8 d   1      74.420  68.591  35.757  0.00  0.00     0.035 H 
ATOM     51  H13 3H8 d   1      75.293  67.783  34.410  0.00  0.00     0.035 H 
ENDBRANCH  45  48
ENDBRANCH  36  39
ENDBRANCH   5  35
TORSDOF 6
