REMARK  6 active torsions:
REMARK  status: ('A' for Active; 'I' for Inactive)
REMARK    1  A    between atoms: N20_3  and  C21_4 
REMARK       I    between atoms: C18_26  and  N20_3 
REMARK    2  A    between atoms: C02_12  and  C01_11 
REMARK    3  A    between atoms: N05_15  and  C04_14 
REMARK       I    between atoms: C06_16  and  N05_15 
REMARK    4  A    between atoms: C08_18  and  C06_16 
REMARK    5  A    between atoms: N14_23  and  C12_22 
REMARK    6  A    between atoms: N17_25  and  C16_24 
REMARK       I    between atoms: N17_25  and  C18_26 
ROOT
ATOM      1  C13 3HJ d   1       2.974 -30.927 -31.976  0.00  0.00    -0.040 A 
ATOM      2  C08 3HJ d   1       1.886 -31.628 -31.434  0.00  0.00     0.034 A 
ATOM      3  C09 3HJ d   1       1.210 -31.115 -30.306  0.00  0.00    -0.068 A 
ATOM      4  C10 3HJ d   1       1.646 -29.910 -29.702  0.00  0.00    -0.080 A 
ATOM      5  C11 3HJ d   1       2.770 -29.258 -30.199  0.00  0.00    -0.055 A 
ATOM      6  C12 3HJ d   1       3.460 -29.772 -31.337  0.00  0.00     0.059 A 
ATOM      7  H1  3HJ d   1       3.441 -31.276 -32.890  0.00  0.00     0.088 H 
ATOM      8  H15 3HJ d   1       0.355 -31.644 -29.901  0.00  0.00     0.085 H 
ATOM      9  H16 3HJ d   1       1.107 -29.498 -28.857  0.00  0.00     0.083 H 
ATOM     10  H17 3HJ d   1       3.124 -28.353 -29.718  0.00  0.00     0.087 H 
ENDROOT
BRANCH   6  11
ATOM     11  N14 3HJ d   1       4.494 -29.058 -31.903  0.00  0.00    -0.243 N 
ATOM     12  C15 3HJ d   1       4.494 -27.720 -32.050  0.00  0.00     0.032 C 
ATOM     13  C16 3HJ d   1       5.668 -27.372 -32.706  0.00  0.00     0.073 C 
ATOM     14  H2  3HJ d   1       3.716 -27.035 -31.716  0.00  0.00     0.118 H 
ATOM     15  C27 3HJ d   1       6.329 -28.574 -33.035  0.00  0.00     0.049 C 
ATOM     16  N28 3HJ d   1       5.565 -29.563 -32.600  0.00  0.00    -0.178 NA
ATOM     17  H7  3HJ d   1       7.285 -28.670 -33.548  0.00  0.00     0.121 H 
BRANCH  13  18
ATOM     18  N17 3HJ d   1       6.085 -26.088 -33.086  0.00  0.00    -0.306 N 
ATOM     19  C18 3HJ d   1       5.488 -24.912 -32.677  0.00  0.00     0.325 C 
ATOM     20  N20 3HJ d   1       5.931 -23.643 -33.198  0.00  0.00    -0.309 N 
ATOM     21  O19 3HJ d   1       4.577 -24.939 -31.923  0.00  0.00    -0.247 OA
ATOM     22  H3  3HJ d   1       5.532 -22.813 -32.807  0.00  0.00     0.170 HD
ATOM     23  H18 3HJ d   1       6.873 -26.019 -33.698  0.00  0.00     0.171 HD
BRANCH  20  24
ATOM     24  C21 3HJ d   1       6.921 -23.488 -34.256  0.00  0.00     0.036 A 
ATOM     25  C22 3HJ d   1       7.902 -22.482 -34.178  0.00  0.00    -0.057 A 
ATOM     26  C23 3HJ d   1       8.789 -22.342 -35.242  0.00  0.00    -0.081 A 
ATOM     27  H19 3HJ d   1       7.965 -21.833 -33.312  0.00  0.00     0.086 H 
ATOM     28  C24 3HJ d   1       8.696 -23.144 -36.389  0.00  0.00    -0.083 A 
ATOM     29  H4  3HJ d   1       9.571 -21.594 -35.182  0.00  0.00     0.083 H 
ATOM     30  C25 3HJ d   1       7.656 -24.079 -36.515  0.00  0.00    -0.081 A 
ATOM     31  H5  3HJ d   1       9.429 -23.042 -37.181  0.00  0.00     0.083 H 
ATOM     32  C26 3HJ d   1       6.798 -24.260 -35.442  0.00  0.00    -0.057 A 
ATOM     33  H6  3HJ d   1       7.527 -24.646 -37.430  0.00  0.00     0.083 H 
ATOM     34  H20 3HJ d   1       6.016 -25.007 -35.509  0.00  0.00     0.086 H 
ENDBRANCH  20  24
ENDBRANCH  13  18
ENDBRANCH   6  11
BRANCH   2  35
ATOM     35  C06 3HJ d   1       1.395 -32.863 -32.145  0.00  0.00     0.256 C 
ATOM     36  N05 3HJ d   1       2.362 -33.592 -32.878  0.00  0.00    -0.323 N 
ATOM     37  H14 3HJ d   1       3.303 -33.260 -32.810  0.00  0.00     0.169 HD
ATOM     38  O07 3HJ d   1       0.228 -33.194 -32.076  0.00  0.00    -0.267 OA
BRANCH  36  39
ATOM     39  C04 3HJ d   1       2.158 -34.777 -33.727  0.00  0.00     0.038 A 
ATOM     40  C29 3HJ d   1       1.128 -34.813 -34.666  0.00  0.00    -0.040 A 
ATOM     41  C30 3HJ d   1       1.018 -35.892 -35.521  0.00  0.00     0.005 A 
ATOM     42  H8  3HJ d   1       0.416 -33.997 -34.725  0.00  0.00     0.089 H 
ATOM     43  N31 3HJ d   1       1.955 -36.876 -35.487  0.00  0.00    -0.266 NA
ATOM     44  H9  3HJ d   1       0.188 -35.954 -36.216  0.00  0.00     0.114 H 
ATOM     45  C02 3HJ d   1       2.979 -36.836 -34.618  0.00  0.00     0.032 A 
ATOM     46  C03 3HJ d   1       3.120 -35.788 -33.727  0.00  0.00    -0.034 A 
ATOM     47  H13 3HJ d   1       3.960 -35.752 -33.043  0.00  0.00     0.090 H 
BRANCH  45  48
ATOM     48  C01 3HJ d   1       3.980 -37.962 -34.617  0.00  0.00    -0.035 C 
ATOM     49  H10 3HJ d   1       4.745 -37.771 -33.850  0.00  0.00     0.035 H 
ATOM     50  H11 3HJ d   1       4.459 -38.028 -35.605  0.00  0.00     0.035 H 
ATOM     51  H12 3HJ d   1       3.466 -38.909 -34.395  0.00  0.00     0.035 H 
ENDBRANCH  45  48
ENDBRANCH  36  39
ENDBRANCH   2  35
TORSDOF 6
