REMARK  6 active torsions:
REMARK  status: ('A' for Active; 'I' for Inactive)
REMARK    1  A    between atoms: C02_3  and  C01_2 
REMARK    2  A    between atoms: N05_6  and  C04_5 
REMARK       I    between atoms: C06_7  and  N05_6 
REMARK    3  A    between atoms: C08_9  and  C06_7 
REMARK    4  A    between atoms: C12_12  and  N14_14 
REMARK    5  A    between atoms: C16_16  and  N17_17 
REMARK       I    between atoms: N17_17  and  C18_18 
REMARK       I    between atoms: C18_18  and  N20_20 
REMARK    6  A    between atoms: N20_20  and  C21_21 
ROOT
ATOM      1  C10 3HN d   1      -1.364  30.264 -29.639  0.00  0.00    -0.080 A 
ATOM      2  C08 3HN d   1      -1.623  31.895 -31.375  0.00  0.00     0.034 A 
ATOM      3  C09 3HN d   1      -0.912  31.406 -30.279  0.00  0.00    -0.068 A 
ATOM      4  C11 3HN d   1      -2.488  29.588 -30.114  0.00  0.00    -0.055 A 
ATOM      5  C12 3HN d   1      -3.190  30.066 -31.210  0.00  0.00     0.059 A 
ATOM      6  C13 3HN d   1      -2.715  31.182 -31.870  0.00  0.00    -0.040 A 
ATOM      7  H1  3HN d   1      -0.842  29.893 -28.764  0.00  0.00     0.083 H 
ATOM      8  H7  3HN d   1      -0.018  31.913 -29.933  0.00  0.00     0.085 H 
ATOM      9  H8  3HN d   1      -2.816  28.680 -29.621  0.00  0.00     0.087 H 
ATOM     10  H9  3HN d   1      -3.197  31.508 -32.785  0.00  0.00     0.088 H 
ENDROOT
BRANCH   5  11
ATOM     11  N14 3HN d   1      -4.221  29.385 -31.752  0.00  0.00    -0.243 N 
ATOM     12  C15 3HN d   1      -4.192  28.071 -32.014  0.00  0.00     0.032 A 
ATOM     13  C16 3HN d   1      -5.373  27.719 -32.649  0.00  0.00     0.073 A 
ATOM     14  H10 3HN d   1      -3.376  27.392 -31.769  0.00  0.00     0.118 H 
ATOM     15  C28 3HN d   1      -6.076  28.893 -32.839  0.00  0.00     0.049 A 
ATOM     16  N29 3HN d   1      -5.350  29.890 -32.296  0.00  0.00    -0.178 NA
ATOM     17  H17 3HN d   1      -7.040  28.994 -33.336  0.00  0.00     0.121 H 
BRANCH  13  18
ATOM     18  N17 3HN d   1      -5.790  26.424 -33.071  0.00  0.00    -0.306 N 
ATOM     19  C18 3HN d   1      -5.142  25.211 -32.663  0.00  0.00     0.325 C 
ATOM     20  O19 3HN d   1      -4.226  25.226 -31.883  0.00  0.00    -0.247 OA
ATOM     21  N20 3HN d   1      -5.524  23.914 -33.070  0.00  0.00    -0.309 N 
ATOM     22  H12 3HN d   1      -5.056  23.128 -32.666  0.00  0.00     0.170 HD
ATOM     23  H11 3HN d   1      -6.577  26.357 -33.685  0.00  0.00     0.171 HD
BRANCH  21  24
ATOM     24  C21 3HN d   1      -6.533  23.679 -34.018  0.00  0.00     0.036 C 
ATOM     25  C22 3HN d   1      -7.471  22.662 -33.801  0.00  0.00    -0.054 C 
ATOM     26  C23 3HN d   1      -8.445  22.480 -34.776  0.00  0.00    -0.044 C 
ATOM     27  H13 3HN d   1      -7.439  22.044 -32.911  0.00  0.00     0.087 H 
ATOM     28  C24 3HN d   1      -8.409  23.250 -35.967  0.00  0.00     0.116 C 
ATOM     29  H14 3HN d   1      -9.232  21.750 -34.626  0.00  0.00     0.088 H 
ATOM     30  F25 3HN d   1      -9.343  23.133 -36.911  0.00  0.00    -0.206 F 
ATOM     31  C26 3HN d   1      -7.413  24.178 -36.208  0.00  0.00    -0.044 C 
ATOM     32  C27 3HN d   1      -6.433  24.340 -35.256  0.00  0.00    -0.054 C 
ATOM     33  H15 3HN d   1      -7.404  24.762 -37.121  0.00  0.00     0.088 H 
ATOM     34  H16 3HN d   1      -5.581  24.979 -35.460  0.00  0.00     0.087 H 
ENDBRANCH  21  24
ENDBRANCH  13  18
ENDBRANCH   5  11
BRANCH   2  35
ATOM     35  C06 3HN d   1      -1.152  33.116 -32.141  0.00  0.00     0.256 C 
ATOM     36  N05 3HN d   1      -2.160  33.934 -32.718  0.00  0.00    -0.323 N 
ATOM     37  H6  3HN d   1      -3.109  33.669 -32.546  0.00  0.00     0.169 HD
ATOM     38  O07 3HN d   1       0.043  33.321 -32.279  0.00  0.00    -0.267 OA
BRANCH  36  39
ATOM     39  C04 3HN d   1      -1.953  35.087 -33.512  0.00  0.00     0.038 A 
ATOM     40  C03 3HN d   1      -2.961  36.037 -33.505  0.00  0.00    -0.034 A 
ATOM     41  C02 3HN d   1      -2.897  37.101 -34.388  0.00  0.00     0.032 A 
ATOM     42  H5  3HN d   1      -3.792  35.948 -32.815  0.00  0.00     0.090 H 
ATOM     43  N32 3HN d   1      -1.883  37.206 -35.279  0.00  0.00    -0.266 NA
ATOM     44  C31 3HN d   1      -0.915  36.271 -35.338  0.00  0.00     0.005 A 
ATOM     45  C30 3HN d   1      -0.958  35.179 -34.478  0.00  0.00    -0.040 A 
ATOM     46  H19 3HN d   1      -0.106  36.369 -36.053  0.00  0.00     0.114 H 
ATOM     47  H18 3HN d   1      -0.212  34.397 -34.561  0.00  0.00     0.089 H 
BRANCH  41  48
ATOM     48  C01 3HN d   1      -3.988  38.155 -34.336  0.00  0.00    -0.035 C 
ATOM     49  H2  3HN d   1      -4.714  37.893 -33.553  0.00  0.00     0.035 H 
ATOM     50  H3  3HN d   1      -4.499  38.202 -35.309  0.00  0.00     0.035 H 
ATOM     51  H4  3HN d   1      -3.541  39.134 -34.109  0.00  0.00     0.035 H 
ENDBRANCH  41  48
ENDBRANCH  36  39
ENDBRANCH   2  35
TORSDOF 6
