REMARK  7 active torsions:
REMARK  status: ('A' for Active; 'I' for Inactive)
REMARK    1  A    between atoms: C01_1  and  C02_2 
REMARK    2  A    between atoms: C05_5  and  N06_6 
REMARK       I    between atoms: N06_6  and  C07_7 
REMARK       I    between atoms: C07_7  and  N09_9 
REMARK    3  A    between atoms: N09_9  and  C10_10 
REMARK    4  A    between atoms: N13_13  and  C15_15 
REMARK    5  A    between atoms: C19_19  and  C21_21 
REMARK       I    between atoms: C21_21  and  N23_23 
REMARK    6  A    between atoms: N23_23  and  C24_24 
REMARK    7  A    between atoms: C28_28  and  C29_29 
ROOT
ATOM      1  C10 3HQ d   1       5.424 -27.697 -32.644  0.00  0.00     0.073 A 
ATOM      2  C11 3HQ d   1       6.125 -28.829 -32.919  0.00  0.00     0.049 A 
ATOM      3  N12 3HQ d   1       5.402 -29.844 -32.458  0.00  0.00    -0.178 NA
ATOM      4  N13 3HQ d   1       4.283 -29.395 -31.872  0.00  0.00    -0.243 N 
ATOM      5  C14 3HQ d   1       4.260 -28.092 -32.022  0.00  0.00     0.032 A 
ATOM      6  H8  3HQ d   1       7.090 -28.892 -33.419  0.00  0.00     0.121 H 
ATOM      7  H9  3HQ d   1       3.454 -27.431 -31.707  0.00  0.00     0.118 H 
ENDROOT
BRANCH   4   8
ATOM      8  C15 3HQ d   1       3.289 -30.110 -31.330  0.00  0.00     0.059 A 
ATOM      9  C16 3HQ d   1       2.637 -29.691 -30.161  0.00  0.00    -0.055 A 
ATOM     10  C17 3HQ d   1       1.559 -30.410 -29.662  0.00  0.00    -0.080 A 
ATOM     11  H10 3HQ d   1       2.977 -28.801 -29.644  0.00  0.00     0.087 H 
ATOM     12  C18 3HQ d   1       1.138 -31.578 -30.289  0.00  0.00    -0.068 A 
ATOM     13  H11 3HQ d   1       1.042 -30.058 -28.777  0.00  0.00     0.083 H 
ATOM     14  C19 3HQ d   1       1.763 -32.005 -31.446  0.00  0.00     0.034 A 
ATOM     15  H12 3HQ d   1       0.320 -32.153 -29.871  0.00  0.00     0.085 H 
ATOM     16  C20 3HQ d   1       2.837 -31.256 -31.965  0.00  0.00    -0.040 A 
ATOM     17  H13 3HQ d   1       3.320 -31.582 -32.879  0.00  0.00     0.088 H 
BRANCH  14  18
ATOM     18  C21 3HQ d   1       1.345 -33.245 -32.154  0.00  0.00     0.256 C 
ATOM     19  O22 3HQ d   1       0.208 -33.657 -32.102  0.00  0.00    -0.267 OA
ATOM     20  N23 3HQ d   1       2.341 -33.921 -32.910  0.00  0.00    -0.323 N 
ATOM     21  H14 3HQ d   1       3.254 -33.513 -32.899  0.00  0.00     0.169 HD
BRANCH  20  22
ATOM     22  C24 3HQ d   1       2.195 -35.122 -33.690  0.00  0.00     0.038 A 
ATOM     23  C25 3HQ d   1       1.148 -35.283 -34.626  0.00  0.00    -0.040 A 
ATOM     24  C26 3HQ d   1       1.107 -36.431 -35.416  0.00  0.00     0.005 A 
ATOM     25  H15 3HQ d   1       0.384 -34.521 -34.729  0.00  0.00     0.089 H 
ATOM     26  N27 3HQ d   1       2.087 -37.366 -35.308  0.00  0.00    -0.266 NA
ATOM     27  H16 3HQ d   1       0.293 -36.578 -36.117  0.00  0.00     0.114 H 
ATOM     28  C28 3HQ d   1       3.131 -37.214 -34.451  0.00  0.00     0.032 A 
ATOM     29  C30 3HQ d   1       3.199 -36.079 -33.632  0.00  0.00    -0.034 A 
ATOM     30  H20 3HQ d   1       4.035 -35.948 -32.954  0.00  0.00     0.090 H 
BRANCH  28  31
ATOM     31  C29 3HQ d   1       4.209 -38.286 -34.365  0.00  0.00    -0.035 C 
ATOM     32  H17 3HQ d   1       4.964 -37.988 -33.623  0.00  0.00     0.035 H 
ATOM     33  H18 3HQ d   1       4.688 -38.404 -35.348  0.00  0.00     0.035 H 
ATOM     34  H19 3HQ d   1       3.754 -39.240 -34.062  0.00  0.00     0.035 H 
ENDBRANCH  28  31
ENDBRANCH  20  22
ENDBRANCH  14  18
ENDBRANCH   4   8
BRANCH   1  35
ATOM     35  N09 3HQ d   1       5.759 -26.396 -32.991  0.00  0.00    -0.306 N 
ATOM     36  C07 3HQ d   1       4.986 -25.266 -32.579  0.00  0.00     0.325 C 
ATOM     37  N06 3HQ d   1       5.320 -23.955 -33.047  0.00  0.00    -0.309 N 
ATOM     38  O08 3HQ d   1       4.018 -25.387 -31.818  0.00  0.00    -0.247 OA
ATOM     39  H6  3HQ d   1       4.778 -23.171 -32.746  0.00  0.00     0.170 HD
ATOM     40  H7  3HQ d   1       6.573 -26.243 -33.551  0.00  0.00     0.171 HD
BRANCH  37  41
ATOM     41  C05 3HQ d   1       6.409 -23.754 -33.931  0.00  0.00     0.036 A 
ATOM     42  C04 3HQ d   1       6.393 -24.366 -35.153  0.00  0.00    -0.057 A 
ATOM     43  C03 3HQ d   1       7.452 -24.197 -36.044  0.00  0.00    -0.075 A 
ATOM     44  H5  3HQ d   1       5.550 -24.988 -35.432  0.00  0.00     0.086 H 
ATOM     45  C02 3HQ d   1       8.476 -23.358 -35.678  0.00  0.00    -0.062 A 
ATOM     46  H4  3HQ d   1       7.467 -24.713 -36.997  0.00  0.00     0.084 H 
ATOM     47  C32 3HQ d   1       8.473 -22.688 -34.447  0.00  0.00    -0.075 A 
ATOM     48  C31 3HQ d   1       7.440 -22.855 -33.562  0.00  0.00    -0.057 A 
ATOM     49  H22 3HQ d   1       9.296 -22.031 -34.192  0.00  0.00     0.084 H 
ATOM     50  H21 3HQ d   1       7.413 -22.321 -32.619  0.00  0.00     0.086 H 
BRANCH  45  51
ATOM     51  C01 3HQ d   1       9.635 -23.155 -36.645  0.00  0.00    -0.051 C 
ATOM     52  H1  3HQ d   1       9.466 -23.756 -37.551  0.00  0.00     0.033 H 
ATOM     53  H2  3HQ d   1      10.573 -23.471 -36.165  0.00  0.00     0.033 H 
ATOM     54  H3  3HQ d   1       9.703 -22.092 -36.918  0.00  0.00     0.033 H 
ENDBRANCH  45  51
ENDBRANCH  37  41
ENDBRANCH   1  35
TORSDOF 7
