REMARK  28 active torsions:
REMARK  status: ('A' for Active; 'I' for Inactive)
REMARK    1  A    between atoms: N_1  and  CA_2 
REMARK    2  A    between atoms: CA_2  and  C_3 
REMARK    3  A    between atoms: CA_2  and  CB_5 
REMARK       I    between atoms: C_3  and  N_6 
REMARK    4  A    between atoms: CA_7  and  C_8 
REMARK       I    between atoms: C_8  and  N_13 
REMARK    5  A    between atoms: N_13  and  CA_14 
REMARK    6  A    between atoms: CA_14  and  C_15 
REMARK    7  A    between atoms: CA_14  and  CB_17 
REMARK       I    between atoms: C_15  and  N_25 
REMARK    8  A    between atoms: CB_17  and  CG_18 
REMARK    9  A    between atoms: CZ_23  and  OH_24 
REMARK   10  A    between atoms: N_25  and  CA_26 
REMARK   11  A    between atoms: CA_32  and  CB_35 
REMARK   12  A    between atoms: CB_35  and  CG1_36 
REMARK   13  A    between atoms: CB_35  and  CG2_37 
REMARK   14  A    between atoms: CA_39  and  CB_42 
REMARK   15  A    between atoms: CB_42  and  CG_43 
REMARK   16  A    between atoms: CZ_48  and  OH_49 
REMARK   17  A    between atoms: CA_51  and  CB_54 
REMARK   18  A    between atoms: CB_54  and  CG_55 
REMARK   19  A    between atoms: CG_55  and  CD_56 
REMARK   20  A    between atoms: CD_56  and  NE_57 
REMARK       I    between atoms: NE_57  and  CZ_58 
REMARK       I    between atoms: CZ_58  and  NH1_59 
REMARK   21  A    between atoms: CZ_58  and  NH2_60 
REMARK   22  A    between atoms: CA_67  and  CB_70 
REMARK   23  A    between atoms: CB_70  and  OG_71 
REMARK   24  A    between atoms: CA_73  and  CB_76 
REMARK   25  A    between atoms: CB_76  and  CG_77 
REMARK   26  A    between atoms: CA_87  and  CB_90 
REMARK   27  A    between atoms: CB_90  and  OG_91 
REMARK   28  A    between atoms: CA_93  and  C_94 
REMARK       I    between atoms: C_94  and  N_98 
ROOT
ATOM      1  N   TYR d   1      -8.297 -21.701 -19.998  0.00  0.00    -0.346 N 
ATOM      2  CA  TYR d   1      -8.034 -20.274 -20.195  0.00  0.00     0.093 C 
ATOM      3  C   TYR d   1      -6.583 -20.029 -20.565  0.00  0.00     0.241 C 
ATOM      4  O   TYR d   1      -5.686 -20.322 -19.796  0.00  0.00    -0.271 OA
ATOM      5  H   TYR d   1      -8.360 -22.069 -19.070  0.00  0.00     0.163 HD
ATOM      6  H   TYR d   1      -8.664 -19.927 -21.027  0.00  0.00     0.088 H 
ATOM      7  CA  CYS d   1     -11.959 -25.706 -21.236  0.00  0.00     0.098 C 
ATOM      8  C   CYS d   1     -10.678 -25.256 -20.519  0.00  0.00     0.242 C 
ATOM      9  O   CYS d   1     -10.539 -25.461 -19.320  0.00  0.00    -0.271 OA
ATOM     10  CB  CYS d   1     -12.959 -24.568 -21.023  0.00  0.00     0.013 C 
ATOM     11  SG  CYS d   1     -14.648 -24.859 -21.552  0.00  0.00    -0.095 SA
ATOM     12  N   CYS d   1     -12.344 -24.284 -25.361  0.00  0.00    -0.345 N 
ATOM     13  CA  CYS d   1     -13.049 -25.526 -24.999  0.00  0.00     0.098 C 
ATOM     14  CB  CYS d   1     -14.503 -25.238 -24.578  0.00  0.00     0.013 C 
ATOM     15  SG  CYS d   1     -14.739 -23.904 -23.368  0.00  0.00    -0.095 SA
ATOM     16  H   CYS d   1     -11.748 -25.814 -22.310  0.00  0.00     0.088 H 
ATOM     17  H   CYS d   1     -12.586 -23.691 -21.572  0.00  0.00     0.053 H 
ATOM     18  H   CYS d   1     -12.982 -24.344 -19.946  0.00  0.00     0.053 H 
ATOM     19  H   CYS d   1     -12.743 -23.696 -26.064  0.00  0.00     0.163 HD
ATOM     20  H   CYS d   1     -12.522 -25.982 -24.148  0.00  0.00     0.088 H 
ATOM     21  H   CYS d   1     -14.916 -26.161 -24.145  0.00  0.00     0.053 H 
ATOM     22  H   CYS d   1     -15.068 -24.973 -25.484  0.00  0.00     0.053 H 
ATOM     23  N   VAL d   1      -9.802 -24.571 -21.261  0.00  0.00    -0.346 N 
ATOM     24  CA  VAL d   1      -8.550 -24.023 -20.755  0.00  0.00     0.092 C 
ATOM     25  C   VAL d   1      -8.454 -22.516 -21.044  0.00  0.00     0.241 C 
ATOM     26  O   VAL d   1      -8.493 -22.095 -22.208  0.00  0.00    -0.271 OA
ATOM     27  H   VAL d   1     -10.020 -24.425 -22.226  0.00  0.00     0.163 HD
ATOM     28  H   VAL d   1      -8.505 -24.187 -19.668  0.00  0.00     0.088 H 
ATOM     29  N   ARG d   1      -6.349 -19.520 -21.769  0.00  0.00    -0.346 N 
ATOM     30  CA  ARG d   1      -4.998 -19.241 -22.224  0.00  0.00     0.089 C 
ATOM     31  C   ARG d   1      -4.759 -17.746 -22.436  0.00  0.00     0.240 C 
ATOM     32  O   ARG d   1      -3.771 -17.369 -23.029  0.00  0.00    -0.271 OA
ATOM     33  H   ARG d   1      -7.120 -19.325 -22.376  0.00  0.00     0.163 HD
ATOM     34  H   ARG d   1      -4.306 -19.566 -21.433  0.00  0.00     0.087 H 
ATOM     35  N   BAL d   1      -5.656 -16.899 -21.900  0.00  0.00    -0.359 N 
ATOM     36  CB  BAL d   1      -5.548 -15.460 -22.010  0.00  0.00     0.003 C 
ATOM     37  CA  BAL d   1      -6.068 -14.885 -23.333  0.00  0.00     0.024 C 
ATOM     38  C   BAL d   1      -7.569 -15.025 -23.385  0.00  0.00     0.219 C 
ATOM     39  O   BAL d   1      -8.233 -14.211 -22.765  0.00  0.00    -0.274 OA
ATOM     40  H   BAL d   1      -6.434 -17.282 -21.402  0.00  0.00     0.162 HD
ATOM     41  H   BAL d   1      -4.487 -15.186 -21.909  0.00  0.00     0.064 H 
ATOM     42  H   BAL d   1      -6.123 -15.008 -21.189  0.00  0.00     0.064 H 
ATOM     43  H   BAL d   1      -5.619 -15.434 -24.174  0.00  0.00     0.049 H 
ATOM     44  H   BAL d   1      -5.796 -13.821 -23.403  0.00  0.00     0.049 H 
ATOM     45  N   SER d   1      -8.051 -16.068 -24.094  0.00  0.00    -0.346 N 
ATOM     46  CA  SER d   1      -9.444 -16.452 -24.236  0.00  0.00     0.109 C 
ATOM     47  C   SER d   1      -9.610 -17.887 -23.735  0.00  0.00     0.243 C 
ATOM     48  O   SER d   1      -8.650 -18.657 -23.725  0.00  0.00    -0.271 OA
ATOM     49  N   SER d   1     -10.668 -21.668 -24.171  0.00  0.00    -0.344 N 
ATOM     50  CA  SER d   1     -10.581 -22.599 -25.260  0.00  0.00     0.109 C 
ATOM     51  C   SER d   1     -11.194 -23.908 -24.791  0.00  0.00     0.243 C 
ATOM     52  O   SER d   1     -10.636 -24.542 -23.904  0.00  0.00    -0.271 OA
ATOM     53  H   SER d   1      -7.379 -16.635 -24.571  0.00  0.00     0.163 HD
ATOM     54  H   SER d   1     -10.082 -15.768 -23.657  0.00  0.00     0.090 H 
ATOM     55  H   SER d   1     -10.289 -21.933 -23.284  0.00  0.00     0.163 HD
ATOM     56  H   SER d   1     -11.126 -22.218 -26.136  0.00  0.00     0.090 H 
ATOM     57  N   TRP d   1     -10.829 -18.229 -23.332  0.00  0.00    -0.346 N 
ATOM     58  CA  TRP d   1     -11.178 -19.593 -23.022  0.00  0.00     0.093 C 
ATOM     59  C   TRP d   1     -11.226 -20.476 -24.288  0.00  0.00     0.241 C 
ATOM     60  O   TRP d   1     -11.796 -20.102 -25.316  0.00  0.00    -0.271 OA
ATOM     61  H   TRP d   1     -11.526 -17.518 -23.241  0.00  0.00     0.163 HD
ATOM     62  H   TRP d   1     -10.412 -19.996 -22.343  0.00  0.00     0.088 H 
ENDROOT
BRANCH   7  63
ATOM     63  N   CYS d   1     -12.505 -26.996 -20.751  0.00  0.00    -0.345 N 
ATOM     64  C   TYR d   1     -12.709 -28.064 -21.539  0.00  0.00     0.241 C 
ATOM     65  O   TYR d   1     -12.499 -28.068 -22.758  0.00  0.00    -0.271 OA
ATOM     66  H   CYS d   1     -12.735 -27.076 -19.781  0.00  0.00     0.163 HD
BRANCH  64  67
ATOM     67  CA  TYR d   1     -13.199 -29.349 -20.856  0.00  0.00     0.093 C 
ATOM     68  H   TYR d   1     -13.016 -30.192 -21.538  0.00  0.00     0.088 H 
BRANCH  67  69
ATOM     69  N   TYR d   1     -12.439 -29.559 -19.637  0.00  0.00    -0.346 N 
ATOM     70  C   PRO d   1     -11.130 -29.805 -19.641  0.00  0.00     0.241 C 
ATOM     71  O   PRO d   1     -10.472 -29.998 -20.664  0.00  0.00    -0.271 OA
ATOM     72  H   TYR d   1     -12.917 -29.517 -18.760  0.00  0.00     0.163 HD
BRANCH  70  73
ATOM     73  CA  PRO d   1     -10.452 -29.869 -18.271  0.00  0.00     0.091 C 
ATOM     74  N   PRO d   1      -9.479 -30.951 -18.261  0.00  0.00    -0.337 N 
ATOM     75  C   ALA d   1      -9.997 -32.188 -18.320  0.00  0.00     0.250 C 
ATOM     76  CD  PRO d   1      -8.093 -30.457 -18.116  0.00  0.00    -0.001 C 
ATOM     77  O   ALA d   1     -11.198 -32.415 -18.164  0.00  0.00    -0.271 OA
ATOM     78  CG  PRO d   1      -8.215 -28.978 -18.373  0.00  0.00    -0.048 C 
ATOM     79  H   PRO d   1      -7.428 -30.930 -18.854  0.00  0.00     0.064 H 
ATOM     80  H   PRO d   1      -7.712 -30.649 -17.102  0.00  0.00     0.064 H 
ATOM     81  CB  PRO d   1      -9.601 -28.610 -17.997  0.00  0.00    -0.036 C 
ATOM     82  H   PRO d   1      -7.492 -28.422 -17.758  0.00  0.00     0.035 H 
ATOM     83  H   PRO d   1      -8.037 -28.759 -19.436  0.00  0.00     0.035 H 
ATOM     84  H   PRO d   1      -9.651 -28.337 -16.933  0.00  0.00     0.036 H 
ATOM     85  H   PRO d   1      -9.954 -27.767 -18.609  0.00  0.00     0.036 H 
ATOM     86  H   PRO d   1     -11.211 -30.007 -17.487  0.00  0.00     0.087 H 
BRANCH  75  87
ATOM     87  CA  ALA d   1      -9.043 -33.336 -18.560  0.00  0.00     0.172 C 
ATOM     88  H   ALA d   1      -8.208 -33.265 -17.847  0.00  0.00     0.098 H 
BRANCH  87  89
ATOM     89  N   ALA d   1      -9.781 -34.620 -18.327  0.00  0.00    -0.067 N 
ATOM     90  H   ALA d   1      -9.159 -35.398 -18.483  0.00  0.00     0.275 HD
ATOM     91  H   ALA d   1     -10.560 -34.680 -18.964  0.00  0.00     0.275 HD
ATOM     92  H   ALA d   1     -10.120 -34.645 -17.378  0.00  0.00     0.275 HD
ENDBRANCH  87  89
BRANCH  87  93
ATOM     93  CB  ALA d   1      -8.479 -33.289 -19.979  0.00  0.00    -0.042 C 
ATOM     94  H   ALA d   1      -7.942 -32.341 -20.129  0.00  0.00     0.030 H 
ATOM     95  H   ALA d   1      -9.303 -33.362 -20.704  0.00  0.00     0.030 H 
ATOM     96  H   ALA d   1      -7.785 -34.130 -20.126  0.00  0.00     0.030 H 
ENDBRANCH  87  93
ENDBRANCH  75  87
ENDBRANCH  70  73
ENDBRANCH  67  69
BRANCH  67  97
ATOM     97  CB  TYR d   1     -14.713 -29.315 -20.528  0.00  0.00    -0.014 C 
ATOM     98  H   TYR d   1     -14.893 -28.448 -19.875  0.00  0.00     0.043 H 
ATOM     99  H   TYR d   1     -14.957 -30.240 -19.985  0.00  0.00     0.043 H 
BRANCH  97 100
ATOM    100  CG  TYR d   1     -15.675 -29.208 -21.714  0.00  0.00    -0.056 A 
ATOM    101  CD1 TYR d   1     -15.573 -30.060 -22.816  0.00  0.00    -0.074 A 
ATOM    102  CE1 TYR d   1     -16.459 -29.953 -23.894  0.00  0.00    -0.051 A 
ATOM    103  H   TYR d   1     -14.796 -30.816 -22.837  0.00  0.00     0.084 H 
ATOM    104  CZ  TYR d   1     -17.468 -28.990 -23.863  0.00  0.00     0.065 A 
ATOM    105  H   TYR d   1     -16.362 -30.614 -24.748  0.00  0.00     0.087 H 
ATOM    106  CE2 TYR d   1     -17.593 -28.148 -22.773  0.00  0.00    -0.051 A 
ATOM    107  CD2 TYR d   1     -16.712 -28.263 -21.710  0.00  0.00    -0.074 A 
ATOM    108  H   TYR d   1     -18.378 -27.401 -22.750  0.00  0.00     0.087 H 
ATOM    109  H   TYR d   1     -16.827 -27.607 -20.855  0.00  0.00     0.084 H 
BRANCH 104 110
ATOM    110  OH  TYR d   1     -18.358 -28.871 -24.908  0.00  0.00    -0.361 OA
ATOM    111  H   TYR d   1     -19.240 -29.023 -24.590  0.00  0.00     0.217 HD
ENDBRANCH 104 110
ENDBRANCH  97 100
ENDBRANCH  67  97
ENDBRANCH  64  67
ENDBRANCH   7  63
BRANCH  24 112
ATOM    112  CB  VAL d   1      -7.347 -24.717 -21.427  0.00  0.00    -0.033 C 
ATOM    113  H   VAL d   1      -7.425 -24.557 -22.512  0.00  0.00     0.042 H 
BRANCH 112 114
ATOM    114  CG1 VAL d   1      -6.019 -24.131 -20.953  0.00  0.00    -0.071 C 
ATOM    115  H   VAL d   1      -5.189 -24.651 -21.454  0.00  0.00     0.028 H 
ATOM    116  H   VAL d   1      -5.929 -24.260 -19.864  0.00  0.00     0.028 H 
ATOM    117  H   VAL d   1      -5.982 -23.060 -21.200  0.00  0.00     0.028 H 
ENDBRANCH 112 114
BRANCH 112 118
ATOM    118  CG2 VAL d   1      -7.376 -26.219 -21.158  0.00  0.00    -0.071 C 
ATOM    119  H   VAL d   1      -8.335 -26.635 -21.502  0.00  0.00     0.028 H 
ATOM    120  H   VAL d   1      -7.263 -26.401 -20.079  0.00  0.00     0.028 H 
ATOM    121  H   VAL d   1      -6.551 -26.704 -21.700  0.00  0.00     0.028 H 
ENDBRANCH 112 118
ENDBRANCH  24 112
BRANCH  13 122
ATOM    122  C   CYS d   1     -13.054 -26.521 -26.153  0.00  0.00     0.239 C 
ATOM    123  O   CYS d   1     -12.460 -26.276 -27.212  0.00  0.00    -0.271 OA
ATOM    124  N   NH2 d   1     -13.737 -27.650 -25.984  0.00  0.00    -0.368 N 
ATOM    125  H   NH2 d   1     -13.767 -28.331 -26.716  0.00  0.00     0.159 HD
ATOM    126  H   NH2 d   1     -14.221 -27.818 -25.125  0.00  0.00     0.159 HD
ENDBRANCH  13 122
BRANCH   2 127
ATOM    127  CB  TYR d   1      -8.395 -19.465 -18.961  0.00  0.00    -0.014 C 
ATOM    128  H   TYR d   1      -7.683 -19.708 -18.159  0.00  0.00     0.043 H 
ATOM    129  H   TYR d   1      -9.412 -19.739 -18.644  0.00  0.00     0.043 H 
BRANCH 127 130
ATOM    130  CG  TYR d   1      -8.351 -17.981 -19.212  0.00  0.00    -0.056 A 
ATOM    131  CD1 TYR d   1      -9.133 -17.410 -20.218  0.00  0.00    -0.074 A 
ATOM    132  CE1 TYR d   1      -9.100 -16.050 -20.462  0.00  0.00    -0.051 A 
ATOM    133  H   TYR d   1      -9.777 -18.044 -20.817  0.00  0.00     0.084 H 
ATOM    134  CZ  TYR d   1      -8.277 -15.243 -19.688  0.00  0.00     0.065 A 
ATOM    135  H   TYR d   1      -9.709 -15.619 -21.248  0.00  0.00     0.087 H 
ATOM    136  CE2 TYR d   1      -7.495 -15.791 -18.684  0.00  0.00    -0.051 A 
ATOM    137  CD2 TYR d   1      -7.538 -17.147 -18.450  0.00  0.00    -0.074 A 
ATOM    138  H   TYR d   1      -6.853 -15.155 -18.086  0.00  0.00     0.087 H 
ATOM    139  H   TYR d   1      -6.929 -17.572 -17.660  0.00  0.00     0.084 H 
BRANCH 134 140
ATOM    140  OH  TYR d   1      -8.245 -13.898 -19.925  0.00  0.00    -0.361 OA
ATOM    141  H   TYR d   1      -8.835 -13.690 -20.640  0.00  0.00     0.217 HD
ENDBRANCH 134 140
ENDBRANCH 127 130
ENDBRANCH   2 127
BRANCH  50 142
ATOM    142  CB  SER d   1      -9.108 -22.805 -25.611  0.00  0.00     0.044 C 
ATOM    143  H   SER d   1      -8.651 -23.476 -24.869  0.00  0.00     0.077 H 
ATOM    144  H   SER d   1      -8.594 -21.833 -25.593  0.00  0.00     0.077 H 
BRANCH 142 145
ATOM    145  OG  SER d   1      -8.974 -23.373 -26.888  0.00  0.00    -0.398 OA
ATOM    146  H   SER d   1      -8.052 -23.492 -27.085  0.00  0.00     0.209 HD
ENDBRANCH 142 145
ENDBRANCH  50 142
BRANCH  30 147
ATOM    147  CB  ARG d   1      -4.699 -20.084 -23.469  0.00  0.00    -0.036 C 
ATOM    148  H   ARG d   1      -3.729 -19.775 -23.886  0.00  0.00     0.036 H 
ATOM    149  H   ARG d   1      -5.489 -19.914 -24.215  0.00  0.00     0.036 H 
BRANCH 147 150
ATOM    150  CG  ARG d   1      -4.644 -21.577 -23.134  0.00  0.00    -0.048 C 
ATOM    151  H   ARG d   1      -5.620 -21.881 -22.729  0.00  0.00     0.035 H 
ATOM    152  H   ARG d   1      -3.865 -21.737 -22.374  0.00  0.00     0.035 H 
BRANCH 150 153
ATOM    153  CD  ARG d   1      -4.331 -22.440 -24.330  0.00  0.00     0.009 C 
ATOM    154  H   ARG d   1      -4.841 -22.018 -25.209  0.00  0.00     0.064 H 
ATOM    155  H   ARG d   1      -4.711 -23.454 -24.138  0.00  0.00     0.064 H 
BRANCH 153 156
ATOM    156  NE  ARG d   1      -2.899 -22.527 -24.621  0.00  0.00    -0.227 N 
ATOM    157  CZ  ARG d   1      -2.389 -23.081 -25.720  0.00  0.00     0.665 C 
ATOM    158  NH1 ARG d   1      -3.205 -23.582 -26.649  0.00  0.00    -0.235 N 
ATOM    159  H   ARG d   1      -2.815 -24.011 -27.500  0.00  0.00     0.174 HD
ATOM    160  H   ARG d   1      -4.225 -23.540 -26.515  0.00  0.00     0.174 HD
ATOM    161  H   ARG d   1      -2.243 -22.134 -23.931  0.00  0.00     0.177 HD
BRANCH 157 162
ATOM    162  NH2 ARG d   1      -1.065 -23.116 -25.903  0.00  0.00    -0.235 N 
ATOM    163  H   ARG d   1      -0.435 -22.729 -25.185  0.00  0.00     0.174 HD
ATOM    164  H   ARG d   1      -0.674 -23.530 -26.762  0.00  0.00     0.174 HD
ENDBRANCH 157 162
ENDBRANCH 153 156
ENDBRANCH 150 153
ENDBRANCH 147 150
ENDBRANCH  30 147
BRANCH  58 165
ATOM    165  CB  TRP d   1     -12.532 -19.662 -22.329  0.00  0.00    -0.012 C 
ATOM    166  H   TRP d   1     -12.907 -20.692 -22.425  0.00  0.00     0.044 H 
ATOM    167  H   TRP d   1     -13.213 -18.973 -22.851  0.00  0.00     0.044 H 
BRANCH 165 168
ATOM    168  CG  TRP d   1     -12.542 -19.304 -20.878  0.00  0.00    -0.028 A 
ATOM    169  CD1 TRP d   1     -12.949 -18.128 -20.338  0.00  0.00    -0.015 A 
ATOM    170  NE1 TRP d   1     -12.858 -18.179 -18.967  0.00  0.00    -0.365 N 
ATOM    171  H   TRP d   1     -13.297 -17.268 -20.908  0.00  0.00     0.112 H 
ATOM    172  CE2 TRP d   1     -12.394 -19.411 -18.594  0.00  0.00     0.042 A 
ATOM    173  H   TRP d   1     -13.100 -17.412 -18.323  0.00  0.00     0.165 HD
ATOM    174  CD2 TRP d   1     -12.192 -20.155 -19.776  0.00  0.00    -0.002 A 
ATOM    175  CZ2 TRP d   1     -12.138 -19.935 -17.313  0.00  0.00    -0.056 A 
ATOM    176  CE3 TRP d   1     -11.723 -21.470 -19.676  0.00  0.00    -0.070 A 
ATOM    177  CZ3 TRP d   1     -11.464 -21.998 -18.403  0.00  0.00    -0.082 A 
ATOM    178  H   TRP d   1     -11.563 -22.069 -20.565  0.00  0.00     0.084 H 
ATOM    179  CH2 TRP d   1     -11.667 -21.219 -17.235  0.00  0.00    -0.081 A 
ATOM    180  H   TRP d   1     -11.104 -23.016 -18.310  0.00  0.00     0.083 H 
ATOM    181  H   TRP d   1     -11.446 -21.647 -16.264  0.00  0.00     0.083 H 
ATOM    182  H   TRP d   1     -12.307 -19.344 -16.420  0.00  0.00     0.086 H 
ENDBRANCH 165 168
ENDBRANCH  58 165
BRANCH  46 183
ATOM    183  CB  SER d   1      -9.848 -16.423 -25.713  0.00  0.00     0.044 C 
ATOM    184  H   SER d   1     -10.921 -16.653 -25.792  0.00  0.00     0.077 H 
ATOM    185  H   SER d   1      -9.268 -17.185 -26.255  0.00  0.00     0.077 H 
BRANCH 183 186
ATOM    186  OG  SER d   1      -9.607 -15.158 -26.306  0.00  0.00    -0.398 OA
ATOM    187  H   SER d   1      -9.870 -15.182 -27.218  0.00  0.00     0.209 HD
ENDBRANCH 183 186
ENDBRANCH  46 183
TORSDOF 28
