REMARK  28 active torsions:
REMARK  status: ('A' for Active; 'I' for Inactive)
REMARK    1  A    between atoms: N_1  and  CA_2 
REMARK    2  A    between atoms: CA_2  and  C_3 
REMARK    3  A    between atoms: CA_2  and  CB_5 
REMARK       I    between atoms: C_3  and  N_6 
REMARK    4  A    between atoms: CA_7  and  C_8 
REMARK       I    between atoms: C_8  and  N_13 
REMARK    5  A    between atoms: N_13  and  CA_14 
REMARK    6  A    between atoms: CA_14  and  C_15 
REMARK    7  A    between atoms: CA_14  and  CB_17 
REMARK       I    between atoms: C_15  and  N_25 
REMARK    8  A    between atoms: CB_17  and  CG_18 
REMARK    9  A    between atoms: CZ_23  and  OH_24 
REMARK   10  A    between atoms: N_25  and  CA_26 
REMARK   11  A    between atoms: CA_32  and  CB_35 
REMARK   12  A    between atoms: CB_35  and  CG1_36 
REMARK   13  A    between atoms: CB_35  and  CG2_37 
REMARK   14  A    between atoms: CA_39  and  CB_42 
REMARK   15  A    between atoms: CB_42  and  CG_43 
REMARK   16  A    between atoms: CZ_48  and  OH_49 
REMARK   17  A    between atoms: CA_51  and  CB_54 
REMARK   18  A    between atoms: CB_54  and  CG_55 
REMARK   19  A    between atoms: CG_55  and  CD_56 
REMARK   20  A    between atoms: CD_56  and  NE_57 
REMARK       I    between atoms: NE_57  and  CZ_58 
REMARK       I    between atoms: CZ_58  and  NH1_59 
REMARK   21  A    between atoms: CZ_58  and  NH2_60 
REMARK   22  A    between atoms: CA_66  and  CB_69 
REMARK   23  A    between atoms: CB_69  and  OG_70 
REMARK   24  A    between atoms: CA_72  and  CB_75 
REMARK   25  A    between atoms: CB_75  and  CG_76 
REMARK   26  A    between atoms: CA_86  and  CB_89 
REMARK   27  A    between atoms: CB_89  and  OG_90 
REMARK   28  A    between atoms: CA_92  and  C_93 
ROOT
ATOM      1  N   TYR d   1      -6.271 -21.644 -20.718  0.00  0.00    -0.346 N 
ATOM      2  CA  TYR d   1      -5.974 -20.216 -20.909  0.00  0.00     0.093 C 
ATOM      3  C   TYR d   1      -4.479 -19.958 -21.016  0.00  0.00     0.241 C 
ATOM      4  O   TYR d   1      -3.751 -20.106 -20.045  0.00  0.00    -0.271 OA
ATOM      5  H   TYR d   1      -6.483 -21.974 -19.798  0.00  0.00     0.163 HD
ATOM      6  H   TYR d   1      -6.449 -19.886 -21.845  0.00  0.00     0.088 H 
ATOM      7  CA  CYS d   1      -9.894 -25.569 -22.260  0.00  0.00     0.098 C 
ATOM      8  C   CYS d   1      -8.665 -25.238 -21.460  0.00  0.00     0.242 C 
ATOM      9  O   CYS d   1      -8.617 -25.527 -20.284  0.00  0.00    -0.271 OA
ATOM     10  CB  CYS d   1     -10.726 -24.291 -22.266  0.00  0.00     0.013 C 
ATOM     11  SG  CYS d   1     -12.392 -24.479 -22.891  0.00  0.00    -0.095 SA
ATOM     12  N   CYS d   1      -9.883 -23.994 -26.509  0.00  0.00    -0.344 N 
ATOM     13  CA  CYS d   1     -10.636 -25.216 -26.226  0.00  0.00     0.105 C 
ATOM     14  CB  CYS d   1     -12.110 -24.880 -25.974  0.00  0.00     0.015 C 
ATOM     15  SG  CYS d   1     -12.286 -23.560 -24.741  0.00  0.00    -0.095 SA
ATOM     16  H   CYS d   1      -9.599 -25.827 -23.288  0.00  0.00     0.088 H 
ATOM     17  H   CYS d   1     -10.208 -23.549 -22.892  0.00  0.00     0.053 H 
ATOM     18  H   CYS d   1     -10.789 -23.919 -21.233  0.00  0.00     0.053 H 
ATOM     19  H   CYS d   1     -10.233 -23.373 -27.210  0.00  0.00     0.163 HD
ATOM     20  H   CYS d   1     -10.225 -25.675 -25.315  0.00  0.00     0.090 H 
ATOM     21  H   CYS d   1     -12.625 -25.781 -25.610  0.00  0.00     0.054 H 
ATOM     22  H   CYS d   1     -12.569 -24.551 -26.918  0.00  0.00     0.054 H 
ATOM     23  N   VAL d   1      -7.711 -24.563 -22.081  0.00  0.00    -0.346 N 
ATOM     24  CA  VAL d   1      -6.557 -23.998 -21.376  0.00  0.00     0.092 C 
ATOM     25  C   VAL d   1      -6.268 -22.513 -21.726  0.00  0.00     0.241 C 
ATOM     26  O   VAL d   1      -6.034 -22.160 -22.876  0.00  0.00    -0.271 OA
ATOM     27  H   VAL d   1      -7.780 -24.433 -23.070  0.00  0.00     0.163 HD
ATOM     28  H   VAL d   1      -6.770 -24.047 -20.298  0.00  0.00     0.088 H 
ATOM     29  N   ARG d   1      -4.009 -19.561 -22.204  0.00  0.00    -0.346 N 
ATOM     30  CA  ARG d   1      -2.605 -19.167 -22.358  0.00  0.00     0.089 C 
ATOM     31  C   ARG d   1      -2.445 -17.707 -22.734  0.00  0.00     0.240 C 
ATOM     32  O   ARG d   1      -1.504 -17.354 -23.433  0.00  0.00    -0.271 OA
ATOM     33  H   ARG d   1      -4.621 -19.533 -22.994  0.00  0.00     0.163 HD
ATOM     34  H   ARG d   1      -2.118 -19.306 -21.381  0.00  0.00     0.087 H 
ATOM     35  N   GLY d   1      -3.328 -16.859 -22.216  0.00  0.00    -0.351 N 
ATOM     36  CA  GLY d   1      -3.409 -15.454 -22.629  0.00  0.00     0.069 C 
ATOM     37  C   GLY d   1      -4.752 -15.212 -23.285  0.00  0.00     0.236 C 
ATOM     38  O   GLY d   1      -5.211 -14.073 -23.411  0.00  0.00    -0.272 OA
ATOM     39  H   GLY d   1      -3.962 -17.192 -21.518  0.00  0.00     0.163 HD
ATOM     40  H   GLY d   1      -2.603 -15.232 -23.345  0.00  0.00     0.078 H 
ATOM     41  H   GLY d   1      -3.306 -14.804 -21.748  0.00  0.00     0.078 H 
ATOM     42  N   SER d   1      -5.376 -16.326 -23.675  0.00  0.00    -0.344 N 
ATOM     43  CA  SER d   1      -6.656 -16.384 -24.361  0.00  0.00     0.109 C 
ATOM     44  C   SER d   1      -7.116 -17.820 -24.184  0.00  0.00     0.243 C 
ATOM     45  O   SER d   1      -6.296 -18.735 -24.075  0.00  0.00    -0.271 OA
ATOM     46  N   SER d   1      -8.894 -21.416 -25.146  0.00  0.00    -0.344 N 
ATOM     47  CA  SER d   1      -8.297 -22.256 -26.147  0.00  0.00     0.109 C 
ATOM     48  C   SER d   1      -8.758 -23.667 -25.883  0.00  0.00     0.243 C 
ATOM     49  O   SER d   1      -8.153 -24.406 -25.109  0.00  0.00    -0.271 OA
ATOM     50  H   SER d   1      -4.923 -17.196 -23.478  0.00  0.00     0.163 HD
ATOM     51  H   SER d   1      -7.373 -15.673 -23.925  0.00  0.00     0.090 H 
ATOM     52  H   SER d   1      -9.376 -21.819 -24.368  0.00  0.00     0.163 HD
ATOM     53  H   SER d   1      -8.625 -21.948 -27.151  0.00  0.00     0.090 H 
ATOM     54  N   TRP d   1      -8.416 -18.018 -24.139  0.00  0.00    -0.346 N 
ATOM     55  CA  TRP d   1      -8.955 -19.336 -23.990  0.00  0.00     0.093 C 
ATOM     56  C   TRP d   1      -8.799 -20.119 -25.265  0.00  0.00     0.241 C 
ATOM     57  O   TRP d   1      -8.594 -19.579 -26.338  0.00  0.00    -0.271 OA
ATOM     58  H   TRP d   1      -9.036 -17.237 -24.210  0.00  0.00     0.163 HD
ATOM     59  H   TRP d   1      -8.393 -19.852 -23.197  0.00  0.00     0.088 H 
ENDROOT
BRANCH   7  60
ATOM     60  N   CYS d   1     -10.675 -26.705 -21.702  0.00  0.00    -0.345 N 
ATOM     61  C   TYR d   1     -10.891 -27.811 -22.409  0.00  0.00     0.241 C 
ATOM     62  O   TYR d   1     -10.525 -27.913 -23.572  0.00  0.00    -0.271 OA
ATOM     63  H   CYS d   1     -11.046 -26.636 -20.776  0.00  0.00     0.163 HD
BRANCH  61  64
ATOM     64  CA  TYR d   1     -11.589 -29.014 -21.714  0.00  0.00     0.093 C 
ATOM     65  H   TYR d   1     -11.553 -29.868 -22.407  0.00  0.00     0.088 H 
BRANCH  64  66
ATOM     66  N   TYR d   1     -10.851 -29.370 -20.496  0.00  0.00    -0.346 N 
ATOM     67  C   PRO d   1      -9.554 -29.668 -20.532  0.00  0.00     0.241 C 
ATOM     68  O   PRO d   1      -8.907 -29.788 -21.586  0.00  0.00    -0.271 OA
ATOM     69  H   TYR d   1     -11.333 -29.389 -19.620  0.00  0.00     0.163 HD
BRANCH  67  70
ATOM     70  CA  PRO d   1      -8.850 -29.856 -19.183  0.00  0.00     0.091 C 
ATOM     71  N   PRO d   1      -7.921 -30.958 -19.276  0.00  0.00    -0.337 N 
ATOM     72  C   ALA d   1      -8.473 -32.174 -19.385  0.00  0.00     0.250 C 
ATOM     73  CD  PRO d   1      -6.514 -30.536 -19.150  0.00  0.00    -0.001 C 
ATOM     74  O   ALA d   1      -9.676 -32.384 -19.161  0.00  0.00    -0.271 OA
ATOM     75  CG  PRO d   1      -6.577 -29.036 -19.270  0.00  0.00    -0.048 C 
ATOM     76  H   PRO d   1      -5.902 -30.968 -19.955  0.00  0.00     0.064 H 
ATOM     77  H   PRO d   1      -6.101 -30.834 -18.175  0.00  0.00     0.064 H 
ATOM     78  CB  PRO d   1      -7.949 -28.647 -18.857  0.00  0.00    -0.036 C 
ATOM     79  H   PRO d   1      -5.832 -28.569 -18.609  0.00  0.00     0.035 H 
ATOM     80  H   PRO d   1      -6.389 -28.728 -20.309  0.00  0.00     0.035 H 
ATOM     81  H   PRO d   1      -7.976 -28.430 -17.779  0.00  0.00     0.036 H 
ATOM     82  H   PRO d   1      -8.280 -27.761 -19.418  0.00  0.00     0.036 H 
ATOM     83  H   PRO d   1      -9.594 -30.022 -18.390  0.00  0.00     0.087 H 
BRANCH  72  84
ATOM     84  CA  ALA d   1      -7.544 -33.323 -19.748  0.00  0.00     0.172 C 
ATOM     85  H   ALA d   1      -6.513 -33.034 -19.498  0.00  0.00     0.098 H 
BRANCH  84  86
ATOM     86  N   ALA d   1      -7.905 -34.530 -18.953  0.00  0.00    -0.067 N 
ATOM     87  H   ALA d   1      -7.288 -35.289 -19.196  0.00  0.00     0.275 HD
ATOM     88  H   ALA d   1      -8.857 -34.793 -19.155  0.00  0.00     0.275 HD
ATOM     89  H   ALA d   1      -7.814 -34.325 -17.970  0.00  0.00     0.275 HD
ENDBRANCH  84  86
BRANCH  84  90
ATOM     90  CB  ALA d   1      -7.613 -33.617 -21.242  0.00  0.00    -0.042 C 
ATOM     91  H   ALA d   1      -7.343 -32.712 -21.806  0.00  0.00     0.030 H 
ATOM     92  H   ALA d   1      -8.635 -33.924 -21.509  0.00  0.00     0.030 H 
ATOM     93  H   ALA d   1      -6.911 -34.427 -21.489  0.00  0.00     0.030 H 
ENDBRANCH  84  90
ENDBRANCH  72  84
ENDBRANCH  67  70
ENDBRANCH  64  66
BRANCH  64  94
ATOM     94  CB  TYR d   1     -13.074 -28.754 -21.365  0.00  0.00    -0.014 C 
ATOM     95  H   TYR d   1     -13.110 -27.842 -20.752  0.00  0.00     0.043 H 
ATOM     96  H   TYR d   1     -13.424 -29.610 -20.770  0.00  0.00     0.043 H 
BRANCH  94  97
ATOM     97  CG  TYR d   1     -14.061 -28.567 -22.513  0.00  0.00    -0.056 A 
ATOM     98  CD1 TYR d   1     -13.829 -27.651 -23.530  0.00  0.00    -0.074 A 
ATOM     99  CE1 TYR d   1     -14.731 -27.468 -24.555  0.00  0.00    -0.051 A 
ATOM    100  H   TYR d   1     -12.916 -27.066 -23.517  0.00  0.00     0.084 H 
ATOM    101  CZ  TYR d   1     -15.904 -28.187 -24.565  0.00  0.00     0.065 A 
ATOM    102  H   TYR d   1     -14.518 -26.762 -25.349  0.00  0.00     0.087 H 
ATOM    103  CE2 TYR d   1     -16.171 -29.095 -23.556  0.00  0.00    -0.051 A 
ATOM    104  CD2 TYR d   1     -15.259 -29.266 -22.536  0.00  0.00    -0.074 A 
ATOM    105  H   TYR d   1     -17.091 -29.668 -23.567  0.00  0.00     0.087 H 
ATOM    106  H   TYR d   1     -15.483 -29.961 -21.735  0.00  0.00     0.084 H 
BRANCH 101 107
ATOM    107  OH  TYR d   1     -16.799 -27.997 -25.589  0.00  0.00    -0.361 OA
ATOM    108  H   TYR d   1     -17.628 -27.700 -25.233  0.00  0.00     0.217 HD
ENDBRANCH 101 107
ENDBRANCH  94  97
ENDBRANCH  64  94
ENDBRANCH  61  64
ENDBRANCH   7  60
BRANCH  24 109
ATOM    109  CB  VAL d   1      -5.322 -24.856 -21.663  0.00  0.00    -0.033 C 
ATOM    110  H   VAL d   1      -5.085 -24.783 -22.735  0.00  0.00     0.042 H 
BRANCH 109 111
ATOM    111  CG1 VAL d   1      -4.113 -24.376 -20.870  0.00  0.00    -0.071 C 
ATOM    112  H   VAL d   1      -3.247 -25.014 -21.100  0.00  0.00     0.028 H 
ATOM    113  H   VAL d   1      -4.334 -24.433 -19.794  0.00  0.00     0.028 H 
ATOM    114  H   VAL d   1      -3.885 -23.335 -21.143  0.00  0.00     0.028 H 
ENDBRANCH 109 111
BRANCH 109 115
ATOM    115  CG2 VAL d   1      -5.636 -26.306 -21.327  0.00  0.00    -0.071 C 
ATOM    116  H   VAL d   1      -6.510 -26.636 -21.907  0.00  0.00     0.028 H 
ATOM    117  H   VAL d   1      -5.855 -26.394 -20.253  0.00  0.00     0.028 H 
ATOM    118  H   VAL d   1      -4.770 -26.936 -21.578  0.00  0.00     0.028 H 
ENDBRANCH 109 115
ENDBRANCH  24 109
BRANCH  13 119
ATOM    119  C   CYS d   1     -10.489 -26.202 -27.359  0.00  0.00     0.197 C 
ATOM    120  O   CYS d   1      -9.388 -26.347 -27.880  0.00  0.00    -0.646 OA
ATOM    121  OXT CYS d   1     -11.442 -26.870 -27.750  0.00  0.00    -0.646 OA
ENDBRANCH  13 119
BRANCH   2 122
ATOM    122  CB  TYR d   1      -6.555 -19.413 -19.759  0.00  0.00    -0.014 C 
ATOM    123  H   TYR d   1      -5.952 -19.615 -18.861  0.00  0.00     0.043 H 
ATOM    124  H   TYR d   1      -7.588 -19.753 -19.591  0.00  0.00     0.043 H 
BRANCH 122 125
ATOM    125  CG  TYR d   1      -6.583 -17.906 -19.982  0.00  0.00    -0.056 A 
ATOM    126  CD1 TYR d   1      -7.461 -17.330 -20.891  0.00  0.00    -0.074 A 
ATOM    127  CE1 TYR d   1      -7.490 -15.963 -21.095  0.00  0.00    -0.051 A 
ATOM    128  H   TYR d   1      -8.137 -17.965 -21.452  0.00  0.00     0.084 H 
ATOM    129  CZ  TYR d   1      -6.634 -15.146 -20.365  0.00  0.00     0.065 A 
ATOM    130  H   TYR d   1      -8.174 -15.532 -21.817  0.00  0.00     0.087 H 
ATOM    131  CE2 TYR d   1      -5.744 -15.698 -19.463  0.00  0.00    -0.051 A 
ATOM    132  CD2 TYR d   1      -5.729 -17.062 -19.260  0.00  0.00    -0.074 A 
ATOM    133  H   TYR d   1      -5.059 -15.060 -18.916  0.00  0.00     0.087 H 
ATOM    134  H   TYR d   1      -5.047 -17.487 -18.532  0.00  0.00     0.084 H 
BRANCH 129 135
ATOM    135  OH  TYR d   1      -6.621 -13.796 -20.557  0.00  0.00    -0.361 OA
ATOM    136  H   TYR d   1      -7.281 -13.562 -21.199  0.00  0.00     0.217 HD
ENDBRANCH 129 135
ENDBRANCH 122 125
ENDBRANCH   2 122
BRANCH  47 137
ATOM    137  CB  SER d   1      -6.780 -22.096 -26.041  0.00  0.00     0.044 C 
ATOM    138  H   SER d   1      -6.521 -21.865 -24.997  0.00  0.00     0.077 H 
ATOM    139  H   SER d   1      -6.466 -21.265 -26.689  0.00  0.00     0.077 H 
BRANCH 137 140
ATOM    140  OG  SER d   1      -6.098 -23.248 -26.428  0.00  0.00    -0.398 OA
ATOM    141  H   SER d   1      -6.358 -23.971 -25.869  0.00  0.00     0.209 HD
ENDBRANCH 137 140
ENDBRANCH  47 137
BRANCH  30 142
ATOM    142  CB  ARG d   1      -1.892 -20.078 -23.363  0.00  0.00    -0.036 C 
ATOM    143  H   ARG d   1      -0.981 -19.575 -23.720  0.00  0.00     0.036 H 
ATOM    144  H   ARG d   1      -2.563 -20.269 -24.213  0.00  0.00     0.036 H 
BRANCH 142 145
ATOM    145  CG  ARG d   1      -1.511 -21.397 -22.728  0.00  0.00    -0.048 C 
ATOM    146  H   ARG d   1      -2.378 -21.785 -22.173  0.00  0.00     0.035 H 
ATOM    147  H   ARG d   1      -0.677 -21.225 -22.031  0.00  0.00     0.035 H 
BRANCH 145 148
ATOM    148  CD  ARG d   1      -1.085 -22.433 -23.748  0.00  0.00     0.009 C 
ATOM    149  H   ARG d   1      -0.025 -22.280 -23.999  0.00  0.00     0.064 H 
ATOM    150  H   ARG d   1      -1.696 -22.321 -24.655  0.00  0.00     0.064 H 
BRANCH 148 151
ATOM    151  NE  ARG d   1      -1.264 -23.788 -23.209  0.00  0.00    -0.227 N 
ATOM    152  CZ  ARG d   1      -0.469 -24.369 -22.310  0.00  0.00     0.665 C 
ATOM    153  NH1 ARG d   1       0.600 -23.740 -21.811  0.00  0.00    -0.235 N 
ATOM    154  H   ARG d   1       1.198 -24.212 -21.117  0.00  0.00     0.174 HD
ATOM    155  H   ARG d   1       0.826 -22.784 -22.120  0.00  0.00     0.174 HD
ATOM    156  H   ARG d   1      -2.068 -24.332 -23.553  0.00  0.00     0.177 HD
BRANCH 152 157
ATOM    157  NH2 ARG d   1      -0.746 -25.609 -21.915  0.00  0.00    -0.235 N 
ATOM    158  H   ARG d   1      -1.568 -26.099 -22.296  0.00  0.00     0.174 HD
ATOM    159  H   ARG d   1      -0.138 -26.079 -21.229  0.00  0.00     0.174 HD
ENDBRANCH 152 157
ENDBRANCH 148 151
ENDBRANCH 145 148
ENDBRANCH 142 145
ENDBRANCH  30 142
BRANCH  55 160
ATOM    160  CB  TRP d   1     -10.406 -19.270 -23.577  0.00  0.00    -0.012 C 
ATOM    161  H   TRP d   1     -10.890 -20.230 -23.809  0.00  0.00     0.044 H 
ATOM    162  H   TRP d   1     -10.903 -18.464 -24.137  0.00  0.00     0.044 H 
BRANCH 160 163
ATOM    163  CG  TRP d   1     -10.535 -19.003 -22.135  0.00  0.00    -0.028 A 
ATOM    164  CD1 TRP d   1     -10.955 -17.851 -21.545  0.00  0.00    -0.015 A 
ATOM    165  NE1 TRP d   1     -10.943 -17.992 -20.180  0.00  0.00    -0.365 N 
ATOM    166  H   TRP d   1     -11.256 -16.950 -22.078  0.00  0.00     0.112 H 
ATOM    167  CE2 TRP d   1     -10.500 -19.251 -19.870  0.00  0.00     0.042 A 
ATOM    168  H   TRP d   1     -11.221 -17.270 -19.500  0.00  0.00     0.165 HD
ATOM    169  CD2 TRP d   1     -10.225 -19.910 -21.080  0.00  0.00    -0.002 A 
ATOM    170  CZ2 TRP d   1     -10.311 -19.854 -18.632  0.00  0.00    -0.056 A 
ATOM    171  CE3 TRP d   1      -9.728 -21.208 -21.042  0.00  0.00    -0.070 A 
ATOM    172  CZ3 TRP d   1      -9.547 -21.808 -19.808  0.00  0.00    -0.082 A 
ATOM    173  H   TRP d   1      -9.488 -21.737 -21.957  0.00  0.00     0.084 H 
ATOM    174  CH2 TRP d   1      -9.831 -21.131 -18.622  0.00  0.00    -0.081 A 
ATOM    175  H   TRP d   1      -9.177 -22.826 -19.762  0.00  0.00     0.083 H 
ATOM    176  H   TRP d   1      -9.667 -21.630 -17.674  0.00  0.00     0.083 H 
ATOM    177  H   TRP d   1     -10.536 -19.330 -17.710  0.00  0.00     0.086 H 
ENDBRANCH 160 163
ENDBRANCH  55 160
BRANCH  43 178
ATOM    178  CB  SER d   1      -6.477 -16.109 -25.852  0.00  0.00     0.044 C 
ATOM    179  H   SER d   1      -5.942 -15.157 -25.982  0.00  0.00     0.077 H 
ATOM    180  H   SER d   1      -7.466 -16.042 -26.328  0.00  0.00     0.077 H 
BRANCH 178 181
ATOM    181  OG  SER d   1      -5.730 -17.153 -26.472  0.00  0.00    -0.398 OA
ATOM    182  H   SER d   1      -6.190 -17.977 -26.365  0.00  0.00     0.209 HD
ENDBRANCH 178 181
ENDBRANCH  43 178
TORSDOF 28
