REMARK  1 active torsions:
REMARK  status: ('A' for Active; 'I' for Inactive)
REMARK    1  A    between atoms: C_1  and  C1_2 
ROOT
ATOM      1  C1  MBN d   1     -33.181   6.606   3.301  0.00  0.00    -0.062 A 
ATOM      2  C2  MBN d   1     -33.238   7.160   4.565  0.00  0.00    -0.077 A 
ATOM      3  C3  MBN d   1     -33.992   6.571   5.570  0.00  0.00    -0.083 A 
ATOM      4  C4  MBN d   1     -34.711   5.417   5.332  0.00  0.00    -0.083 A 
ATOM      5  C5  MBN d   1     -34.638   4.878   4.060  0.00  0.00    -0.083 A 
ATOM      6  C6  MBN d   1     -33.894   5.447   3.048  0.00  0.00    -0.077 A 
ATOM      7  H4  MBN d   1     -32.685   8.069   4.775  0.00  0.00     0.084 H 
ATOM      8  H5  MBN d   1     -34.017   7.023   6.555  0.00  0.00     0.083 H 
ATOM      9  H6  MBN d   1     -35.308   4.953   6.109  0.00  0.00     0.083 H 
ATOM     10  H7  MBN d   1     -35.190   3.969   3.850  0.00  0.00     0.083 H 
ATOM     11  H8  MBN d   1     -33.868   4.991   2.065  0.00  0.00     0.084 H 
ENDROOT
BRANCH   1  12
ATOM     12  C   MBN d   1     -32.355   7.263   2.207  0.00  0.00    -0.051 C 
ATOM     13  H1  MBN d   1     -31.869   8.165   2.606  0.00  0.00     0.033 H 
ATOM     14  H2  MBN d   1     -33.011   7.540   1.369  0.00  0.00     0.033 H 
ATOM     15  H3  MBN d   1     -31.587   6.559   1.854  0.00  0.00     0.033 H 
ENDBRANCH   1  12
TORSDOF 1
