REMARK  2 active torsions:
REMARK  status: ('A' for Active; 'I' for Inactive)
REMARK    1  A    between atoms: CB_1  and  CX_2 
REMARK    2  A    between atoms: CB_1  and  CG_3 
ROOT
ATOM      1  CG  PYJ d   1      40.930 -20.191  12.999  0.00  0.00    -0.059 A 
ATOM      2  CD1 PYJ d   1      40.361 -19.884  11.769  0.00  0.00    -0.077 A 
ATOM      3  CD2 PYJ d   1      42.312 -20.134  13.151  0.00  0.00    -0.077 A 
ATOM      4  CE1 PYJ d   1      41.168 -19.521  10.694  0.00  0.00    -0.082 A 
ATOM      5  CE2 PYJ d   1      43.119 -19.770  12.078  0.00  0.00    -0.082 A 
ATOM      6  CZ  PYJ d   1      42.549 -19.463  10.847  0.00  0.00    -0.083 A 
ATOM      7  H6  PYJ d   1      39.285 -19.927  11.646  0.00  0.00     0.084 H 
ATOM      8  H7  PYJ d   1      42.761 -20.374  14.108  0.00  0.00     0.084 H 
ATOM      9  H8  PYJ d   1      40.719 -19.283   9.736  0.00  0.00     0.083 H 
ATOM     10  H9  PYJ d   1      44.195 -19.726  12.202  0.00  0.00     0.083 H 
ATOM     11  H10 PYJ d   1      43.178 -19.180  10.011  0.00  0.00     0.083 H 
ENDROOT
BRANCH   1  12
ATOM     12  CB  PYJ d   1      40.043 -20.593  14.183  0.00  0.00    -0.044 C 
ATOM     13  H1  PYJ d   1      39.243 -21.255  13.820  0.00  0.00     0.039 H 
ATOM     14  H2  PYJ d   1      40.657 -21.130  14.921  0.00  0.00     0.039 H 
BRANCH  12  15
ATOM     15  CX  PYJ d   1      39.407 -19.373  14.860  0.00  0.00    -0.073 C 
ATOM     16  H3  PYJ d   1      38.781 -19.705  15.701  0.00  0.00     0.028 H 
ATOM     17  H4  PYJ d   1      38.785 -18.832  14.132  0.00  0.00     0.028 H 
ATOM     18  H5  PYJ d   1      40.199 -18.706  15.233  0.00  0.00     0.028 H 
ENDBRANCH  12  15
ENDBRANCH   1  12
TORSDOF 2
