REMARK  4 active torsions:
REMARK  status: ('A' for Active; 'I' for Inactive)
REMARK    1  A    between atoms: C1_1  and  C1'_7 
REMARK    2  A    between atoms: C1'_7  and  C2'_8 
REMARK    3  A    between atoms: C2'_8  and  C3'_9 
REMARK    4  A    between atoms: C3'_9  and  C4'_10 
ROOT
ATOM      1  C1' N4B d   1     -39.057  20.033  12.526  0.00  0.00    -0.041 C 
ATOM      2  H6  N4B d   1     -38.805  20.811  13.262  0.00  0.00     0.040 H 
ATOM      3  H7  N4B d   1     -38.616  20.293  11.552  0.00  0.00     0.040 H 
ENDROOT
BRANCH   1   4
ATOM      4  C1  N4B d   1     -40.579  19.963  12.379  0.00  0.00    -0.058 A 
ATOM      5  C2  N4B d   1     -41.141  19.474  11.206  0.00  0.00    -0.077 A 
ATOM      6  C3  N4B d   1     -42.523  19.410  11.069  0.00  0.00    -0.082 A 
ATOM      7  H1  N4B d   1     -40.501  19.142  10.397  0.00  0.00     0.084 H 
ATOM      8  C4  N4B d   1     -43.349  19.839  12.097  0.00  0.00    -0.083 A 
ATOM      9  H2  N4B d   1     -42.957  19.023  10.154  0.00  0.00     0.083 H 
ATOM     10  C5  N4B d   1     -42.788  20.328  13.272  0.00  0.00    -0.082 A 
ATOM     11  H3  N4B d   1     -44.426  19.794  11.985  0.00  0.00     0.083 H 
ATOM     12  C6  N4B d   1     -41.401  20.394  13.409  0.00  0.00    -0.077 A 
ATOM     13  H4  N4B d   1     -43.429  20.658  14.082  0.00  0.00     0.083 H 
ATOM     14  H5  N4B d   1     -40.965  20.783  14.322  0.00  0.00     0.084 H 
ENDBRANCH   1   4
BRANCH   1  15
ATOM     15  C2' N4B d   1     -38.473  18.700  12.995  0.00  0.00    -0.062 C 
ATOM     16  H8  N4B d   1     -37.379  18.799  13.059  0.00  0.00     0.033 H 
ATOM     17  H9  N4B d   1     -38.728  17.926  12.256  0.00  0.00     0.033 H 
BRANCH  15  18
ATOM     18  C3' N4B d   1     -39.003  18.262  14.363  0.00  0.00    -0.068 C 
ATOM     19  H10 N4B d   1     -38.558  17.289  14.620  0.00  0.00     0.032 H 
ATOM     20  H11 N4B d   1     -40.097  18.161  14.303  0.00  0.00     0.032 H 
BRANCH  18  21
ATOM     21  C4' N4B d   1     -38.661  19.268  15.469  0.00  0.00    -0.077 C 
ATOM     22  H12 N4B d   1     -39.062  18.909  16.428  0.00  0.00     0.027 H 
ATOM     23  H13 N4B d   1     -39.107  20.244  15.228  0.00  0.00     0.027 H 
ATOM     24  H14 N4B d   1     -37.569  19.373  15.545  0.00  0.00     0.027 H 
ENDBRANCH  18  21
ENDBRANCH  15  18
ENDBRANCH   1  15
TORSDOF 4
