REMARK  22 active torsions:
REMARK  status: ('A' for Active; 'I' for Inactive)
REMARK    1  A    between atoms: PA_1  and  O3A_4 
REMARK    2  A    between atoms: PA_1  and  O5F_20 
REMARK    3  A    between atoms: O3A_4  and  PB_5 
REMARK    4  A    between atoms: PB_5  and  O3B_8 
REMARK    5  A    between atoms: O3B_8  and  PG_9 
REMARK    6  A    between atoms: PG_9  and  O3G_12 
REMARK    7  A    between atoms: O3G_12  and  PD_13 
REMARK    8  A    between atoms: PD_13  and  O3D_16 
REMARK    9  A    between atoms: O3D_16  and  PE_17 
REMARK   10  A    between atoms: PE_17  and  O5J_39 
REMARK   11  A    between atoms: O5F_20  and  C5F_21 
REMARK   12  A    between atoms: C5F_21  and  C4F_22 
REMARK   13  A    between atoms: C3F_24  and  O3F_25 
REMARK   14  A    between atoms: C2F_26  and  O2F_27 
REMARK   15  A    between atoms: C1F_28  and  N9A_29 
REMARK   16  A    between atoms: C6A_33  and  N6A_34 
REMARK   17  A    between atoms: O5J_39  and  C5J_40 
REMARK   18  A    between atoms: C5J_40  and  C4J_41 
REMARK   19  A    between atoms: C3J_43  and  O3J_44 
REMARK   20  A    between atoms: C2J_45  and  O2J_46 
REMARK   21  A    between atoms: C1J_47  and  N9B_48 
REMARK   22  A    between atoms: C6B_52  and  N6B_53 
ROOT
ATOM      1  PG  AP5 d   1      57.415   1.929  30.039  0.00  0.00     0.427 P 
ATOM      2  O1G AP5 d   1      56.810   2.167  28.657  0.00  0.00    -0.624 OA
ATOM      3  O2G AP5 d   1      56.858   0.689  30.728  0.00  0.00    -0.624 OA
ENDROOT
BRANCH   1   4
ATOM      4  O3B AP5 d   1      59.000   1.966  30.026  0.00  0.00    -0.180 OA
BRANCH   4   5
ATOM      5  PB  AP5 d   1      59.978   0.773  29.900  0.00  0.00     0.427 P 
ATOM      6  O1B AP5 d   1      61.330   1.379  29.702  0.00  0.00    -0.624 OA
ATOM      7  O2B AP5 d   1      59.923  -0.061  31.169  0.00  0.00    -0.624 OA
BRANCH   5   8
ATOM      8  O3A AP5 d   1      59.465  -0.130  28.706  0.00  0.00    -0.180 OA
BRANCH   8   9
ATOM      9  PA  AP5 d   1      59.967  -0.288  27.246  0.00  0.00     0.417 P 
ATOM     10  O1A AP5 d   1      58.767  -0.217  26.403  0.00  0.00    -0.624 OA
ATOM     11  O2A AP5 d   1      60.939   0.753  26.872  0.00  0.00    -0.624 OA
BRANCH   9  12
ATOM     12  O5F AP5 d   1      60.615  -1.751  27.138  0.00  0.00    -0.287 OA
BRANCH  12  13
ATOM     13  C5F AP5 d   1      59.729  -2.899  27.310  0.00  0.00     0.058 C 
ATOM     14  H   AP5 d   1      58.951  -2.898  26.532  0.00  0.00     0.079 H 
ATOM     15  H   AP5 d   1      59.256  -2.868  28.302  0.00  0.00     0.079 H 
BRANCH  13  16
ATOM     16  C4F AP5 d   1      60.602  -4.145  27.181  0.00  0.00     0.089 C 
ATOM     17  O4F AP5 d   1      61.219  -4.150  26.029  0.00  0.00    -0.353 OA
ATOM     18  C1F AP5 d   1      62.713  -4.654  26.318  0.00  0.00     0.139 C 
ATOM     19  C2F AP5 d   1      62.771  -4.999  27.566  0.00  0.00     0.105 C 
ATOM     20  H   AP5 d   1      62.958  -5.522  25.688  0.00  0.00     0.122 H 
ATOM     21  C3F AP5 d   1      61.751  -4.038  28.199  0.00  0.00     0.091 C 
ATOM     22  H   AP5 d   1      63.783  -4.894  27.983  0.00  0.00     0.093 H 
ATOM     23  H   AP5 d   1      62.145  -3.013  28.259  0.00  0.00     0.091 H 
ATOM     24  H   AP5 d   1      60.003  -5.056  27.326  0.00  0.00     0.090 H 
BRANCH  18  25
ATOM     25  N9A AP5 d   1      63.587  -3.572  25.998  0.00  0.00    -0.294 N 
ATOM     26  C8A AP5 d   1      63.181  -2.320  25.704  0.00  0.00     0.071 A 
ATOM     27  N7A AP5 d   1      64.280  -1.567  25.439  0.00  0.00    -0.236 NA
ATOM     28  H   AP5 d   1      62.149  -1.972  25.683  0.00  0.00     0.144 H 
ATOM     29  C5A AP5 d   1      65.372  -2.372  25.570  0.00  0.00     0.149 A 
ATOM     30  C6A AP5 d   1      66.741  -2.147  25.417  0.00  0.00     0.155 A 
ATOM     31  C4A AP5 d   1      64.938  -3.599  25.907  0.00  0.00     0.167 A 
ATOM     32  N1A AP5 d   1      67.602  -3.160  25.615  0.00  0.00    -0.222 NA
ATOM     33  C2A AP5 d   1      67.149  -4.399  25.958  0.00  0.00     0.091 A 
ATOM     34  N3A AP5 d   1      65.814  -4.616  26.108  0.00  0.00    -0.222 NA
ATOM     35  H   AP5 d   1      67.851  -5.210  26.111  0.00  0.00     0.146 H 
BRANCH  30  36
ATOM     36  N6A AP5 d   1      67.400  -0.927  25.070  0.00  0.00    -0.382 N 
ATOM     37  H   AP5 d   1      68.427  -0.901  24.990  0.00  0.00     0.157 HD
ATOM     38  H   AP5 d   1      66.848  -0.074  24.900  0.00  0.00     0.157 HD
ENDBRANCH  30  36
ENDBRANCH  18  25
BRANCH  19  39
ATOM     39  O2F AP5 d   1      62.249  -6.371  27.758  0.00  0.00    -0.388 OA
ATOM     40  H   AP5 d   1      62.154  -6.545  28.687  0.00  0.00     0.210 HD
ENDBRANCH  19  39
BRANCH  21  41
ATOM     41  O3F AP5 d   1      61.370  -4.439  29.421  0.00  0.00    -0.390 OA
ATOM     42  H   AP5 d   1      61.088  -5.345  29.382  0.00  0.00     0.210 HD
ENDBRANCH  21  41
ENDBRANCH  13  16
ENDBRANCH  12  13
ENDBRANCH   9  12
ENDBRANCH   8   9
ENDBRANCH   5   8
ENDBRANCH   4   5
ENDBRANCH   1   4
BRANCH   1  43
ATOM     43  O3G AP5 d   1      57.184   3.174  30.952  0.00  0.00    -0.180 OA
BRANCH  43  44
ATOM     44  PD  AP5 d   1      57.212   4.731  30.531  0.00  0.00     0.427 P 
ATOM     45  O1D AP5 d   1      58.248   5.423  31.379  0.00  0.00    -0.624 OA
ATOM     46  O2D AP5 d   1      57.374   5.046  29.057  0.00  0.00    -0.624 OA
BRANCH  44  47
ATOM     47  O3D AP5 d   1      55.770   5.102  31.077  0.00  0.00    -0.180 OA
BRANCH  47  48
ATOM     48  PE  AP5 d   1      54.510   5.873  30.507  0.00  0.00     0.417 P 
ATOM     49  O1E AP5 d   1      54.974   7.192  29.900  0.00  0.00    -0.624 OA
ATOM     50  O2E AP5 d   1      53.680   5.018  29.615  0.00  0.00    -0.624 OA
BRANCH  48  51
ATOM     51  O5J AP5 d   1      53.672   6.137  31.834  0.00  0.00    -0.287 OA
BRANCH  51  52
ATOM     52  C5J AP5 d   1      53.416   4.997  32.677  0.00  0.00     0.058 C 
ATOM     53  H   AP5 d   1      54.210   4.921  33.434  0.00  0.00     0.079 H 
ATOM     54  H   AP5 d   1      53.408   4.085  32.061  0.00  0.00     0.079 H 
BRANCH  52  55
ATOM     55  C4J AP5 d   1      52.049   5.145  33.385  0.00  0.00     0.089 C 
ATOM     56  O4J AP5 d   1      52.079   6.115  34.281  0.00  0.00    -0.353 OA
ATOM     57  C1J AP5 d   1      51.146   7.300  33.766  0.00  0.00     0.139 C 
ATOM     58  C2J AP5 d   1      50.939   7.068  32.495  0.00  0.00     0.105 C 
ATOM     59  H   AP5 d   1      50.191   7.342  34.310  0.00  0.00     0.122 H 
ATOM     60  C3J AP5 d   1      50.947   5.526  32.378  0.00  0.00     0.091 C 
ATOM     61  H   AP5 d   1      51.751   7.509  31.898  0.00  0.00     0.093 H 
ATOM     62  H   AP5 d   1      51.202   5.202  31.358  0.00  0.00     0.091 H 
ATOM     63  H   AP5 d   1      51.796   4.193  33.874  0.00  0.00     0.090 H 
BRANCH  57  64
ATOM     64  N9B AP5 d   1      51.920   8.499  33.998  0.00  0.00    -0.294 N 
ATOM     65  C8B AP5 d   1      52.918   9.049  33.268  0.00  0.00     0.071 A 
ATOM     66  N7B AP5 d   1      53.355  10.169  33.907  0.00  0.00    -0.236 NA
ATOM     67  H   AP5 d   1      53.306   8.661  32.328  0.00  0.00     0.144 H 
ATOM     68  C5B AP5 d   1      52.608  10.280  35.054  0.00  0.00     0.149 A 
ATOM     69  C6B AP5 d   1      52.661  11.244  36.051  0.00  0.00     0.155 A 
ATOM     70  C4B AP5 d   1      51.729   9.267  35.139  0.00  0.00     0.167 A 
ATOM     71  N1B AP5 d   1      51.837  11.168  37.098  0.00  0.00    -0.222 NA
ATOM     72  C2B AP5 d   1      50.934  10.150  37.206  0.00  0.00     0.091 A 
ATOM     73  N3B AP5 d   1      50.873   9.181  36.214  0.00  0.00    -0.222 NA
ATOM     74  H   AP5 d   1      50.269  10.099  38.061  0.00  0.00     0.146 H 
BRANCH  69  75
ATOM     75  N6B AP5 d   1      53.462  12.442  36.275  0.00  0.00    -0.382 N 
ATOM     76  H   AP5 d   1      53.310  13.013  37.119  0.00  0.00     0.157 HD
ATOM     77  H   AP5 d   1      54.180  12.717  35.590  0.00  0.00     0.157 HD
ENDBRANCH  69  75
ENDBRANCH  57  64
BRANCH  58  78
ATOM     78  O2J AP5 d   1      49.638   7.588  31.999  0.00  0.00    -0.388 OA
ATOM     79  H   AP5 d   1      49.523   7.336  31.090  0.00  0.00     0.210 HD
ENDBRANCH  58  78
BRANCH  60  80
ATOM     80  O3J AP5 d   1      49.736   4.982  32.746  0.00  0.00    -0.390 OA
ATOM     81  H   AP5 d   1      49.073   5.230  32.112  0.00  0.00     0.210 HD
ENDBRANCH  60  80
ENDBRANCH  52  55
ENDBRANCH  51  52
ENDBRANCH  48  51
ENDBRANCH  47  48
ENDBRANCH  44  47
ENDBRANCH  43  44
ENDBRANCH   1  43
TORSDOF 22
