REMARK  7 active torsions:
REMARK  status: ('A' for Active; 'I' for Inactive)
REMARK    1  A    between atoms: C15_8  and  C16_9 
REMARK    2  A    between atoms: N6_24  and  C15_8 
REMARK    3  A    between atoms: C16_9  and  C17_10 
REMARK    4  A    between atoms: C16_9  and  C18_11 
REMARK    5  A    between atoms: C16_9  and  N7_25 
REMARK    6  A    between atoms: C6_15  and  N6_24 
REMARK    7  A    between atoms: C7_17  and  C8_19 
ROOT
ATOM      1  C1  3J7 d   1     -13.896  42.656  -9.537  0.00  0.00     0.003 A 
ATOM      2  C2  3J7 d   1     -14.212  43.815  -8.796  0.00  0.00    -0.050 A 
ATOM      3  C3  3J7 d   1     -14.495  41.240  -7.760  0.00  0.00     0.030 A 
ATOM      4  N1  3J7 d   1     -14.046  41.400  -9.037  0.00  0.00    -0.271 NA
ATOM      5  C4  3J7 d   1     -14.857  42.323  -6.920  0.00  0.00     0.090 A 
ATOM      6  C5  3J7 d   1     -14.688  43.646  -7.458  0.00  0.00     0.041 A 
ATOM      7  C6  3J7 d   1     -15.067  44.715  -6.597  0.00  0.00     0.138 A 
ATOM      8  N2  3J7 d   1     -15.528  44.453  -5.360  0.00  0.00    -0.210 NA
ATOM      9  C7  3J7 d   1     -15.668  43.186  -4.942  0.00  0.00     0.162 A 
ATOM     10  N3  3J7 d   1     -15.347  42.111  -5.680  0.00  0.00    -0.226 NA
ATOM     11  H   3J7 d   1     -13.518  42.772 -10.546  0.00  0.00     0.114 H 
ATOM     12  H   3J7 d   1     -14.097  44.803  -9.228  0.00  0.00     0.087 H 
ATOM     13  H   3J7 d   1     -14.580  40.233  -7.367  0.00  0.00     0.118 H 
ENDROOT
BRANCH   7  14
ATOM     14  N6  3J7 d   1     -14.988  46.058  -7.013  0.00  0.00    -0.372 N 
ATOM     15  H   3J7 d   1     -14.428  46.268  -7.852  0.00  0.00     0.161 HD
BRANCH  14  16
ATOM     16  C15 3J7 d   1     -15.645  47.174  -6.337  0.00  0.00     0.024 C 
ATOM     17  H   3J7 d   1     -16.025  47.869  -7.100  0.00  0.00     0.067 H 
ATOM     18  H   3J7 d   1     -16.486  46.779  -5.749  0.00  0.00     0.067 H 
BRANCH  16  19
ATOM     19  C16 3J7 d   1     -14.696  47.960  -5.379  0.00  0.00     0.132 C 
BRANCH  19  20
ATOM     20  C17 3J7 d   1     -15.144  49.388  -5.049  0.00  0.00    -0.044 C 
ATOM     21  H   3J7 d   1     -14.413  49.854  -4.372  0.00  0.00     0.030 H 
ATOM     22  H   3J7 d   1     -16.130  49.360  -4.561  0.00  0.00     0.030 H 
ATOM     23  H   3J7 d   1     -15.211  49.975  -5.977  0.00  0.00     0.030 H 
ENDBRANCH  19  20
BRANCH  19  24
ATOM     24  C18 3J7 d   1     -14.457  47.225  -4.051  0.00  0.00    -0.044 C 
ATOM     25  H   3J7 d   1     -14.133  46.194  -4.256  0.00  0.00     0.030 H 
ATOM     26  H   3J7 d   1     -15.390  47.208  -3.469  0.00  0.00     0.030 H 
ATOM     27  H   3J7 d   1     -13.677  47.747  -3.478  0.00  0.00     0.030 H 
ENDBRANCH  19  24
BRANCH  19  28
ATOM     28  N7  3J7 d   1     -13.419  48.113  -6.034  0.00  0.00    -0.070 N 
ATOM     29  H   3J7 d   1     -13.547  48.594  -6.911  0.00  0.00     0.275 HD
ATOM     30  H   3J7 d   1     -13.018  47.204  -6.204  0.00  0.00     0.275 HD
ATOM     31  H   3J7 d   1     -12.801  48.648  -5.444  0.00  0.00     0.275 HD
ENDBRANCH  19  28
ENDBRANCH  16  19
ENDBRANCH  14  16
ENDBRANCH   7  14
BRANCH   9  32
ATOM     32  C8  3J7 d   1     -16.259  42.995  -3.590  0.00  0.00     0.013 A 
ATOM     33  C11 3J7 d   1     -16.294  41.708  -2.954  0.00  0.00    -0.067 A 
ATOM     34  C10 3J7 d   1     -16.881  41.544  -1.668  0.00  0.00    -0.052 A 
ATOM     35  H   3J7 d   1     -15.867  40.850  -3.460  0.00  0.00     0.085 H 
ATOM     36  C12 3J7 d   1     -17.469  42.674  -1.040  0.00  0.00     0.088 A 
ATOM     37  H   3J7 d   1     -16.879  40.577  -1.178  0.00  0.00     0.087 H 
ATOM     38  C13 3J7 d   1     -17.514  43.965  -1.664  0.00  0.00     0.012 A 
ATOM     39  N5  3J7 d   1     -18.122  42.872   0.156  0.00  0.00    -0.175 NA
ATOM     40  C14 3J7 d   1     -18.209  44.796  -0.744  0.00  0.00     0.008 A 
ATOM     41  C9  3J7 d   1     -16.905  44.106  -2.945  0.00  0.00    -0.056 A 
ATOM     42  N4  3J7 d   1     -18.564  44.130   0.328  0.00  0.00    -0.288 N 
ATOM     43  H   3J7 d   1     -18.420  45.852  -0.909  0.00  0.00     0.115 H 
ATOM     44  H   3J7 d   1     -19.079  44.498   1.141  0.00  0.00     0.188 HD
ATOM     45  H   3J7 d   1     -16.929  45.069  -3.442  0.00  0.00     0.086 H 
ENDBRANCH   9  32
TORSDOF 7
