REMARK  3 active torsions:
REMARK  status: ('A' for Active; 'I' for Inactive)
REMARK    1  A    between atoms: C1_1  and  C15_9 
REMARK    2  A    between atoms: C4_13  and  N3_12 
REMARK    3  A    between atoms: C7_16  and  C8_17 
ROOT
ATOM      1  C1  3JC d   1      -3.003  -9.814 -26.339  0.00  0.00     0.065 A 
ATOM      2  C2  3JC d   1      -1.722  -9.766 -25.843  0.00  0.00     0.060 A 
ATOM      3  C3  3JC d   1      -1.477 -10.346 -24.622  0.00  0.00     0.070 A 
ATOM      4  O1  3JC d   1      -0.843  -8.711 -27.723  0.00  0.00    -0.292 OA
ATOM      5  N1  3JC d   1      -3.989 -10.407 -25.666  0.00  0.00    -0.067 NA
ATOM      6  N2  3JC d   1      -2.451 -10.937 -23.930  0.00  0.00    -0.067 NA
ATOM      7  C4  3JC d   1      -3.667 -10.941 -24.485  0.00  0.00     0.720 A 
ATOM      8  C5  3JC d   1      -0.646  -9.109 -26.586  0.00  0.00     0.164 C 
ATOM      9  C6  3JC d   1       0.655  -8.929 -25.867  0.00  0.00     0.002 C 
ATOM     10  C7  3JC d   1       0.957 -10.143 -25.029  0.00  0.00    -0.017 C 
ATOM     11  C9  3JC d   1      -0.122 -10.342 -23.992  0.00  0.00    -0.016 C 
ATOM     12  H   3JC d   1       0.591  -8.045 -25.216  0.00  0.00     0.045 H 
ATOM     13  H   3JC d   1       1.460  -8.786 -26.603  0.00  0.00     0.045 H 
ATOM     14  H   3JC d   1       0.985 -11.030 -25.679  0.00  0.00     0.048 H 
ATOM     15  H   3JC d   1       0.041 -11.304 -23.483  0.00  0.00     0.043 H 
ATOM     16  H   3JC d   1      -0.070  -9.525 -23.257  0.00  0.00     0.043 H 
ENDROOT
BRANCH  10  17
ATOM     17  C8  3JC d   1       2.305  -9.967 -24.394  0.00  0.00    -0.053 A 
ATOM     18  C14 3JC d   1       2.868  -8.718 -24.258  0.00  0.00    -0.076 A 
ATOM     19  C13 3JC d   1       4.111  -8.567 -23.687  0.00  0.00    -0.082 A 
ATOM     20  H   3JC d   1       2.327  -7.845 -24.604  0.00  0.00     0.084 H 
ATOM     21  C12 3JC d   1       4.804  -9.669 -23.245  0.00  0.00    -0.083 A 
ATOM     22  H   3JC d   1       4.544  -7.578 -23.586  0.00  0.00     0.083 H 
ATOM     23  C11 3JC d   1       4.245 -10.918 -23.377  0.00  0.00    -0.082 A 
ATOM     24  H   3JC d   1       5.784  -9.554 -22.796  0.00  0.00     0.083 H 
ATOM     25  C10 3JC d   1       3.004 -11.064 -23.949  0.00  0.00    -0.076 A 
ATOM     26  H   3JC d   1       4.785 -11.791 -23.029  0.00  0.00     0.083 H 
ATOM     27  H   3JC d   1       2.572 -12.053 -24.050  0.00  0.00     0.084 H 
ENDBRANCH  10  17
BRANCH   1  28
ATOM     28  C15 3JC d   1      -3.373  -9.214 -27.652  0.00  0.00    -0.034 C 
ATOM     29  H   3JC d   1      -4.445  -9.374 -27.839  0.00  0.00     0.035 H 
ATOM     30  H   3JC d   1      -2.786  -9.691 -28.451  0.00  0.00     0.035 H 
ATOM     31  H   3JC d   1      -3.161  -8.135 -27.635  0.00  0.00     0.035 H 
ENDBRANCH   1  28
BRANCH   7  32
ATOM     32  N3  3JC d   1      -4.693 -11.559 -23.775  0.00  0.00    -0.231 N 
ATOM     33  H   3JC d   1      -5.646 -11.585 -24.165  0.00  0.00     0.174 HD
ATOM     34  H   3JC d   1      -4.499 -11.990 -22.860  0.00  0.00     0.174 HD
ENDBRANCH   7  32
TORSDOF 3
