REMARK  3 active torsions:
REMARK  status: ('A' for Active; 'I' for Inactive)
REMARK    1  A    between atoms: C6_3  and  O17_17 
REMARK    2  A    between atoms: O7_13  and  C5_4 
REMARK    3  A    between atoms: C8_10  and  O7_13 
ROOT
ATOM      1  C1  TCL d   1     -34.817   4.518  45.083  0.00  0.00    -0.027 A 
ATOM      2  C2  TCL d   1     -34.648   4.313  43.729  0.00  0.00     0.036 A 
ATOM      3  C6  TCL d   1     -34.404   3.553  45.988  0.00  0.00     0.101 A 
ATOM      4  C5  TCL d   1     -33.809   2.379  45.532  0.00  0.00     0.109 A 
ATOM      5  C4  TCL d   1     -33.649   2.173  44.169  0.00  0.00    -0.046 A 
ATOM      6  C3  TCL d   1     -34.064   3.143  43.271  0.00  0.00    -0.059 A 
ATOM      7 CL14 TCL d   1     -35.171   5.534  42.610  0.00  0.00    -0.084 Cl
ATOM      8  H   TCL d   1     -35.273   5.435  45.439  0.00  0.00     0.090 H 
ATOM      9  H   TCL d   1     -33.200   1.255  43.808  0.00  0.00     0.087 H 
ATOM     10  H   TCL d   1     -33.931   2.986  42.207  0.00  0.00     0.086 H 
ENDROOT
BRANCH   4  11
ATOM     11  O7  TCL d   1     -33.418   1.440  46.444  0.00  0.00    -0.306 OA
BRANCH  11  12
ATOM     12  C8  TCL d   1     -32.172   0.964  46.162  0.00  0.00     0.098 A 
ATOM     13  C9  TCL d   1     -31.987  -0.408  46.051  0.00  0.00     0.069 A 
ATOM     14  C10 TCL d   1     -30.738  -0.926  45.778  0.00  0.00    -0.038 A 
ATOM     15 CL16 TCL d   1     -33.330  -1.488  46.242  0.00  0.00    -0.081 Cl
ATOM     16  C11 TCL d   1     -29.658  -0.082  45.623  0.00  0.00     0.035 A 
ATOM     17  H   TCL d   1     -30.605  -1.998  45.685  0.00  0.00     0.088 H 
ATOM     18  C12 TCL d   1     -29.828   1.289  45.742  0.00  0.00    -0.059 A 
ATOM     19 CL15 TCL d   1     -28.097  -0.759  45.282  0.00  0.00    -0.084 Cl
ATOM     20  C13 TCL d   1     -31.081   1.813  46.016  0.00  0.00    -0.047 A 
ATOM     21  H   TCL d   1     -28.979   1.952  45.620  0.00  0.00     0.086 H 
ATOM     22  H   TCL d   1     -31.210   2.885  46.117  0.00  0.00     0.087 H 
ENDBRANCH  11  12
ENDBRANCH   4  11
BRANCH   3  23
ATOM     23  O17 TCL d   1     -34.576   3.766  47.321  0.00  0.00    -0.358 OA
ATOM     24  H   TCL d   1     -34.993   4.609  47.455  0.00  0.00     0.217 HD
ENDBRANCH   3  23
TORSDOF 3
