REMARK  11 active torsions:
REMARK  status: ('A' for Active; 'I' for Inactive)
REMARK    1  A    between atoms: CAC_1  and  OAW_2 
REMARK    2  A    between atoms: OAW_2  and  CBE_3 
REMARK    3  A    between atoms: CBD_5  and  OAV_6 
REMARK    4  A    between atoms: OAV_6  and  CAB_7 
REMARK    5  A    between atoms: CBB_10  and  OAX_11 
REMARK    6  A    between atoms: OAX_11  and  CAQ_12 
REMARK    7  A    between atoms: CAQ_12  and  CAT_13 
REMARK    8  A    between atoms: CAT_13  and  NBI_14 
REMARK    9  A    between atoms: CBF_18  and  CAI_19 
REMARK   10  A    between atoms: N_26  and  SBK_27 
REMARK   11  A    between atoms: SBK_27  and  CBC_30 
ROOT
ATOM      1  NBI 3JP d   1      11.348 -15.384 -18.963  0.00  0.00    -0.348 N 
ATOM      2  C   3JP d   1      11.285 -14.517 -17.944  0.00  0.00     0.238 C 
ATOM      3  O   3JP d   1      12.342 -14.232 -17.394  0.00  0.00    -0.272 OA
ATOM      4  CAU 3JP d   1      10.160 -15.819 -19.732  0.00  0.00     0.005 C 
ATOM      5  CBF 3JP d   1       9.104 -16.537 -18.888  0.00  0.00    -0.006 C 
ATOM      6  CBH 3JP d   1       8.313 -15.557 -17.994  0.00  0.00     0.018 C 
ATOM      7  CAS 3JP d   1       8.286 -16.030 -16.528  0.00  0.00    -0.049 C 
ATOM      8  CAP 3JP d   1       9.605 -15.748 -15.836  0.00  0.00    -0.062 C 
ATOM      9  CB  3JP d   1       9.922 -14.267 -15.917  0.00  0.00    -0.041 C 
ATOM     10  CA  3JP d   1      10.059 -13.845 -17.380  0.00  0.00     0.087 C 
ATOM     11  N   3JP d   1       8.851 -14.171 -18.210  0.00  0.00    -0.188 NA
ATOM     12  H   3JP d   1      10.493 -16.504 -20.526  0.00  0.00     0.065 H 
ATOM     13  H   3JP d   1       9.696 -14.930 -20.185  0.00  0.00     0.065 H 
ATOM     14  H   3JP d   1       9.607 -17.278 -18.249  0.00  0.00     0.051 H 
ATOM     15  H   3JP d   1       7.269 -15.555 -18.340  0.00  0.00     0.066 H 
ATOM     16  H   3JP d   1       8.093 -17.113 -16.504  0.00  0.00     0.035 H 
ATOM     17  H   3JP d   1       7.481 -15.502 -15.995  0.00  0.00     0.035 H 
ATOM     18  H   3JP d   1      10.405 -16.320 -16.328  0.00  0.00     0.033 H 
ATOM     19  H   3JP d   1       9.535 -16.049 -14.780  0.00  0.00     0.033 H 
ATOM     20  H   3JP d   1      10.866 -14.066 -15.389  0.00  0.00     0.036 H 
ATOM     21  H   3JP d   1       9.110 -13.694 -15.446  0.00  0.00     0.036 H 
ATOM     22  H   3JP d   1      10.204 -12.755 -17.413  0.00  0.00     0.080 H 
ENDROOT
BRANCH   1  23
ATOM     23  CAT 3JP d   1      12.644 -15.970 -19.341  0.00  0.00     0.018 C 
ATOM     24  H   3JP d   1      13.381 -15.729 -18.561  0.00  0.00     0.067 H 
ATOM     25  H   3JP d   1      12.530 -17.062 -19.413  0.00  0.00     0.067 H 
BRANCH  23  26
ATOM     26  CAQ 3JP d   1      13.154 -15.444 -20.674  0.00  0.00     0.041 C 
ATOM     27  H   3JP d   1      14.036 -16.027 -20.979  0.00  0.00     0.077 H 
ATOM     28  H   3JP d   1      12.363 -15.551 -21.431  0.00  0.00     0.077 H 
BRANCH  26  29
ATOM     29  OAX 3JP d   1      13.516 -14.068 -20.565  0.00  0.00    -0.349 OA
BRANCH  29  30
ATOM     30  CBB 3JP d   1      14.749 -13.755 -20.051  0.00  0.00     0.071 A 
ATOM     31  CAO 3JP d   1      15.146 -12.431 -20.165  0.00  0.00    -0.016 A 
ATOM     32  CBE 3JP d   1      16.376 -12.003 -19.682  0.00  0.00     0.104 A 
ATOM     33  H   3JP d   1      14.484 -11.716 -20.640  0.00  0.00     0.092 H 
ATOM     34  CBD 3JP d   1      17.232 -12.895 -19.057  0.00  0.00     0.101 A 
ATOM     35  CAK 3JP d   1      16.834 -14.226 -18.939  0.00  0.00    -0.045 A 
ATOM     36  CAJ 3JP d   1      15.600 -14.660 -19.419  0.00  0.00    -0.048 A 
ATOM     37  H   3JP d   1      17.499 -14.938 -18.464  0.00  0.00     0.088 H 
ATOM     38  H   3JP d   1      15.303 -15.696 -19.302  0.00  0.00     0.087 H 
BRANCH  32  39
ATOM     39  OAW 3JP d   1      16.789 -10.715 -19.787  0.00  0.00    -0.353 OA
BRANCH  39  40
ATOM     40  CAC 3JP d   1      15.999  -9.823 -20.586  0.00  0.00     0.010 C 
ATOM     41  H   3JP d   1      16.454  -8.822 -20.577  0.00  0.00     0.066 H 
ATOM     42  H   3JP d   1      14.981  -9.766 -20.174  0.00  0.00     0.066 H 
ATOM     43  H   3JP d   1      15.956 -10.197 -21.620  0.00  0.00     0.066 H 
ENDBRANCH  39  40
ENDBRANCH  32  39
BRANCH  34  44
ATOM     44  OAV 3JP d   1      18.423 -12.389 -18.607  0.00  0.00    -0.353 OA
BRANCH  44  45
ATOM     45  CAB 3JP d   1      19.274 -13.282 -17.880  0.00  0.00     0.010 C 
ATOM     46  H   3JP d   1      20.190 -12.752 -17.579  0.00  0.00     0.066 H 
ATOM     47  H   3JP d   1      19.538 -14.138 -18.518  0.00  0.00     0.066 H 
ATOM     48  H   3JP d   1      18.748 -13.642 -16.984  0.00  0.00     0.066 H 
ENDBRANCH  44  45
ENDBRANCH  34  44
ENDBRANCH  29  30
ENDBRANCH  26  29
ENDBRANCH  23  26
ENDBRANCH   1  23
BRANCH   5  49
ATOM     49  CAI 3JP d   1       8.108 -17.249 -19.811  0.00  0.00    -0.105 C 
ATOM     50  CAA 3JP d   1       8.474 -18.354 -20.566  0.00  0.00    -0.124 C 
ATOM     51  H   3JP d   1       7.743 -18.838 -21.212  0.00  0.00     0.066 H 
ATOM     52  H   3JP d   1       9.492 -18.737 -20.512  0.00  0.00     0.066 H 
ATOM     53  H   3JP d   1       7.086 -16.878 -19.876  0.00  0.00     0.076 H 
ENDBRANCH   5  49
BRANCH  11  54
ATOM     54  SBK 3JP d   1       7.744 -13.021 -18.202  0.00  0.00     0.244 S 
ATOM     55  OAE 3JP d   1       8.289 -11.694 -18.156  0.00  0.00    -0.206 OA
ATOM     56  OAF 3JP d   1       6.421 -13.362 -17.697  0.00  0.00    -0.206 OA
BRANCH  54  57
ATOM     57  CBC 3JP d   1       7.329 -13.058 -19.911  0.00  0.00     0.078 A 
ATOM     58  CAM 3JP d   1       8.254 -12.604 -20.843  0.00  0.00    -0.040 A 
ATOM     59  CAZ 3JP d   1       7.953 -12.616 -22.197  0.00  0.00     0.037 A 
ATOM     60  H   3JP d   1       9.218 -12.238 -20.509  0.00  0.00     0.088 H 
ATOM     61 CLA  3JP d   1       9.104 -12.043 -23.336  0.00  0.00    -0.084 Cl
ATOM     62  CAL 3JP d   1       6.725 -13.092 -22.635  0.00  0.00    -0.041 A 
ATOM     63  CBA 3JP d   1       5.792 -13.551 -21.712  0.00  0.00     0.037 A 
ATOM     64  H   3JP d   1       6.494 -13.106 -23.694  0.00  0.00     0.088 H 
ATOM     65 CLB  3JP d   1       4.273 -14.147 -22.282  0.00  0.00    -0.084 Cl
ATOM     66  CAN 3JP d   1       6.097 -13.524 -20.349  0.00  0.00    -0.040 A 
ATOM     67  H   3JP d   1       5.366 -13.870 -19.628  0.00  0.00     0.088 H 
ENDBRANCH  54  57
ENDBRANCH  11  54
TORSDOF 11
