REMARK  3 active torsions:
REMARK  status: ('A' for Active; 'I' for Inactive)
REMARK    1  A    between atoms: O01_1  and  C02_2 
REMARK    2  A    between atoms: C05_5  and  C06_6 
REMARK    3  A    between atoms: C09_9  and  C12_12 
ROOT
ATOM      1  C06 3K1 d   1      11.787  23.148 -11.988  0.00  0.00     0.010 A 
ATOM      2  C07 3K1 d   1      12.458  24.219 -11.405  0.00  0.00    -0.068 A 
ATOM      3  C08 3K1 d   1      13.061  25.166 -12.232  0.00  0.00    -0.068 A 
ATOM      4  C09 3K1 d   1      12.942  25.043 -13.611  0.00  0.00     0.012 A 
ATOM      5  C10 3K1 d   1      12.255  23.991 -14.185  0.00  0.00    -0.068 A 
ATOM      6  C11 3K1 d   1      11.649  23.043 -13.373  0.00  0.00    -0.068 A 
ATOM      7  H   3K1 d   1      12.511  24.315 -10.327  0.00  0.00     0.085 H 
ATOM      8  H   3K1 d   1      13.618  25.991 -11.803  0.00  0.00     0.085 H 
ATOM      9  H   3K1 d   1      12.190  23.907 -15.264  0.00  0.00     0.085 H 
ATOM     10  H   3K1 d   1      11.076  22.232 -13.808  0.00  0.00     0.085 H 
ENDROOT
BRANCH   1  11
ATOM     11  C05 3K1 d   1      11.074  22.163 -11.114  0.00  0.00     0.141 A 
ATOM     12  N04 3K1 d   1      10.707  20.952 -11.571  0.00  0.00    -0.347 N 
ATOM     13  C03 3K1 d   1      10.024  20.143 -10.721  0.00  0.00     0.016 A 
ATOM     14  H   3K1 d   1      10.935  20.650 -12.529  0.00  0.00     0.167 HD
ATOM     15  C02 3K1 d   1       9.697  20.583  -9.468  0.00  0.00     0.151 A 
ATOM     16  H   3K1 d   1       9.736  19.142 -11.038  0.00  0.00     0.116 H 
ATOM     17  C18 3K1 d   1      10.104  21.857  -9.048  0.00  0.00     0.303 A 
ATOM     18  N17 3K1 d   1      10.753  22.634  -9.904  0.00  0.00    -0.189 NA
ATOM     19  O19 3K1 d   1       9.877  22.281  -7.950  0.00  0.00    -0.263 OA
BRANCH  15  20
ATOM     20  O01 3K1 d   1       9.012  19.774  -8.583  0.00  0.00    -0.355 OA
ATOM     21  H   3K1 d   1       8.173  19.535  -8.959  0.00  0.00     0.218 HD
ENDBRANCH  15  20
ENDBRANCH   1  11
BRANCH   4  22
ATOM     22  C12 3K1 d   1      13.582  26.081 -14.490  0.00  0.00     0.168 A 
ATOM     23  N13 3K1 d   1      13.241  26.414 -15.744  0.00  0.00    -0.142 NA
ATOM     24  N14 3K1 d   1      14.075  27.398 -16.117  0.00  0.00     0.018 NA
ATOM     25  N15 3K1 d   1      14.894  27.688 -15.102  0.00  0.00    -0.005 NA
ATOM     26  N16 3K1 d   1      14.561  26.871 -14.091  0.00  0.00    -0.268 N 
ATOM     27  H   3K1 d   1      14.997  26.862 -13.158  0.00  0.00     0.185 HD
ENDBRANCH   4  22
TORSDOF 3
