REMARK  7 active torsions:
REMARK  status: ('A' for Active; 'I' for Inactive)
REMARK    1  A    between atoms: C1_1  and  C_29 
REMARK    2  A    between atoms: N2_18  and  C11_5 
REMARK    3  A    between atoms: N2_18  and  C12_6 
REMARK    4  A    between atoms: N3_28  and  C15_9 
REMARK    5  A    between atoms: S_16  and  N2_18 
REMARK    6  A    between atoms: C8_19  and  S_16 
REMARK    7  A    between atoms: C5_24  and  C4_25 
ROOT
ATOM      1  C1  3K6 d   1      -2.679  12.420 -18.075  0.00  0.00     0.026 C 
ATOM      2  C2  3K6 d   1      -3.322  12.613 -16.707  0.00  0.00     0.035 C 
ATOM      3  C3  3K6 d   1      -1.886  10.924 -13.984  0.00  0.00     0.034 A 
ATOM      4  C13 3K6 d   1      -2.168  10.454 -16.117  0.00  0.00     0.061 A 
ATOM      5  C14 3K6 d   1      -2.199   9.968 -17.533  0.00  0.00     0.036 C 
ATOM      6  C4  3K6 d   1      -1.629   9.948 -14.957  0.00  0.00     0.019 A 
ATOM      7  N1  3K6 d   1      -2.554  11.946 -14.466  0.00  0.00    -0.184 NA
ATOM      8  N   3K6 d   1      -2.722  11.666 -15.801  0.00  0.00    -0.270 N 
ATOM      9  N3  3K6 d   1      -2.700  10.993 -18.455  0.00  0.00    -0.368 N 
ATOM     10  H   3K6 d   1      -3.301  12.962 -18.803  0.00  0.00     0.074 H 
ATOM     11  H   3K6 d   1      -4.405  12.433 -16.774  0.00  0.00     0.070 H 
ATOM     12  H   3K6 d   1      -3.142  13.638 -16.350  0.00  0.00     0.070 H 
ATOM     13  H   3K6 d   1      -1.567  10.843 -12.946  0.00  0.00     0.118 H 
ATOM     14  H   3K6 d   1      -2.854   9.087 -17.592  0.00  0.00     0.073 H 
ATOM     15  H   3K6 d   1      -1.179   9.687 -17.834  0.00  0.00     0.073 H 
ENDROOT
BRANCH   6  16
ATOM     16  C5  3K6 d   1      -1.031   8.630 -14.639  0.00  0.00    -0.022 A 
ATOM     17  C6  3K6 d   1      -0.448   7.843 -15.631  0.00  0.00    -0.071 A 
ATOM     18  C7  3K6 d   1       0.025   6.576 -15.341  0.00  0.00    -0.059 A 
ATOM     19  H   3K6 d   1      -0.364   8.228 -16.641  0.00  0.00     0.084 H 
ATOM     20  C8  3K6 d   1      -0.067   6.089 -14.043  0.00  0.00     0.079 A 
ATOM     21  H   3K6 d   1       0.465   5.966 -16.122  0.00  0.00     0.085 H 
ATOM     22  C9  3K6 d   1      -0.634   6.863 -13.042  0.00  0.00    -0.059 A 
ATOM     23  C10 3K6 d   1      -1.106   8.126 -13.338  0.00  0.00    -0.071 A 
ATOM     24  H   3K6 d   1      -0.706   6.478 -12.031  0.00  0.00     0.085 H 
ATOM     25  H   3K6 d   1      -1.540   8.734 -12.552  0.00  0.00     0.084 H 
BRANCH  20  26
ATOM     26  S   3K6 d   1       0.586   4.510 -13.652  0.00  0.00     0.260 S 
ATOM     27  O1  3K6 d   1       0.082   3.574 -14.618  0.00  0.00    -0.200 OA
ATOM     28  O   3K6 d   1       0.352   4.274 -12.264  0.00  0.00    -0.200 OA
BRANCH  26  29
ATOM     29  N2  3K6 d   1       2.198   4.585 -13.861  0.00  0.00    -0.315 N 
BRANCH  29  30
ATOM     30  C11 3K6 d   1       2.740   4.484 -15.221  0.00  0.00    -0.009 C 
ATOM     31  H   3K6 d   1       3.837   4.553 -15.184  0.00  0.00     0.057 H 
ATOM     32  H   3K6 d   1       2.342   5.304 -15.836  0.00  0.00     0.057 H 
ATOM     33  H   3K6 d   1       2.447   3.519 -15.662  0.00  0.00     0.057 H 
ENDBRANCH  29  30
BRANCH  29  34
ATOM     34  C12 3K6 d   1       3.055   4.011 -12.817  0.00  0.00    -0.009 C 
ATOM     35  H   3K6 d   1       4.111   4.137 -13.099  0.00  0.00     0.057 H 
ATOM     36  H   3K6 d   1       2.831   2.940 -12.706  0.00  0.00     0.057 H 
ATOM     37  H   3K6 d   1       2.866   4.526 -11.863  0.00  0.00     0.057 H 
ENDBRANCH  29  34
ENDBRANCH  26  29
ENDBRANCH  20  26
ENDBRANCH   6  16
BRANCH   9  38
ATOM     38  C15 3K6 d   1      -2.848  10.639 -19.827  0.00  0.00     0.046 A 
ATOM     39  C16 3K6 d   1      -1.937   9.800 -20.470  0.00  0.00    -0.039 A 
ATOM     40  C17 3K6 d   1      -2.013   9.656 -21.845  0.00  0.00     0.007 A 
ATOM     41  H   3K6 d   1      -1.182   9.269 -19.902  0.00  0.00     0.089 H 
ATOM     42  N4  3K6 d   1      -2.920  10.277 -22.614  0.00  0.00    -0.242 NA
ATOM     43  H   3K6 d   1      -1.297   9.002 -22.329  0.00  0.00     0.114 H 
ATOM     44  C18 3K6 d   1      -3.805  11.065 -21.978  0.00  0.00     0.139 A 
ATOM     45  C21 3K6 d   1      -3.844  11.273 -20.591  0.00  0.00     0.038 A 
ATOM     46  N5  3K6 d   1      -4.806  11.806 -22.534  0.00  0.00    -0.350 N 
ATOM     47  C20 3K6 d   1      -4.937  12.162 -20.330  0.00  0.00    -0.052 A 
ATOM     48  C19 3K6 d   1      -5.485  12.465 -21.536  0.00  0.00    -0.020 A 
ATOM     49  H   3K6 d   1      -5.264  12.524 -19.356  0.00  0.00     0.087 H 
ATOM     50  H   3K6 d   1      -6.334  13.130 -21.689  0.00  0.00     0.111 H 
ATOM     51  H   3K6 d   1      -5.019  11.863 -23.540  0.00  0.00     0.166 HD
ENDBRANCH   9  38
BRANCH   1  52
ATOM     52  C   3K6 d   1      -1.272  13.014 -18.169  0.00  0.00    -0.056 C 
ATOM     53  H   3K6 d   1      -0.868  12.841 -19.177  0.00  0.00     0.030 H 
ATOM     54  H   3K6 d   1      -0.620  12.533 -17.425  0.00  0.00     0.030 H 
ATOM     55  H   3K6 d   1      -1.317  14.095 -17.973  0.00  0.00     0.030 H 
ENDBRANCH   1  52
TORSDOF 7
