REMARK  7 active torsions:
REMARK  status: ('A' for Active; 'I' for Inactive)
REMARK    1  A    between atoms: C2_2  and  C7_9 
REMARK    2  A    between atoms: C5_5  and  O1_7 
REMARK    3  A    between atoms: C6_6  and  O2_8 
REMARK    4  A    between atoms: O1_7  and  C15_22 
REMARK    5  A    between atoms: O2_8  and  C11_21 
REMARK    6  A    between atoms: C8_10  and  C9_18 
REMARK    7  A    between atoms: C12_14  and  N12_20 
ROOT
ATOM      1  C1  3K7 d   1      37.617  22.708 -11.836  0.00  0.00    -0.036 A 
ATOM      2  C2  3K7 d   1      36.381  22.981 -12.399  0.00  0.00    -0.002 A 
ATOM      3  C3  3K7 d   1      36.274  23.039 -13.778  0.00  0.00    -0.068 A 
ATOM      4  C4  3K7 d   1      37.370  22.870 -14.594  0.00  0.00    -0.047 A 
ATOM      5  C5  3K7 d   1      38.594  22.608 -14.030  0.00  0.00     0.101 A 
ATOM      6  C6  3K7 d   1      38.720  22.527 -12.658  0.00  0.00     0.102 A 
ATOM      7  H1  3K7 d   1      37.722  22.636 -10.759  0.00  0.00     0.089 H 
ATOM      8  H2  3K7 d   1      35.304  23.222 -14.226  0.00  0.00     0.085 H 
ATOM      9  H3  3K7 d   1      37.267  22.943 -15.671  0.00  0.00     0.087 H 
ENDROOT
BRANCH   2  10
ATOM     10  C7  3K7 d   1      35.167  23.164 -11.550  0.00  0.00     0.095 A 
ATOM     11  C8  3K7 d   1      34.702  22.552 -10.297  0.00  0.00     0.062 A 
ATOM     12  N9  3K7 d   1      33.513  23.130 -10.050  0.00  0.00    -0.230 NA
ATOM     13  C10 3K7 d   1      33.237  24.017 -11.035  0.00  0.00     0.178 A 
ATOM     14  N11 3K7 d   1      34.225  24.028 -11.926  0.00  0.00    -0.209 N 
ATOM     15  C12 3K7 d   1      32.157  24.854 -11.241  0.00  0.00     0.077 A 
ATOM     16  N18 3K7 d   1      34.204  24.855 -13.051  0.00  0.00    -0.153 NA
ATOM     17  C14 3K7 d   1      33.160  25.669 -13.258  0.00  0.00     0.149 A 
ATOM     18  C13 3K7 d   1      32.114  25.684 -12.350  0.00  0.00    -0.013 A 
ATOM     19 CL   3K7 d   1      33.139  26.725 -14.703  0.00  0.00    -0.060 Cl
ATOM     20  H4  3K7 d   1      31.262  26.345 -12.507  0.00  0.00     0.092 H 
BRANCH  11  21
ATOM     21  C9  3K7 d   1      35.393  21.513  -9.467  0.00  0.00    -0.033 C 
ATOM     22  H5  3K7 d   1      34.773  21.272  -8.591  0.00  0.00     0.035 H 
ATOM     23  H6  3K7 d   1      36.367  21.899  -9.132  0.00  0.00     0.035 H 
ATOM     24  H7  3K7 d   1      35.546  20.605 -10.069  0.00  0.00     0.035 H 
ENDBRANCH  11  21
BRANCH  15  25
ATOM     25  N12 3K7 d   1      31.141  24.862 -10.355  0.00  0.00    -0.396 N 
ATOM     26  H8  3K7 d   1      31.172  24.246  -9.530  0.00  0.00     0.156 HD
ATOM     27  H9  3K7 d   1      30.334  25.485 -10.503  0.00  0.00     0.156 HD
ENDBRANCH  15  25
ENDBRANCH   2  10
BRANCH   6  28
ATOM     28  O2  3K7 d   1      39.930  22.273 -12.095  0.00  0.00    -0.353 OA
BRANCH  28  29
ATOM     29  C11 3K7 d   1      40.976  23.215 -12.251  0.00  0.00     0.010 C 
ATOM     30  H10 3K7 d   1      41.877  22.851 -11.735  0.00  0.00     0.066 H 
ATOM     31  H11 3K7 d   1      40.669  24.178 -11.818  0.00  0.00     0.066 H 
ATOM     32  H12 3K7 d   1      41.194  23.347 -13.321  0.00  0.00     0.066 H 
ENDBRANCH  28  29
ENDBRANCH   6  28
BRANCH   5  33
ATOM     33  O1  3K7 d   1      39.646  22.445 -14.878  0.00  0.00    -0.353 OA
BRANCH  33  34
ATOM     34  C15 3K7 d   1      39.791  23.410 -15.915  0.00  0.00     0.010 C 
ATOM     35  H13 3K7 d   1      40.673  23.164 -16.524  0.00  0.00     0.066 H 
ATOM     36  H14 3K7 d   1      39.919  24.409 -15.472  0.00  0.00     0.066 H 
ATOM     37  H15 3K7 d   1      38.893  23.403 -16.550  0.00  0.00     0.066 H 
ENDBRANCH  33  34
ENDBRANCH   5  33
TORSDOF 7
