REMARK  5 active torsions:
REMARK  status: ('A' for Active; 'I' for Inactive)
REMARK    1  A    between atoms: CAM_13  and  NAB_2 
REMARK    2  A    between atoms: CAD_4  and  CAC_3 
REMARK    3  A    between atoms: CAD_4  and  CAE_5 
REMARK    4  A    between atoms: CAF_6  and  CAD_4 
REMARK    5  A    between atoms: CAN_14  and  CAR_18 
ROOT
ATOM      1  NAA ANW d   1      42.961 -55.846  -3.046  0.00  0.00    -0.205 NA
ATOM      2  CAF ANW d   1      42.534 -54.094   2.998  0.00  0.00    -0.054 A 
ATOM      3  CAG ANW d   1      42.624 -53.320   1.844  0.00  0.00    -0.060 A 
ATOM      4  CAH ANW d   1      42.711 -53.931   0.594  0.00  0.00     0.049 A 
ATOM      5  CAI ANW d   1      42.709 -55.321   0.510  0.00  0.00     0.092 A 
ATOM      6  CAJ ANW d   1      42.618 -56.098   1.659  0.00  0.00    -0.049 A 
ATOM      7  CAK ANW d   1      42.531 -55.490   2.903  0.00  0.00    -0.074 A 
ATOM      8  CAL ANW d   1      42.879 -55.203  -1.863  0.00  0.00     0.186 A 
ATOM      9  CAM ANW d   1      43.050 -55.161  -4.202  0.00  0.00     0.141 A 
ATOM     10  CAN ANW d   1      43.055 -53.770  -4.203  0.00  0.00     0.087 A 
ATOM     11  CAO ANW d   1      42.971 -53.083  -2.997  0.00  0.00    -0.045 A 
ATOM     12  CAP ANW d   1      42.882 -53.810  -1.812  0.00  0.00     0.069 A 
ATOM     13  CAQ ANW d   1      42.797 -53.172  -0.577  0.00  0.00     0.199 A 
ATOM     14  OAS ANW d   1      42.794 -55.933  -0.710  0.00  0.00    -0.290 OA
ATOM     15  OAT ANW d   1      42.799 -51.923  -0.525  0.00  0.00    -0.286 OA
ATOM     16  H   ANW d   1      42.626 -52.239   1.918  0.00  0.00     0.086 H 
ATOM     17  H   ANW d   1      42.615 -57.179   1.583  0.00  0.00     0.087 H 
ATOM     18  H   ANW d   1      42.461 -56.095   3.800  0.00  0.00     0.084 H 
ATOM     19  H   ANW d   1      42.975 -51.999  -2.979  0.00  0.00     0.087 H 
ENDROOT
BRANCH   2  20
ATOM     20  CAD ANW d   1      42.451 -53.374   4.292  0.00  0.00    -0.036 C 
ATOM     21  H   ANW d   1      43.098 -52.487   4.223  0.00  0.00     0.046 H 
BRANCH  20  22
ATOM     22  CAC ANW d   1      41.023 -52.892   4.538  0.00  0.00    -0.069 C 
ATOM     23  H   ANW d   1      40.976 -52.360   5.500  0.00  0.00     0.028 H 
ATOM     24  H   ANW d   1      40.343 -53.757   4.563  0.00  0.00     0.028 H 
ATOM     25  H   ANW d   1      40.721 -52.212   3.728  0.00  0.00     0.028 H 
ENDBRANCH  20  22
BRANCH  20  26
ATOM     26  CAE ANW d   1      42.964 -54.226   5.454  0.00  0.00    -0.069 C 
ATOM     27  H   ANW d   1      43.992 -54.554   5.242  0.00  0.00     0.028 H 
ATOM     28  H   ANW d   1      42.316 -55.106   5.577  0.00  0.00     0.028 H 
ATOM     29  H   ANW d   1      42.953 -53.630   6.379  0.00  0.00     0.028 H 
ENDBRANCH  20  26
ENDBRANCH   2  20
BRANCH  10  30
ATOM     30  CAR ANW d   1      43.164 -53.018  -5.498  0.00  0.00     0.213 C 
ATOM     31  OAU ANW d   1      43.020 -53.666  -6.557  0.00  0.00    -0.644 OA
ATOM     32  OAV ANW d   1      43.411 -51.785  -5.498  0.00  0.00    -0.644 OA
ENDBRANCH  10  30
BRANCH   9  33
ATOM     33  NAB ANW d   1      43.143 -55.926  -5.471  0.00  0.00    -0.383 N 
ATOM     34  H   ANW d   1      43.212 -55.427  -6.369  0.00  0.00     0.157 HD
ATOM     35  H   ANW d   1      43.139 -56.956  -5.453  0.00  0.00     0.157 HD
ENDBRANCH   9  33
TORSDOF 5
