REMARK WARNING: 32 MAX_TORS EXCEEDED!!!
REMARK  36 active torsions:
REMARK  status: ('A' for Active; 'I' for Inactive)
REMARK    1  A    between atoms: N_1  and  CA_2 
REMARK    2  A    between atoms: CA_2  and  C_3 
REMARK    3  A    between atoms: CA_2  and  CB_5 
REMARK       I    between atoms: C_3  and  N_9 
REMARK    4  A    between atoms: CB_5  and  CG_6 
REMARK       I    between atoms: CG_6  and  ND2_8 
REMARK    5  A    between atoms: N_9  and  CA_10 
REMARK    6  A    between atoms: CA_10  and  C_11 
REMARK    7  A    between atoms: CA_10  and  CB_13 
REMARK       I    between atoms: C_11  and  N_17 
REMARK    8  A    between atoms: CB_13  and  CG_14 
REMARK    9  A    between atoms: CG_14  and  CD1_15 
REMARK   10  A    between atoms: CG_14  and  CD2_16 
REMARK   11  A    between atoms: CA_18  and  C_19 
REMARK       I    between atoms: C_19  and  N_24 
REMARK   12  A    between atoms: N_24  and  CA_25 
REMARK   13  A    between atoms: CA_25  and  C_26 
REMARK   14  A    between atoms: CA_25  and  CB_28 
REMARK       I    between atoms: C_26  and  N_31 
REMARK   15  A    between atoms: CB_28  and  OG1_29 
REMARK   16  A    between atoms: CB_28  and  CG2_30 
REMARK   17  A    between atoms: N_31  and  CA_32 
REMARK   18  A    between atoms: CA_32  and  C_33 
REMARK   19  A    between atoms: CA_32  and  CB_35 
REMARK       I    between atoms: C_33  and  N_36 
REMARK   20  A    between atoms: CA_37  and  C_38 
REMARK       I    between atoms: C_38  and  N_43 
REMARK   21  A    between atoms: CA_44  and  C_45 
REMARK       I    between atoms: C_45  and  N_50 
REMARK   22  A    between atoms: N_50  and  CA_51 
REMARK   23  A    between atoms: CA_51  and  C_52 
REMARK   24  A    between atoms: CA_51  and  CB_54 
REMARK       I    between atoms: C_52  and  N_61 
REMARK   25  A    between atoms: CB_54  and  CG_55 
REMARK   26  A    between atoms: CG_55  and  CD_56 
REMARK   27  A    between atoms: CD_56  and  NE_57 
REMARK       I    between atoms: NE_57  and  CZ_58 
REMARK       I    between atoms: CZ_58  and  NH1_59 
REMARK       I    between atoms: CZ_58  and  NH2_60 
REMARK   28  A    between atoms: N_61  and  CA_62 
REMARK   29  A    between atoms: CA_62  and  C_63 
REMARK   30  A    between atoms: CA_62  and  CB_65 
REMARK       I    between atoms: C_63  and  N_72 
REMARK   31  A    between atoms: CB_65  and  CG_66 
REMARK   32  A    between atoms: CG_66  and  CD_67 
REMARK   33  A    between atoms: CD_67  and  NE_68 
REMARK       I    between atoms: NE_68  and  CZ_69 
REMARK       I    between atoms: CZ_69  and  NH1_70 
REMARK   34  A    between atoms: N_72  and  CA_73 
REMARK   35  A    between atoms: CA_73  and  C_74 
REMARK   36  A    between atoms: CA_73  and  CB_76 
ROOT
ATOM      1  N   PRO d   1     -12.114  15.698  -9.503  0.00  0.00    -0.337 N 
ATOM      2  CA  PRO d   1     -13.461  16.279  -9.509  0.00  0.00     0.092 C 
ATOM      3  CB  PRO d   1     -14.166  15.529 -10.642  0.00  0.00    -0.036 C 
ATOM      4  CG  PRO d   1     -13.096  14.885 -11.434  0.00  0.00    -0.048 C 
ATOM      5  CD  PRO d   1     -11.971  14.612 -10.487  0.00  0.00    -0.001 C 
ATOM      6  H39 PRO d   1     -13.420  17.358  -9.719  0.00  0.00     0.087 H 
ATOM      7  H40 PRO d   1     -14.735  16.231 -11.269  0.00  0.00     0.036 H 
ATOM      8  H41 PRO d   1     -14.847  14.769 -10.231  0.00  0.00     0.036 H 
ATOM      9  H42 PRO d   1     -12.761  15.557 -12.238  0.00  0.00     0.035 H 
ATOM     10  H43 PRO d   1     -13.461  13.944 -11.871  0.00  0.00     0.035 H 
ATOM     11  H44 PRO d   1     -12.082  13.627 -10.011  0.00  0.00     0.064 H 
ATOM     12  H45 PRO d   1     -10.999  14.664 -10.999  0.00  0.00     0.064 H 
ATOM     13  C   ALA d   1     -11.208  16.207  -8.666  0.00  0.00     0.243 C 
ATOM     14  O   ALA d   1     -11.447  17.187  -7.949  0.00  0.00    -0.271 OA
ENDROOT
BRANCH   2  15
ATOM     15  C   PRO d   1     -14.174  16.049  -8.176  0.00  0.00     0.243 C 
ATOM     16  O   PRO d   1     -13.857  15.089  -7.477  0.00  0.00    -0.271 OA
ATOM     17  N   PRO d   1     -15.107  16.937  -7.802  0.00  0.00    -0.337 N 
ATOM     18  CA  PRO d   1     -15.840  16.692  -6.557  0.00  0.00     0.091 C 
ATOM     19  CD  PRO d   1     -15.379  18.272  -8.364  0.00  0.00    -0.001 C 
ATOM     20  CB  PRO d   1     -16.829  17.862  -6.493  0.00  0.00    -0.036 C 
ATOM     21  H46 PRO d   1     -15.156  16.708  -5.696  0.00  0.00     0.087 H 
ATOM     22  CG  PRO d   1     -16.171  18.956  -7.269  0.00  0.00    -0.048 C 
ATOM     23  H47 PRO d   1     -16.997  18.172  -5.451  0.00  0.00     0.036 H 
ATOM     24  H48 PRO d   1     -17.789  17.584  -6.952  0.00  0.00     0.036 H 
ATOM     25  H49 PRO d   1     -15.501  19.537  -6.618  0.00  0.00     0.035 H 
ATOM     26  H50 PRO d   1     -16.928  19.624  -7.705  0.00  0.00     0.035 H 
ATOM     27  H51 PRO d   1     -15.969  18.197  -9.289  0.00  0.00     0.064 H 
ATOM     28  H52 PRO d   1     -14.443  18.812  -8.569  0.00  0.00     0.064 H 
BRANCH  18  29
ATOM     29  C   PRO d   1     -16.587  15.361  -6.579  0.00  0.00     0.241 C 
ATOM     30  O   PRO d   1     -17.037  14.943  -7.648  0.00  0.00    -0.271 OA
ATOM     31  N   ARG d   1     -16.718  14.722  -5.418  0.00  0.00    -0.346 N 
ATOM     32  H53 ARG d   1     -16.217  15.057  -4.620  0.00  0.00     0.163 HD
BRANCH  31  33
ATOM     33  CA  ARG d   1     -17.573  13.544  -5.276  0.00  0.00     0.089 C 
ATOM     34  H54 ARG d   1     -17.404  12.881  -6.138  0.00  0.00     0.087 H 
BRANCH  33  35
ATOM     35  C   ARG d   1     -19.041  13.974  -5.252  0.00  0.00     0.241 C 
ATOM     36  O   ARG d   1     -19.364  15.121  -4.917  0.00  0.00    -0.271 OA
ATOM     37  N   ARG d   1     -19.935  13.048  -5.571  0.00  0.00    -0.346 N 
ATOM     38  H66 ARG d   1     -19.627  12.133  -5.833  0.00  0.00     0.163 HD
BRANCH  37  39
ATOM     39  CA  ARG d   1     -21.365  13.349  -5.544  0.00  0.00     0.089 C 
ATOM     40  H67 ARG d   1     -21.539  14.225  -6.186  0.00  0.00     0.087 H 
BRANCH  39  41
ATOM     41  C   ARG d   1     -21.848  13.691  -4.136  0.00  0.00     0.241 C 
ATOM     42  O   ARG d   1     -22.612  14.646  -3.952  0.00  0.00    -0.271 OA
ATOM     43  N   ARG d   1     -21.417  12.900  -3.155  0.00  0.00    -0.345 N 
ATOM     44  H79 ARG d   1     -20.947  12.051  -3.396  0.00  0.00     0.163 HD
BRANCH  43  45
ATOM     45  CA  ARG d   1     -21.603  13.221  -1.733  0.00  0.00     0.093 C 
ATOM     46  H80 ARG d   1     -21.373  12.311  -1.159  0.00  0.00     0.089 H 
BRANCH  45  47
ATOM     47  C   ARG d   1     -23.021  13.651  -1.361  0.00  0.00     0.196 C 
ATOM     48  O   ARG d   1     -23.221  14.729  -0.795  0.00  0.00    -0.646 OA
ATOM     49  OXT ARG d   1     -23.985  12.926  -1.622  0.00  0.00    -0.646 OA
ENDBRANCH  45  47
BRANCH  45  50
ATOM     50  CB  ARG d   1     -20.619  14.319  -1.313  0.00  0.00    -0.048 C 
ATOM     51  H81 ARG d   1     -20.764  14.554  -0.248  0.00  0.00     0.030 H 
ATOM     52  H82 ARG d   1     -20.798  15.222  -1.915  0.00  0.00     0.030 H 
ATOM     53  H83 ARG d   1     -19.589  13.969  -1.474  0.00  0.00     0.030 H 
ENDBRANCH  45  50
ENDBRANCH  43  45
ENDBRANCH  39  41
BRANCH  39  54
ATOM     54  CB  ARG d   1     -22.168  12.175  -6.106  0.00  0.00    -0.036 C 
ATOM     55  H68 ARG d   1     -22.107  11.338  -5.395  0.00  0.00     0.036 H 
ATOM     56  H69 ARG d   1     -21.722  11.874  -7.066  0.00  0.00     0.036 H 
BRANCH  54  57
ATOM     57  CG  ARG d   1     -23.624  12.503  -6.336  0.00  0.00    -0.048 C 
ATOM     58  H70 ARG d   1     -23.705  13.534  -6.712  0.00  0.00     0.035 H 
ATOM     59  H71 ARG d   1     -24.166  12.417  -5.383  0.00  0.00     0.035 H 
BRANCH  57  60
ATOM     60  CD  ARG d   1     -24.243  11.559  -7.344  0.00  0.00     0.009 C 
ATOM     61  H72 ARG d   1     -24.686  10.701  -6.816  0.00  0.00     0.064 H 
ATOM     62  H73 ARG d   1     -23.465  11.202  -8.035  0.00  0.00     0.064 H 
BRANCH  60  63
ATOM     63  NE  ARG d   1     -25.278  12.247  -8.098  0.00  0.00    -0.227 N 
ATOM     64  CZ  ARG d   1     -26.537  12.369  -7.698  0.00  0.00     0.665 C 
ATOM     65  NH1 ARG d   1     -26.930  11.825  -6.551  0.00  0.00    -0.235 N 
ATOM     66  NH2 ARG d   1     -27.401  13.029  -8.451  0.00  0.00    -0.235 N 
ATOM     67  H75 ARG d   1     -27.908  11.922  -6.244  0.00  0.00     0.174 HD
ATOM     68  H76 ARG d   1     -26.256  11.307  -5.969  0.00  0.00     0.174 HD
ATOM     69  H77 ARG d   1     -27.094  13.450  -9.339  0.00  0.00     0.174 HD
ATOM     70  H78 ARG d   1     -28.381  13.122  -8.149  0.00  0.00     0.174 HD
ATOM     71  H74 ARG d   1     -25.017  12.667  -9.002  0.00  0.00     0.177 HD
ENDBRANCH  60  63
ENDBRANCH  57  60
ENDBRANCH  54  57
ENDBRANCH  39  54
ENDBRANCH  37  39
ENDBRANCH  33  35
BRANCH  33  72
ATOM     72  CB  ARG d   1     -17.263  12.769  -3.988  0.00  0.00    -0.036 C 
ATOM     73  H55 ARG d   1     -17.953  11.914  -3.939  0.00  0.00     0.036 H 
ATOM     74  H56 ARG d   1     -17.453  13.443  -3.139  0.00  0.00     0.036 H 
BRANCH  72  75
ATOM     75  CG  ARG d   1     -15.849  12.229  -3.841  0.00  0.00    -0.048 C 
ATOM     76  H57 ARG d   1     -15.740  11.786  -2.840  0.00  0.00     0.035 H 
ATOM     77  H58 ARG d   1     -15.138  13.060  -3.954  0.00  0.00     0.035 H 
BRANCH  75  78
ATOM     78  CD  ARG d   1     -15.536  11.178  -4.874  0.00  0.00     0.009 C 
ATOM     79  H59 ARG d   1     -14.533  10.777  -4.668  0.00  0.00     0.064 H 
ATOM     80  H60 ARG d   1     -15.545  11.653  -5.866  0.00  0.00     0.064 H 
BRANCH  78  81
ATOM     81  NE  ARG d   1     -16.485  10.064  -4.887  0.00  0.00    -0.227 N 
ATOM     82  CZ  ARG d   1     -16.374   8.965  -4.139  0.00  0.00     0.665 C 
ATOM     83  NH1 ARG d   1     -15.367   8.828  -3.289  0.00  0.00    -0.235 N 
ATOM     84  NH2 ARG d   1     -17.283   8.004  -4.233  0.00  0.00    -0.235 N 
ATOM     85  H62 ARG d   1     -15.289   7.976  -2.716  0.00  0.00     0.174 HD
ATOM     86  H63 ARG d   1     -14.662   9.574  -3.202  0.00  0.00     0.174 HD
ATOM     87  H64 ARG d   1     -18.069   8.102  -4.891  0.00  0.00     0.174 HD
ATOM     88  H65 ARG d   1     -17.203   7.160  -3.648  0.00  0.00     0.174 HD
ATOM     89  H61 ARG d   1     -17.296  10.133  -5.518  0.00  0.00     0.177 HD
ENDBRANCH  78  81
ENDBRANCH  75  78
ENDBRANCH  72  75
ENDBRANCH  33  72
ENDBRANCH  31  33
ENDBRANCH  18  29
ENDBRANCH   2  15
BRANCH  13  90
ATOM     90  CA  ALA d   1      -9.833  15.550  -8.672  0.00  0.00     0.086 C 
ATOM     91  H35 ALA d   1      -9.731  14.970  -9.601  0.00  0.00     0.086 H 
BRANCH  90  92
ATOM     92  N   ALA d   1      -8.792  16.568  -8.649  0.00  0.00    -0.346 N 
ATOM     93  C   THR d   1      -8.629  17.380  -9.686  0.00  0.00     0.243 C 
ATOM     94  O   THR d   1      -9.338  17.322 -10.687  0.00  0.00    -0.271 OA
ATOM     95  H34 ALA d   1      -8.198  16.655  -7.849  0.00  0.00     0.163 HD
BRANCH  93  96
ATOM     96  CA  THR d   1      -7.477  18.386  -9.616  0.00  0.00     0.113 C 
ATOM     97  H28 THR d   1      -6.829  18.133  -8.764  0.00  0.00     0.091 H 
BRANCH  96  98
ATOM     98  N   THR d   1      -6.705  18.283 -10.846  0.00  0.00    -0.344 N 
ATOM     99  C   PRO d   1      -5.535  17.664 -10.882  0.00  0.00     0.241 C 
ATOM    100  O   PRO d   1      -4.922  17.317  -9.870  0.00  0.00    -0.271 OA
ATOM    101  H27 THR d   1      -7.067  18.690 -11.685  0.00  0.00     0.163 HD
BRANCH  99 102
ATOM    102  CA  PRO d   1      -4.965  17.408 -12.265  0.00  0.00     0.091 C 
ATOM    103  N   PRO d   1      -3.504  17.404 -12.253  0.00  0.00    -0.337 N 
ATOM    104  C   LEU d   1      -2.834  18.555 -12.213  0.00  0.00     0.243 C 
ATOM    105  CD  PRO d   1      -2.947  16.041 -12.313  0.00  0.00    -0.001 C 
ATOM    106  O   LEU d   1      -3.403  19.658 -12.183  0.00  0.00    -0.271 OA
ATOM    107  CG  PRO d   1      -4.166  15.168 -12.219  0.00  0.00    -0.048 C 
ATOM    108  H25 PRO d   1      -2.264  15.857 -11.471  0.00  0.00     0.064 H 
ATOM    109  H26 PRO d   1      -2.414  15.874 -13.261  0.00  0.00     0.064 H 
ATOM    110  CB  PRO d   1      -5.312  15.995 -12.736  0.00  0.00    -0.036 C 
ATOM    111  H23 PRO d   1      -4.038  14.266 -12.835  0.00  0.00     0.035 H 
ATOM    112  H24 PRO d   1      -4.347  14.876 -11.174  0.00  0.00     0.035 H 
ATOM    113  H21 PRO d   1      -5.369  15.948 -13.834  0.00  0.00     0.036 H 
ATOM    114  H22 PRO d   1      -6.267  15.659 -12.305  0.00  0.00     0.036 H 
ATOM    115  H20 PRO d   1      -5.349  18.165 -12.965  0.00  0.00     0.087 H 
BRANCH 104 116
ATOM    116  CA  LEU d   1      -1.318  18.452 -12.184  0.00  0.00     0.090 C 
ATOM    117  H10 LEU d   1      -1.025  17.481 -12.609  0.00  0.00     0.087 H 
BRANCH 116 118
ATOM    118  N   LEU d   1      -0.708  19.505 -12.987  0.00  0.00    -0.346 N 
ATOM    119  C   ASN d   1      -0.226  19.267 -14.203  0.00  0.00     0.249 C 
ATOM    120  O   ASN d   1      -0.299  18.169 -14.750  0.00  0.00    -0.271 OA
ATOM    121  H9  LEU d   1      -0.651  20.431 -12.613  0.00  0.00     0.163 HD
BRANCH 119 122
ATOM    122  CA  ASN d   1       0.436  20.446 -14.911  0.00  0.00     0.183 C 
ATOM    123  H4  ASN d   1       0.312  21.337 -14.278  0.00  0.00     0.099 H 
BRANCH 122 124
ATOM    124  N   ASN d   1       1.863  20.232 -15.114  0.00  0.00    -0.066 N 
ATOM    125  H1  ASN d   1       2.259  21.032 -15.583  0.00  0.00     0.275 HD
ATOM    126  H2  ASN d   1       2.002  19.409 -15.678  0.00  0.00     0.275 HD
ATOM    127  H3  ASN d   1       2.314  20.108 -14.221  0.00  0.00     0.275 HD
ENDBRANCH 122 124
BRANCH 122 128
ATOM    128  CB  ASN d   1      -0.255  20.706 -16.251  0.00  0.00     0.044 C 
ATOM    129  H5  ASN d   1      -1.339  20.780 -16.080  0.00  0.00     0.051 H 
ATOM    130  H6  ASN d   1      -0.047  19.862 -16.924  0.00  0.00     0.051 H 
BRANCH 128 131
ATOM    131  CG  ASN d   1       0.220  21.983 -16.913  0.00  0.00     0.217 C 
ATOM    132  OD1 ASN d   1      -0.052  23.084 -16.433  0.00  0.00    -0.274 OA
ATOM    133  ND2 ASN d   1       0.938  21.843 -18.022  0.00  0.00    -0.370 N 
ATOM    134  H7  ASN d   1       1.279  22.651 -18.502  0.00  0.00     0.159 HD
ATOM    135  H8  ASN d   1       1.138  20.930 -18.376  0.00  0.00     0.159 HD
ENDBRANCH 128 131
ENDBRANCH 122 128
ENDBRANCH 119 122
ENDBRANCH 116 118
BRANCH 116 136
ATOM    136  CB  LEU d   1      -0.828  18.517 -10.738  0.00  0.00    -0.035 C 
ATOM    137  H11 LEU d   1      -1.312  17.704 -10.177  0.00  0.00     0.037 H 
ATOM    138  H12 LEU d   1      -1.134  19.486 -10.317  0.00  0.00     0.037 H 
BRANCH 136 139
ATOM    139  CG  LEU d   1       0.681  18.380 -10.561  0.00  0.00    -0.059 C 
ATOM    140  H13 LEU d   1       1.176  19.150 -11.171  0.00  0.00     0.038 H 
BRANCH 139 141
ATOM    141  CD1 LEU d   1       1.057  18.607  -9.108  0.00  0.00    -0.073 C 
ATOM    142  H14 LEU d   1       2.146  18.506  -8.991  0.00  0.00     0.028 H 
ATOM    143  H15 LEU d   1       0.550  17.862  -8.477  0.00  0.00     0.028 H 
ATOM    144  H16 LEU d   1       0.748  19.617  -8.803  0.00  0.00     0.028 H 
ENDBRANCH 139 141
BRANCH 139 145
ATOM    145  CD2 LEU d   1       1.150  17.008 -11.045  0.00  0.00    -0.073 C 
ATOM    146  H17 LEU d   1       0.864  16.873 -12.098  0.00  0.00     0.028 H 
ATOM    147  H18 LEU d   1       0.680  16.223 -10.434  0.00  0.00     0.028 H 
ATOM    148  H19 LEU d   1       2.244  16.940 -10.951  0.00  0.00     0.028 H 
ENDBRANCH 139 145
ENDBRANCH 136 139
ENDBRANCH 116 136
ENDBRANCH 104 116
ENDBRANCH  99 102
ENDBRANCH  96  98
BRANCH  96 149
ATOM    149  CB  THR d   1      -8.018  19.818  -9.414  0.00  0.00     0.060 C 
ATOM    150  H29 THR d   1      -8.532  20.134 -10.334  0.00  0.00     0.086 H 
BRANCH 149 151
ATOM    151  OG1 THR d   1      -6.927  20.713  -9.156  0.00  0.00    -0.393 OA
ATOM    152  H30 THR d   1      -7.263  21.593  -9.032  0.00  0.00     0.210 HD
ENDBRANCH 149 151
BRANCH 149 153
ATOM    153  CG2 THR d   1      -9.007  19.878  -8.256  0.00  0.00    -0.050 C 
ATOM    154  H31 THR d   1      -9.373  20.909  -8.139  0.00  0.00     0.031 H 
ATOM    155  H32 THR d   1      -8.507  19.559  -7.330  0.00  0.00     0.031 H 
ATOM    156  H33 THR d   1      -9.855  19.209  -8.463  0.00  0.00     0.031 H 
ENDBRANCH 149 153
ENDBRANCH  96 149
ENDBRANCH  93  96
ENDBRANCH  90  92
BRANCH  90 157
ATOM    157  CB  ALA d   1      -9.675  14.598  -7.498  0.00  0.00    -0.049 C 
ATOM    158  H36 ALA d   1     -10.469  13.838  -7.533  0.00  0.00     0.030 H 
ATOM    159  H37 ALA d   1      -9.748  15.162  -6.556  0.00  0.00     0.030 H 
ATOM    160  H38 ALA d   1      -8.693  14.105  -7.555  0.00  0.00     0.030 H 
ENDBRANCH  90 157
ENDBRANCH  13  90
TORSDOF 36
