REMARK  12 active torsions:
REMARK  status: ('A' for Active; 'I' for Inactive)
REMARK    1  A    between atoms: C9_30  and  C1_1 
REMARK       I    between atoms: C24_7  and  N26_8 
REMARK    2  A    between atoms: C23_16  and  C24_7 
REMARK    3  A    between atoms: N26_8  and  C27_9 
REMARK    4  A    between atoms: C27_9  and  C28_10 
REMARK    5  A    between atoms: O22_17  and  C23_16 
REMARK    6  A    between atoms: C17_18  and  O22_17 
REMARK    7  A    between atoms: C16_19  and  O20_20 
REMARK    8  A    between atoms: O20_20  and  C21_21 
REMARK    9  A    between atoms: C15_22  and  O18_23 
REMARK   10  A    between atoms: O18_23  and  C19_24 
REMARK   11  A    between atoms: C10_28  and  C12_27 
REMARK   12  A    between atoms: C10_28  and  C9_30 
ROOT
ATOM      1  C17 3KQ d   1      23.868  -1.235  -9.241  0.00  0.00     0.119 A 
ATOM      2  C16 3KQ d   1      24.157  -1.343 -10.705  0.00  0.00     0.136 A 
ATOM      3  C15 3KQ d   1      23.640  -2.556 -11.420  0.00  0.00     0.104 A 
ATOM      4  C14 3KQ d   1      22.920  -3.533 -10.712  0.00  0.00    -0.047 A 
ATOM      5  C13 3KQ d   1      22.649  -3.424  -9.347  0.00  0.00    -0.064 A 
ATOM      6  C12 3KQ d   1      23.083  -2.331  -8.599  0.00  0.00     0.046 A 
ATOM      7  H   3KQ d   1      22.561  -4.405 -11.246  0.00  0.00     0.087 H 
ATOM      8  H   3KQ d   1      22.086  -4.210  -8.856  0.00  0.00     0.085 H 
ENDROOT
BRANCH   1   9
ATOM      9  O22 3KQ d   1      24.289  -0.170  -8.476  0.00  0.00    -0.338 OA
BRANCH   9  10
ATOM     10  C23 3KQ d   1      25.584   0.417  -8.599  0.00  0.00     0.099 C 
ATOM     11  H   3KQ d   1      26.120  -0.090  -9.415  0.00  0.00     0.089 H 
ATOM     12  H   3KQ d   1      25.462   1.482  -8.846  0.00  0.00     0.089 H 
BRANCH  10  13
ATOM     13  C24 3KQ d   1      26.416   0.310  -7.341  0.00  0.00     0.242 C 
ATOM     14  O25 3KQ d   1      27.588   0.641  -7.399  0.00  0.00    -0.271 OA
ATOM     15  N26 3KQ d   1      25.836  -0.146  -6.227  0.00  0.00    -0.355 N 
ATOM     16  H   3KQ d   1      25.064  -0.776  -6.306  0.00  0.00     0.162 HD
BRANCH  15  17
ATOM     17  C27 3KQ d   1      26.295   0.247  -4.898  0.00  0.00     0.019 C 
ATOM     18  H   3KQ d   1      27.019   1.068  -5.003  0.00  0.00     0.071 H 
ATOM     19  H   3KQ d   1      26.786  -0.616  -4.425  0.00  0.00     0.071 H 
BRANCH  17  20
ATOM     20  C28 3KQ d   1      25.155   0.713  -4.002  0.00  0.00    -0.041 A 
ATOM     21  C33 3KQ d   1      25.370   0.840  -2.625  0.00  0.00    -0.075 A 
ATOM     22  C32 3KQ d   1      24.340   1.250  -1.778  0.00  0.00    -0.082 A 
ATOM     23  H   3KQ d   1      26.347   0.617  -2.212  0.00  0.00     0.084 H 
ATOM     24  C31 3KQ d   1      23.087   1.549  -2.310  0.00  0.00    -0.083 A 
ATOM     25  H   3KQ d   1      24.513   1.336  -0.711  0.00  0.00     0.083 H 
ATOM     26  C30 3KQ d   1      22.858   1.431  -3.683  0.00  0.00    -0.082 A 
ATOM     27  H   3KQ d   1      22.287   1.875  -1.655  0.00  0.00     0.083 H 
ATOM     28  C29 3KQ d   1      23.892   1.014  -4.526  0.00  0.00    -0.075 A 
ATOM     29  H   3KQ d   1      21.882   1.662  -4.093  0.00  0.00     0.083 H 
ATOM     30  H   3KQ d   1      23.715   0.923  -5.592  0.00  0.00     0.084 H 
ENDBRANCH  17  20
ENDBRANCH  15  17
ENDBRANCH  10  13
ENDBRANCH   9  10
ENDBRANCH   1   9
BRANCH   2  31
ATOM     31  O20 3KQ d   1      24.879  -0.366 -11.356  0.00  0.00    -0.351 OA
BRANCH  31  32
ATOM     32  C21 3KQ d   1      24.254   0.833 -11.815  0.00  0.00     0.011 C 
ATOM     33  H   3KQ d   1      25.003   1.473 -12.304  0.00  0.00     0.067 H 
ATOM     34  H   3KQ d   1      23.816   1.369 -10.960  0.00  0.00     0.067 H 
ATOM     35  H   3KQ d   1      23.462   0.581 -12.535  0.00  0.00     0.067 H 
ENDBRANCH  31  32
ENDBRANCH   2  31
BRANCH   6  36
ATOM     36  C10 3KQ d   1      22.767  -2.244  -7.137  0.00  0.00     0.166 C 
ATOM     37  O11 3KQ d   1      23.544  -1.636  -6.412  0.00  0.00    -0.292 OA
BRANCH  36  38
ATOM     38  C9  3KQ d   1      21.485  -2.872  -6.596  0.00  0.00     0.022 C 
ATOM     39  H   3KQ d   1      20.627  -2.458  -7.146  0.00  0.00     0.052 H 
ATOM     40  H   3KQ d   1      21.530  -3.960  -6.752  0.00  0.00     0.052 H 
BRANCH  38  41
ATOM     41  C1  3KQ d   1      21.297  -2.596  -5.115  0.00  0.00    -0.004 A 
ATOM     42  C2  3KQ d   1      21.664  -3.593  -4.086  0.00  0.00     0.059 A 
ATOM     43  C3  3KQ d   1      21.478  -3.287  -2.742  0.00  0.00     0.023 A 
ATOM     44 CL8  3KQ d   1      22.330  -5.170  -4.572  0.00  0.00    -0.082 Cl
ATOM     45  N4  3KQ d   1      20.969  -2.100  -2.357  0.00  0.00    -0.270 NA
ATOM     46  H   3KQ d   1      21.748  -4.018  -1.989  0.00  0.00     0.117 H 
ATOM     47  C5  3KQ d   1      20.606  -1.147  -3.238  0.00  0.00     0.023 A 
ATOM     48  C6  3KQ d   1      20.747  -1.317  -4.615  0.00  0.00     0.059 A 
ATOM     49  H   3KQ d   1      20.191  -0.218  -2.864  0.00  0.00     0.117 H 
ATOM     50 CL7  3KQ d   1      20.260  -0.029  -5.762  0.00  0.00    -0.082 Cl
ENDBRANCH  38  41
ENDBRANCH  36  38
ENDBRANCH   6  36
BRANCH   3  51
ATOM     51  O18 3KQ d   1      23.878  -2.723 -12.757  0.00  0.00    -0.353 OA
BRANCH  51  52
ATOM     52  C19 3KQ d   1      23.417  -3.861 -13.499  0.00  0.00     0.010 C 
ATOM     53  H   3KQ d   1      23.732  -3.766 -14.549  0.00  0.00     0.066 H 
ATOM     54  H   3KQ d   1      22.319  -3.911 -13.449  0.00  0.00     0.066 H 
ATOM     55  H   3KQ d   1      23.846  -4.778 -13.069  0.00  0.00     0.066 H 
ENDBRANCH  51  52
ENDBRANCH   3  51
TORSDOF 12
