REMARK  9 active torsions:
REMARK  status: ('A' for Active; 'I' for Inactive)
REMARK       I    between atoms: C02_2  and  N03_3 
REMARK    1  A    between atoms: C02_2  and  C16_16 
REMARK    2  A    between atoms: N03_3  and  C04_4 
REMARK    3  A    between atoms: C04_4  and  C05_5 
REMARK    4  A    between atoms: C04_4  and  C13_13 
REMARK    5  A    between atoms: C05_5  and  C06_6 
REMARK    6  A    between atoms: C09_9  and  O10_10 
REMARK    7  A    between atoms: C17_17  and  C18_18 
REMARK    8  A    between atoms: C20_20  and  C21_21 
REMARK    9  A    between atoms: C24_24  and  C25_25 
ROOT
ATOM      1  O01 WEF d   1       8.806  27.624  -6.887  0.00  0.00    -0.267 OA
ATOM      2  C02 WEF d   1       7.744  27.586  -7.482  0.00  0.00     0.261 C 
ATOM      3  N03 WEF d   1       6.554  27.097  -6.945  0.00  0.00    -0.342 N 
ATOM      4  H1  WEF d   1       5.763  27.108  -7.557  0.00  0.00     0.163 HD
ENDROOT
BRANCH   2   5
ATOM      5  C16 WEF d   1       7.776  28.093  -8.886  0.00  0.00     0.099 A 
ATOM      6  C17 WEF d   1       8.747  28.127  -9.859  0.00  0.00     0.054 A 
ATOM      7  N19 WEF d   1       8.339  28.682 -11.115  0.00  0.00    -0.244 NA
ATOM      8  C20 WEF d   1       7.073  29.087 -11.118  0.00  0.00     0.109 A 
ATOM      9  S31 WEF d   1       6.306  28.768  -9.561  0.00  0.00    -0.062 SA
BRANCH   6  10
ATOM     10  C18 WEF d   1      10.171  27.645  -9.718  0.00  0.00    -0.034 C 
ATOM     11  H10 WEF d   1      10.707  27.803 -10.665  0.00  0.00     0.035 H 
ATOM     12  H11 WEF d   1      10.172  26.573  -9.470  0.00  0.00     0.035 H 
ATOM     13  H12 WEF d   1      10.671  28.208  -8.916  0.00  0.00     0.035 H 
ENDBRANCH   6  10
BRANCH   8  14
ATOM     14  C21 WEF d   1       6.339  29.666 -12.244  0.00  0.00    -0.000 A 
ATOM     15  C22 WEF d   1       4.925  29.703 -12.336  0.00  0.00    -0.070 A 
ATOM     16  C23 WEF d   1       4.240  30.232 -13.442  0.00  0.00    -0.067 A 
ATOM     17  H13 WEF d   1       4.344  29.303 -11.513  0.00  0.00     0.085 H 
ATOM     18  C24 WEF d   1       4.957  30.751 -14.515  0.00  0.00     0.048 A 
ATOM     19  H14 WEF d   1       3.156  30.236 -13.459  0.00  0.00     0.084 H 
ATOM     20  C29 WEF d   1       6.333  30.704 -14.443  0.00  0.00    -0.067 A 
ATOM     21  C30 WEF d   1       6.991  30.179 -13.352  0.00  0.00    -0.070 A 
ATOM     22  H15 WEF d   1       6.916  31.092 -15.271  0.00  0.00     0.084 H 
ATOM     23  H16 WEF d   1       8.075  30.167 -13.362  0.00  0.00     0.085 H 
BRANCH  18  24
ATOM     24  C25 WEF d   1       4.289  31.334 -15.732  0.00  0.00     0.417 C 
ATOM     25  F26 WEF d   1       5.114  31.348 -16.811  0.00  0.00    -0.166 F 
ATOM     26  F27 WEF d   1       3.897  32.617 -15.641  0.00  0.00    -0.166 F 
ATOM     27  F28 WEF d   1       3.204  30.673 -16.151  0.00  0.00    -0.166 F 
ENDBRANCH  18  24
ENDBRANCH   8  14
ENDBRANCH   2   5
BRANCH   3  28
ATOM     28  C04 WEF d   1       6.310  26.567  -5.595  0.00  0.00     0.100 C 
ATOM     29  H2  WEF d   1       7.211  26.766  -4.996  0.00  0.00     0.090 H 
BRANCH  28  30
ATOM     30  C05 WEF d   1       5.090  27.271  -4.889  0.00  0.00    -0.013 C 
ATOM     31  H3  WEF d   1       5.093  26.968  -3.832  0.00  0.00     0.043 H 
ATOM     32  H4  WEF d   1       4.169  26.911  -5.371  0.00  0.00     0.043 H 
BRANCH  30  33
ATOM     33  C06 WEF d   1       5.075  28.798  -4.936  0.00  0.00    -0.056 A 
ATOM     34  C07 WEF d   1       5.629  29.663  -3.975  0.00  0.00    -0.074 A 
ATOM     35  C08 WEF d   1       5.573  31.059  -4.116  0.00  0.00    -0.051 A 
ATOM     36  H5  WEF d   1       6.112  29.240  -3.102  0.00  0.00     0.084 H 
ATOM     37  C09 WEF d   1       4.959  31.608  -5.239  0.00  0.00     0.065 A 
ATOM     38  H6  WEF d   1       6.004  31.703  -3.358  0.00  0.00     0.087 H 
ATOM     39  C11 WEF d   1       4.402  30.770  -6.215  0.00  0.00    -0.051 A 
ATOM     40  C12 WEF d   1       4.468  29.389  -6.055  0.00  0.00    -0.074 A 
ATOM     41  H8  WEF d   1       3.923  31.195  -7.089  0.00  0.00     0.087 H 
ATOM     42  H9  WEF d   1       4.037  28.750  -6.818  0.00  0.00     0.084 H 
BRANCH  37  43
ATOM     43  O10 WEF d   1       4.904  32.979  -5.379  0.00  0.00    -0.361 OA
ATOM     44  H7  WEF d   1       5.787  33.330  -5.398  0.00  0.00     0.217 HD
ENDBRANCH  37  43
ENDBRANCH  30  33
ENDBRANCH  28  30
BRANCH  28  45
ATOM     45  C13 WEF d   1       6.065  25.016  -5.603  0.00  0.00     0.197 C 
ATOM     46  O14 WEF d   1       5.998  24.502  -6.747  0.00  0.00    -0.646 OA
ATOM     47  O15 WEF d   1       5.972  24.478  -4.499  0.00  0.00    -0.646 OA
ENDBRANCH  28  45
ENDBRANCH   3  28
TORSDOF 9
