REMARK  7 active torsions:
REMARK  status: ('A' for Active; 'I' for Inactive)
REMARK       I    between atoms: C02_2  and  N03_3 
REMARK    1  A    between atoms: C02_2  and  C10_7 
REMARK    2  A    between atoms: N03_3  and  C04_4 
REMARK    3  A    between atoms: C04_4  and  C05_5 
REMARK    4  A    between atoms: C05_5  and  O06_6 
REMARK    5  A    between atoms: C11_8  and  C12_9 
REMARK    6  A    between atoms: C14_11  and  C15_12 
REMARK    7  A    between atoms: C18_15  and  C19_16 
ROOT
ATOM      1  C10 EG6 d   1       5.368  28.104  22.031  0.00  0.00     0.099 A 
ATOM      2  C11 EG6 d   1       6.003  28.166  20.811  0.00  0.00     0.054 A 
ATOM      3  N13 EG6 d   1       5.261  28.668  19.725  0.00  0.00    -0.244 NA
ATOM      4  C14 EG6 d   1       4.015  29.036  20.004  0.00  0.00     0.109 A 
ATOM      5  S25 EG6 d   1       3.688  28.730  21.766  0.00  0.00    -0.062 SA
ENDROOT
BRANCH   4   6
ATOM      6  C15 EG6 d   1       3.046  29.571  19.006  0.00  0.00    -0.000 A 
ATOM      7  C16 EG6 d   1       1.628  29.613  19.071  0.00  0.00    -0.070 A 
ATOM      8  C17 EG6 d   1       0.845  30.100  18.014  0.00  0.00    -0.067 A 
ATOM      9  H10 EG6 d   1       1.134  29.257  19.968  0.00  0.00     0.085 H 
ATOM     10  C18 EG6 d   1       1.441  30.569  16.841  0.00  0.00     0.048 A 
ATOM     11  H11 EG6 d   1      -0.235  30.113  18.108  0.00  0.00     0.084 H 
ATOM     12  C23 EG6 d   1       2.801  30.507  16.755  0.00  0.00    -0.067 A 
ATOM     13  C24 EG6 d   1       3.546  30.021  17.788  0.00  0.00    -0.070 A 
ATOM     14  H12 EG6 d   1       3.296  30.849  15.853  0.00  0.00     0.084 H 
ATOM     15  H13 EG6 d   1       4.620  29.982  17.648  0.00  0.00     0.085 H 
BRANCH  10  16
ATOM     16  C19 EG6 d   1       0.669  31.086  15.697  0.00  0.00     0.417 C 
ATOM     17  F20 EG6 d   1       0.710  32.449  15.525  0.00  0.00    -0.166 F 
ATOM     18  F21 EG6 d   1      -0.621  30.773  15.725  0.00  0.00    -0.166 F 
ATOM     19  F22 EG6 d   1       1.077  30.658  14.481  0.00  0.00    -0.166 F 
ENDBRANCH  10  16
ENDBRANCH   4   6
BRANCH   2  20
ATOM     20  C12 EG6 d   1       7.446  27.744  20.514  0.00  0.00    -0.034 C 
ATOM     21  H7  EG6 d   1       7.665  27.912  19.449  0.00  0.00     0.035 H 
ATOM     22  H8  EG6 d   1       7.572  26.677  20.751  0.00  0.00     0.035 H 
ATOM     23  H9  EG6 d   1       8.136  28.340  21.129  0.00  0.00     0.035 H 
ENDBRANCH   2  20
BRANCH   1  24
ATOM     24  C02 EG6 d   1       5.969  27.573  23.385  0.00  0.00     0.260 C 
ATOM     25  O01 EG6 d   1       5.371  27.815  24.416  0.00  0.00    -0.267 OA
ATOM     26  N03 EG6 d   1       7.176  26.817  23.338  0.00  0.00    -0.354 N 
ATOM     27  H1  EG6 d   1       7.526  26.692  22.410  0.00  0.00     0.162 HD
BRANCH  26  28
ATOM     28  C04 EG6 d   1       8.047  26.158  24.401  0.00  0.00     0.015 C 
ATOM     29  H2  EG6 d   1       9.032  26.647  24.383  0.00  0.00     0.067 H 
ATOM     30  H3  EG6 d   1       8.160  25.096  24.136  0.00  0.00     0.067 H 
BRANCH  28  31
ATOM     31  C05 EG6 d   1       7.508  26.233  25.838  0.00  0.00     0.031 C 
ATOM     32  H4  EG6 d   1       6.819  27.085  25.938  0.00  0.00     0.076 H 
ATOM     33  H5  EG6 d   1       8.341  26.350  26.547  0.00  0.00     0.076 H 
BRANCH  31  34
ATOM     34  O06 EG6 d   1       6.834  25.046  26.089  0.00  0.00    -0.399 OA
ATOM     35  H6  EG6 d   1       6.487  25.061  26.973  0.00  0.00     0.209 HD
ENDBRANCH  31  34
ENDBRANCH  28  31
ENDBRANCH  26  28
ENDBRANCH   1  24
TORSDOF 7
