REMARK  14 active torsions:
REMARK  status: ('A' for Active; 'I' for Inactive)
REMARK    1  A    between atoms: P_1  and  O5'_4 
REMARK    2  A    between atoms: P_1  and  OBB_24 
REMARK    3  A    between atoms: O5'_4  and  C5'_5 
REMARK    4  A    between atoms: C5'_5  and  C4'_6 
REMARK    5  A    between atoms: C3'_8  and  O3'_9 
REMARK    6  A    between atoms: C2'_10  and  O2'_11 
REMARK    7  A    between atoms: C1'_12  and  N9_13 
REMARK    8  A    between atoms: C6_17  and  N6_18 
REMARK    9  A    between atoms: OBB_24  and  CBB_23 
REMARK   10  A    between atoms: CBB_23  and  CAB_25 
REMARK   11  A    between atoms: CAB_25  and  C9B_26 
REMARK   12  A    between atoms: C9B_26  and  C8B_27 
REMARK   13  A    between atoms: C8B_27  and  C7B_28 
REMARK   14  A    between atoms: C7B_28  and  C2B_29 
ROOT
ATOM      1  P   BTX d   1      -1.909  24.167   8.279  0.00  0.00     0.408 P 
ATOM      2  O1P BTX d   1      -0.807  23.550   9.122  0.00  0.00    -0.624 OA
ATOM      3  O2P BTX d   1      -1.636  25.512   7.643  0.00  0.00    -0.624 OA
ENDROOT
BRANCH   1   4
ATOM      4  O5' BTX d   1      -3.213  24.339   9.180  0.00  0.00    -0.287 OA
BRANCH   4   5
ATOM      5  C5' BTX d   1      -3.229  23.950  10.551  0.00  0.00     0.058 C 
ATOM      6  H1  BTX d   1      -2.249  23.526  10.814  0.00  0.00     0.079 H 
ATOM      7  H2  BTX d   1      -4.010  23.189  10.698  0.00  0.00     0.079 H 
BRANCH   5   8
ATOM      8  C4' BTX d   1      -3.513  25.124  11.453  0.00  0.00     0.089 C 
ATOM      9  O4' BTX d   1      -4.484  25.981  10.810  0.00  0.00    -0.353 OA
ATOM     10  C1' BTX d   1      -5.661  26.078  11.579  0.00  0.00     0.139 C 
ATOM     11  C2' BTX d   1      -5.337  25.589  12.996  0.00  0.00     0.105 C 
ATOM     12  H8  BTX d   1      -5.962  27.134  11.646  0.00  0.00     0.122 H 
ATOM     13  C3' BTX d   1      -4.061  24.754  12.830  0.00  0.00     0.091 C 
ATOM     14  H6  BTX d   1      -6.148  24.939  13.357  0.00  0.00     0.093 H 
ATOM     15  H4  BTX d   1      -4.273  23.677  12.903  0.00  0.00     0.091 H 
ATOM     16  H3  BTX d   1      -2.574  25.678  11.595  0.00  0.00     0.090 H 
BRANCH  10  17
ATOM     17  N9  BTX d   1      -6.740  25.350  10.901  0.00  0.00    -0.294 N 
ATOM     18  C8  BTX d   1      -7.226  24.145  11.266  0.00  0.00     0.071 A 
ATOM     19  N7  BTX d   1      -8.223  23.817  10.397  0.00  0.00    -0.236 NA
ATOM     20  H9  BTX d   1      -6.883  23.542  12.105  0.00  0.00     0.144 H 
ATOM     21  C5  BTX d   1      -8.353  24.824   9.498  0.00  0.00     0.149 A 
ATOM     22  C6  BTX d   1      -9.199  25.004   8.417  0.00  0.00     0.155 A 
ATOM     23  C4  BTX d   1      -7.438  25.778   9.808  0.00  0.00     0.167 A 
ATOM     24  N1  BTX d   1      -9.117  26.123   7.675  0.00  0.00    -0.222 NA
ATOM     25  C2  BTX d   1      -8.188  27.090   7.990  0.00  0.00     0.091 A 
ATOM     26  N3  BTX d   1      -7.354  26.915   9.052  0.00  0.00    -0.222 NA
ATOM     27  H12 BTX d   1      -8.121  27.991   7.392  0.00  0.00     0.146 H 
BRANCH  22  28
ATOM     28  N6  BTX d   1     -10.244  24.225   7.837  0.00  0.00    -0.382 N 
ATOM     29  H10 BTX d   1     -10.748  24.575   7.010  0.00  0.00     0.157 HD
ATOM     30  H11 BTX d   1     -10.494  23.313   8.245  0.00  0.00     0.157 HD
ENDBRANCH  22  28
ENDBRANCH  10  17
BRANCH  11  31
ATOM     31  O2' BTX d   1      -5.213  26.664  13.901  0.00  0.00    -0.388 OA
ATOM     32  H7  BTX d   1      -6.038  27.132  13.951  0.00  0.00     0.210 HD
ENDBRANCH  11  31
BRANCH  13  33
ATOM     33  O3' BTX d   1      -3.116  25.152  13.824  0.00  0.00    -0.390 OA
ATOM     34  H5  BTX d   1      -2.981  26.091  13.773  0.00  0.00     0.210 HD
ENDBRANCH  13  33
ENDBRANCH   5   8
ENDBRANCH   4   5
ENDBRANCH   1   4
BRANCH   1  35
ATOM     35  OBB BTX d   1      -2.288  23.110   7.154  0.00  0.00    -0.290 OA
BRANCH  35  36
ATOM     36  CBB BTX d   1      -2.288  23.463   5.752  0.00  0.00     0.032 C 
ATOM     37  H13 BTX d   1      -1.330  23.938   5.494  0.00  0.00     0.075 H 
ATOM     38  H14 BTX d   1      -3.111  24.165   5.551  0.00  0.00     0.075 H 
BRANCH  36  39
ATOM     39  CAB BTX d   1      -2.477  22.191   4.898  0.00  0.00    -0.045 C 
ATOM     40  H15 BTX d   1      -1.721  21.445   5.184  0.00  0.00     0.036 H 
ATOM     41  H16 BTX d   1      -2.356  22.446   3.835  0.00  0.00     0.036 H 
BRANCH  39  42
ATOM     42  C9B BTX d   1      -3.890  21.600   5.125  0.00  0.00    -0.063 C 
ATOM     43  H17 BTX d   1      -4.645  22.311   4.759  0.00  0.00     0.033 H 
ATOM     44  H18 BTX d   1      -4.042  21.425   6.200  0.00  0.00     0.033 H 
BRANCH  42  45
ATOM     45  C8B BTX d   1      -4.037  20.260   4.362  0.00  0.00    -0.064 C 
ATOM     46  H19 BTX d   1      -3.306  19.533   4.747  0.00  0.00     0.033 H 
ATOM     47  H20 BTX d   1      -3.861  20.424   3.289  0.00  0.00     0.033 H 
BRANCH  45  48
ATOM     48  C7B BTX d   1      -5.455  19.726   4.575  0.00  0.00    -0.051 C 
ATOM     49  H21 BTX d   1      -6.163  20.567   4.567  0.00  0.00     0.034 H 
ATOM     50  H22 BTX d   1      -5.506  19.212   5.546  0.00  0.00     0.034 H 
BRANCH  48  51
ATOM     51  C2B BTX d   1      -5.849  18.693   3.410  0.00  0.00     0.012 C 
ATOM     52  S1B BTX d   1      -7.436  18.215   3.539  0.00  0.00    -0.160 SA
ATOM     53  C6B BTX d   1      -7.419  16.814   2.616  0.00  0.00    -0.002 C 
ATOM     54  C5B BTX d   1      -6.073  16.243   2.870  0.00  0.00     0.042 A 
ATOM     55  H24 BTX d   1      -7.552  17.045   1.549  0.00  0.00     0.052 H 
ATOM     56  H25 BTX d   1      -8.208  16.120   2.942  0.00  0.00     0.052 H 
ATOM     57  N1B BTX d   1      -6.220  15.303   3.795  0.00  0.00    -0.336 N 
ATOM     58  C4B BTX d   1      -5.096  17.432   3.488  0.00  0.00     0.046 A 
ATOM     59  H26 BTX d   1      -5.642  15.826   1.948  0.00  0.00     0.077 H 
ATOM     60  C3B BTX d   1      -5.409  15.751   5.067  0.00  0.00     0.316 A 
ATOM     61  H27 BTX d   1      -6.751  14.461   3.701  0.00  0.00     0.164 HD
ATOM     62  O3B BTX d   1      -5.313  15.129   6.129  0.00  0.00    -0.247 OA
ATOM     63  N2B BTX d   1      -4.751  17.106   4.733  0.00  0.00    -0.335 N 
ATOM     64  H28 BTX d   1      -4.169  17.644   5.343  0.00  0.00     0.164 HD
ATOM     65  H29 BTX d   1      -4.183  17.520   2.881  0.00  0.00     0.077 H 
ATOM     66  H23 BTX d   1      -5.673  19.177   2.438  0.00  0.00     0.059 H 
ENDBRANCH  48  51
ENDBRANCH  45  48
ENDBRANCH  42  45
ENDBRANCH  39  42
ENDBRANCH  36  39
ENDBRANCH  35  36
ENDBRANCH   1  35
TORSDOF 14
