REMARK  4 active torsions:
REMARK  status: ('A' for Active; 'I' for Inactive)
REMARK    1  A    between atoms: C01_1  and  C02_2 
REMARK    2  A    between atoms: C03_3  and  C04_4 
REMARK    3  A    between atoms: C08_8  and  C09_9 
REMARK    4  A    between atoms: C12_12  and  C13_13 
ROOT
ATOM      1  C09 WF4 d   1      -6.540  21.387  12.276  0.00  0.00    -0.000 A 
ATOM      2  C10 WF4 d   1      -5.124  21.441  12.197  0.00  0.00    -0.070 A 
ATOM      3  C11 WF4 d   1      -4.298  21.928  13.218  0.00  0.00    -0.067 A 
ATOM      4  C12 WF4 d   1      -4.870  22.398  14.392  0.00  0.00     0.048 A 
ATOM      5  C17 WF4 d   1      -6.233  22.354  14.498  0.00  0.00    -0.067 A 
ATOM      6  C18 WF4 d   1      -7.010  21.872  13.487  0.00  0.00    -0.070 A 
ATOM      7  H4  WF4 d   1      -4.652  21.083  11.289  0.00  0.00     0.085 H 
ATOM      8  H5  WF4 d   1      -3.221  21.938  13.092  0.00  0.00     0.084 H 
ATOM      9  H6  WF4 d   1      -6.706  22.710  15.406  0.00  0.00     0.084 H 
ATOM     10  H7  WF4 d   1      -8.083  21.867  13.642  0.00  0.00     0.085 H 
ENDROOT
BRANCH   1  11
ATOM     11  C08 WF4 d   1      -7.429  20.867  11.218  0.00  0.00     0.109 A 
ATOM     12  S07 WF4 d   1      -6.992  20.852   9.502  0.00  0.00    -0.061 SA
ATOM     13  C03 WF4 d   1      -8.534  20.114   9.015  0.00  0.00     0.107 A 
ATOM     14  C02 WF4 d   1      -9.281  19.926  10.162  0.00  0.00     0.056 A 
ATOM     15  N19 WF4 d   1      -8.658  20.350  11.390  0.00  0.00    -0.244 NA
BRANCH  13  16
ATOM     16  C04 WF4 d   1      -8.861  19.783   7.498  0.00  0.00     0.218 C 
ATOM     17  O05 WF4 d   1      -8.118  20.308   6.647  0.00  0.00    -0.643 OA
ATOM     18  O06 WF4 d   1      -9.822  19.020   7.268  0.00  0.00    -0.643 OA
ENDBRANCH  13  16
BRANCH  14  19
ATOM     19  C01 WF4 d   1     -10.675  19.315  10.195  0.00  0.00    -0.034 C 
ATOM     20  H1  WF4 d   1     -11.037  19.284  11.233  0.00  0.00     0.035 H 
ATOM     21  H2  WF4 d   1     -10.637  18.294   9.789  0.00  0.00     0.035 H 
ATOM     22  H3  WF4 d   1     -11.358  19.927   9.587  0.00  0.00     0.035 H 
ENDBRANCH  14  19
ENDBRANCH   1  11
BRANCH   4  23
ATOM     23  C13 WF4 d   1      -4.046  22.951  15.565  0.00  0.00     0.417 C 
ATOM     24  F14 WF4 d   1      -2.827  22.485  15.589  0.00  0.00    -0.166 F 
ATOM     25  F15 WF4 d   1      -4.596  22.631  16.700  0.00  0.00    -0.166 F 
ATOM     26  F16 WF4 d   1      -3.973  24.256  15.562  0.00  0.00    -0.166 F 
ENDBRANCH   4  23
TORSDOF 4
