REMARK  7 active torsions:
REMARK  status: ('A' for Active; 'I' for Inactive)
REMARK    1  A    between atoms: C1_1  and  C2_2 
REMARK       I    between atoms: C1_1  and  N3_3 
REMARK    2  A    between atoms: C2_2  and  C6_6 
REMARK    3  A    between atoms: C2_2  and  N7_7 
REMARK    4  A    between atoms: N3_3  and  O5_5 
REMARK    5  A    between atoms: N7_7  and  S8_8 
REMARK    6  A    between atoms: S8_8  and  C18_11 
REMARK    7  A    between atoms: C20_13  and  C25_18 
ROOT
ATOM      1  S8  407 d   1       9.302  19.084  26.203  0.00  0.00     0.259 S 
ATOM      2  O9  407 d   1       8.064  18.549  25.709  0.00  0.00    -0.201 OA
ATOM      3  O10 407 d   1       9.840  19.996  25.234  0.00  0.00    -0.201 OA
ENDROOT
BRANCH   1   4
ATOM      4  N7  407 d   1      10.332  17.886  26.468  0.00  0.00    -0.302 N 
ATOM      5  H7  407 d   1      10.006  17.010  26.823  0.00  0.00     0.173 HD
BRANCH   4   6
ATOM      6  C2  407 d   1      11.744  18.085  26.188  0.00  0.00     0.095 C 
ATOM      7  H1  407 d   1      11.839  18.869  25.423  0.00  0.00     0.088 H 
BRANCH   6   8
ATOM      8  C1  407 d   1      12.475  18.527  27.422  0.00  0.00     0.264 C 
ATOM      9  N3  407 d   1      13.502  19.353  27.256  0.00  0.00    -0.236 N 
ATOM     10  H2  407 d   1      13.771  19.650  26.340  0.00  0.00     0.197 HD
ATOM     11  O4  407 d   1      12.127  18.131  28.521  0.00  0.00    -0.269 OA
BRANCH   9  12
ATOM     12  O5  407 d   1      14.197  19.798  28.376  0.00  0.00    -0.287 OA
ATOM     13  H3  407 d   1      14.899  20.377  28.102  0.00  0.00     0.244 HD
ENDBRANCH   9  12
ENDBRANCH   6   8
BRANCH   6  14
ATOM     14  C6  407 d   1      12.374  16.804  25.654  0.00  0.00    -0.049 C 
ATOM     15  H4  407 d   1      11.838  16.481  24.750  0.00  0.00     0.030 H 
ATOM     16  H5  407 d   1      12.309  16.017  26.419  0.00  0.00     0.030 H 
ATOM     17  H6  407 d   1      13.430  16.990  25.407  0.00  0.00     0.030 H 
ENDBRANCH   6  14
ENDBRANCH   4   6
ENDBRANCH   1   4
BRANCH   1  18
ATOM     18  C18 407 d   1       9.026  19.860  27.570  0.00  0.00     0.080 A 
ATOM     19  C19 407 d   1       8.104  19.374  28.491  0.00  0.00    -0.052 A 
ATOM     20  C20 407 d   1       7.875  20.075  29.673  0.00  0.00    -0.022 A 
ATOM     21  H8  407 d   1       7.566  18.454  28.290  0.00  0.00     0.086 H 
ATOM     22  C21 407 d   1       8.558  21.251  29.928  0.00  0.00     0.122 A 
ATOM     23  C22 407 d   1       9.476  21.742  29.008  0.00  0.00    -0.044 A 
ATOM     24  F24 407 d   1       8.328  21.919  31.070  0.00  0.00    -0.206 F 
ATOM     25  C23 407 d   1       9.705  21.048  27.826  0.00  0.00    -0.057 A 
ATOM     26  H9  407 d   1      10.011  22.662  29.211  0.00  0.00     0.088 H 
ATOM     27  H10 407 d   1      10.414  21.433  27.102  0.00  0.00     0.086 H 
BRANCH  20  28
ATOM     28  C25 407 d   1       6.885  19.560  30.684  0.00  0.00    -0.048 C 
ATOM     29  H11 407 d   1       6.441  18.623  30.318  0.00  0.00     0.033 H 
ATOM     30  H12 407 d   1       6.092  20.307  30.834  0.00  0.00     0.033 H 
ATOM     31  H13 407 d   1       7.399  19.374  31.639  0.00  0.00     0.033 H 
ENDBRANCH  20  28
ENDBRANCH   1  18
TORSDOF 7
