REMARK  12 active torsions:
REMARK  status: ('A' for Active; 'I' for Inactive)
REMARK       I    between atoms: N09_15  and  C11_1 
REMARK       I    between atoms: C11_1  and  N13_18 
REMARK    1  A    between atoms: N13_18  and  C14_2 
REMARK    2  A    between atoms: C26_6  and  N27_27 
REMARK    3  A    between atoms: C02_8  and  C01_7 
REMARK    4  A    between atoms: N03_9  and  C02_8 
REMARK    5  A    between atoms: C02_8  and  C44_44 
REMARK    6  A    between atoms: C05_11  and  C06_12 
REMARK    7  A    between atoms: C08_14  and  C07_13 
REMARK    8  A    between atoms: C08_14  and  N09_15 
REMARK    9  A    between atoms: N09_15  and  C10_16 
REMARK   10  A    between atoms: C17_19  and  C20_22 
REMARK   11  A    between atoms: N27_27  and  S28_28 
REMARK   12  A    between atoms: S28_28  and  C31_31 
ROOT
ATOM      1  C25 3M6 d   1      12.128  56.698  33.777  0.00  0.00     0.112 A 
ATOM      2  C26 3M6 d   1      12.480  56.276  35.090  0.00  0.00     0.077 A 
ATOM      3  N03 3M6 d   1      10.520  58.288  31.324  0.00  0.00    -0.333 N 
ATOM      4  C04 3M6 d   1      11.504  59.214  31.852  0.00  0.00     0.004 C 
ATOM      5  C05 3M6 d   1      12.906  58.869  31.326  0.00  0.00    -0.015 C 
ATOM      6  C07 3M6 d   1      13.277  57.404  31.606  0.00  0.00     0.065 C 
ATOM      7  O24 3M6 d   1      13.289  57.116  33.014  0.00  0.00    -0.340 OA
ATOM      8  C38 3M6 d   1      11.527  55.839  35.999  0.00  0.00    -0.054 A 
ATOM      9  C39 3M6 d   1      10.169  55.818  35.622  0.00  0.00    -0.080 A 
ATOM     10  C40 3M6 d   1       9.811  56.232  34.351  0.00  0.00    -0.065 A 
ATOM     11  C41 3M6 d   1      10.780  56.690  33.414  0.00  0.00     0.067 A 
ATOM     12  C42 3M6 d   1      10.167  57.086  32.047  0.00  0.00     0.257 C 
ATOM     13  O43 3M6 d   1       9.356  56.316  31.603  0.00  0.00    -0.267 OA
ATOM     14  H   3M6 d   1      11.505  59.154  32.950  0.00  0.00     0.065 H 
ATOM     15  H   3M6 d   1      11.242  60.236  31.541  0.00  0.00     0.065 H 
ATOM     16  H   3M6 d   1      12.925  59.033  30.238  0.00  0.00     0.045 H 
ATOM     17  H   3M6 d   1      12.543  56.749  31.114  0.00  0.00     0.087 H 
ATOM     18  H   3M6 d   1      11.824  55.517  36.990  0.00  0.00     0.087 H 
ATOM     19  H   3M6 d   1       9.412  55.481  36.321  0.00  0.00     0.083 H 
ATOM     20  H   3M6 d   1       8.767  56.207  34.062  0.00  0.00     0.085 H 
ENDROOT
BRANCH   6  21
ATOM     21  C08 3M6 d   1      14.662  57.132  31.039  0.00  0.00     0.024 C 
ATOM     22  H   3M6 d   1      15.390  57.795  31.530  0.00  0.00     0.068 H 
ATOM     23  H   3M6 d   1      14.655  57.332  29.957  0.00  0.00     0.068 H 
BRANCH  21  24
ATOM     24  N09 3M6 d   1      15.046  55.749  31.267  0.00  0.00    -0.336 N 
ATOM     25  C11 3M6 d   1      15.654  55.336  32.545  0.00  0.00     0.322 C 
ATOM     26  O12 3M6 d   1      15.840  56.154  33.415  0.00  0.00    -0.247 OA
ATOM     27  N13 3M6 d   1      16.018  53.944  32.687  0.00  0.00    -0.309 N 
ATOM     28  H   3M6 d   1      15.858  53.353  31.896  0.00  0.00     0.170 HD
BRANCH  27  29
ATOM     29  C14 3M6 d   1      16.600  53.313  33.878  0.00  0.00     0.036 A 
ATOM     30  C15 3M6 d   1      16.882  51.947  33.802  0.00  0.00    -0.056 A 
ATOM     31  C16 3M6 d   1      17.412  51.269  34.907  0.00  0.00    -0.066 A 
ATOM     32  H   3M6 d   1      16.689  51.408  32.882  0.00  0.00     0.086 H 
ATOM     33  C17 3M6 d   1      17.650  51.955  36.093  0.00  0.00     0.048 A 
ATOM     34  H   3M6 d   1      17.636  50.211  34.838  0.00  0.00     0.084 H 
ATOM     35  C18 3M6 d   1      17.362  53.325  36.189  0.00  0.00    -0.066 A 
ATOM     36  C19 3M6 d   1      16.829  54.002  35.077  0.00  0.00    -0.056 A 
ATOM     37  H   3M6 d   1      17.549  53.858  37.114  0.00  0.00     0.084 H 
ATOM     38  H   3M6 d   1      16.595  55.058  35.148  0.00  0.00     0.086 H 
BRANCH  33  39
ATOM     39  C20 3M6 d   1      18.233  51.172  37.288  0.00  0.00     0.417 C 
ATOM     40  F21 3M6 d   1      19.492  50.805  36.995  0.00  0.00    -0.166 F 
ATOM     41  F22 3M6 d   1      18.208  51.929  38.407  0.00  0.00    -0.166 F 
ATOM     42  F23 3M6 d   1      17.479  50.071  37.485  0.00  0.00    -0.166 F 
ENDBRANCH  33  39
ENDBRANCH  27  29
BRANCH  24  43
ATOM     43  C10 3M6 d   1      14.839  54.753  30.229  0.00  0.00    -0.014 C 
ATOM     44  H   3M6 d   1      15.190  53.773  30.586  0.00  0.00     0.056 H 
ATOM     45  H   3M6 d   1      15.403  55.039  29.329  0.00  0.00     0.056 H 
ATOM     46  H   3M6 d   1      13.768  54.693  29.987  0.00  0.00     0.056 H 
ENDBRANCH  24  43
ENDBRANCH  21  24
ENDBRANCH   6  21
BRANCH   5  47
ATOM     47  C06 3M6 d   1      13.914  59.779  31.981  0.00  0.00    -0.069 C 
ATOM     48  H   3M6 d   1      14.921  59.538  31.610  0.00  0.00     0.028 H 
ATOM     49  H   3M6 d   1      13.882  59.637  33.071  0.00  0.00     0.028 H 
ATOM     50  H   3M6 d   1      13.675  60.825  31.740  0.00  0.00     0.028 H 
ENDBRANCH   5  47
BRANCH   3  51
ATOM     51  C02 3M6 d   1       9.921  58.598  30.050  0.00  0.00     0.095 C 
ATOM     52  H   3M6 d   1      10.225  59.614  29.758  0.00  0.00     0.089 H 
BRANCH  51  53
ATOM     53  C01 3M6 d   1      10.401  57.635  29.005  0.00  0.00    -0.048 C 
ATOM     54  H   3M6 d   1       9.937  57.882  28.038  0.00  0.00     0.030 H 
ATOM     55  H   3M6 d   1      10.123  56.611  29.294  0.00  0.00     0.030 H 
ATOM     56  H   3M6 d   1      11.495  57.706  28.916  0.00  0.00     0.030 H 
ENDBRANCH  51  53
BRANCH  51  57
ATOM     57  C44 3M6 d   1       8.413  58.557  30.150  0.00  0.00     0.196 C 
ATOM     58  O45 3M6 d   1       7.807  59.358  30.927  0.00  0.00    -0.646 OA
ATOM     59  O46 3M6 d   1       7.756  57.710  29.465  0.00  0.00    -0.646 OA
ENDBRANCH  51  57
ENDBRANCH   3  51
BRANCH   2  60
ATOM     60  N27 3M6 d   1      13.905  56.293  35.469  0.00  0.00    -0.278 N 
ATOM     61  H   3M6 d   1      14.567  55.750  34.952  0.00  0.00     0.179 HD
BRANCH  60  62
ATOM     62  S28 3M6 d   1      14.415  57.224  36.769  0.00  0.00     0.263 S 
ATOM     63  O29 3M6 d   1      13.913  56.737  38.045  0.00  0.00    -0.200 OA
ATOM     64  O30 3M6 d   1      15.843  57.176  36.894  0.00  0.00    -0.200 OA
BRANCH  62  65
ATOM     65  C31 3M6 d   1      13.804  58.906  36.470  0.00  0.00     0.080 A 
ATOM     66  C32 3M6 d   1      12.657  59.334  37.116  0.00  0.00    -0.057 A 
ATOM     67  C33 3M6 d   1      12.174  60.625  36.878  0.00  0.00    -0.044 A 
ATOM     68  H   3M6 d   1      12.137  58.674  37.801  0.00  0.00     0.086 H 
ATOM     69  C34 3M6 d   1      12.841  61.453  36.002  0.00  0.00     0.116 A 
ATOM     70  H   3M6 d   1      11.279  60.972  37.381  0.00  0.00     0.088 H 
ATOM     71  F35 3M6 d   1      12.377  62.678  35.774  0.00  0.00    -0.206 F 
ATOM     72  C36 3M6 d   1      13.997  61.014  35.341  0.00  0.00    -0.044 A 
ATOM     73  C37 3M6 d   1      14.478  59.741  35.573  0.00  0.00    -0.057 A 
ATOM     74  H   3M6 d   1      14.511  61.672  34.650  0.00  0.00     0.088 H 
ATOM     75  H   3M6 d   1      15.370  59.392  35.065  0.00  0.00     0.086 H 
ENDBRANCH  62  65
ENDBRANCH  60  62
ENDBRANCH   2  60
TORSDOF 12
