REMARK  1 active torsions:
REMARK  status: ('A' for Active; 'I' for Inactive)
REMARK    1  A    between atoms: CAH_4  and  OAJ_5 
ROOT
ATOM      1  FAG 8H8 d   1      18.131  -7.896  -4.858  0.00  0.00    -0.204 F 
ATOM      2  CAF 8H8 d   1      16.897  -8.429  -4.759  0.00  0.00     0.139 A 
ATOM      3  CAI 8H8 d   1      16.679  -9.610  -4.058  0.00  0.00    -0.012 A 
ATOM      4  CAH 8H8 d   1      15.391 -10.134  -3.969  0.00  0.00     0.068 A 
ATOM      5  CAE 8H8 d   1      14.325  -9.479  -4.581  0.00  0.00    -0.049 A 
ATOM      6  CAA 8H8 d   1      14.548  -8.296  -5.273  0.00  0.00    -0.057 A 
ATOM      7  CAB 8H8 d   1      15.838  -7.776  -5.362  0.00  0.00     0.083 A 
ATOM      8  CAC 8H8 d   1      16.064  -6.687  -6.013  0.00  0.00     0.102 C 
ATOM      9  NAD 8H8 d   1      16.287  -5.713  -6.596  0.00  0.00    -0.191 NA
ATOM     10  H   8H8 d   1      17.508 -10.121  -3.582  0.00  0.00     0.092 H 
ATOM     11  H   8H8 d   1      13.325  -9.891  -4.517  0.00  0.00     0.087 H 
ATOM     12  H   8H8 d   1      13.720  -7.778  -5.743  0.00  0.00     0.086 H 
ENDROOT
BRANCH   4  13
ATOM     13  OAJ 8H8 d   1      15.174 -11.288  -3.290  0.00  0.00    -0.361 OA
ATOM     14  H   8H8 d   1      15.680 -11.987  -3.686  0.00  0.00     0.217 HD
ENDBRANCH   4  13
TORSDOF 1
