REMARK  5 active torsions:
REMARK  status: ('A' for Active; 'I' for Inactive)
REMARK    1  A    between atoms: SAN_2  and  CAM_5 
REMARK    2  A    between atoms: CAM_5  and  CAL_6 
REMARK    3  A    between atoms: CAL_6  and  SAK_7 
REMARK    4  A    between atoms: SAK_7  and  CAB_8 
REMARK    5  A    between atoms: CAD_10  and  OAI_11 
ROOT
ATOM      1  CAB 3M8 d   1      17.282  -8.647  -4.898  0.00  0.00     0.027 A 
ATOM      2  CAC 3M8 d   1      16.896  -9.767  -4.122  0.00  0.00    -0.033 A 
ATOM      3  CAD 3M8 d   1      15.571 -10.177  -4.044  0.00  0.00     0.070 A 
ATOM      4  CAE 3M8 d   1      14.496  -9.538  -4.676  0.00  0.00    -0.012 A 
ATOM      5  CAF 3M8 d   1      14.901  -8.363  -5.368  0.00  0.00     0.141 A 
ATOM      6  FAH 3M8 d   1      13.960  -7.701  -6.055  0.00  0.00    -0.204 F 
ATOM      7  CAA 3M8 d   1      16.232  -7.942  -5.509  0.00  0.00     0.100 A 
ATOM      8  CAG 3M8 d   1      16.499  -6.838  -6.218  0.00  0.00     0.104 C 
ATOM      9  NAJ 3M8 d   1      16.722  -5.907  -6.827  0.00  0.00    -0.191 NA
ATOM     10  H   3M8 d   1      17.653 -10.318  -3.575  0.00  0.00     0.089 H 
ATOM     11  H   3M8 d   1      13.474  -9.898  -4.642  0.00  0.00     0.092 H 
ENDROOT
BRANCH   1  12
ATOM     12  SAK 3M8 d   1      18.916  -8.172  -5.179  0.00  0.00    -0.127 SA
BRANCH  12  13
ATOM     13  CAL 3M8 d   1      19.143  -7.414  -3.593  0.00  0.00    -0.004 C 
ATOM     14  H   3M8 d   1      18.722  -8.085  -2.830  0.00  0.00     0.051 H 
ATOM     15  H   3M8 d   1      20.223  -7.296  -3.422  0.00  0.00     0.051 H 
BRANCH  13  16
ATOM     16  CAM 3M8 d   1      18.476  -6.025  -3.433  0.00  0.00     0.053 C 
ATOM     17  H   3M8 d   1      19.067  -5.265  -3.965  0.00  0.00     0.061 H 
ATOM     18  H   3M8 d   1      17.457  -6.052  -3.846  0.00  0.00     0.061 H 
BRANCH  16  19
ATOM     19  SAN 3M8 d   1      18.416  -5.657  -1.803  0.00  0.00     0.102 S 
ATOM     20  OAQ 3M8 d   1      17.491  -6.585  -1.177  0.00  0.00    -0.595 OA
ATOM     21  OAO 3M8 d   1      19.719  -5.825  -1.183  0.00  0.00    -0.595 OA
ATOM     22  OAP 3M8 d   1      17.897  -4.262  -1.676  0.00  0.00    -0.595 OA
ENDBRANCH  16  19
ENDBRANCH  13  16
ENDBRANCH  12  13
ENDBRANCH   1  12
BRANCH   3  23
ATOM     23  OAI 3M8 d   1      15.275 -11.332  -3.407  0.00  0.00    -0.361 OA
ATOM     24  H   3M8 d   1      15.722 -12.052  -3.836  0.00  0.00     0.217 HD
ENDBRANCH   3  23
TORSDOF 5
