REMARK  29 active torsions:
REMARK  status: ('A' for Active; 'I' for Inactive)
REMARK    1  A    between atoms: C3_3  and  C4_4 
REMARK    2  A    between atoms: C4_4  and  O1_5 
REMARK    3  A    between atoms: C8_9  and  C7_8 
REMARK       I    between atoms: N1_11  and  C8_9 
REMARK    4  A    between atoms: C9_12  and  N1_11 
REMARK    5  A    between atoms: C10_13  and  C9_12 
REMARK    6  A    between atoms: C11_14  and  C10_13 
REMARK       I    between atoms: N_17  and  C11_14 
REMARK    7  A    between atoms: CA_19  and  C_16 
REMARK       I    between atoms: C_16  and  N_40 
REMARK    8  A    between atoms: CA_19  and  N_17 
REMARK    9  A    between atoms: CB_20  and  CA_19 
REMARK   10  A    between atoms: CG_21  and  CB_20 
REMARK   11  A    between atoms: C27_22  and  C28_23 
REMARK   12  A    between atoms: C27_22  and  ND1_36 
REMARK   13  A    between atoms: C28_23  and  C29_24 
REMARK   14  A    between atoms: C29_24  and  C30_25 
REMARK   15  A    between atoms: C30_25  and  C31_26 
REMARK   16  A    between atoms: C31_26  and  C32_27 
REMARK   17  A    between atoms: C32_27  and  C33_28 
REMARK   18  A    between atoms: C33_28  and  C34_29 
REMARK   19  A    between atoms: C34_29  and  C35_30 
REMARK   20  A    between atoms: N_40  and  CA_41 
REMARK   21  A    between atoms: CA_41  and  C_42 
REMARK   22  A    between atoms: CA_41  and  CB_44 
REMARK       I    between atoms: C_42  and  N_46 
REMARK   23  A    between atoms: CB_44  and  OG_45 
REMARK   24  A    between atoms: N_46  and  CA_47 
REMARK   25  A    between atoms: CA_47  and  CB_48 
REMARK   26  A    between atoms: CA_47  and  C_55 
REMARK   27  A    between atoms: CB_48  and  CG2_49 
REMARK   28  A    between atoms: CB_48  and  OG1_50 
REMARK   29  A    between atoms: OG1_50  and  P_51 
REMARK       I    between atoms: C_55  and  N_57 
ROOT
ATOM      1  CA  56A d   1     -16.434  19.166 -13.416  0.00  0.00     0.082 C 
ATOM      2  H   56A d   1     -16.914  18.263 -13.011  0.00  0.00     0.086 H 
ENDROOT
BRANCH   1   3
ATOM      3  C   56A d   1     -15.064  18.793 -13.989  0.00  0.00     0.175 C 
ATOM      4  O   56A d   1     -13.942  19.498 -13.596  0.00  0.00    -0.175 OA
ATOM      5  N   SER d   1     -14.946  17.612 -14.864  0.00  0.00    -0.355 N 
ATOM      6  H   SER d   1     -15.776  17.114 -15.117  0.00  0.00     0.162 HD
BRANCH   5   7
ATOM      7  CA  SER d   1     -13.680  17.151 -15.367  0.00  0.00     0.108 C 
ATOM      8  H   SER d   1     -12.938  17.146 -14.555  0.00  0.00     0.090 H 
BRANCH   7   9
ATOM      9  C   SER d   1     -13.212  18.162 -16.460  0.00  0.00     0.243 C 
ATOM     10  O   SER d   1     -13.867  19.211 -16.794  0.00  0.00    -0.271 OA
ATOM     11  N   TPO d   1     -12.028  17.874 -16.949  0.00  0.00    -0.344 N 
ATOM     12  H   TPO d   1     -11.607  16.998 -16.713  0.00  0.00     0.163 HD
BRANCH  11  13
ATOM     13  CA  TPO d   1     -11.314  18.782 -17.818  0.00  0.00     0.114 C 
ATOM     14  H   TPO d   1     -11.196  19.742 -17.294  0.00  0.00     0.091 H 
BRANCH  13  15
ATOM     15  CB  TPO d   1      -9.922  18.230 -18.124  0.00  0.00     0.076 C 
ATOM     16  H   TPO d   1     -10.017  17.238 -18.590  0.00  0.00     0.087 H 
BRANCH  15  17
ATOM     17  CG2 TPO d   1      -9.163  19.165 -19.085  0.00  0.00    -0.049 C 
ATOM     18  H   TPO d   1      -8.166  18.748 -19.291  0.00  0.00     0.031 H 
ATOM     19  H   TPO d   1      -9.057  20.158 -18.623  0.00  0.00     0.031 H 
ATOM     20  H   TPO d   1      -9.724  19.256 -20.027  0.00  0.00     0.031 H 
ENDBRANCH  15  17
BRANCH  15  21
ATOM     21  OG1 TPO d   1      -9.203  18.110 -16.879  0.00  0.00    -0.275 OA
BRANCH  21  22
ATOM     22  P   TPO d   1      -8.800  16.676 -16.300  0.00  0.00     0.422 P 
ATOM     23  O1P TPO d   1      -7.996  15.982 -17.325  0.00  0.00    -0.617 OA
ATOM     24  O2P TPO d   1      -8.024  16.964 -15.014  0.00  0.00    -0.617 OA
ATOM     25  O3P TPO d   1     -10.119  15.976 -16.069  0.00  0.00    -0.617 OA
ENDBRANCH  21  22
ENDBRANCH  15  21
ENDBRANCH  13  15
BRANCH  13  26
ATOM     26  C   TPO d   1     -12.095  19.032 -19.088  0.00  0.00     0.240 C 
ATOM     27  O   TPO d   1     -12.542  18.089 -19.748  0.00  0.00    -0.271 OA
ATOM     28  N   NH2 d   1     -12.349  20.380 -19.642  0.00  0.00    -0.368 N 
ATOM     29  H   NH2 d   1     -12.873  20.483 -20.487  0.00  0.00     0.159 HD
ATOM     30  H   NH2 d   1     -11.996  21.189 -19.171  0.00  0.00     0.159 HD
ENDBRANCH  13  26
ENDBRANCH  11  13
ENDBRANCH   7   9
BRANCH   7  31
ATOM     31  CB  SER d   1     -13.853  15.724 -15.866  0.00  0.00     0.044 C 
ATOM     32  H   SER d   1     -14.234  15.082 -15.059  0.00  0.00     0.077 H 
ATOM     33  H   SER d   1     -12.893  15.328 -16.227  0.00  0.00     0.077 H 
BRANCH  31  34
ATOM     34  OG  SER d   1     -14.789  15.785 -16.928  0.00  0.00    -0.398 OA
ATOM     35  H   SER d   1     -14.451  16.348 -17.614  0.00  0.00     0.209 HD
ENDBRANCH  31  34
ENDBRANCH   7  31
ENDBRANCH   5   7
ENDBRANCH   1   3
BRANCH   1  36
ATOM     36  N   56A d   1     -16.224  20.100 -12.304  0.00  0.00    -0.349 N 
ATOM     37  C11 QAC d   1     -17.146  20.066 -11.323  0.00  0.00     0.219 C 
ATOM     38  O3  QAC d   1     -18.175  19.377 -11.340  0.00  0.00    -0.274 OA
ATOM     39  H   56A d   1     -15.443  20.724 -12.276  0.00  0.00     0.163 HD
BRANCH  37  40
ATOM     40  C10 QAC d   1     -16.893  21.117 -10.224  0.00  0.00     0.024 C 
ATOM     41  H   QAC d   1     -15.919  20.924  -9.749  0.00  0.00     0.049 H 
ATOM     42  H   QAC d   1     -16.890  22.122 -10.671  0.00  0.00     0.049 H 
BRANCH  40  43
ATOM     43  C9  QAC d   1     -18.010  21.030  -9.161  0.00  0.00     0.003 C 
ATOM     44  H   QAC d   1     -18.222  19.978  -8.919  0.00  0.00     0.064 H 
ATOM     45  H   QAC d   1     -17.707  21.563  -8.248  0.00  0.00     0.064 H 
BRANCH  43  46
ATOM     46  N1  QAC d   1     -19.168  21.649  -9.733  0.00  0.00    -0.356 N 
ATOM     47  C8  QAC d   1     -19.290  22.981  -9.981  0.00  0.00     0.251 C 
ATOM     48  O2  QAC d   1     -18.443  23.819  -9.705  0.00  0.00    -0.268 OA
ATOM     49  H   QAC d   1     -19.942  21.060  -9.967  0.00  0.00     0.162 HD
BRANCH  47  50
ATOM     50  C7  QAC d   1     -20.466  23.413 -10.519  0.00  0.00     0.032 A 
ATOM     51  C1  QAC d   1     -21.637  22.673 -10.421  0.00  0.00    -0.067 A 
ATOM     52  C2  QAC d   1     -22.845  23.103 -10.901  0.00  0.00    -0.074 A 
ATOM     53  H   QAC d   1     -21.592  21.703  -9.939  0.00  0.00     0.085 H 
ATOM     54  C3  QAC d   1     -22.923  24.356 -11.502  0.00  0.00    -0.035 A 
ATOM     55  H   QAC d   1     -23.726  22.478 -10.814  0.00  0.00     0.084 H 
ATOM     56  C5  QAC d   1     -21.738  25.082 -11.619  0.00  0.00    -0.074 A 
ATOM     57  C6  QAC d   1     -20.535  24.657 -11.101  0.00  0.00    -0.067 A 
ATOM     58  H   QAC d   1     -21.765  26.030 -12.145  0.00  0.00     0.084 H 
ATOM     59  H   QAC d   1     -19.658  25.292 -11.151  0.00  0.00     0.085 H 
BRANCH  54  60
ATOM     60  C4  QAC d   1     -24.160  24.737 -12.045  0.00  0.00     0.040 C 
ATOM     61  H   QAC d   1     -24.940  24.065 -11.657  0.00  0.00     0.081 H 
ATOM     62  H   QAC d   1     -24.110  24.646 -13.140  0.00  0.00     0.081 H 
BRANCH  60  63
ATOM     63  O1  QAC d   1     -24.498  26.061 -11.715  0.00  0.00    -0.396 OA
ATOM     64  H   QAC d   1     -25.339  26.277 -12.101  0.00  0.00     0.209 HD
ENDBRANCH  60  63
ENDBRANCH  54  60
ENDBRANCH  47  50
ENDBRANCH  43  46
ENDBRANCH  40  43
ENDBRANCH  37  40
ENDBRANCH   1  36
BRANCH   1  65
ATOM     65  CB  56A d   1     -17.310  19.687 -14.551  0.00  0.00     0.001 C 
ATOM     66  H   56A d   1     -18.356  19.713 -14.212  0.00  0.00     0.046 H 
ATOM     67  H   56A d   1     -17.220  19.008 -15.412  0.00  0.00     0.046 H 
BRANCH  65  68
ATOM     68  CG  56A d   1     -16.881  21.134 -14.994  0.00  0.00     0.032 A 
ATOM     69  ND1 56A d   1     -17.501  22.261 -14.592  0.00  0.00    -0.344 N 
ATOM     70  CE1 56A d   1     -16.853  23.290 -15.182  0.00  0.00     0.066 A 
ATOM     71  NE2 56A d   1     -15.794  22.781 -15.877  0.00  0.00    -0.254 NA
ATOM     72  H   56A d   1     -17.128  24.342 -15.115  0.00  0.00     0.143 H 
ATOM     73  CD2 56A d   1     -15.841  21.456 -15.762  0.00  0.00     0.025 A 
ATOM     74  H   56A d   1     -15.146  20.753 -16.219  0.00  0.00     0.117 H 
BRANCH  69  75
ATOM     75  C27 56A d   1     -18.728  22.233 -13.796  0.00  0.00     0.001 C 
ATOM     76  H   56A d   1     -18.753  21.359 -13.128  0.00  0.00     0.065 H 
ATOM     77  H   56A d   1     -18.842  23.152 -13.202  0.00  0.00     0.065 H 
BRANCH  75  78
ATOM     78  C28 56A d   1     -19.775  22.137 -14.856  0.00  0.00    -0.050 C 
ATOM     79  H   56A d   1     -19.582  21.290 -15.530  0.00  0.00     0.035 H 
ATOM     80  H   56A d   1     -19.834  23.066 -15.442  0.00  0.00     0.035 H 
BRANCH  78  81
ATOM     81  C29 56A d   1     -21.034  21.918 -14.052  0.00  0.00    -0.064 C 
ATOM     82  H   56A d   1     -20.965  22.551 -13.155  0.00  0.00     0.033 H 
ATOM     83  H   56A d   1     -21.052  20.860 -13.753  0.00  0.00     0.033 H 
BRANCH  81  84
ATOM     84  C30 56A d   1     -22.330  22.215 -14.703  0.00  0.00    -0.065 C 
ATOM     85  H   56A d   1     -22.151  23.089 -15.347  0.00  0.00     0.033 H 
ATOM     86  H   56A d   1     -23.019  22.492 -13.892  0.00  0.00     0.033 H 
BRANCH  84  87
ATOM     87  C31 56A d   1     -23.027  21.281 -15.502  0.00  0.00    -0.065 C 
ATOM     88  H   56A d   1     -22.592  20.287 -15.321  0.00  0.00     0.033 H 
ATOM     89  H   56A d   1     -22.880  21.559 -16.556  0.00  0.00     0.033 H 
BRANCH  87  90
ATOM     90  C32 56A d   1     -24.575  21.190 -15.234  0.00  0.00    -0.065 C 
ATOM     91  H   56A d   1     -25.149  21.908 -15.838  0.00  0.00     0.033 H 
ATOM     92  H   56A d   1     -24.826  21.320 -14.171  0.00  0.00     0.033 H 
BRANCH  90  93
ATOM     93  C33 56A d   1     -24.768  19.703 -15.721  0.00  0.00    -0.061 C 
ATOM     94  H   56A d   1     -24.961  19.082 -14.834  0.00  0.00     0.033 H 
ATOM     95  H   56A d   1     -23.829  19.382 -16.196  0.00  0.00     0.033 H 
BRANCH  93  96
ATOM     96  C34 56A d   1     -25.914  19.453 -16.728  0.00  0.00    -0.041 C 
ATOM     97  H   56A d   1     -25.744  18.493 -17.237  0.00  0.00     0.040 H 
ATOM     98  H   56A d   1     -25.925  20.265 -17.470  0.00  0.00     0.040 H 
BRANCH  96  99
ATOM     99  C35 56A d   1     -27.177  19.412 -16.058  0.00  0.00    -0.058 A 
ATOM    100  C36 56A d   1     -28.145  20.420 -16.230  0.00  0.00    -0.077 A 
ATOM    101  C37 56A d   1     -29.369  20.365 -15.528  0.00  0.00    -0.082 A 
ATOM    102  H   56A d   1     -27.949  21.244 -16.906  0.00  0.00     0.084 H 
ATOM    103  C38 56A d   1     -29.643  19.291 -14.686  0.00  0.00    -0.083 A 
ATOM    104  H   56A d   1     -30.096  21.160 -15.645  0.00  0.00     0.083 H 
ATOM    105  C39 56A d   1     -28.705  18.280 -14.533  0.00  0.00    -0.082 A 
ATOM    106  H   56A d   1     -30.585  19.245 -14.152  0.00  0.00     0.083 H 
ATOM    107  C40 56A d   1     -27.488  18.345 -15.238  0.00  0.00    -0.077 A 
ATOM    108  H   56A d   1     -28.908  17.444 -13.874  0.00  0.00     0.083 H 
ATOM    109  H   56A d   1     -26.775  17.535 -15.134  0.00  0.00     0.084 H 
ENDBRANCH  96  99
ENDBRANCH  93  96
ENDBRANCH  90  93
ENDBRANCH  87  90
ENDBRANCH  84  87
ENDBRANCH  81  84
ENDBRANCH  78  81
ENDBRANCH  75  78
ENDBRANCH  69  75
ENDBRANCH  65  68
ENDBRANCH   1  65
TORSDOF 29
