REMARK  2 active torsions:
REMARK  status: ('A' for Active; 'I' for Inactive)
REMARK    1  A    between atoms: C1_1  and  O7_7 
REMARK    2  A    between atoms: C2_2  and  O8_8 
ROOT
ATOM      1  C1  3N8 d   1     -16.842 -51.430 -33.602  0.00  0.00     0.099 A 
ATOM      2  C2  3N8 d   1     -18.209 -51.267 -33.749  0.00  0.00     0.101 A 
ATOM      3  C3  3N8 d   1     -18.749 -50.632 -34.850  0.00  0.00    -0.011 A 
ATOM      4  C4  3N8 d   1     -17.880 -50.139 -35.810  0.00  0.00     0.119 A 
ATOM      5  C5  3N8 d   1     -16.503 -50.306 -35.685  0.00  0.00    -0.043 A 
ATOM      6  C6  3N8 d   1     -15.978 -50.945 -34.570  0.00  0.00    -0.045 A 
ATOM      7  F9  3N8 d   1     -18.373 -49.521 -36.892  0.00  0.00    -0.206 F 
ATOM      8  H   3N8 d   1     -19.822 -50.522 -34.960  0.00  0.00     0.092 H 
ATOM      9  H   3N8 d   1     -15.840 -49.937 -36.459  0.00  0.00     0.088 H 
ATOM     10  H   3N8 d   1     -14.906 -51.063 -34.458  0.00  0.00     0.088 H 
ENDROOT
BRANCH   1  11
ATOM     11  O7  3N8 d   1     -16.386 -52.055 -32.488  0.00  0.00    -0.358 OA
ATOM     12  H   3N8 d   1     -15.827 -51.462 -32.000  0.00  0.00     0.217 HD
ENDBRANCH   1  11
BRANCH   2  13
ATOM     13  O8  3N8 d   1     -18.996 -51.761 -32.794  0.00  0.00    -0.358 OA
ATOM     14  H   3N8 d   1     -18.460 -52.160 -32.118  0.00  0.00     0.217 HD
ENDBRANCH   2  13
TORSDOF 2
