REMARK  2 active torsions:
REMARK  status: ('A' for Active; 'I' for Inactive)
REMARK    1  A    between atoms: C1_1  and  O7_7 
REMARK    2  A    between atoms: C2_2  and  O8_8 
ROOT
ATOM      1  C1  3N8 d   1     -16.939 -51.485 -33.698  0.00  0.00     0.099 A 
ATOM      2  C2  3N8 d   1     -18.302 -51.328 -33.853  0.00  0.00     0.101 A 
ATOM      3  C3  3N8 d   1     -18.820 -50.645 -34.947  0.00  0.00    -0.011 A 
ATOM      4  C4  3N8 d   1     -17.939 -50.114 -35.897  0.00  0.00     0.119 A 
ATOM      5  C5  3N8 d   1     -16.565 -50.268 -35.753  0.00  0.00    -0.043 A 
ATOM      6  C6  3N8 d   1     -16.069 -50.954 -34.653  0.00  0.00    -0.045 A 
ATOM      7  F9  3N8 d   1     -18.437 -49.459 -36.956  0.00  0.00    -0.206 F 
ATOM      8  H   3N8 d   1     -19.891 -50.525 -35.063  0.00  0.00     0.092 H 
ATOM      9  H   3N8 d   1     -15.888 -49.856 -36.492  0.00  0.00     0.088 H 
ATOM     10  H   3N8 d   1     -14.999 -51.078 -34.534  0.00  0.00     0.088 H 
ENDROOT
BRANCH   1  11
ATOM     11  O7  3N8 d   1     -16.469 -52.146 -32.598  0.00  0.00    -0.358 OA
ATOM     12  H   3N8 d   1     -15.918 -51.562 -32.091  0.00  0.00     0.217 HD
ENDBRANCH   1  11
BRANCH   2  13
ATOM     13  O8  3N8 d   1     -19.113 -51.864 -32.919  0.00  0.00    -0.358 OA
ATOM     14  H   3N8 d   1     -18.588 -52.289 -32.251  0.00  0.00     0.217 HD
ENDBRANCH   2  13
TORSDOF 2
