REMARK WARNING: 32 MAX_TORS EXCEEDED!!!
REMARK  53 active torsions:
REMARK  status: ('A' for Active; 'I' for Inactive)
REMARK    1  A    between atoms: N_1  and  CA_2 
REMARK    2  A    between atoms: CA_2  and  C_3 
REMARK    3  A    between atoms: CA_2  and  CB_5 
REMARK       I    between atoms: C_3  and  N_10 
REMARK    4  A    between atoms: CB_5  and  CG_6 
REMARK    5  A    between atoms: CG_6  and  CD_7 
REMARK       I    between atoms: CD_7  and  NE2_9 
REMARK    6  A    between atoms: N_10  and  CA_11 
REMARK    7  A    between atoms: CA_11  and  C_12 
REMARK    8  A    between atoms: CA_11  and  CB_14 
REMARK       I    between atoms: C_12  and  N_18 
REMARK    9  A    between atoms: CB_14  and  CG_15 
REMARK   10  A    between atoms: CG_15  and  CD1_16 
REMARK   11  A    between atoms: CG_15  and  CD2_17 
REMARK   12  A    between atoms: N_18  and  CA_19 
REMARK   13  A    between atoms: CA_19  and  C_20 
REMARK   14  A    between atoms: CA_19  and  CB_22 
REMARK       I    between atoms: C_20  and  N_26 
REMARK   15  A    between atoms: CB_22  and  CG1_23 
REMARK   16  A    between atoms: CB_22  and  CG2_24 
REMARK   17  A    between atoms: CG1_23  and  CD1_25 
REMARK   18  A    between atoms: N_26  and  CA_27 
REMARK   19  A    between atoms: CA_27  and  C_28 
REMARK   20  A    between atoms: CA_27  and  CB_30 
REMARK       I    between atoms: C_28  and  N_34 
REMARK   21  A    between atoms: CB_30  and  CG_31 
REMARK       I    between atoms: CG_31  and  ND2_33 
REMARK   22  A    between atoms: N_34  and  CA_35 
REMARK   23  A    between atoms: CA_35  and  C_36 
REMARK   24  A    between atoms: CA_35  and  CB_38 
REMARK       I    between atoms: C_36  and  N_41 
REMARK   25  A    between atoms: CB_38  and  OG1_39 
REMARK   26  A    between atoms: CB_38  and  CG2_40 
REMARK   27  A    between atoms: N_41  and  CA_42 
REMARK   28  A    between atoms: CA_42  and  C_43 
REMARK   29  A    between atoms: CA_42  and  CB_45 
REMARK       I    between atoms: C_43  and  N_49 
REMARK   30  A    between atoms: CB_45  and  CG_46 
REMARK       I    between atoms: CG_46  and  ND2_48 
REMARK   31  A    between atoms: N_49  and  CA_50 
REMARK   32  A    between atoms: CA_50  and  C_51 
REMARK       I    between atoms: C_51  and  N_53 
REMARK   33  A    between atoms: N_53  and  CA_54 
REMARK   34  A    between atoms: CA_54  and  C_55 
REMARK   35  A    between atoms: CA_54  and  CB_57 
REMARK       I    between atoms: C_55  and  N_59 
REMARK   36  A    between atoms: CB_57  and  OG_58 
REMARK   37  A    between atoms: N_59  and  CA_60 
REMARK   38  A    between atoms: CA_60  and  C_61 
REMARK   39  A    between atoms: CA_60  and  CB_63 
REMARK       I    between atoms: C_61  and  N_73 
REMARK   40  A    between atoms: CB_63  and  CG_64 
REMARK   41  A    between atoms: N_73  and  CA_74 
REMARK   42  A    between atoms: CA_74  and  C_75 
REMARK   43  A    between atoms: CA_74  and  CB_77 
REMARK       I    between atoms: C_75  and  N_83 
REMARK   44  A    between atoms: CB_77  and  CG_78 
REMARK   45  A    between atoms: N_83  and  CA_84 
REMARK   46  A    between atoms: CA_84  and  C_85 
REMARK   47  A    between atoms: CA_84  and  CB_87 
REMARK       I    between atoms: C_85  and  N_90 
REMARK   48  A    between atoms: CB_87  and  CG1_88 
REMARK   49  A    between atoms: CB_87  and  CG2_89 
REMARK   50  A    between atoms: N_90  and  CA_91 
REMARK   51  A    between atoms: CA_91  and  C_92 
REMARK   52  A    between atoms: CA_91  and  CB_94 
REMARK   53  A    between atoms: CB_94  and  CG_95 
REMARK       I    between atoms: CG_95  and  ND2_97 
ROOT
ATOM      1  CA  ASN d   1      40.090  39.061 -52.429  0.00  0.00     0.097 C 
ATOM      2  H   ASN d   1      41.015  39.330 -52.961  0.00  0.00     0.088 H 
ENDROOT
BRANCH   1   3
ATOM      3  N   ASN d   1      39.258  40.244 -52.402  0.00  0.00    -0.345 N 
ATOM      4  C   THR d   1      39.439  41.289 -53.235  0.00  0.00     0.243 C 
ATOM      5  O   THR d   1      40.301  41.310 -54.130  0.00  0.00    -0.271 OA
ATOM      6  H   ASN d   1      38.514  40.289 -51.735  0.00  0.00     0.163 HD
BRANCH   4   7
ATOM      7  CA  THR d   1      38.452  42.457 -53.089  0.00  0.00     0.113 C 
ATOM      8  H   THR d   1      38.264  42.849 -54.099  0.00  0.00     0.091 H 
BRANCH   7   9
ATOM      9  N   THR d   1      37.174  42.001 -52.539  0.00  0.00    -0.344 N 
ATOM     10  C   ASN d   1      36.369  41.118 -53.117  0.00  0.00     0.241 C 
ATOM     11  O   ASN d   1      36.615  40.594 -54.215  0.00  0.00    -0.271 OA
ATOM     12  H   THR d   1      36.886  42.384 -51.661  0.00  0.00     0.163 HD
BRANCH  10  13
ATOM     13  CA  ASN d   1      35.039  40.866 -52.353  0.00  0.00     0.097 C 
ATOM     14  H   ASN d   1      35.233  40.826 -51.271  0.00  0.00     0.088 H 
BRANCH  13  15
ATOM     15  N   ASN d   1      34.165  41.997 -52.671  0.00  0.00    -0.346 N 
ATOM     16  C   ILE d   1      34.204  43.181 -52.044  0.00  0.00     0.241 C 
ATOM     17  O   ILE d   1      34.952  43.429 -51.092  0.00  0.00    -0.271 OA
ATOM     18  H   ASN d   1      33.495  41.878 -53.404  0.00  0.00     0.163 HD
BRANCH  16  19
ATOM     19  CA  ILE d   1      33.298  44.271 -52.606  0.00  0.00     0.092 C 
ATOM     20  H   ILE d   1      32.424  43.812 -53.091  0.00  0.00     0.088 H 
BRANCH  19  21
ATOM     21  N   ILE d   1      32.856  45.081 -51.477  0.00  0.00    -0.346 N 
ATOM     22  C   LEU d   1      31.637  45.603 -51.302  0.00  0.00     0.241 C 
ATOM     23  O   LEU d   1      30.725  45.486 -52.120  0.00  0.00    -0.271 OA
ATOM     24  H   ILE d   1      33.531  45.264 -50.763  0.00  0.00     0.163 HD
BRANCH  22  25
ATOM     25  CA  LEU d   1      31.451  46.472 -50.058  0.00  0.00     0.089 C 
ATOM     26  H   LEU d   1      30.375  46.567 -49.853  0.00  0.00     0.087 H 
BRANCH  25  27
ATOM     27  N   LEU d   1      32.089  45.879 -48.890  0.00  0.00    -0.346 N 
ATOM     28  C   GLN d   1      31.559  44.824 -48.236  0.00  0.00     0.249 C 
ATOM     29  O   GLN d   1      30.479  44.321 -48.548  0.00  0.00    -0.271 OA
ATOM     30  H   LEU d   1      32.950  46.267 -48.561  0.00  0.00     0.163 HD
BRANCH  28  31
ATOM     31  CA  GLN d   1      32.327  44.253 -47.032  0.00  0.00     0.176 C 
ATOM     32  H   GLN d   1      31.969  43.224 -46.879  0.00  0.00     0.099 H 
BRANCH  31  33
ATOM     33  N   GLN d   1      33.759  44.177 -47.284  0.00  0.00    -0.066 N 
ATOM     34  H   GLN d   1      34.223  43.799 -46.473  0.00  0.00     0.275 HD
ATOM     35  H   GLN d   1      34.116  45.100 -47.476  0.00  0.00     0.275 HD
ATOM     36  H   GLN d   1      33.929  43.579 -48.078  0.00  0.00     0.275 HD
ENDBRANCH  31  33
BRANCH  31  37
ATOM     37  CB  GLN d   1      32.030  45.038 -45.737  0.00  0.00    -0.022 C 
ATOM     38  H   GLN d   1      31.320  45.842 -45.980  0.00  0.00     0.037 H 
ATOM     39  H   GLN d   1      32.973  45.477 -45.380  0.00  0.00     0.037 H 
BRANCH  37  40
ATOM     40  CG  GLN d   1      31.429  44.199 -44.591  0.00  0.00     0.011 C 
ATOM     41  H   GLN d   1      32.157  43.421 -44.316  0.00  0.00     0.047 H 
ATOM     42  H   GLN d   1      30.507  43.725 -44.959  0.00  0.00     0.047 H 
BRANCH  40  43
ATOM     43  CD  GLN d   1      31.086  45.000 -43.331  0.00  0.00     0.215 C 
ATOM     44  OE1 GLN d   1      31.393  46.194 -43.192  0.00  0.00    -0.274 OA
ATOM     45  NE2 GLN d   1      30.434  44.357 -42.369  0.00  0.00    -0.370 N 
ATOM     46  H   GLN d   1      30.187  44.836 -41.526  0.00  0.00     0.159 HD
ATOM     47  H   GLN d   1      30.190  43.394 -42.487  0.00  0.00     0.159 HD
ENDBRANCH  40  43
ENDBRANCH  37  40
ENDBRANCH  31  37
ENDBRANCH  28  31
ENDBRANCH  25  27
BRANCH  25  48
ATOM     48  CB  LEU d   1      32.027  47.867 -50.339  0.00  0.00    -0.035 C 
ATOM     49  H   LEU d   1      31.672  48.168 -51.336  0.00  0.00     0.037 H 
ATOM     50  H   LEU d   1      33.122  47.767 -50.355  0.00  0.00     0.037 H 
BRANCH  48  51
ATOM     51  CG  LEU d   1      31.693  49.016 -49.375  0.00  0.00    -0.059 C 
ATOM     52  H   LEU d   1      32.082  48.750 -48.381  0.00  0.00     0.038 H 
BRANCH  51  53
ATOM     53  CD1 LEU d   1      32.367  50.280 -49.831  0.00  0.00    -0.073 C 
ATOM     54  H   LEU d   1      32.123  51.097 -49.136  0.00  0.00     0.028 H 
ATOM     55  H   LEU d   1      32.015  50.540 -50.840  0.00  0.00     0.028 H 
ATOM     56  H   LEU d   1      33.456  50.128 -49.850  0.00  0.00     0.028 H 
ENDBRANCH  51  53
BRANCH  51  57
ATOM     57  CD2 LEU d   1      30.204  49.255 -49.248  0.00  0.00    -0.073 C 
ATOM     58  H   LEU d   1      29.711  48.330 -48.914  0.00  0.00     0.028 H 
ATOM     59  H   LEU d   1      29.796  49.556 -50.224  0.00  0.00     0.028 H 
ATOM     60  H   LEU d   1      30.022  50.053 -48.513  0.00  0.00     0.028 H 
ENDBRANCH  51  57
ENDBRANCH  48  51
ENDBRANCH  25  48
ENDBRANCH  22  25
ENDBRANCH  19  21
BRANCH  19  61
ATOM     61  CB  ILE d   1      34.079  45.141 -53.679  0.00  0.00    -0.030 C 
ATOM     62  H   ILE d   1      34.892  45.656 -53.147  0.00  0.00     0.043 H 
BRANCH  61  63
ATOM     63  CG1 ILE d   1      33.174  46.229 -54.322  0.00  0.00    -0.063 C 
ATOM     64  H   ILE d   1      32.474  46.592 -53.555  0.00  0.00     0.033 H 
ATOM     65  H   ILE d   1      32.609  45.766 -55.144  0.00  0.00     0.033 H 
BRANCH  63  66
ATOM     66  CD1 ILE d   1      33.958  47.463 -54.897  0.00  0.00    -0.076 C 
ATOM     67  H   ILE d   1      33.246  48.180 -55.331  0.00  0.00     0.027 H 
ATOM     68  H   ILE d   1      34.656  47.123 -55.676  0.00  0.00     0.027 H 
ATOM     69  H   ILE d   1      34.521  47.950 -54.087  0.00  0.00     0.027 H 
ENDBRANCH  63  66
ENDBRANCH  61  63
BRANCH  61  70
ATOM     70  CG2 ILE d   1      34.724  44.275 -54.793  0.00  0.00    -0.071 C 
ATOM     71  H   ILE d   1      35.364  43.506 -54.335  0.00  0.00     0.028 H 
ATOM     72  H   ILE d   1      35.332  44.915 -55.449  0.00  0.00     0.028 H 
ATOM     73  H   ILE d   1      33.933  43.790 -55.384  0.00  0.00     0.028 H 
ENDBRANCH  61  70
ENDBRANCH  19  61
ENDBRANCH  16  19
ENDBRANCH  13  15
BRANCH  13  74
ATOM     74  CB  ASN d   1      34.369  39.566 -52.790  0.00  0.00     0.036 C 
ATOM     75  H   ASN d   1      34.306  39.575 -53.888  0.00  0.00     0.051 H 
ATOM     76  H   ASN d   1      33.355  39.553 -52.365  0.00  0.00     0.051 H 
BRANCH  74  77
ATOM     77  CG  ASN d   1      35.041  38.311 -52.388  0.00  0.00     0.217 C 
ATOM     78  OD1 ASN d   1      35.648  38.209 -51.343  0.00  0.00    -0.274 OA
ATOM     79  ND2 ASN d   1      34.872  37.301 -53.183  0.00  0.00    -0.370 N 
ATOM     80  H   ASN d   1      35.298  36.422 -52.972  0.00  0.00     0.159 HD
ATOM     81  H   ASN d   1      34.315  37.401 -54.008  0.00  0.00     0.159 HD
ENDBRANCH  74  77
ENDBRANCH  13  74
ENDBRANCH  10  13
ENDBRANCH   7   9
BRANCH   7  82
ATOM     82  CB  THR d   1      38.989  43.611 -52.244  0.00  0.00     0.060 C 
ATOM     83  H   THR d   1      39.938  43.966 -52.673  0.00  0.00     0.086 H 
BRANCH  82  84
ATOM     84  OG1 THR d   1      39.206  43.123 -50.910  0.00  0.00    -0.393 OA
ATOM     85  H   THR d   1      39.541  43.827 -50.367  0.00  0.00     0.210 HD
ENDBRANCH  82  84
BRANCH  82  86
ATOM     86  CG2 THR d   1      37.992  44.780 -52.182  0.00  0.00    -0.050 C 
ATOM     87  H   THR d   1      38.413  45.589 -51.567  0.00  0.00     0.031 H 
ATOM     88  H   THR d   1      37.048  44.434 -51.736  0.00  0.00     0.031 H 
ATOM     89  H   THR d   1      37.802  45.154 -53.199  0.00  0.00     0.031 H 
ENDBRANCH  82  86
ENDBRANCH   7  82
ENDBRANCH   4   7
ENDBRANCH   1   3
BRANCH   1  90
ATOM     90  C   ASN d   1      39.459  37.896 -53.207  0.00  0.00     0.241 C 
ATOM     91  O   ASN d   1      39.983  36.785 -53.186  0.00  0.00    -0.271 OA
ATOM     92  N   GLY d   1      38.365  38.158 -53.904  0.00  0.00    -0.351 N 
ATOM     93  H   GLY d   1      37.998  39.088 -53.889  0.00  0.00     0.163 HD
BRANCH  92  94
ATOM     94  CA  GLY d   1      37.673  37.145 -54.693  0.00  0.00     0.069 C 
ATOM     95  H   GLY d   1      36.902  37.647 -55.295  0.00  0.00     0.078 H 
ATOM     96  H   GLY d   1      37.194  36.438 -53.999  0.00  0.00     0.078 H 
BRANCH  94  97
ATOM     97  C   GLY d   1      38.563  36.357 -55.629  0.00  0.00     0.236 C 
ATOM     98  O   GLY d   1      39.457  36.921 -56.266  0.00  0.00    -0.272 OA
ATOM     99  N   SER d   1      38.321  35.043 -55.714  0.00  0.00    -0.344 N 
ATOM    100  H   SER d   1      37.576  34.658 -55.169  0.00  0.00     0.163 HD
BRANCH  99 101
ATOM    101  CA  SER d   1      39.096  34.148 -56.567  0.00  0.00     0.109 C 
ATOM    102  H   SER d   1      40.154  34.396 -56.393  0.00  0.00     0.090 H 
BRANCH 101 103
ATOM    103  C   SER d   1      38.868  34.326 -58.070  0.00  0.00     0.243 C 
ATOM    104  O   SER d   1      39.511  33.645 -58.865  0.00  0.00    -0.271 OA
ATOM    105  N   TRP d   1      37.935  35.215 -58.462  0.00  0.00    -0.346 N 
ATOM    106  H   TRP d   1      37.423  35.698 -57.752  0.00  0.00     0.163 HD
BRANCH 105 107
ATOM    107  CA  TRP d   1      37.620  35.521 -59.858  0.00  0.00     0.093 C 
ATOM    108  H   TRP d   1      37.693  34.575 -60.414  0.00  0.00     0.088 H 
BRANCH 107 109
ATOM    109  C   TRP d   1      38.635  36.485 -60.497  0.00  0.00     0.241 C 
ATOM    110  O   TRP d   1      38.658  36.615 -61.716  0.00  0.00    -0.271 OA
ATOM    111  N   HIS d   1      39.502  37.119 -59.675  0.00  0.00    -0.346 N 
ATOM    112  H   HIS d   1      39.418  36.958 -58.692  0.00  0.00     0.163 HD
BRANCH 111 113
ATOM    113  CA  HIS d   1      40.558  38.029 -60.135  0.00  0.00     0.094 C 
ATOM    114  H   HIS d   1      40.099  38.738 -60.840  0.00  0.00     0.088 H 
BRANCH 113 115
ATOM    115  C   HIS d   1      41.697  37.312 -60.854  0.00  0.00     0.241 C 
ATOM    116  O   HIS d   1      42.075  36.187 -60.486  0.00  0.00    -0.271 OA
ATOM    117  N   VAL d   1      42.280  38.014 -61.845  0.00  0.00    -0.346 N 
ATOM    118  H   VAL d   1      41.897  38.915 -62.051  0.00  0.00     0.163 HD
BRANCH 117 119
ATOM    119  CA  VAL d   1      43.429  37.575 -62.652  0.00  0.00     0.092 C 
ATOM    120  H   VAL d   1      43.660  36.535 -62.379  0.00  0.00     0.088 H 
BRANCH 119 121
ATOM    121  C   VAL d   1      44.627  38.461 -62.270  0.00  0.00     0.241 C 
ATOM    122  O   VAL d   1      44.464  39.440 -61.525  0.00  0.00    -0.271 OA
ATOM    123  N   ASN d   1      45.821  38.135 -62.793  0.00  0.00    -0.344 N 
ATOM    124  H   ASN d   1      45.873  37.350 -63.411  0.00  0.00     0.163 HD
BRANCH 123 125
ATOM    125  CA  ASN d   1      47.056  38.879 -62.499  0.00  0.00     0.104 C 
ATOM    126  H   ASN d   1      46.749  39.878 -62.157  0.00  0.00     0.090 H 
BRANCH 125 127
ATOM    127  C   ASN d   1      47.983  39.094 -63.706  0.00  0.00     0.197 C 
ATOM    128  O   ASN d   1      47.783  38.523 -64.779  0.00  0.00    -0.646 OA
ATOM    129  O1  ASN d   1      48.969  39.871 -63.596  0.00  0.00    -0.646 OA
ENDBRANCH 125 127
BRANCH 125 130
ATOM    130  CB  ASN d   1      47.814  38.214 -61.354  0.00  0.00     0.037 C 
ATOM    131  H   ASN d   1      47.307  38.464 -60.410  0.00  0.00     0.051 H 
ATOM    132  H   ASN d   1      48.839  38.614 -61.337  0.00  0.00     0.051 H 
BRANCH 130 133
ATOM    133  CG  ASN d   1      47.890  36.711 -61.471  0.00  0.00     0.217 C 
ATOM    134  OD1 ASN d   1      46.870  36.005 -61.417  0.00  0.00    -0.274 OA
ATOM    135  ND2 ASN d   1      49.105  36.193 -61.615  0.00  0.00    -0.370 N 
ATOM    136  H   ASN d   1      49.220  35.203 -61.698  0.00  0.00     0.159 HD
ATOM    137  H   ASN d   1      49.905  36.793 -61.641  0.00  0.00     0.159 HD
ENDBRANCH 130 133
ENDBRANCH 125 130
ENDBRANCH 123 125
ENDBRANCH 119 121
BRANCH 119 138
ATOM    138  CB  VAL d   1      43.175  37.606 -64.192  0.00  0.00    -0.033 C 
ATOM    139  H   VAL d   1      43.960  38.245 -64.623  0.00  0.00     0.042 H 
BRANCH 138 140
ATOM    140  CG1 VAL d   1      43.334  36.235 -64.837  0.00  0.00    -0.071 C 
ATOM    141  H   VAL d   1      43.145  36.314 -65.918  0.00  0.00     0.028 H 
ATOM    142  H   VAL d   1      42.615  35.533 -64.389  0.00  0.00     0.028 H 
ATOM    143  H   VAL d   1      44.357  35.868 -64.670  0.00  0.00     0.028 H 
ENDBRANCH 138 140
BRANCH 138 144
ATOM    144  CG2 VAL d   1      41.848  38.255 -64.549  0.00  0.00    -0.071 C 
ATOM    145  H   VAL d   1      41.779  39.239 -64.062  0.00  0.00     0.028 H 
ATOM    146  H   VAL d   1      41.022  37.616 -64.203  0.00  0.00     0.028 H 
ATOM    147  H   VAL d   1      41.783  38.380 -65.640  0.00  0.00     0.028 H 
ENDBRANCH 138 144
ENDBRANCH 119 138
ENDBRANCH 117 119
ENDBRANCH 113 115
BRANCH 113 148
ATOM    148  CB  HIS d   1      41.160  38.819 -58.977  0.00  0.00     0.002 C 
ATOM    149  H   HIS d   1      42.058  39.338 -59.343  0.00  0.00     0.046 H 
ATOM    150  H   HIS d   1      41.444  38.109 -58.186  0.00  0.00     0.046 H 
BRANCH 148 151
ATOM    151  CG  HIS d   1      40.237  39.838 -58.385  0.00  0.00     0.030 A 
ATOM    152  ND1 HIS d   1      39.522  39.578 -57.232  0.00  0.00    -0.353 N 
ATOM    153  CE1 HIS d   1      38.883  40.700 -56.955  0.00  0.00     0.063 A 
ATOM    154  H   HIS d   1      39.493  38.696 -56.701  0.00  0.00     0.166 HD
ATOM    155  NE2 HIS d   1      39.143  41.647 -57.854  0.00  0.00    -0.254 NA
ATOM    156  H   HIS d   1      38.225  40.834 -56.098  0.00  0.00     0.143 H 
ATOM    157  CD2 HIS d   1      39.989  41.109 -58.775  0.00  0.00     0.025 A 
ATOM    158  H   HIS d   1      40.389  41.607 -59.657  0.00  0.00     0.117 H 
ENDBRANCH 148 151
ENDBRANCH 113 148
ENDBRANCH 111 113
ENDBRANCH 107 109
BRANCH 107 159
ATOM    159  CB  TRP d   1      36.164  36.018 -60.011  0.00  0.00    -0.012 C 
ATOM    160  H   TRP d   1      35.505  35.138 -60.047  0.00  0.00     0.044 H 
ATOM    161  H   TRP d   1      36.090  36.571 -60.959  0.00  0.00     0.044 H 
BRANCH 159 162
ATOM    162  CG  TRP d   1      35.682  36.917 -58.907  0.00  0.00    -0.028 A 
ATOM    163  CD1 TRP d   1      35.115  36.535 -57.730  0.00  0.00    -0.015 A 
ATOM    164  NE1 TRP d   1      34.780  37.647 -56.981  0.00  0.00    -0.365 N 
ATOM    165  H   TRP d   1      34.950  35.503 -57.423  0.00  0.00     0.112 H 
ATOM    166  CE2 TRP d   1      35.204  38.769 -57.633  0.00  0.00     0.042 A 
ATOM    167  H   TRP d   1      34.289  37.632 -56.076  0.00  0.00     0.165 HD
ATOM    168  CD2 TRP d   1      35.796  38.347 -58.849  0.00  0.00    -0.002 A 
ATOM    169  CZ2 TRP d   1      35.144  40.115 -57.251  0.00  0.00    -0.056 A 
ATOM    170  CE3 TRP d   1      36.303  39.322 -59.726  0.00  0.00    -0.070 A 
ATOM    171  CZ3 TRP d   1      36.181  40.664 -59.369  0.00  0.00    -0.082 A 
ATOM    172  H   TRP d   1      36.778  39.037 -60.658  0.00  0.00     0.084 H 
ATOM    173  CH2 TRP d   1      35.615  41.047 -58.143  0.00  0.00    -0.081 A 
ATOM    174  H   TRP d   1      36.531  41.428 -60.053  0.00  0.00     0.083 H 
ATOM    175  H   TRP d   1      35.548  42.100 -57.895  0.00  0.00     0.083 H 
ATOM    176  H   TRP d   1      34.741  40.410 -56.289  0.00  0.00     0.086 H 
ENDBRANCH 159 162
ENDBRANCH 107 159
ENDBRANCH 105 107
ENDBRANCH 101 103
BRANCH 101 177
ATOM    177  CB  SER d   1      38.903  32.712 -56.119  0.00  0.00     0.044 C 
ATOM    178  H   SER d   1      39.308  32.025 -56.877  0.00  0.00     0.077 H 
ATOM    179  H   SER d   1      37.833  32.506 -55.972  0.00  0.00     0.077 H 
BRANCH 177 180
ATOM    180  OG  SER d   1      39.599  32.547 -54.896  0.00  0.00    -0.398 OA
ATOM    181  H   SER d   1      39.495  31.653 -54.592  0.00  0.00     0.209 HD
ENDBRANCH 177 180
ENDBRANCH 101 177
ENDBRANCH  99 101
ENDBRANCH  94  97
ENDBRANCH  92  94
ENDBRANCH   1  90
BRANCH   1 182
ATOM    182  CB  ASN d   1      40.490  38.658 -50.994  0.00  0.00     0.036 C 
ATOM    183  H   ASN d   1      39.652  38.105 -50.544  0.00  0.00     0.051 H 
ATOM    184  H   ASN d   1      40.675  39.576 -50.417  0.00  0.00     0.051 H 
BRANCH 182 185
ATOM    185  CG  ASN d   1      41.730  37.789 -50.917  0.00  0.00     0.217 C 
ATOM    186  OD1 ASN d   1      42.770  38.102 -51.505  0.00  0.00    -0.274 OA
ATOM    187  ND2 ASN d   1      41.640  36.666 -50.200  0.00  0.00    -0.370 N 
ATOM    188  H   ASN d   1      42.431  36.060 -50.119  0.00  0.00     0.159 HD
ATOM    189  H   ASN d   1      40.782  36.431 -49.744  0.00  0.00     0.159 HD
ENDBRANCH 182 185
ENDBRANCH   1 182
TORSDOF 53
