REMARK WARNING: 32 MAX_TORS EXCEEDED!!!
REMARK  49 active torsions:
REMARK  status: ('A' for Active; 'I' for Inactive)
REMARK    1  A    between atoms: N_1  and  CA_2 
REMARK    2  A    between atoms: CA_2  and  C_3 
REMARK    3  A    between atoms: CA_2  and  CB_5 
REMARK       I    between atoms: C_3  and  N_10 
REMARK    4  A    between atoms: CB_5  and  CG_6 
REMARK    5  A    between atoms: CG_6  and  CD_7 
REMARK       I    between atoms: CD_7  and  NE2_9 
REMARK    6  A    between atoms: N_10  and  CA_11 
REMARK    7  A    between atoms: CA_11  and  C_12 
REMARK    8  A    between atoms: CA_11  and  CB_14 
REMARK       I    between atoms: C_12  and  N_18 
REMARK    9  A    between atoms: CB_14  and  CG_15 
REMARK   10  A    between atoms: CG_15  and  CD1_16 
REMARK   11  A    between atoms: CG_15  and  CD2_17 
REMARK   12  A    between atoms: N_18  and  CA_19 
REMARK   13  A    between atoms: CA_19  and  C_20 
REMARK   14  A    between atoms: CA_19  and  CB_22 
REMARK       I    between atoms: C_20  and  N_26 
REMARK   15  A    between atoms: CB_22  and  CG1_23 
REMARK   16  A    between atoms: CB_22  and  CG2_24 
REMARK   17  A    between atoms: CG1_23  and  CD1_25 
REMARK   18  A    between atoms: N_26  and  CA_27 
REMARK   19  A    between atoms: CA_27  and  C_28 
REMARK   20  A    between atoms: CA_27  and  CB_30 
REMARK       I    between atoms: C_28  and  N_34 
REMARK   21  A    between atoms: CB_30  and  CG_31 
REMARK       I    between atoms: CG_31  and  ND2_33 
REMARK   22  A    between atoms: N_34  and  CA_35 
REMARK   23  A    between atoms: CA_35  and  C_36 
REMARK   24  A    between atoms: CA_35  and  CB_38 
REMARK       I    between atoms: C_36  and  N_41 
REMARK   25  A    between atoms: CB_38  and  OG1_39 
REMARK   26  A    between atoms: CB_38  and  CG2_40 
REMARK   27  A    between atoms: N_41  and  CA_42 
REMARK   28  A    between atoms: CA_42  and  C_43 
REMARK   29  A    between atoms: CA_42  and  CB_45 
REMARK       I    between atoms: C_43  and  N_49 
REMARK   30  A    between atoms: CB_45  and  CG_46 
REMARK       I    between atoms: CG_46  and  ND2_48 
REMARK   31  A    between atoms: N_49  and  CA_50 
REMARK   32  A    between atoms: CA_50  and  C_51 
REMARK       I    between atoms: C_51  and  N_53 
REMARK   33  A    between atoms: N_53  and  CA_54 
REMARK   34  A    between atoms: CA_54  and  C_55 
REMARK   35  A    between atoms: CA_54  and  CB_57 
REMARK       I    between atoms: C_55  and  N_59 
REMARK   36  A    between atoms: CB_57  and  OG_58 
REMARK   37  A    between atoms: N_59  and  CA_60 
REMARK   38  A    between atoms: CA_60  and  C_61 
REMARK   39  A    between atoms: CA_60  and  CB_63 
REMARK       I    between atoms: C_61  and  N_73 
REMARK   40  A    between atoms: CB_63  and  CG_64 
REMARK   41  A    between atoms: N_73  and  CA_74 
REMARK   42  A    between atoms: CA_74  and  C_75 
REMARK   43  A    between atoms: CA_74  and  CB_77 
REMARK       I    between atoms: C_75  and  N_83 
REMARK   44  A    between atoms: CB_77  and  CG_78 
REMARK   45  A    between atoms: N_83  and  CA_84 
REMARK   46  A    between atoms: CA_84  and  C_85 
REMARK   47  A    between atoms: CA_84  and  CB_87 
REMARK   48  A    between atoms: CB_87  and  CG1_88 
REMARK   49  A    between atoms: CB_87  and  CG2_89 
ROOT
ATOM      1  CA  ASN d   1      -7.313 -62.619   1.116  0.00  0.00     0.097 C 
ATOM      2  H   ASN d   1      -8.264 -62.081   1.240  0.00  0.00     0.088 H 
ENDROOT
BRANCH   1   3
ATOM      3  N   ASN d   1      -6.489 -61.845   0.204  0.00  0.00    -0.345 N 
ATOM      4  C   THR d   1      -6.744 -60.583  -0.152  0.00  0.00     0.243 C 
ATOM      5  O   THR d   1      -7.707 -59.940   0.265  0.00  0.00    -0.271 OA
ATOM      6  H   ASN d   1      -5.678 -62.285  -0.182  0.00  0.00     0.163 HD
BRANCH   4   7
ATOM      7  CA  THR d   1      -5.773 -59.951  -1.134  0.00  0.00     0.113 C 
ATOM      8  H   THR d   1      -5.575 -58.926  -0.788  0.00  0.00     0.091 H 
BRANCH   7   9
ATOM      9  N   THR d   1      -4.483 -60.664  -1.152  0.00  0.00    -0.344 N 
ATOM     10  C   ASN d   1      -3.682 -60.861  -0.084  0.00  0.00     0.241 C 
ATOM     11  O   ASN d   1      -3.945 -60.442   1.045  0.00  0.00    -0.271 OA
ATOM     12  H   THR d   1      -4.176 -61.033  -2.029  0.00  0.00     0.163 HD
BRANCH  10  13
ATOM     13  CA  ASN d   1      -2.372 -61.593  -0.371  0.00  0.00     0.097 C 
ATOM     14  H   ASN d   1      -2.562 -62.502  -0.961  0.00  0.00     0.088 H 
BRANCH  13  15
ATOM     15  N   ASN d   1      -1.584 -60.630  -1.128  0.00  0.00    -0.346 N 
ATOM     16  C   ILE d   1      -1.728 -60.352  -2.436  0.00  0.00     0.241 C 
ATOM     17  O   ILE d   1      -2.534 -60.922  -3.177  0.00  0.00    -0.271 OA
ATOM     18  H   ASN d   1      -0.873 -60.132  -0.631  0.00  0.00     0.163 HD
BRANCH  16  19
ATOM     19  CA  ILE d   1      -0.851 -59.240  -2.967  0.00  0.00     0.092 C 
ATOM     20  H   ILE d   1       0.061 -59.183  -2.354  0.00  0.00     0.088 H 
BRANCH  19  21
ATOM     21  N   ILE d   1      -0.475 -59.605  -4.326  0.00  0.00    -0.346 N 
ATOM     22  C   LEU d   1       0.797 -59.657  -4.748  0.00  0.00     0.241 C 
ATOM     23  O   LEU d   1       1.770 -59.426  -4.014  0.00  0.00    -0.271 OA
ATOM     24  H   ILE d   1      -1.201 -59.828  -4.976  0.00  0.00     0.163 HD
BRANCH  22  25
ATOM     25  CA  LEU d   1       1.003 -60.100  -6.195  0.00  0.00     0.089 C 
ATOM     26  H   LEU d   1       2.077 -60.103  -6.434  0.00  0.00     0.087 H 
BRANCH  25  27
ATOM     27  N   LEU d   1       0.469 -61.448  -6.313  0.00  0.00    -0.346 N 
ATOM     28  C   GLN d   1       0.981 -62.547  -5.706  0.00  0.00     0.249 C 
ATOM     29  O   GLN d   1       2.020 -62.534  -5.040  0.00  0.00    -0.271 OA
ATOM     30  H   LEU d   1      -0.340 -61.574  -6.887  0.00  0.00     0.163 HD
BRANCH  28  31
ATOM     31  CA  GLN d   1       0.244 -63.884  -5.914  0.00  0.00     0.176 C 
ATOM     32  H   GLN d   1       0.343 -64.477  -4.993  0.00  0.00     0.099 H 
BRANCH  31  33
ATOM     33  N   GLN d   1      -1.184 -63.695  -6.177  0.00  0.00    -0.066 N 
ATOM     34  H   GLN d   1      -1.624 -64.593  -6.306  0.00  0.00     0.275 HD
ATOM     35  H   GLN d   1      -1.302 -63.140  -7.010  0.00  0.00     0.275 HD
ATOM     36  H   GLN d   1      -1.610 -63.222  -5.396  0.00  0.00     0.275 HD
ENDBRANCH  31  33
BRANCH  31  37
ATOM     37  CB  GLN d   1       0.904 -64.650  -7.056  0.00  0.00    -0.022 C 
ATOM     38  H   GLN d   1       1.993 -64.519  -6.970  0.00  0.00     0.037 H 
ATOM     39  H   GLN d   1       0.556 -64.214  -8.004  0.00  0.00     0.037 H 
BRANCH  37  40
ATOM     40  CG  GLN d   1       0.614 -66.129  -7.089  0.00  0.00     0.011 C 
ATOM     41  H   GLN d   1      -0.363 -66.301  -7.565  0.00  0.00     0.047 H 
ATOM     42  H   GLN d   1       0.596 -66.522  -6.062  0.00  0.00     0.047 H 
BRANCH  40  43
ATOM     43  CD  GLN d   1       1.687 -66.832  -7.877  0.00  0.00     0.215 C 
ATOM     44  OE1 GLN d   1       2.596 -67.432  -7.296  0.00  0.00    -0.274 OA
ATOM     45  NE2 GLN d   1       1.645 -66.723  -9.219  0.00  0.00    -0.370 N 
ATOM     46  H   GLN d   1       2.339 -67.175  -9.779  0.00  0.00     0.159 HD
ATOM     47  H   GLN d   1       0.920 -66.190  -9.655  0.00  0.00     0.159 HD
ENDBRANCH  40  43
ENDBRANCH  37  40
ENDBRANCH  31  37
ENDBRANCH  28  31
ENDBRANCH  25  27
BRANCH  25  48
ATOM     48  CB  LEU d   1       0.275 -59.147  -7.157  0.00  0.00    -0.035 C 
ATOM     49  H   LEU d   1       0.481 -58.118  -6.827  0.00  0.00     0.037 H 
ATOM     50  H   LEU d   1      -0.803 -59.349  -7.075  0.00  0.00     0.037 H 
BRANCH  48  51
ATOM     51  CG  LEU d   1       0.653 -59.245  -8.632  0.00  0.00    -0.059 C 
ATOM     52  H   LEU d   1       0.797 -60.309  -8.873  0.00  0.00     0.038 H 
BRANCH  51  53
ATOM     53  CD1 LEU d   1      -0.455 -58.702  -9.528  0.00  0.00    -0.073 C 
ATOM     54  H   LEU d   1      -0.150 -58.788 -10.581  0.00  0.00     0.028 H 
ATOM     55  H   LEU d   1      -0.639 -57.645  -9.284  0.00  0.00     0.028 H 
ATOM     56  H   LEU d   1      -1.376 -59.281  -9.365  0.00  0.00     0.028 H 
ENDBRANCH  51  53
BRANCH  51  57
ATOM     57  CD2 LEU d   1       1.948 -58.518  -8.919  0.00  0.00    -0.073 C 
ATOM     58  H   LEU d   1       2.743 -58.914  -8.270  0.00  0.00     0.028 H 
ATOM     59  H   LEU d   1       1.817 -57.444  -8.723  0.00  0.00     0.028 H 
ATOM     60  H   LEU d   1       2.227 -58.667  -9.973  0.00  0.00     0.028 H 
ENDBRANCH  51  57
ENDBRANCH  48  51
ENDBRANCH  25  48
ENDBRANCH  22  25
ENDBRANCH  19  21
BRANCH  19  61
ATOM     61  CB  ILE d   1      -1.568 -57.847  -2.884  0.00  0.00    -0.030 C 
ATOM     62  H   ILE d   1      -2.471 -57.913  -3.509  0.00  0.00     0.043 H 
BRANCH  61  63
ATOM     63  CG1 ILE d   1      -0.700 -56.703  -3.451  0.00  0.00    -0.063 C 
ATOM     64  H   ILE d   1      -0.074 -57.114  -4.257  0.00  0.00     0.033 H 
ATOM     65  H   ILE d   1      -0.057 -56.327  -2.642  0.00  0.00     0.033 H 
BRANCH  63  66
ATOM     66  CD1 ILE d   1      -1.499 -55.518  -4.020  0.00  0.00    -0.076 C 
ATOM     67  H   ILE d   1      -0.803 -54.755  -4.399  0.00  0.00     0.027 H 
ATOM     68  H   ILE d   1      -2.124 -55.082  -3.227  0.00  0.00     0.027 H 
ATOM     69  H   ILE d   1      -2.141 -55.869  -4.841  0.00  0.00     0.027 H 
ENDBRANCH  63  66
ENDBRANCH  61  63
BRANCH  61  70
ATOM     70  CG2 ILE d   1      -2.027 -57.516  -1.442  0.00  0.00    -0.071 C 
ATOM     71  H   ILE d   1      -2.643 -58.341  -1.055  0.00  0.00     0.028 H 
ATOM     72  H   ILE d   1      -2.619 -56.589  -1.449  0.00  0.00     0.028 H 
ATOM     73  H   ILE d   1      -1.145 -57.384  -0.798  0.00  0.00     0.028 H 
ENDBRANCH  61  70
ENDBRANCH  19  61
ENDBRANCH  16  19
ENDBRANCH  13  15
BRANCH  13  74
ATOM     74  CB  ASN d   1      -1.608 -61.967   0.916  0.00  0.00     0.036 C 
ATOM     75  H   ASN d   1      -1.533 -61.060   1.534  0.00  0.00     0.051 H 
ATOM     76  H   ASN d   1      -0.600 -62.294   0.621  0.00  0.00     0.051 H 
BRANCH  74  77
ATOM     77  CG  ASN d   1      -2.209 -63.055   1.773  0.00  0.00     0.217 C 
ATOM     78  OD1 ASN d   1      -2.939 -63.927   1.319  0.00  0.00    -0.274 OA
ATOM     79  ND2 ASN d   1      -1.827 -63.091   3.023  0.00  0.00    -0.370 N 
ATOM     80  H   ASN d   1      -2.192 -63.790   3.638  0.00  0.00     0.159 HD
ATOM     81  H   ASN d   1      -1.170 -62.419   3.365  0.00  0.00     0.159 HD
ENDBRANCH  74  77
ENDBRANCH  13  74
ENDBRANCH  10  13
ENDBRANCH   7   9
BRANCH   7  82
ATOM     82  CB  THR d   1      -6.402 -59.849  -2.554  0.00  0.00     0.060 C 
ATOM     83  H   THR d   1      -7.245 -59.145  -2.497  0.00  0.00     0.086 H 
BRANCH  82  84
ATOM     84  OG1 THR d   1      -6.896 -61.117  -2.948  0.00  0.00    -0.393 OA
ATOM     85  H   THR d   1      -7.279 -61.051  -3.815  0.00  0.00     0.210 HD
ENDBRANCH  82  84
BRANCH  82  86
ATOM     86  CG2 THR d   1      -5.444 -59.341  -3.610  0.00  0.00    -0.050 C 
ATOM     87  H   THR d   1      -5.959 -59.297  -4.581  0.00  0.00     0.031 H 
ATOM     88  H   THR d   1      -4.583 -60.022  -3.682  0.00  0.00     0.031 H 
ATOM     89  H   THR d   1      -5.094 -58.335  -3.334  0.00  0.00     0.031 H 
ENDBRANCH  82  86
ENDBRANCH   7  82
ENDBRANCH   4   7
ENDBRANCH   1   3
BRANCH   1  90
ATOM     90  C   ASN d   1      -6.696 -62.776   2.517  0.00  0.00     0.241 C 
ATOM     91  O   ASN d   1      -7.116 -63.646   3.281  0.00  0.00    -0.271 OA
ATOM     92  N   GLY d   1      -5.730 -61.920   2.836  0.00  0.00    -0.351 N 
ATOM     93  H   GLY d   1      -5.477 -61.229   2.158  0.00  0.00     0.163 HD
BRANCH  92  94
ATOM     94  CA  GLY d   1      -5.015 -61.919   4.104  0.00  0.00     0.069 C 
ATOM     95  H   GLY d   1      -4.238 -61.142   4.062  0.00  0.00     0.078 H 
ATOM     96  H   GLY d   1      -4.542 -62.904   4.235  0.00  0.00     0.078 H 
BRANCH  94  97
ATOM     97  C   GLY d   1      -5.891 -61.650   5.304  0.00  0.00     0.236 C 
ATOM     98  O   GLY d   1      -6.673 -60.692   5.321  0.00  0.00    -0.272 OA
ATOM     99  N   SER d   1      -5.711 -62.472   6.349  0.00  0.00    -0.344 N 
ATOM    100  H   SER d   1      -5.022 -63.190   6.251  0.00  0.00     0.163 HD
BRANCH  99 101
ATOM    101  CA  SER d   1      -6.441 -62.410   7.630  0.00  0.00     0.109 C 
ATOM    102  H   SER d   1      -7.513 -62.446   7.388  0.00  0.00     0.090 H 
BRANCH 101 103
ATOM    103  C   SER d   1      -6.213 -61.122   8.442  0.00  0.00     0.243 C 
ATOM    104  O   SER d   1      -6.852 -60.954   9.478  0.00  0.00    -0.271 OA
ATOM    105  N   TRP d   1      -5.296 -60.229   7.986  0.00  0.00    -0.346 N 
ATOM    106  H   TRP d   1      -4.809 -60.455   7.142  0.00  0.00     0.163 HD
BRANCH 105 107
ATOM    107  CA  TRP d   1      -4.967 -58.958   8.640  0.00  0.00     0.093 C 
ATOM    108  H   TRP d   1      -4.984 -59.147   9.723  0.00  0.00     0.088 H 
BRANCH 107 109
ATOM    109  C   TRP d   1      -6.022 -57.907   8.368  0.00  0.00     0.241 C 
ATOM    110  O   TRP d   1      -6.231 -57.028   9.220  0.00  0.00    -0.271 OA
ATOM    111  N   HIS d   1      -6.726 -58.021   7.209  0.00  0.00    -0.346 N 
ATOM    112  H   HIS d   1      -6.472 -58.760   6.585  0.00  0.00     0.163 HD
BRANCH 111 113
ATOM    113  CA  HIS d   1      -7.828 -57.144   6.807  0.00  0.00     0.094 C 
ATOM    114  H   HIS d   1      -7.433 -56.127   6.664  0.00  0.00     0.088 H 
BRANCH 113 115
ATOM    115  C   HIS d   1      -8.974 -57.097   7.865  0.00  0.00     0.241 C 
ATOM    116  O   HIS d   1      -9.090 -58.009   8.706  0.00  0.00    -0.271 OA
ATOM    117  N   VAL d   1      -9.841 -56.044   7.793  0.00  0.00    -0.344 N 
ATOM    118  H   VAL d   1      -9.682 -55.354   7.087  0.00  0.00     0.163 HD
BRANCH 117 119
ATOM    119  CA  VAL d   1     -10.984 -55.863   8.680  0.00  0.00     0.099 C 
ATOM    120  H   VAL d   1     -11.002 -56.711   9.380  0.00  0.00     0.090 H 
BRANCH 119 121
ATOM    121  C   VAL d   1     -12.285 -55.912   7.868  0.00  0.00     0.197 C 
ATOM    122  O   VAL d   1     -12.272 -55.670   6.665  0.00  0.00    -0.646 OA
ATOM    123  O1  VAL d   1     -13.370 -56.202   8.438  0.00  0.00    -0.646 OA
ENDBRANCH 119 121
BRANCH 119 124
ATOM    124  CB  VAL d   1     -10.843 -54.577   9.530  0.00  0.00    -0.032 C 
ATOM    125  H   VAL d   1     -10.675 -53.734   8.844  0.00  0.00     0.042 H 
BRANCH 124 126
ATOM    126  CG1 VAL d   1     -12.108 -54.289  10.337  0.00  0.00    -0.071 C 
ATOM    127  H   VAL d   1     -11.966 -53.370  10.925  0.00  0.00     0.028 H 
ATOM    128  H   VAL d   1     -12.310 -55.131  11.015  0.00  0.00     0.028 H 
ATOM    129  H   VAL d   1     -12.958 -54.158   9.652  0.00  0.00     0.028 H 
ENDBRANCH 124 126
BRANCH 124 130
ATOM    130  CG2 VAL d   1      -9.652 -54.676  10.463  0.00  0.00    -0.071 C 
ATOM    131  H   VAL d   1      -8.744 -54.883   9.878  0.00  0.00     0.028 H 
ATOM    132  H   VAL d   1      -9.818 -55.490  11.184  0.00  0.00     0.028 H 
ATOM    133  H   VAL d   1      -9.530 -53.726  11.004  0.00  0.00     0.028 H 
ENDBRANCH 124 130
ENDBRANCH 119 124
ENDBRANCH 117 119
ENDBRANCH 113 115
BRANCH 113 134
ATOM    134  CB  HIS d   1      -8.428 -57.648   5.495  0.00  0.00     0.002 C 
ATOM    135  H   HIS d   1      -9.369 -57.107   5.317  0.00  0.00     0.046 H 
ATOM    136  H   HIS d   1      -8.637 -58.722   5.603  0.00  0.00     0.046 H 
BRANCH 134 137
ATOM    137  CG  HIS d   1      -7.550 -57.461   4.305  0.00  0.00     0.030 A 
ATOM    138  ND1 HIS d   1      -6.738 -58.476   3.846  0.00  0.00    -0.353 N 
ATOM    139  CE1 HIS d   1      -6.153 -58.010   2.758  0.00  0.00     0.063 A 
ATOM    140  H   HIS d   1      -6.613 -59.408   4.266  0.00  0.00     0.166 HD
ATOM    141  NE2 HIS d   1      -6.534 -56.764   2.499  0.00  0.00    -0.254 NA
ATOM    142  H   HIS d   1      -5.448 -58.575   2.150  0.00  0.00     0.143 H 
ATOM    143  CD2 HIS d   1      -7.440 -56.406   3.473  0.00  0.00     0.025 A 
ATOM    144  H   HIS d   1      -7.965 -55.456   3.555  0.00  0.00     0.117 H 
ENDBRANCH 134 137
ENDBRANCH 113 134
ENDBRANCH 111 113
ENDBRANCH 107 109
BRANCH 107 145
ATOM    145  CB  TRP d   1      -3.540 -58.474   8.304  0.00  0.00    -0.012 C 
ATOM    146  H   TRP d   1      -2.850 -58.899   9.048  0.00  0.00     0.044 H 
ATOM    147  H   TRP d   1      -3.525 -57.376   8.375  0.00  0.00     0.044 H 
BRANCH 145 148
ATOM    148  CG  TRP d   1      -3.051 -58.861   6.939  0.00  0.00    -0.028 A 
ATOM    149  CD1 TRP d   1      -2.536 -60.067   6.567  0.00  0.00    -0.015 A 
ATOM    150  NE1 TRP d   1      -2.233 -60.060   5.224  0.00  0.00    -0.365 N 
ATOM    151  H   TRP d   1      -2.386 -60.914   7.235  0.00  0.00     0.112 H 
ATOM    152  CE2 TRP d   1      -2.574 -58.844   4.694  0.00  0.00     0.042 A 
ATOM    153  H   TRP d   1      -1.817 -60.844   4.702  0.00  0.00     0.165 HD
ATOM    154  CD2 TRP d   1      -3.082 -58.055   5.749  0.00  0.00    -0.002 A 
ATOM    155  CZ2 TRP d   1      -2.504 -58.383   3.374  0.00  0.00    -0.056 A 
ATOM    156  CE3 TRP d   1      -3.553 -56.771   5.458  0.00  0.00    -0.070 A 
ATOM    157  CZ3 TRP d   1      -3.454 -56.309   4.156  0.00  0.00    -0.082 A 
ATOM    158  H   TRP d   1      -3.986 -56.151   6.234  0.00  0.00     0.084 H 
ATOM    159  CH2 TRP d   1      -2.936 -57.109   3.130  0.00  0.00    -0.081 A 
ATOM    160  H   TRP d   1      -3.786 -55.303   3.925  0.00  0.00     0.083 H 
ATOM    161  H   TRP d   1      -2.876 -56.711   2.124  0.00  0.00     0.083 H 
ATOM    162  H   TRP d   1      -2.123 -59.011   2.577  0.00  0.00     0.086 H 
ENDBRANCH 145 148
ENDBRANCH 107 145
ENDBRANCH 105 107
ENDBRANCH 101 103
BRANCH 101 163
ATOM    163  CB  SER d   1      -6.114 -63.638   8.472  0.00  0.00     0.044 C 
ATOM    164  H   SER d   1      -6.787 -63.679   9.341  0.00  0.00     0.077 H 
ATOM    165  H   SER d   1      -5.071 -63.581   8.818  0.00  0.00     0.077 H 
BRANCH 163 166
ATOM    166  OG  SER d   1      -6.289 -64.803   7.680  0.00  0.00    -0.398 OA
ATOM    167  H   SER d   1      -6.086 -65.572   8.200  0.00  0.00     0.209 HD
ENDBRANCH 163 166
ENDBRANCH 101 163
ENDBRANCH  99 101
ENDBRANCH  94  97
ENDBRANCH  92  94
ENDBRANCH   1  90
BRANCH   1 168
ATOM    168  CB  ASN d   1      -7.621 -63.984   0.487  0.00  0.00     0.036 C 
ATOM    169  H   ASN d   1      -6.904 -64.722   0.877  0.00  0.00     0.051 H 
ATOM    170  H   ASN d   1      -7.508 -63.904  -0.604  0.00  0.00     0.051 H 
BRANCH 168 171
ATOM    171  CG  ASN d   1      -9.008 -64.454   0.792  0.00  0.00     0.217 C 
ATOM    172  OD1 ASN d   1      -9.205 -65.377   1.590  0.00  0.00    -0.274 OA
ATOM    173  ND2 ASN d   1      -9.997 -63.775   0.213  0.00  0.00    -0.370 N 
ATOM    174  H   ASN d   1     -10.947 -64.039   0.377  0.00  0.00     0.159 HD
ATOM    175  H   ASN d   1      -9.789 -63.001  -0.385  0.00  0.00     0.159 HD
ENDBRANCH 168 171
ENDBRANCH   1 168
TORSDOF 49
