REMARK  6 active torsions:
REMARK  status: ('A' for Active; 'I' for Inactive)
REMARK    1  A    between atoms: N25_29  and  C26_3 
REMARK    2  A    between atoms: N29_31  and  C31_4 
REMARK    3  A    between atoms: C21_26  and  C23_5 
REMARK       I    between atoms: C23_5  and  N25_29 
REMARK    4  A    between atoms: N08_15  and  C07_14 
REMARK       I    between atoms: C09_16  and  N08_15 
REMARK       I    between atoms: N11_18  and  C09_16 
REMARK    5  A    between atoms: C12_19  and  N11_18 
REMARK    6  A    between atoms: C17_22  and  N15_21 
ROOT
ATOM      1  C17 3NL d   1       3.796 100.653 138.960  0.00  0.00     0.059 A 
ATOM      2  C18 3NL d   1       3.092 100.152 137.847  0.00  0.00    -0.055 A 
ATOM      3  C19 3NL d   1       1.930 100.804 137.408  0.00  0.00    -0.080 A 
ATOM      4  C20 3NL d   1       1.519 102.002 137.998  0.00  0.00    -0.068 A 
ATOM      5  C21 3NL d   1       2.217 102.494 139.110  0.00  0.00     0.034 A 
ATOM      6  C22 3NL d   1       3.324 101.805 139.606  0.00  0.00    -0.040 A 
ATOM      7  H   3NL d   1       3.447  99.266 137.332  0.00  0.00     0.087 H 
ATOM      8  H   3NL d   1       1.345 100.374 136.603  0.00  0.00     0.083 H 
ATOM      9  H   3NL d   1       0.669 102.545 137.600  0.00  0.00     0.085 H 
ATOM     10  H   3NL d   1       3.824 102.163 140.499  0.00  0.00     0.088 H 
ENDROOT
BRANCH   5  11
ATOM     11  C23 3NL d   1       1.721 103.740 139.851  0.00  0.00     0.256 C 
ATOM     12  O24 3NL d   1       0.535 103.968 139.919  0.00  0.00    -0.267 OA
ATOM     13  N25 3NL d   1       2.688 104.544 140.446  0.00  0.00    -0.320 N 
ATOM     14  H   3NL d   1       3.645 104.275 140.340  0.00  0.00     0.169 HD
BRANCH  13  15
ATOM     15  C26 3NL d   1       2.408 105.742 141.207  0.00  0.00     0.071 A 
ATOM     16  C30 3NL d   1       3.252 106.838 141.297  0.00  0.00     0.026 A 
ATOM     17  N29 3NL d   1       2.700 107.719 142.176  0.00  0.00    -0.273 N 
ATOM     18  H   3NL d   1       4.190 106.971 140.760  0.00  0.00     0.117 H 
ATOM     19  N28 3NL d   1       1.531 107.195 142.628  0.00  0.00    -0.182 NA
ATOM     20  C27 3NL d   1       1.346 105.977 142.084  0.00  0.00     0.049 A 
ATOM     21  H   3NL d   1       0.519 105.299 142.290  0.00  0.00     0.121 H 
BRANCH  17  22
ATOM     22  C31 3NL d   1       3.245 109.039 142.532  0.00  0.00     0.058 C 
ATOM     23  C32 3NL d   1       2.381 110.232 142.080  0.00  0.00    -0.020 C 
ATOM     24  C33 3NL d   1       2.120 110.964 143.167  0.00  0.00     0.084 C 
ATOM     25  H   3NL d   1       1.442 109.871 141.635  0.00  0.00     0.038 H 
ATOM     26  H   3NL d   1       2.929 110.836 141.341  0.00  0.00     0.038 H 
ATOM     27  N34 3NL d   1       3.165 110.489 144.297  0.00  0.00    -0.073 N 
ATOM     28  H   3NL d   1       1.088 110.788 143.505  0.00  0.00     0.075 H 
ATOM     29  H   3NL d   1       2.257 112.033 142.948  0.00  0.00     0.075 H 
ATOM     30  C35 3NL d   1       3.348 109.207 144.079  0.00  0.00     0.102 C 
ATOM     31  H   3NL d   1       2.783 110.640 145.218  0.00  0.00     0.277 HD
ATOM     32  H   3NL d   1       4.035 110.990 144.208  0.00  0.00     0.277 HD
ATOM     33  H   3NL d   1       4.340 108.892 144.436  0.00  0.00     0.079 H 
ATOM     34  H   3NL d   1       2.571 108.615 144.584  0.00  0.00     0.079 H 
ATOM     35  H   3NL d   1       4.244 109.124 142.079  0.00  0.00     0.078 H 
ENDBRANCH  17  22
ENDBRANCH  13  15
ENDBRANCH   5  11
BRANCH   1  36
ATOM     36  N15 3NL d   1       4.838  99.967 139.501  0.00  0.00    -0.243 N 
ATOM     37  C16 3NL d   1       4.844  98.636 139.611  0.00  0.00     0.032 A 
ATOM     38  C12 3NL d   1       6.036  98.286 140.237  0.00  0.00     0.073 A 
ATOM     39  H   3NL d   1       4.064  97.954 139.275  0.00  0.00     0.118 H 
ATOM     40  C13 3NL d   1       6.666  99.452 140.577  0.00  0.00     0.049 A 
ATOM     41  N14 3NL d   1       5.901 100.464 140.137  0.00  0.00    -0.178 NA
ATOM     42  H   3NL d   1       7.613  99.543 141.107  0.00  0.00     0.121 H 
BRANCH  38  43
ATOM     43  N11 3NL d   1       6.448  96.981 140.644  0.00  0.00    -0.306 N 
ATOM     44  C09 3NL d   1       5.752  95.714 140.361  0.00  0.00     0.325 C 
ATOM     45  N08 3NL d   1       6.231  94.483 140.919  0.00  0.00    -0.307 N 
ATOM     46  O10 3NL d   1       4.773  95.680 139.600  0.00  0.00    -0.247 OA
ATOM     47  H   3NL d   1       5.892  93.622 140.541  0.00  0.00     0.170 HD
ATOM     48  H   3NL d   1       7.294  96.921 141.174  0.00  0.00     0.171 HD
BRANCH  45  49
ATOM     49  C07 3NL d   1       7.166  94.436 141.986  0.00  0.00     0.058 C 
ATOM     50  C02 3NL d   1       8.151  93.485 142.037  0.00  0.00     0.060 C 
ATOM     51 CL1  3NL d   1       8.350  92.432 140.622  0.00  0.00    -0.082 Cl
ATOM     52  C03 3NL d   1       9.014  93.369 143.126  0.00  0.00    -0.060 C 
ATOM     53  C04 3NL d   1       8.847  94.258 144.226  0.00  0.00    -0.081 C 
ATOM     54  H   3NL d   1       9.796  92.618 143.135  0.00  0.00     0.086 H 
ATOM     55  C05 3NL d   1       7.801  95.181 144.220  0.00  0.00    -0.081 C 
ATOM     56  H   3NL d   1       9.531  94.218 145.066  0.00  0.00     0.083 H 
ATOM     57  C06 3NL d   1       6.906  95.228 143.169  0.00  0.00    -0.055 C 
ATOM     58  H   3NL d   1       7.689  95.869 145.050  0.00  0.00     0.083 H 
ATOM     59  H   3NL d   1       6.020  95.850 143.230  0.00  0.00     0.087 H 
ENDBRANCH  45  49
ENDBRANCH  38  43
ENDBRANCH   1  36
TORSDOF 6
