REMARK  5 active torsions:
REMARK  status: ('A' for Active; 'I' for Inactive)
REMARK    1  A    between atoms: N14_18  and  C13_1 
REMARK       I    between atoms: C15_2  and  N14_18 
REMARK       I    between atoms: N17_20  and  C15_2 
REMARK    2  A    between atoms: N02_7  and  C01_6 
REMARK    3  A    between atoms: C04_9  and  C25_25 
REMARK    4  A    between atoms: C05_10  and  C06_11 
REMARK    5  A    between atoms: N17_20  and  C18_21 
ROOT
ATOM      1  C13 3O6 d   1      -3.749  25.632  27.119  0.00  0.00     0.141 A 
ATOM      2  N02 3O6 d   1      -3.365  26.808  26.649  0.00  0.00    -0.257 N 
ATOM      3  N03 3O6 d   1      -4.383  27.686  26.818  0.00  0.00    -0.166 NA
ATOM      4  C04 3O6 d   1      -5.398  27.057  27.384  0.00  0.00     0.175 A 
ATOM      5  C05 3O6 d   1      -5.047  25.725  27.587  0.00  0.00     0.055 A 
ENDROOT
BRANCH   1   6
ATOM      6  N14 3O6 d   1      -2.926  24.456  27.082  0.00  0.00    -0.292 N 
ATOM      7  C15 3O6 d   1      -1.756  24.444  27.901  0.00  0.00     0.326 C 
ATOM      8  O16 3O6 d   1      -1.484  25.364  28.601  0.00  0.00    -0.247 OA
ATOM      9  N17 3O6 d   1      -0.962  23.256  27.806  0.00  0.00    -0.309 N 
ATOM     10  H11 3O6 d   1      -1.276  22.530  27.194  0.00  0.00     0.170 HD
ATOM     11  H10 3O6 d   1      -3.163  23.675  26.505  0.00  0.00     0.172 HD
BRANCH   9  12
ATOM     12  C18 3O6 d   1       0.250  23.044  28.531  0.00  0.00     0.036 A 
ATOM     13  C24 3O6 d   1       1.235  22.313  27.901  0.00  0.00    -0.054 A 
ATOM     14  C23 3O6 d   1       2.419  22.075  28.570  0.00  0.00    -0.044 A 
ATOM     15  H2  3O6 d   1       1.082  21.932  26.898  0.00  0.00     0.087 H 
ATOM     16  C21 3O6 d   1       2.593  22.577  29.850  0.00  0.00     0.116 A 
ATOM     17  H13 3O6 d   1       3.207  21.500  28.098  0.00  0.00     0.088 H 
ATOM     18  C20 3O6 d   1       1.606  23.307  30.475  0.00  0.00    -0.044 A 
ATOM     19  F22 3O6 d   1       3.748  22.334  30.513  0.00  0.00    -0.206 F 
ATOM     20  C19 3O6 d   1       0.423  23.545  29.812  0.00  0.00    -0.054 A 
ATOM     21  H1  3O6 d   1       1.759  23.690  31.478  0.00  0.00     0.088 H 
ATOM     22  H12 3O6 d   1      -0.365  24.118  30.287  0.00  0.00     0.087 H 
ENDBRANCH   9  12
ENDBRANCH   1   6
BRANCH   2  23
ATOM     23  C01 3O6 d   1      -2.079  27.134  26.047  0.00  0.00     0.004 C 
ATOM     24  H3  3O6 d   1      -2.068  28.195  25.757  0.00  0.00     0.059 H 
ATOM     25  H4  3O6 d   1      -1.922  26.509  25.155  0.00  0.00     0.059 H 
ATOM     26  H5  3O6 d   1      -1.275  26.944  26.774  0.00  0.00     0.059 H 
ENDBRANCH   2  23
BRANCH   5  27
ATOM     27  C06 3O6 d   1      -5.796  24.710  28.173  0.00  0.00    -0.020 A 
ATOM     28  C07 3O6 d   1      -5.251  24.029  29.246  0.00  0.00    -0.069 A 
ATOM     29  C08 3O6 d   1      -5.956  23.018  29.867  0.00  0.00    -0.045 A 
ATOM     30  H6  3O6 d   1      -4.261  24.291  29.602  0.00  0.00     0.085 H 
ATOM     31  C09 3O6 d   1      -7.215  22.688  29.414  0.00  0.00     0.116 A 
ATOM     32  H7  3O6 d   1      -5.522  22.487  30.706  0.00  0.00     0.088 H 
ATOM     33  F10 3O6 d   1      -7.897  21.694  30.035  0.00  0.00    -0.206 F 
ATOM     34  C11 3O6 d   1      -7.773  23.363  28.341  0.00  0.00    -0.045 A 
ATOM     35  C12 3O6 d   1      -7.059  24.375  27.722  0.00  0.00    -0.069 A 
ATOM     36  H8  3O6 d   1      -8.764  23.100  27.988  0.00  0.00     0.088 H 
ATOM     37  H9  3O6 d   1      -7.492  24.906  26.882  0.00  0.00     0.085 H 
ENDBRANCH   5  27
BRANCH   4  38
ATOM     38  C25 3O6 d   1      -6.709  27.728  27.726  0.00  0.00     0.437 C 
ATOM     39  F26 3O6 d   1      -6.542  29.068  27.581  0.00  0.00    -0.164 F 
ATOM     40  F27 3O6 d   1      -7.045  27.429  29.013  0.00  0.00    -0.164 F 
ATOM     41  F28 3O6 d   1      -7.668  27.294  26.861  0.00  0.00    -0.164 F 
ENDBRANCH   4  38
TORSDOF 5
