REMARK WARNING: 32 MAX_TORS EXCEEDED!!!
REMARK  43 active torsions:
REMARK  status: ('A' for Active; 'I' for Inactive)
REMARK    1  A    between atoms: C_2  and  CA_3 
REMARK       I    between atoms: N_12  and  C_2 
REMARK    2  A    between atoms: CA_3  and  C1_4 
REMARK    3  A    between atoms: CA_3  and  N_5 
REMARK    4  A    between atoms: CA_3  and  CB_6 
REMARK    5  A    between atoms: CA_13  and  N_12 
REMARK    6  A    between atoms: CA_13  and  CB_14 
REMARK    7  A    between atoms: C_17  and  CA_13 
REMARK    8  A    between atoms: CB_14  and  CG_15 
REMARK    9  A    between atoms: CG_15  and  CD_16 
REMARK       I    between atoms: N_19  and  C_17 
REMARK   10  A    between atoms: CA_20  and  N_19 
REMARK   11  A    between atoms: C_21  and  CA_20 
REMARK   12  A    between atoms: CA_20  and  CB_23 
REMARK       I    between atoms: N_24  and  C_21 
REMARK   13  A    between atoms: CA_25  and  N_24 
REMARK   14  A    between atoms: C_26  and  CA_25 
REMARK       I    between atoms: N_28  and  C_26 
REMARK   15  A    between atoms: CA_29  and  N_28 
REMARK   16  A    between atoms: C_30  and  CA_29 
REMARK   17  A    between atoms: CA_29  and  CB_32 
REMARK       I    between atoms: N_36  and  C_30 
REMARK   18  A    between atoms: CB_32  and  CG1_33 
REMARK   19  A    between atoms: CB_32  and  CG2_34 
REMARK   20  A    between atoms: CG1_33  and  CD1_35 
REMARK   21  A    between atoms: CA_37  and  N_36 
REMARK   22  A    between atoms: C_38  and  CA_37 
REMARK       I    between atoms: N_40  and  C_38 
REMARK   23  A    between atoms: CA_41  and  N_40 
REMARK   24  A    between atoms: C_42  and  CA_41 
REMARK   25  A    between atoms: CA_41  and  CB_44 
REMARK       I    between atoms: N_48  and  C_42 
REMARK   26  A    between atoms: CB_44  and  CG1_45 
REMARK   27  A    between atoms: CB_44  and  CG2_46 
REMARK   28  A    between atoms: CG1_45  and  CD1_47 
REMARK   29  A    between atoms: CA_49  and  N_48 
REMARK   30  A    between atoms: C_50  and  CA_49 
REMARK   31  A    between atoms: CA_49  and  CB_52 
REMARK       I    between atoms: N_56  and  C_50 
REMARK   32  A    between atoms: CB_52  and  CG_53 
REMARK   33  A    between atoms: CG_53  and  CD1_54 
REMARK   34  A    between atoms: CG_53  and  CD2_55 
REMARK   35  A    between atoms: CA_57  and  N_56 
REMARK   36  A    between atoms: C_58  and  CA_57 
REMARK   37  A    between atoms: CA_57  and  CB_60 
REMARK       I    between atoms: N_67  and  C_58 
REMARK   38  A    between atoms: CB_60  and  OG1_61 
REMARK   39  A    between atoms: CB_60  and  CG2_62 
REMARK   40  A    between atoms: CB_65  and  CG_64 
REMARK   41  A    between atoms: CA_66  and  CB_65 
REMARK   42  A    between atoms: CA_66  and  N_67 
REMARK   43  A    between atoms: CA_66  and  C_68 
ROOT
ATOM      1  CD  LPH d   1      -3.986   0.226  27.358  0.00  0.00    -0.154 C 
ATOM      2  CG  LPH d   1      -5.171   0.693  27.407  0.00  0.00    -0.115 C 
ATOM      3  H   LPH d   1      -3.004  -0.161  27.317  0.00  0.00     0.166 H 
ENDROOT
BRANCH   2   4
ATOM      4  CB  LPH d   1      -6.523   1.250  27.477  0.00  0.00     0.018 C 
ATOM      5  H   LPH d   1      -6.428   2.346  27.457  0.00  0.00     0.055 H 
ATOM      6  H   LPH d   1      -6.957   0.937  28.438  0.00  0.00     0.055 H 
BRANCH   4   7
ATOM      7  CA  LPH d   1      -7.480   0.871  26.416  0.00  0.00     0.106 C 
ATOM      8  H   LPH d   1      -7.327  -0.218  26.383  0.00  0.00     0.091 H 
BRANCH   7   9
ATOM      9  N   LPH d   1      -7.150   1.188  25.079  0.00  0.00    -0.344 N 
ATOM     10  C   THR d   1      -7.707   0.624  23.987  0.00  0.00     0.243 C 
ATOM     11  O   THR d   1      -8.425  -0.371  24.028  0.00  0.00    -0.271 OA
ATOM     12  H   LPH d   1      -6.449   1.885  24.930  0.00  0.00     0.163 HD
BRANCH  10  13
ATOM     13  CA  THR d   1      -7.336   1.266  22.640  0.00  0.00     0.113 C 
ATOM     14  H   THR d   1      -6.349   1.743  22.735  0.00  0.00     0.091 H 
BRANCH  13  15
ATOM     15  N   THR d   1      -7.256   0.244  21.589  0.00  0.00    -0.344 N 
ATOM     16  C   LEU d   1      -6.430  -0.809  21.664  0.00  0.00     0.241 C 
ATOM     17  O   LEU d   1      -5.550  -0.917  22.532  0.00  0.00    -0.271 OA
ATOM     18  H   THR d   1      -7.842   0.337  20.784  0.00  0.00     0.163 HD
BRANCH  16  19
ATOM     19  CA  LEU d   1      -6.563  -1.877  20.562  0.00  0.00     0.089 C 
ATOM     20  H   LEU d   1      -6.869  -1.387  19.626  0.00  0.00     0.087 H 
BRANCH  19  21
ATOM     21  N   LEU d   1      -5.272  -2.551  20.367  0.00  0.00    -0.346 N 
ATOM     22  C   ILE d   1      -4.596  -2.531  19.229  0.00  0.00     0.241 C 
ATOM     23  O   ILE d   1      -4.887  -1.789  18.278  0.00  0.00    -0.271 OA
ATOM     24  H   LEU d   1      -4.882  -3.054  21.138  0.00  0.00     0.163 HD
BRANCH  22  25
ATOM     25  CA  ILE d   1      -3.422  -3.484  19.168  0.00  0.00     0.092 C 
ATOM     26  H   ILE d   1      -3.088  -3.681  20.197  0.00  0.00     0.088 H 
BRANCH  25  27
ATOM     27  N   ILE d   1      -3.854  -4.780  18.576  0.00  0.00    -0.346 N 
ATOM     28  C   GLY d   1      -4.015  -5.885  19.291  0.00  0.00     0.236 C 
ATOM     29  O   GLY d   1      -3.913  -5.910  20.513  0.00  0.00    -0.272 OA
ATOM     30  H   ILE d   1      -4.031  -4.819  17.593  0.00  0.00     0.163 HD
BRANCH  28  31
ATOM     31  CA  GLY d   1      -4.391  -7.171  18.589  0.00  0.00     0.069 C 
ATOM     32  H   GLY d   1      -3.602  -7.909  18.799  0.00  0.00     0.078 H 
ATOM     33  H   GLY d   1      -5.342  -7.519  19.017  0.00  0.00     0.078 H 
BRANCH  31  34
ATOM     34  N   GLY d   1      -4.556  -7.101  17.151  0.00  0.00    -0.351 N 
ATOM     35  C   ILE d   1      -3.505  -7.227  16.348  0.00  0.00     0.241 C 
ATOM     36  O   ILE d   1      -2.320  -7.291  16.727  0.00  0.00    -0.271 OA
ATOM     37  H   GLY d   1      -5.465  -6.957  16.761  0.00  0.00     0.163 HD
BRANCH  35  38
ATOM     38  CA  ILE d   1      -3.792  -7.237  14.870  0.00  0.00     0.092 C 
ATOM     39  H   ILE d   1      -4.593  -6.519  14.639  0.00  0.00     0.088 H 
BRANCH  38  40
ATOM     40  N   ILE d   1      -2.571  -6.828  14.178  0.00  0.00    -0.346 N 
ATOM     41  C   GLY d   1      -2.535  -6.080  13.076  0.00  0.00     0.236 C 
ATOM     42  O   GLY d   1      -3.558  -5.669  12.488  0.00  0.00    -0.272 OA
ATOM     43  H   ILE d   1      -1.698  -7.132  14.560  0.00  0.00     0.163 HD
BRANCH  41  44
ATOM     44  CA  GLY d   1      -1.169  -5.764  12.515  0.00  0.00     0.069 C 
ATOM     45  H   GLY d   1      -1.118  -6.151  11.486  0.00  0.00     0.078 H 
ATOM     46  H   GLY d   1      -1.043  -4.671  12.503  0.00  0.00     0.078 H 
BRANCH  44  47
ATOM     47  N   GLY d   1      -0.071  -6.347  13.282  0.00  0.00    -0.351 N 
ATOM     48  C   ALA d   1       0.705  -5.576  14.030  0.00  0.00     0.240 C 
ATOM     49  O   ALA d   1       0.613  -4.336  14.062  0.00  0.00    -0.271 OA
ATOM     50  H   GLY d   1       0.096  -7.332  13.242  0.00  0.00     0.163 HD
BRANCH  48  51
ATOM     51  CA  ALA d   1       1.791  -6.322  14.836  0.00  0.00     0.086 C 
ATOM     52  H   ALA d   1       1.961  -7.313  14.391  0.00  0.00     0.086 H 
BRANCH  51  53
ATOM     53  N   ALA d   1       3.032  -5.547  14.780  0.00  0.00    -0.346 N 
ATOM     54  C   NVA d   1       3.637  -5.381  13.588  0.00  0.00     0.241 C 
ATOM     55  O   NVA d   1       3.212  -6.029  12.648  0.00  0.00    -0.271 OA
ATOM     56  H   ALA d   1       3.423  -5.149  15.610  0.00  0.00     0.163 HD
BRANCH  54  57
ATOM     57  CA  NVA d   1       4.768  -4.411  13.274  0.00  0.00     0.089 C 
ATOM     58  H   NVA d   1       4.463  -3.808  12.406  0.00  0.00     0.087 H 
BRANCH  57  59
ATOM     59  N   NVA d   1       5.838  -5.322  12.824  0.00  0.00    -0.345 N 
ATOM     60  C   GRN d   1       6.370  -6.524  12.872  0.00  0.00     0.259 C 
ATOM     61  O   GRN d   1       5.963  -7.295  13.774  0.00  0.00    -0.270 OA
ATOM     62  H   NVA d   1       6.417  -4.787  12.208  0.00  0.00     0.163 HD
BRANCH  60  63
ATOM     63  CA  GRN d   1       7.348  -6.999  11.790  0.00  0.00     0.226 C 
BRANCH  63  64
ATOM     64  C1  GRN d   1       7.958  -8.320  12.299  0.00  0.00    -0.033 C 
ATOM     65  H   GRN d   1       8.671  -8.705  11.555  0.00  0.00     0.032 H 
ATOM     66  H   GRN d   1       7.157  -9.057  12.455  0.00  0.00     0.032 H 
ATOM     67  H   GRN d   1       8.481  -8.140  13.250  0.00  0.00     0.032 H 
ENDBRANCH  63  64
BRANCH  63  68
ATOM     68  N   GRN d   1       8.358  -5.968  11.483  0.00  0.00    -0.058 N 
ATOM     69  H   GRN d   1       7.897  -5.133  11.157  0.00  0.00     0.276 HD
ATOM     70  H   GRN d   1       8.980  -6.310  10.768  0.00  0.00     0.276 HD
ATOM     71  H   GRN d   1       8.886  -5.757  12.315  0.00  0.00     0.276 HD
ENDBRANCH  63  68
BRANCH  63  72
ATOM     72  CB  GRN d   1       6.491  -7.370  10.547  0.00  0.00    -0.014 A 
ATOM     73  CG2 GRN d   1       6.872  -6.979   9.224  0.00  0.00    -0.074 A 
ATOM     74  CD2 GRN d   1       6.018  -7.395   8.180  0.00  0.00    -0.082 A 
ATOM     75  H   GRN d   1       7.766  -6.396   9.034  0.00  0.00     0.084 H 
ATOM     76  CE  GRN d   1       4.911  -8.173   8.416  0.00  0.00    -0.083 A 
ATOM     77  H   GRN d   1       6.242  -7.092   7.164  0.00  0.00     0.083 H 
ATOM     78  CD1 GRN d   1       4.539  -8.588   9.697  0.00  0.00    -0.082 A 
ATOM     79  H   GRN d   1       4.301  -8.478   7.574  0.00  0.00     0.083 H 
ATOM     80  CG1 GRN d   1       5.337  -8.168  10.771  0.00  0.00    -0.074 A 
ATOM     81  H   GRN d   1       3.666  -9.211   9.855  0.00  0.00     0.083 H 
ATOM     82  H   GRN d   1       5.071  -8.455  11.782  0.00  0.00     0.084 H 
ENDBRANCH  63  72
ENDBRANCH  60  63
ENDBRANCH  57  59
BRANCH  57  83
ATOM     83  CB  NVA d   1       5.098  -3.401  14.347  0.00  0.00    -0.038 C 
ATOM     84  H   NVA d   1       5.857  -3.820  15.024  0.00  0.00     0.036 H 
ATOM     85  H   NVA d   1       4.189  -3.163  14.918  0.00  0.00     0.036 H 
BRANCH  83  86
ATOM     86  CG  NVA d   1       5.639  -2.132  13.703  0.00  0.00    -0.066 C 
ATOM     87  H   NVA d   1       5.524  -2.206  12.612  0.00  0.00     0.032 H 
ATOM     88  H   NVA d   1       6.705  -2.029  13.953  0.00  0.00     0.032 H 
BRANCH  86  89
ATOM     89  CD  NVA d   1       4.900  -0.918  14.194  0.00  0.00    -0.076 C 
ATOM     90  H   NVA d   1       5.312  -0.019  13.713  0.00  0.00     0.027 H 
ATOM     91  H   NVA d   1       5.015  -0.835  15.285  0.00  0.00     0.027 H 
ATOM     92  H   NVA d   1       3.833  -1.012  13.944  0.00  0.00     0.027 H 
ENDBRANCH  86  89
ENDBRANCH  83  86
ENDBRANCH  57  83
ENDBRANCH  54  57
ENDBRANCH  51  53
BRANCH  51  93
ATOM     93  CB  ALA d   1       1.329  -6.498  16.291  0.00  0.00    -0.049 C 
ATOM     94  H   ALA d   1       0.397  -7.082  16.312  0.00  0.00     0.030 H 
ATOM     95  H   ALA d   1       1.153  -5.510  16.742  0.00  0.00     0.030 H 
ATOM     96  H   ALA d   1       2.106  -7.028  16.861  0.00  0.00     0.030 H 
ENDBRANCH  51  93
ENDBRANCH  48  51
ENDBRANCH  44  47
ENDBRANCH  41  44
ENDBRANCH  38  40
BRANCH  38  97
ATOM     97  CB  ILE d   1      -4.262  -8.659  14.472  0.00  0.00    -0.030 C 
ATOM     98  H   ILE d   1      -5.191  -8.886  15.017  0.00  0.00     0.043 H 
BRANCH  97  99
ATOM     99  CG1 ILE d   1      -3.219  -9.728  14.839  0.00  0.00    -0.063 C 
ATOM    100  H   ILE d   1      -2.982  -9.621  15.908  0.00  0.00     0.033 H 
ATOM    101  H   ILE d   1      -2.314  -9.541  14.242  0.00  0.00     0.033 H 
BRANCH  99 102
ATOM    102  CD1 ILE d   1      -3.655 -11.161  14.595  0.00  0.00    -0.076 C 
ATOM    103  H   ILE d   1      -2.845 -11.845  14.887  0.00  0.00     0.027 H 
ATOM    104  H   ILE d   1      -3.884 -11.298  13.528  0.00  0.00     0.027 H 
ATOM    105  H   ILE d   1      -4.552 -11.378  15.193  0.00  0.00     0.027 H 
ENDBRANCH  99 102
ENDBRANCH  97  99
BRANCH  97 106
ATOM    106  CG2 ILE d   1      -4.554  -8.677  12.982  0.00  0.00    -0.071 C 
ATOM    107  H   ILE d   1      -5.301  -7.905  12.745  0.00  0.00     0.028 H 
ATOM    108  H   ILE d   1      -4.945  -9.665  12.697  0.00  0.00     0.028 H 
ATOM    109  H   ILE d   1      -3.628  -8.474  12.424  0.00  0.00     0.028 H 
ENDBRANCH  97 106
ENDBRANCH  38  97
ENDBRANCH  35  38
ENDBRANCH  31  34
ENDBRANCH  28  31
ENDBRANCH  25  27
BRANCH  25 110
ATOM    110  CB  ILE d   1      -2.232  -2.845  18.405  0.00  0.00    -0.030 C 
ATOM    111  H   ILE d   1      -2.586  -2.518  17.416  0.00  0.00     0.043 H 
BRANCH 110 112
ATOM    112  CG1 ILE d   1      -1.122  -3.866  18.221  0.00  0.00    -0.063 C 
ATOM    113  H   ILE d   1      -0.306  -3.386  17.661  0.00  0.00     0.033 H 
ATOM    114  H   ILE d   1      -1.524  -4.705  17.635  0.00  0.00     0.033 H 
BRANCH 112 115
ATOM    115  CD1 ILE d   1      -0.544  -4.425  19.509  0.00  0.00    -0.076 C 
ATOM    116  H   ILE d   1       0.247  -5.151  19.271  0.00  0.00     0.027 H 
ATOM    117  H   ILE d   1      -1.339  -4.925  20.081  0.00  0.00     0.027 H 
ATOM    118  H   ILE d   1      -0.121  -3.605  20.108  0.00  0.00     0.027 H 
ENDBRANCH 112 115
ENDBRANCH 110 112
BRANCH 110 119
ATOM    119  CG2 ILE d   1      -1.673  -1.630  19.153  0.00  0.00    -0.071 C 
ATOM    120  H   ILE d   1      -2.471  -0.885  19.291  0.00  0.00     0.028 H 
ATOM    121  H   ILE d   1      -0.853  -1.186  18.570  0.00  0.00     0.028 H 
ATOM    122  H   ILE d   1      -1.294  -1.947  20.136  0.00  0.00     0.028 H 
ENDBRANCH 110 119
ENDBRANCH  25 110
ENDBRANCH  22  25
ENDBRANCH  19  21
BRANCH  19 123
ATOM    123  CB  LEU d   1      -7.597  -2.940  20.937  0.00  0.00    -0.035 C 
ATOM    124  H   LEU d   1      -7.475  -3.124  22.015  0.00  0.00     0.037 H 
ATOM    125  H   LEU d   1      -7.326  -3.847  20.377  0.00  0.00     0.037 H 
BRANCH 123 126
ATOM    126  CG  LEU d   1      -9.093  -2.722  20.705  0.00  0.00    -0.059 C 
ATOM    127  H   LEU d   1      -9.364  -1.728  21.090  0.00  0.00     0.038 H 
BRANCH 126 128
ATOM    128  CD1 LEU d   1      -9.436  -2.766  19.229  0.00  0.00    -0.073 C 
ATOM    129  H   LEU d   1     -10.517  -2.606  19.099  0.00  0.00     0.028 H 
ATOM    130  H   LEU d   1      -9.158  -3.748  18.817  0.00  0.00     0.028 H 
ATOM    131  H   LEU d   1      -8.882  -1.976  18.700  0.00  0.00     0.028 H 
ENDBRANCH 126 128
BRANCH 126 132
ATOM    132  CD2 LEU d   1      -9.880  -3.773  21.477  0.00  0.00    -0.073 C 
ATOM    133  H   LEU d   1      -9.614  -3.721  22.543  0.00  0.00     0.028 H 
ATOM    134  H   LEU d   1      -9.637  -4.772  21.087  0.00  0.00     0.028 H 
ATOM    135  H   LEU d   1     -10.957  -3.585  21.358  0.00  0.00     0.028 H 
ENDBRANCH 126 132
ENDBRANCH 123 126
ENDBRANCH  19 123
ENDBRANCH  16  19
ENDBRANCH  13  15
BRANCH  13 136
ATOM    136  CB  THR d   1      -8.374   2.349  22.291  0.00  0.00     0.060 C 
ATOM    137  H   THR d   1      -8.575   2.951  23.189  0.00  0.00     0.086 H 
BRANCH 136 138
ATOM    138  OG1 THR d   1      -9.572   1.703  21.875  0.00  0.00    -0.393 OA
ATOM    139  H   THR d   1      -9.392   1.166  21.112  0.00  0.00     0.210 HD
ENDBRANCH 136 138
BRANCH 136 140
ATOM    140  CG2 THR d   1      -7.881   3.296  21.154  0.00  0.00    -0.050 C 
ATOM    141  H   THR d   1      -8.655   4.049  20.942  0.00  0.00     0.031 H 
ATOM    142  H   THR d   1      -7.684   2.707  20.246  0.00  0.00     0.031 H 
ATOM    143  H   THR d   1      -6.956   3.800  21.472  0.00  0.00     0.031 H 
ENDBRANCH 136 140
ENDBRANCH  13 136
ENDBRANCH  10  13
ENDBRANCH   7   9
BRANCH   7 144
ATOM    144  C   LPH d   1      -8.888   0.926  26.864  0.00  0.00     0.197 C 
ATOM    145  OXT LPH d   1      -9.342   0.400  27.884  0.00  0.00    -0.646 OA
ATOM    146  O   LPH d   1      -9.637   1.728  26.166  0.00  0.00    -0.646 OA
ENDBRANCH   7 144
ENDBRANCH   4   7
ENDBRANCH   2   4
TORSDOF 43
