REMARK WARNING: 32 MAX_TORS EXCEEDED!!!
REMARK  48 active torsions:
REMARK  status: ('A' for Active; 'I' for Inactive)
REMARK    1  A    between atoms: N_1  and  CA_2 
REMARK    2  A    between atoms: CA_2  and  C_3 
REMARK    3  A    between atoms: CA_2  and  CB_5 
REMARK       I    between atoms: C_3  and  N_8 
REMARK    4  A    between atoms: CB_5  and  CG1_6 
REMARK    5  A    between atoms: CB_5  and  CG2_7 
REMARK    6  A    between atoms: N_8  and  CA_9 
REMARK    7  A    between atoms: CA_9  and  C_10 
REMARK    8  A    between atoms: CA_9  and  CB_12 
REMARK       I    between atoms: C_10  and  N_16 
REMARK    9  A    between atoms: CB_12  and  CG_13 
REMARK   10  A    between atoms: N_16  and  CA_17 
REMARK   11  A    between atoms: CA_17  and  C_18 
REMARK   12  A    between atoms: CA_17  and  CB_20 
REMARK       I    between atoms: C_18  and  N_25 
REMARK   13  A    between atoms: CB_20  and  CG_21 
REMARK   14  A    between atoms: CG_21  and  CD_22 
REMARK   15  A    between atoms: CD_22  and  CE_23 
REMARK   16  A    between atoms: CE_23  and  NZ_24 
REMARK   17  A    between atoms: N_25  and  CA_26 
REMARK   18  A    between atoms: CA_26  and  C_27 
REMARK   19  A    between atoms: CA_26  and  CB_29 
REMARK       I    between atoms: C_27  and  N_32 
REMARK   20  A    between atoms: CB_29  and  CG1_30 
REMARK   21  A    between atoms: CB_29  and  CG2_31 
REMARK   22  A    between atoms: N_32  and  CA_33 
REMARK   23  A    between atoms: CA_33  and  C_34 
REMARK   24  A    between atoms: CA_33  and  CB_36 
REMARK       I    between atoms: C_34  and  N_39 
REMARK   25  A    between atoms: CB_36  and  CG1_37 
REMARK   26  A    between atoms: CB_36  and  CG2_38 
REMARK   27  A    between atoms: N_39  and  CA_40 
REMARK   28  A    between atoms: CA_40  and  C_41 
REMARK   29  A    between atoms: CA_40  and  CB_43 
REMARK       I    between atoms: C_41  and  N_47 
REMARK   30  A    between atoms: CB_43  and  CG1_44 
REMARK   31  A    between atoms: CB_43  and  CG2_45 
REMARK   32  A    between atoms: CG1_44  and  CD1_46 
REMARK   33  A    between atoms: N_47  and  CA_48 
REMARK   34  A    between atoms: CA_48  and  C_49 
REMARK   35  A    between atoms: CA_48  and  CB_51 
REMARK       I    between atoms: C_49  and  N_55 
REMARK   36  A    between atoms: CB_51  and  CG_52 
REMARK       I    between atoms: CG_52  and  ND2_54 
REMARK   37  A    between atoms: CA_56  and  C_57 
REMARK       I    between atoms: C_57  and  N_62 
REMARK   38  A    between atoms: N_62  and  CA_63 
REMARK   39  A    between atoms: CA_63  and  C_64 
REMARK   40  A    between atoms: CA_63  and  CB_66 
REMARK       I    between atoms: C_64  and  N_74 
REMARK   41  A    between atoms: CB_66  and  CG_67 
REMARK   42  A    between atoms: CZ_72  and  OH_73 
REMARK   43  A    between atoms: N_74  and  CA_75 
REMARK   44  A    between atoms: CA_75  and  C_76 
REMARK   45  A    between atoms: CA_75  and  CB_78 
REMARK       I    between atoms: C_76  and  N_85 
REMARK   46  A    between atoms: CB_78  and  CG_79 
REMARK   47  A    between atoms: N_85  and  CA_86 
REMARK   48  A    between atoms: CA_86  and  C_87 
ROOT
ATOM      1  CA  ILE d   1      29.458  54.135 185.917  0.00  0.00     0.092 C 
ATOM      2  H   ILE d   1      30.093  55.025 186.036  0.00  0.00     0.088 H 
ENDROOT
BRANCH   1   3
ATOM      3  N   ILE d   1      28.096  54.575 185.671  0.00  0.00    -0.346 N 
ATOM      4  C   VAL d   1      27.829  55.767 185.153  0.00  0.00     0.241 C 
ATOM      5  O   VAL d   1      28.700  56.563 184.803  0.00  0.00    -0.271 OA
ATOM      6  H   ILE d   1      27.339  53.963 185.898  0.00  0.00     0.163 HD
BRANCH   4   7
ATOM      7  CA  VAL d   1      26.358  56.110 185.008  0.00  0.00     0.092 C 
ATOM      8  H   VAL d   1      25.755  55.298 185.440  0.00  0.00     0.088 H 
BRANCH   7   9
ATOM      9  N   VAL d   1      26.079  57.335 185.742  0.00  0.00    -0.346 N 
ATOM     10  C   VAL d   1      25.152  57.383 186.693  0.00  0.00     0.241 C 
ATOM     11  O   VAL d   1      24.401  56.439 186.946  0.00  0.00    -0.271 OA
ATOM     12  H   VAL d   1      26.598  58.162 185.525  0.00  0.00     0.163 HD
BRANCH  10  13
ATOM     13  CA  VAL d   1      25.051  58.698 187.464  0.00  0.00     0.092 C 
ATOM     14  H   VAL d   1      25.584  59.472 186.892  0.00  0.00     0.088 H 
BRANCH  13  15
ATOM     15  N   VAL d   1      23.656  59.112 187.582  0.00  0.00    -0.346 N 
ATOM     16  C   LYS d   1      23.298  60.383 187.430  0.00  0.00     0.241 C 
ATOM     17  O   LYS d   1      24.110  61.289 187.231  0.00  0.00    -0.271 OA
ATOM     18  H   VAL d   1      22.956  58.426 187.781  0.00  0.00     0.163 HD
BRANCH  16  19
ATOM     19  CA  LYS d   1      21.807  60.688 187.514  0.00  0.00     0.089 C 
ATOM     20  H   LYS d   1      21.306  59.836 187.997  0.00  0.00     0.087 H 
BRANCH  19  21
ATOM     21  N   LYS d   1      21.558  61.879 188.312  0.00  0.00    -0.346 N 
ATOM     22  C   ASP d   1      20.396  62.053 188.933  0.00  0.00     0.241 C 
ATOM     23  O   ASP d   1      19.475  61.237 188.871  0.00  0.00    -0.271 OA
ATOM     24  H   LYS d   1      22.271  62.576 188.394  0.00  0.00     0.163 HD
BRANCH  22  25
ATOM     25  CA  ASP d   1      20.252  63.330 189.750  0.00  0.00     0.098 C 
ATOM     26  H   ASP d   1      19.409  63.198 190.444  0.00  0.00     0.088 H 
BRANCH  25  27
ATOM     27  N   ASP d   1      21.444  63.608 190.546  0.00  0.00    -0.345 N 
ATOM     28  C   VAL d   1      21.775  62.844 191.584  0.00  0.00     0.249 C 
ATOM     29  O   VAL d   1      21.121  61.852 191.917  0.00  0.00    -0.271 OA
ATOM     30  H   ASP d   1      22.023  64.388 190.306  0.00  0.00     0.163 HD
BRANCH  28  31
ATOM     31  CA  VAL d   1      23.000  63.283 192.392  0.00  0.00     0.178 C 
ATOM     32  H   VAL d   1      23.111  64.370 192.262  0.00  0.00     0.099 H 
BRANCH  31  33
ATOM     33  N   VAL d   1      22.796  63.030 193.817  0.00  0.00    -0.066 N 
ATOM     34  H   VAL d   1      21.944  63.475 194.119  0.00  0.00     0.275 HD
ATOM     35  H   VAL d   1      23.573  63.404 194.339  0.00  0.00     0.275 HD
ATOM     36  H   VAL d   1      22.731  62.037 193.976  0.00  0.00     0.275 HD
ENDBRANCH  31  33
BRANCH  31  37
ATOM     37  CB  VAL d   1      24.305  62.619 191.864  0.00  0.00    -0.025 C 
ATOM     38  H   VAL d   1      24.969  62.440 192.723  0.00  0.00     0.042 H 
BRANCH  37  39
ATOM     39  CG1 VAL d   1      24.022  61.280 191.199  0.00  0.00    -0.071 C 
ATOM     40  H   VAL d   1      24.965  60.843 190.840  0.00  0.00     0.028 H 
ATOM     41  H   VAL d   1      23.340  61.430 190.349  0.00  0.00     0.028 H 
ATOM     42  H   VAL d   1      23.556  60.600 191.928  0.00  0.00     0.028 H 
ENDBRANCH  37  39
BRANCH  37  43
ATOM     43  CG2 VAL d   1      25.017  63.550 190.895  0.00  0.00    -0.071 C 
ATOM     44  H   VAL d   1      25.215  64.513 191.389  0.00  0.00     0.028 H 
ATOM     45  H   VAL d   1      24.382  63.715 190.012  0.00  0.00     0.028 H 
ATOM     46  H   VAL d   1      25.969  63.096 190.583  0.00  0.00     0.028 H 
ENDBRANCH  37  43
ENDBRANCH  31  37
ENDBRANCH  28  31
ENDBRANCH  25  27
BRANCH  25  47
ATOM     47  CB  ASP d   1      19.926  64.499 188.818  0.00  0.00     0.043 C 
ATOM     48  H   ASP d   1      19.104  64.198 188.152  0.00  0.00     0.052 H 
ATOM     49  H   ASP d   1      20.819  64.729 188.218  0.00  0.00     0.052 H 
BRANCH  47  50
ATOM     50  CG  ASP d   1      19.511  65.749 189.565  0.00  0.00     0.175 C 
ATOM     51  OD1 ASP d   1      20.394  66.574 189.881  0.00  0.00    -0.648 OA
ATOM     52  OD2 ASP d   1      18.302  65.906 189.836  0.00  0.00    -0.648 OA
ENDBRANCH  47  50
ENDBRANCH  25  47
ENDBRANCH  22  25
ENDBRANCH  19  21
BRANCH  19  53
ATOM     53  CB  LYS d   1      21.219  60.867 186.108  0.00  0.00    -0.038 C 
ATOM     54  H   LYS d   1      21.795  61.649 185.592  0.00  0.00     0.036 H 
ATOM     55  H   LYS d   1      20.173  61.191 186.212  0.00  0.00     0.036 H 
BRANCH  53  56
ATOM     56  CG  LYS d   1      21.245  59.613 185.249  0.00  0.00    -0.061 C 
ATOM     57  H   LYS d   1      20.823  58.776 185.825  0.00  0.00     0.033 H 
ATOM     58  H   LYS d   1      22.287  59.385 184.980  0.00  0.00     0.033 H 
BRANCH  56  59
ATOM     59  CD  LYS d   1      20.431  59.795 183.970  0.00  0.00    -0.043 C 
ATOM     60  H   LYS d   1      20.859  60.622 183.384  0.00  0.00     0.035 H 
ATOM     61  H   LYS d   1      19.391  60.034 184.235  0.00  0.00     0.035 H 
BRANCH  59  62
ATOM     62  CE  LYS d   1      20.453  58.525 183.131  0.00  0.00     0.080 C 
ATOM     63  H   LYS d   1      21.497  58.269 182.896  0.00  0.00     0.075 H 
ATOM     64  H   LYS d   1      19.899  58.703 182.197  0.00  0.00     0.075 H 
BRANCH  62  65
ATOM     65  NZ  LYS d   1      19.826  57.387 183.858  0.00  0.00    -0.079 N 
ATOM     66  H   LYS d   1      19.855  56.562 183.280  0.00  0.00     0.274 HD
ATOM     67  H   LYS d   1      18.867  57.613 184.073  0.00  0.00     0.274 HD
ATOM     68  H   LYS d   1      20.331  57.215 184.713  0.00  0.00     0.274 HD
ENDBRANCH  62  65
ENDBRANCH  59  62
ENDBRANCH  56  59
ENDBRANCH  53  56
ENDBRANCH  19  53
ENDBRANCH  16  19
ENDBRANCH  13  15
BRANCH  13  69
ATOM     69  CB  VAL d   1      25.744  58.570 188.851  0.00  0.00    -0.033 C 
ATOM     70  H   VAL d   1      25.766  59.567 189.315  0.00  0.00     0.042 H 
BRANCH  69  71
ATOM     71  CG1 VAL d   1      24.960  57.636 189.767  0.00  0.00    -0.071 C 
ATOM     72  H   VAL d   1      25.470  57.563 190.739  0.00  0.00     0.028 H 
ATOM     73  H   VAL d   1      24.900  56.638 189.308  0.00  0.00     0.028 H 
ATOM     74  H   VAL d   1      23.945  58.034 189.914  0.00  0.00     0.028 H 
ENDBRANCH  69  71
BRANCH  69  75
ATOM     75  CG2 VAL d   1      27.186  58.085 188.696  0.00  0.00    -0.071 C 
ATOM     76  H   VAL d   1      27.734  58.770 188.033  0.00  0.00     0.028 H 
ATOM     77  H   VAL d   1      27.188  57.075 188.261  0.00  0.00     0.028 H 
ATOM     78  H   VAL d   1      27.673  58.061 189.682  0.00  0.00     0.028 H 
ENDBRANCH  69  75
ENDBRANCH  13  69
ENDBRANCH  10  13
ENDBRANCH   7   9
BRANCH   7  79
ATOM     79  CB  VAL d   1      26.009  56.235 183.514  0.00  0.00    -0.033 C 
ATOM     80  H   VAL d   1      26.634  57.028 183.077  0.00  0.00     0.042 H 
BRANCH  79  81
ATOM     81  CG1 VAL d   1      26.311  54.932 182.788  0.00  0.00    -0.071 C 
ATOM     82  H   VAL d   1      26.056  55.038 181.723  0.00  0.00     0.028 H 
ATOM     83  H   VAL d   1      25.714  54.120 183.229  0.00  0.00     0.028 H 
ATOM     84  H   VAL d   1      27.381  54.696 182.887  0.00  0.00     0.028 H 
ENDBRANCH  79  81
BRANCH  79  85
ATOM     85  CG2 VAL d   1      24.549  56.625 183.338  0.00  0.00    -0.071 C 
ATOM     86  H   VAL d   1      24.355  57.568 183.870  0.00  0.00     0.028 H 
ATOM     87  H   VAL d   1      23.906  55.833 183.749  0.00  0.00     0.028 H 
ATOM     88  H   VAL d   1      24.331  56.756 182.268  0.00  0.00     0.028 H 
ENDBRANCH  79  85
ENDBRANCH   7  79
ENDBRANCH   4   7
ENDBRANCH   1   3
BRANCH   1  89
ATOM     89  C   ILE d   1      29.982  53.311 184.752  0.00  0.00     0.241 C 
ATOM     90  O   ILE d   1      29.260  52.487 184.192  0.00  0.00    -0.271 OA
ATOM     91  N   ASN d   1      31.232  53.554 184.376  0.00  0.00    -0.346 N 
ATOM     92  H   ASN d   1      31.717  54.339 184.761  0.00  0.00     0.163 HD
BRANCH  91  93
ATOM     93  CA  ASN d   1      31.908  52.701 183.416  0.00  0.00     0.097 C 
ATOM     94  H   ASN d   1      31.186  52.341 182.669  0.00  0.00     0.088 H 
BRANCH  93  95
ATOM     95  C   ASN d   1      32.475  51.522 184.189  0.00  0.00     0.243 C 
ATOM     96  O   ASN d   1      33.400  51.685 184.983  0.00  0.00    -0.271 OA
ATOM     97  N   PRO d   1      31.916  50.326 183.964  0.00  0.00    -0.337 N 
ATOM     98  CA  PRO d   1      32.355  49.139 184.699  0.00  0.00     0.091 C 
ATOM     99  CD  PRO d   1      30.815  50.024 183.031  0.00  0.00    -0.001 C 
ATOM    100  CB  PRO d   1      31.225  48.140 184.445  0.00  0.00    -0.036 C 
ATOM    101  H   PRO d   1      32.459  49.358 185.772  0.00  0.00     0.087 H 
ATOM    102  CG  PRO d   1      30.693  48.526 183.112  0.00  0.00    -0.048 C 
ATOM    103  H   PRO d   1      30.446  48.227 185.217  0.00  0.00     0.036 H 
ATOM    104  H   PRO d   1      31.611  47.110 184.428  0.00  0.00     0.036 H 
ATOM    105  H   PRO d   1      29.640  48.223 183.019  0.00  0.00     0.035 H 
ATOM    106  H   PRO d   1      31.282  48.051 182.314  0.00  0.00     0.035 H 
ATOM    107  H   PRO d   1      31.066  50.344 182.009  0.00  0.00     0.064 H 
ATOM    108  H   PRO d   1      29.883  50.513 183.350  0.00  0.00     0.064 H 
BRANCH  98 109
ATOM    109  C   PRO d   1      33.672  48.596 184.162  0.00  0.00     0.241 C 
ATOM    110  O   PRO d   1      34.240  47.675 184.748  0.00  0.00    -0.271 OA
ATOM    111  N   TYR d   1      34.150  49.162 183.059  0.00  0.00    -0.346 N 
ATOM    112  H   TYR d   1      33.659  49.930 182.648  0.00  0.00     0.163 HD
BRANCH 111 113
ATOM    113  CA  TYR d   1      35.377  48.683 182.439  0.00  0.00     0.093 C 
ATOM    114  H   TYR d   1      35.704  47.783 182.980  0.00  0.00     0.088 H 
BRANCH 113 115
ATOM    115  C   TYR d   1      36.497  49.715 182.516  0.00  0.00     0.241 C 
ATOM    116  O   TYR d   1      37.487  49.617 181.792  0.00  0.00    -0.271 OA
ATOM    117  N   PHE d   1      36.332  50.704 183.389  0.00  0.00    -0.346 N 
ATOM    118  H   PHE d   1      35.491  50.742 183.929  0.00  0.00     0.163 HD
BRANCH 117 119
ATOM    119  CA  PHE d   1      37.346  51.736 183.580  0.00  0.00     0.093 C 
ATOM    120  H   PHE d   1      37.522  52.228 182.612  0.00  0.00     0.088 H 
BRANCH 119 121
ATOM    121  C   PHE d   1      38.664  51.133 184.055  0.00  0.00     0.241 C 
ATOM    122  O   PHE d   1      38.696  50.374 185.023  0.00  0.00    -0.271 OA
ATOM    123  N   GLY d   1      39.748  51.481 183.371  0.00  0.00    -0.349 N 
ATOM    124  H   GLY d   1      39.659  52.124 182.610  0.00  0.00     0.163 HD
BRANCH 123 125
ATOM    125  CA  GLY d   1      41.058  50.952 183.700  0.00  0.00     0.075 C 
ATOM    126  H   GLY d   1      41.157  50.908 184.795  0.00  0.00     0.080 H 
ATOM    127  H   GLY d   1      41.825  51.626 183.289  0.00  0.00     0.080 H 
BRANCH 125 128
ATOM    128  C   GLY d   1      41.278  49.561 183.135  0.00  0.00     0.191 C 
ATOM    129  O   GLY d   1      40.871  49.264 182.011  0.00  0.00    -0.647 OA
ATOM    130  O1  GLY d   1      41.885  48.699 183.825  0.00  0.00    -0.647 OA
ENDBRANCH 125 128
ENDBRANCH 123 125
ENDBRANCH 119 121
BRANCH 119 131
ATOM    131  CB  PHE d   1      36.854  52.790 184.576  0.00  0.00    -0.014 C 
ATOM    132  H   PHE d   1      36.580  52.281 185.512  0.00  0.00     0.043 H 
ATOM    133  H   PHE d   1      35.965  53.279 184.151  0.00  0.00     0.043 H 
BRANCH 131 134
ATOM    134  CG  PHE d   1      37.871  53.850 184.894  0.00  0.00    -0.056 A 
ATOM    135  CD1 PHE d   1      38.235  54.788 183.942  0.00  0.00    -0.077 A 
ATOM    136  CE1 PHE d   1      39.168  55.767 184.234  0.00  0.00    -0.082 A 
ATOM    137  H   PHE d   1      37.784  54.755 182.957  0.00  0.00     0.084 H 
ATOM    138  CZ  PHE d   1      39.748  55.815 185.485  0.00  0.00    -0.083 A 
ATOM    139  H   PHE d   1      39.443  56.496 183.480  0.00  0.00     0.083 H 
ATOM    140  CE2 PHE d   1      39.393  54.887 186.444  0.00  0.00    -0.082 A 
ATOM    141  H   PHE d   1      40.481  56.580 185.715  0.00  0.00     0.083 H 
ATOM    142  CD2 PHE d   1      38.459  53.911 186.147  0.00  0.00    -0.077 A 
ATOM    143  H   PHE d   1      39.846  54.923 187.428  0.00  0.00     0.083 H 
ATOM    144  H   PHE d   1      38.184  53.185 186.904  0.00  0.00     0.084 H 
ENDBRANCH 131 134
ENDBRANCH 119 131
ENDBRANCH 117 119
ENDBRANCH 113 115
BRANCH 113 145
ATOM    145  CB  TYR d   1      35.115  48.303 180.983  0.00  0.00    -0.014 C 
ATOM    146  H   TYR d   1      36.037  47.876 180.562  0.00  0.00     0.043 H 
ATOM    147  H   TYR d   1      34.845  49.213 180.427  0.00  0.00     0.043 H 
BRANCH 145 148
ATOM    148  CG  TYR d   1      34.003  47.296 180.822  0.00  0.00    -0.056 A 
ATOM    149  CD1 TYR d   1      34.107  46.018 181.352  0.00  0.00    -0.074 A 
ATOM    150  CE1 TYR d   1      33.082  45.100 181.206  0.00  0.00    -0.051 A 
ATOM    151  H   TYR d   1      35.005  45.734 181.889  0.00  0.00     0.084 H 
ATOM    152  CZ  TYR d   1      31.938  45.461 180.524  0.00  0.00     0.065 A 
ATOM    153  H   TYR d   1      33.177  44.105 181.624  0.00  0.00     0.087 H 
ATOM    154  CE2 TYR d   1      31.812  46.725 179.992  0.00  0.00    -0.051 A 
ATOM    155  CD2 TYR d   1      32.839  47.632 180.144  0.00  0.00    -0.074 A 
ATOM    156  H   TYR d   1      30.912  47.005 179.457  0.00  0.00     0.087 H 
ATOM    157  H   TYR d   1      32.736  48.627 179.726  0.00  0.00     0.084 H 
BRANCH 152 158
ATOM    158  OH  TYR d   1      30.911  44.557 180.373  0.00  0.00    -0.361 OA
ATOM    159  H   TYR d   1      31.148  43.738 180.792  0.00  0.00     0.217 HD
ENDBRANCH 152 158
ENDBRANCH 145 148
ENDBRANCH 113 145
ENDBRANCH 111 113
ENDBRANCH  98 109
ENDBRANCH  93  95
BRANCH  93 160
ATOM    160  CB  ASN d   1      33.023  53.463 182.700  0.00  0.00     0.036 C 
ATOM    161  H   ASN d   1      33.815  53.693 183.428  0.00  0.00     0.051 H 
ATOM    162  H   ASN d   1      32.608  54.401 182.301  0.00  0.00     0.051 H 
BRANCH 160 163
ATOM    163  CG  ASN d   1      33.632  52.676 181.553  0.00  0.00     0.217 C 
ATOM    164  OD1 ASN d   1      33.384  51.480 181.399  0.00  0.00    -0.274 OA
ATOM    165  ND2 ASN d   1      34.442  53.347 180.743  0.00  0.00    -0.370 N 
ATOM    166  H   ASN d   1      34.873  52.882 179.970  0.00  0.00     0.159 HD
ATOM    167  H   ASN d   1      34.621  54.317 180.906  0.00  0.00     0.159 HD
ENDBRANCH 160 163
ENDBRANCH  93 160
ENDBRANCH  91  93
ENDBRANCH   1  89
BRANCH   1 168
ATOM    168  CB  ILE d   1      29.547  53.285 187.203  0.00  0.00    -0.030 C 
ATOM    169  H   ILE d   1      28.990  52.351 187.036  0.00  0.00     0.043 H 
BRANCH 168 170
ATOM    170  CG1 ILE d   1      28.908  54.020 188.382  0.00  0.00    -0.063 C 
ATOM    171  H   ILE d   1      28.905  53.346 189.251  0.00  0.00     0.033 H 
ATOM    172  H   ILE d   1      27.872  54.275 188.112  0.00  0.00     0.033 H 
BRANCH 170 173
ATOM    173  CD1 ILE d   1      29.627  55.290 188.766  0.00  0.00    -0.076 C 
ATOM    174  H   ILE d   1      29.112  55.760 189.617  0.00  0.00     0.027 H 
ATOM    175  H   ILE d   1      29.630  55.982 187.911  0.00  0.00     0.027 H 
ATOM    176  H   ILE d   1      30.663  55.053 189.050  0.00  0.00     0.027 H 
ENDBRANCH 170 173
ENDBRANCH 168 170
BRANCH 168 177
ATOM    177  CG2 ILE d   1      30.992  52.926 187.519  0.00  0.00    -0.071 C 
ATOM    178  H   ILE d   1      31.435  52.399 186.661  0.00  0.00     0.028 H 
ATOM    179  H   ILE d   1      31.023  52.275 188.405  0.00  0.00     0.028 H 
ATOM    180  H   ILE d   1      31.563  53.845 187.719  0.00  0.00     0.028 H 
ENDBRANCH 168 177
ENDBRANCH   1 168
TORSDOF 48
