REMARK  19 active torsions:
REMARK  status: ('A' for Active; 'I' for Inactive)
REMARK    1  A    between atoms: N_1  and  CA_2 
REMARK    2  A    between atoms: CA_2  and  C_3 
REMARK       I    between atoms: C_3  and  N_5 
REMARK    3  A    between atoms: N_5  and  CA_6 
REMARK    4  A    between atoms: CA_6  and  C_7 
REMARK    5  A    between atoms: CA_6  and  CB_9 
REMARK       I    between atoms: C_7  and  N_16 
REMARK    6  A    between atoms: CB_9  and  CG_10 
REMARK    7  A    between atoms: CG_10  and  CD_11 
REMARK    8  A    between atoms: CD_11  and  NE_12 
REMARK       I    between atoms: NE_12  and  CZ_13 
REMARK       I    between atoms: CZ_13  and  NH1_14 
REMARK    9  A    between atoms: N_16  and  CA_17 
REMARK   10  A    between atoms: CA_17  and  C_18 
REMARK       I    between atoms: C_18  and  N_20 
REMARK   11  A    between atoms: N_20  and  CA_21 
REMARK   12  A    between atoms: CA_21  and  C_22 
REMARK   13  A    between atoms: CA_21  and  CB_24 
REMARK       I    between atoms: C_22  and  N_28 
REMARK   14  A    between atoms: CB_24  and  CG_25 
REMARK   15  A    between atoms: N_28  and  CA_29 
REMARK   16  A    between atoms: CA_29  and  C_30 
REMARK   17  A    between atoms: CA_29  and  CB_32 
REMARK       I    between atoms: C_30  and  N_34 
REMARK   18  A    between atoms: CB_32  and  OG_33 
REMARK   19  A    between atoms: CA_35  and  C_36 
ROOT
ATOM      1  C   GLY d   1      21.017  12.329 -23.351  0.00  0.00     0.236 C 
ATOM      2  O   GLY d   1      22.131  12.393 -23.873  0.00  0.00    -0.272 OA
ATOM      3  N   ASP d   1      20.039  13.184 -23.630  0.00  0.00    -0.346 N 
ATOM      4  H   ASP d   1      19.149  13.068 -23.189  0.00  0.00     0.163 HD
ENDROOT
BRANCH   1   5
ATOM      5  CA  GLY d   1      20.703  11.246 -22.339  0.00  0.00     0.069 C 
ATOM      6  H   GLY d   1      20.004  11.643 -21.588  0.00  0.00     0.078 H 
ATOM      7  H   GLY d   1      20.240  10.391 -22.854  0.00  0.00     0.078 H 
BRANCH   5   8
ATOM      8  N   GLY d   1      21.916  10.806 -21.678  0.00  0.00    -0.351 N 
ATOM      9  C   ARG d   1      22.616  11.621 -20.895  0.00  0.00     0.240 C 
ATOM     10  O   ARG d   1      22.247  12.763 -20.615  0.00  0.00    -0.271 OA
ATOM     11  H   GLY d   1      22.233   9.868 -21.814  0.00  0.00     0.163 HD
BRANCH   9  12
ATOM     12  CA  ARG d   1      23.926  11.069 -20.344  0.00  0.00     0.089 C 
ATOM     13  H   ARG d   1      24.322  10.332 -21.058  0.00  0.00     0.087 H 
BRANCH  12  14
ATOM     14  N   ARG d   1      24.904  12.140 -20.192  0.00  0.00    -0.346 N 
ATOM     15  C   GLY d   1      25.927  12.293 -21.029  0.00  0.00     0.243 C 
ATOM     16  O   GLY d   1      26.123  11.558 -21.998  0.00  0.00    -0.272 OA
ATOM     17  H   ARG d   1      24.802  12.782 -19.432  0.00  0.00     0.163 HD
BRANCH  15  18
ATOM     18  CA  GLY d   1      26.867  13.445 -20.729  0.00  0.00     0.152 C 
ATOM     19  H   GLY d   1      27.543  13.584 -21.585  0.00  0.00     0.090 H 
ATOM     20  H   GLY d   1      26.273  14.358 -20.580  0.00  0.00     0.090 H 
BRANCH  18  21
ATOM     21  N   GLY d   1      27.662  13.204 -19.539  0.00  0.00    -0.071 N 
ATOM     22  H   GLY d   1      28.271  13.991 -19.377  0.00  0.00     0.274 HD
ATOM     23  H   GLY d   1      28.216  12.372 -19.668  0.00  0.00     0.274 HD
ATOM     24  H   GLY d   1      27.052  13.082 -18.746  0.00  0.00     0.274 HD
ENDBRANCH  18  21
ENDBRANCH  15  18
ENDBRANCH  12  14
BRANCH  12  25
ATOM     25  CB  ARG d   1      23.692  10.369 -19.005  0.00  0.00    -0.036 C 
ATOM     26  H   ARG d   1      23.116   9.450 -19.188  0.00  0.00     0.036 H 
ATOM     27  H   ARG d   1      23.112  11.042 -18.356  0.00  0.00     0.036 H 
BRANCH  25  28
ATOM     28  CG  ARG d   1      24.980   9.997 -18.286  0.00  0.00    -0.048 C 
ATOM     29  H   ARG d   1      25.483  10.920 -17.962  0.00  0.00     0.035 H 
ATOM     30  H   ARG d   1      25.630   9.451 -18.985  0.00  0.00     0.035 H 
BRANCH  28  31
ATOM     31  CD  ARG d   1      24.728   9.124 -17.069  0.00  0.00     0.009 C 
ATOM     32  H   ARG d   1      23.972   9.610 -16.435  0.00  0.00     0.064 H 
ATOM     33  H   ARG d   1      25.667   9.021 -16.506  0.00  0.00     0.064 H 
BRANCH  31  34
ATOM     34  NE  ARG d   1      24.251   7.794 -17.434  0.00  0.00    -0.227 N 
ATOM     35  CZ  ARG d   1      24.181   6.765 -16.595  0.00  0.00     0.665 C 
ATOM     36  NH1 ARG d   1      24.565   6.903 -15.332  0.00  0.00    -0.235 N 
ATOM     37  NH2 ARG d   1      23.732   5.593 -17.020  0.00  0.00    -0.235 N 
ATOM     38  H   ARG d   1      24.509   6.103 -14.686  0.00  0.00     0.174 HD
ATOM     39  H   ARG d   1      24.919   7.811 -14.998  0.00  0.00     0.174 HD
ATOM     40  H   ARG d   1      23.433   5.480 -17.999  0.00  0.00     0.174 HD
ATOM     41  H   ARG d   1      23.682   4.795 -16.371  0.00  0.00     0.174 HD
ATOM     42  H   ARG d   1      23.948   7.642 -18.407  0.00  0.00     0.177 HD
ENDBRANCH  31  34
ENDBRANCH  28  31
ENDBRANCH  25  28
ENDBRANCH  12  25
ENDBRANCH   9  12
ENDBRANCH   5   8
ENDBRANCH   1   5
BRANCH   3  43
ATOM     43  CA  ASP d   1      20.233  14.287 -24.563  0.00  0.00     0.098 C 
ATOM     44  H   ASP d   1      20.908  13.949 -25.363  0.00  0.00     0.088 H 
BRANCH  43  45
ATOM     45  C   ASP d   1      20.873  15.480 -23.863  0.00  0.00     0.241 C 
ATOM     46  O   ASP d   1      20.183  16.400 -23.423  0.00  0.00    -0.271 OA
ATOM     47  N   SER d   1      22.197  15.452 -23.760  0.00  0.00    -0.344 N 
ATOM     48  H   SER d   1      22.695  14.661 -24.115  0.00  0.00     0.163 HD
BRANCH  47  49
ATOM     49  CA  SER d   1      22.944  16.540 -23.145  0.00  0.00     0.109 C 
ATOM     50  H   SER d   1      22.419  17.485 -23.348  0.00  0.00     0.090 H 
BRANCH  49  51
ATOM     51  C   SER d   1      24.343  16.619 -23.747  0.00  0.00     0.245 C 
ATOM     52  O   SER d   1      24.844  15.628 -24.278  0.00  0.00    -0.271 OA
ATOM     53  N   PRO d   1      24.981  17.800 -23.670  0.00  0.00    -0.336 N 
ATOM     54  CA  PRO d   1      26.330  17.932 -24.230  0.00  0.00     0.098 C 
ATOM     55  CD  PRO d   1      24.495  19.073 -23.112  0.00  0.00    -0.001 C 
ATOM     56  CB  PRO d   1      26.644  19.425 -24.055  0.00  0.00    -0.035 C 
ATOM     57  H   PRO d   1      26.334  17.654 -25.294  0.00  0.00     0.089 H 
ATOM     58  CG  PRO d   1      25.327  20.084 -23.822  0.00  0.00    -0.048 C 
ATOM     59  H   PRO d   1      27.120  19.827 -24.962  0.00  0.00     0.036 H 
ATOM     60  H   PRO d   1      27.309  19.579 -23.193  0.00  0.00     0.036 H 
ATOM     61  H   PRO d   1      24.861  20.361 -24.779  0.00  0.00     0.035 H 
ATOM     62  H   PRO d   1      25.452  20.983 -23.201  0.00  0.00     0.035 H 
ATOM     63  H   PRO d   1      24.659  19.118 -22.025  0.00  0.00     0.064 H 
ATOM     64  H   PRO d   1      23.426  19.218 -23.328  0.00  0.00     0.064 H 
BRANCH  54  65
ATOM     65  C   PRO d   1      27.350  17.072 -23.487  0.00  0.00     0.196 C 
ATOM     66  O   PRO d   1      27.301  16.946 -22.263  0.00  0.00    -0.646 OA
ATOM     67  OXT PRO d   1      28.246  16.483 -24.093  0.00  0.00    -0.646 OA
ENDBRANCH  54  65
ENDBRANCH  49  51
BRANCH  49  68
ATOM     68  CB  SER d   1      23.030  16.347 -21.630  0.00  0.00     0.044 C 
ATOM     69  H   SER d   1      22.018  16.183 -21.230  0.00  0.00     0.077 H 
ATOM     70  H   SER d   1      23.462  17.251 -21.176  0.00  0.00     0.077 H 
BRANCH  68  71
ATOM     71  OG  SER d   1      23.842  15.233 -21.305  0.00  0.00    -0.398 OA
ATOM     72  H   SER d   1      23.471  14.449 -21.692  0.00  0.00     0.209 HD
ENDBRANCH  68  71
ENDBRANCH  49  68
ENDBRANCH  47  49
ENDBRANCH  43  45
BRANCH  43  73
ATOM     73  CB  ASP d   1      18.903  14.700 -25.194  0.00  0.00     0.043 C 
ATOM     74  H   ASP d   1      18.218  15.021 -24.395  0.00  0.00     0.052 H 
ATOM     75  H   ASP d   1      18.476  13.832 -25.717  0.00  0.00     0.052 H 
BRANCH  73  76
ATOM     76  CG  ASP d   1      19.058  15.834 -26.184  0.00  0.00     0.175 C 
ATOM     77  OD1 ASP d   1      20.144  15.952 -26.787  0.00  0.00    -0.648 OA
ATOM     78  OD2 ASP d   1      18.094  16.607 -26.363  0.00  0.00    -0.648 OA
ENDBRANCH  73  76
ENDBRANCH  43  73
ENDBRANCH   3  43
TORSDOF 19
