REMARK  6 active torsions:
REMARK  status: ('A' for Active; 'I' for Inactive)
REMARK    1  A    between atoms: C5_4  and  C6_2 
REMARK    2  A    between atoms: C9_11  and  C5_4 
REMARK    3  A    between atoms: C11_14  and  C13_10 
REMARK    4  A    between atoms: C13_10  and  O14_20 
REMARK    5  A    between atoms: N10_16  and  C9_11 
REMARK    6  A    between atoms: O14_20  and  C15_12 
REMARK       I    between atoms: C11_14  and  N10_16 
ROOT
ATOM      1  C11 3PQ d   1      -6.859   1.652  24.186  0.00  0.00     0.241 C 
ATOM      2  N10 3PQ d   1      -7.642   2.561  23.513  0.00  0.00    -0.356 N 
ATOM      3  O12 3PQ d   1      -7.158   1.211  25.285  0.00  0.00    -0.271 OA
ATOM      4  H   3PQ d   1      -7.320   2.967  22.658  0.00  0.00     0.162 HD
ENDROOT
BRANCH   2   5
ATOM      5  C9  3PQ d   1      -8.932   2.925  24.049  0.00  0.00     0.027 C 
ATOM      6  H   3PQ d   1      -9.628   3.097  23.214  0.00  0.00     0.068 H 
ATOM      7  H   3PQ d   1      -9.304   2.098  24.672  0.00  0.00     0.068 H 
BRANCH   5   8
ATOM      8  C5  3PQ d   1      -8.862   4.182  24.895  0.00  0.00     0.128 A 
ATOM      9  C7  3PQ d   1      -8.435   5.318  24.019  0.00  0.00     0.255 A 
ATOM     10  N1  3PQ d   1      -7.214   5.727  24.458  0.00  0.00    -0.277 N 
ATOM     11  O8  3PQ d   1      -9.074   5.770  23.082  0.00  0.00    -0.270 OA
ATOM     12  C2  3PQ d   1      -6.800   5.054  25.562  0.00  0.00     0.323 A 
ATOM     13  H   3PQ d   1      -6.679   6.446  24.015  0.00  0.00     0.173 HD
ATOM     14  N4  3PQ d   1      -7.797   4.168  25.869  0.00  0.00    -0.323 N 
ATOM     15  O3  3PQ d   1      -5.734   5.227  26.135  0.00  0.00    -0.247 OA
ATOM     16  H   3PQ d   1      -7.788   3.578  26.676  0.00  0.00     0.165 HD
BRANCH   8  17
ATOM     17  C6  3PQ d   1     -10.197   4.525  25.515  0.00  0.00    -0.043 C 
ATOM     18  H   3PQ d   1     -10.524   3.698  26.162  0.00  0.00     0.031 H 
ATOM     19  H   3PQ d   1     -10.940   4.684  24.720  0.00  0.00     0.031 H 
ATOM     20  H   3PQ d   1     -10.098   5.442  26.114  0.00  0.00     0.031 H 
ENDBRANCH   8  17
ENDBRANCH   5   8
ENDBRANCH   2   5
BRANCH   1  21
ATOM     21  C13 3PQ d   1      -5.590   1.223  23.488  0.00  0.00     0.099 C 
ATOM     22  H   3PQ d   1      -5.621   0.140  23.297  0.00  0.00     0.089 H 
ATOM     23  H   3PQ d   1      -4.722   1.459  24.121  0.00  0.00     0.089 H 
BRANCH  21  24
ATOM     24  O14 3PQ d   1      -5.488   1.925  22.253  0.00  0.00    -0.342 OA
BRANCH  24  25
ATOM     25  C15 3PQ d   1      -4.360   1.563  21.520  0.00  0.00     0.069 A 
ATOM     26  C16 3PQ d   1      -3.417   0.643  21.934  0.00  0.00    -0.049 A 
ATOM     27  C17 3PQ d   1      -2.334   0.359  21.125  0.00  0.00    -0.059 A 
ATOM     28  H   3PQ d   1      -3.526   0.145  22.891  0.00  0.00     0.087 H 
ATOM     29  C18 3PQ d   1      -2.187   0.988  19.907  0.00  0.00     0.034 A 
ATOM     30  H   3PQ d   1      -1.594  -0.364  21.450  0.00  0.00     0.086 H 
ATOM     31  C20 3PQ d   1      -3.131   1.905  19.498  0.00  0.00    -0.059 A 
ATOM     32 CL1  3PQ d   1      -0.833   0.635  18.883  0.00  0.00    -0.084 Cl
ATOM     33  C21 3PQ d   1      -4.213   2.189  20.302  0.00  0.00    -0.049 A 
ATOM     34  H   3PQ d   1      -3.022   2.404  18.542  0.00  0.00     0.086 H 
ATOM     35  H   3PQ d   1      -4.953   2.910  19.974  0.00  0.00     0.087 H 
ENDBRANCH  24  25
ENDBRANCH  21  24
ENDBRANCH   1  21
TORSDOF 6
