REMARK  10 active torsions:
REMARK  status: ('A' for Active; 'I' for Inactive)
REMARK    1  A    between atoms: C3'_6  and  O3'_5 
REMARK    2  A    between atoms: C4'_7  and  C5'_8 
REMARK    3  A    between atoms: C5'_8  and  S5'_9 
REMARK    4  A    between atoms: S5'_9  and  C20_10 
REMARK    5  A    between atoms: C20_10  and  C21_11 
REMARK    6  A    between atoms: C21_11  and  C22_12 
REMARK    7  A    between atoms: C22_12  and  C23_13 
REMARK    8  A    between atoms: C10_17  and  N1'_15 
REMARK    9  A    between atoms: C10_17  and  C9_22 
REMARK   10  A    between atoms: C6_19  and  N6_20 
ROOT
ATOM      1  C3' BIG d   1     -25.154  -2.181 -24.612  0.00  0.00     0.064 C 
ATOM      2  C4' BIG d   1     -24.266  -1.553 -25.669  0.00  0.00     0.004 C 
ATOM      3  C1' BIG d   1     -22.873  -1.595 -25.016  0.00  0.00     0.090 C 
ATOM      4  N1' BIG d   1     -23.124  -1.844 -23.566  0.00  0.00    -0.064 N 
ATOM      5  C2' BIG d   1     -24.572  -1.665 -23.317  0.00  0.00     0.108 C 
ATOM      6  H4  BIG d   1     -26.197  -1.854 -24.733  0.00  0.00     0.086 H 
ATOM      7  H5  BIG d   1     -24.290  -2.153 -26.591  0.00  0.00     0.047 H 
ATOM      8  H17 BIG d   1     -22.352  -0.636 -25.158  0.00  0.00     0.076 H 
ATOM      9  H18 BIG d   1     -22.270  -2.407 -25.447  0.00  0.00     0.076 H 
ATOM     10  H19 BIG d   1     -22.907  -2.813 -23.392  0.00  0.00     0.280 HD
ATOM     11  H20 BIG d   1     -24.910  -2.261 -22.456  0.00  0.00     0.080 H 
ATOM     12  H21 BIG d   1     -24.826  -0.607 -23.153  0.00  0.00     0.080 H 
ENDROOT
BRANCH   4  13
ATOM     13  C10 BIG d   1     -22.274  -1.064 -22.640  0.00  0.00     0.111 C 
ATOM     14  H22 BIG d   1     -21.270  -1.511 -22.678  0.00  0.00     0.083 H 
ATOM     15  H23 BIG d   1     -22.697  -1.197 -21.633  0.00  0.00     0.083 H 
BRANCH  13  16
ATOM     16  C9  BIG d   1     -22.099   0.409 -22.844  0.00  0.00     0.014 A 
ATOM     17  C4  BIG d   1     -23.008   1.496 -22.517  0.00  0.00     0.098 A 
ATOM     18  C5  BIG d   1     -22.319   2.720 -22.871  0.00  0.00     0.107 A 
ATOM     19  N3  BIG d   1     -24.281   1.476 -22.019  0.00  0.00    -0.239 NA
ATOM     20  N7  BIG d   1     -21.098   2.391 -23.343  0.00  0.00    -0.360 N 
ATOM     21  C6  BIG d   1     -23.062   3.947 -22.662  0.00  0.00     0.151 A 
ATOM     22  C8  BIG d   1     -20.967   1.031 -23.340  0.00  0.00    -0.012 A 
ATOM     23  H24 BIG d   1     -20.379   3.059 -23.656  0.00  0.00     0.165 HD
ATOM     24  H2  BIG d   1     -20.080   0.501 -23.686  0.00  0.00     0.112 H 
ATOM     25  N1  BIG d   1     -24.329   3.864 -22.173  0.00  0.00    -0.223 NA
ATOM     26  C2  BIG d   1     -24.884   2.673 -21.862  0.00  0.00     0.089 A 
ATOM     27  H1  BIG d   1     -25.889   2.679 -21.456  0.00  0.00     0.146 H 
BRANCH  21  28
ATOM     28  N6  BIG d   1     -22.502   5.134 -22.953  0.00  0.00    -0.382 N 
ATOM     29  H25 BIG d   1     -23.032   6.004 -22.803  0.00  0.00     0.157 HD
ATOM     30  H26 BIG d   1     -21.543   5.173 -23.326  0.00  0.00     0.157 HD
ENDBRANCH  21  28
ENDBRANCH  13  16
ENDBRANCH   4  13
BRANCH   2  31
ATOM     31  C5' BIG d   1     -24.630  -0.105 -26.010  0.00  0.00    -0.016 C 
ATOM     32  H6  BIG d   1     -23.830   0.309 -26.642  0.00  0.00     0.049 H 
ATOM     33  H7  BIG d   1     -24.686   0.464 -25.070  0.00  0.00     0.049 H 
BRANCH  31  34
ATOM     34  S5' BIG d   1     -26.176   0.096 -26.872  0.00  0.00    -0.169 SA
BRANCH  34  35
ATOM     35  C20 BIG d   1     -25.644   0.542 -28.487  0.00  0.00    -0.023 C 
ATOM     36  H8  BIG d   1     -24.896   1.345 -28.410  0.00  0.00     0.048 H 
ATOM     37  H9  BIG d   1     -26.509   0.901 -29.063  0.00  0.00     0.048 H 
BRANCH  35  38
ATOM     38  C21 BIG d   1     -25.032  -0.631 -29.201  0.00  0.00    -0.058 C 
ATOM     39  H10 BIG d   1     -25.690  -1.507 -29.099  0.00  0.00     0.034 H 
ATOM     40  H11 BIG d   1     -24.049  -0.857 -28.761  0.00  0.00     0.034 H 
BRANCH  38  41
ATOM     41  C22 BIG d   1     -24.863  -0.290 -30.675  0.00  0.00    -0.068 C 
ATOM     42  H12 BIG d   1     -24.199  -1.035 -31.139  0.00  0.00     0.032 H 
ATOM     43  H13 BIG d   1     -24.410   0.709 -30.759  0.00  0.00     0.032 H 
BRANCH  41  44
ATOM     44  C23 BIG d   1     -26.185  -0.290 -31.408  0.00  0.00    -0.076 C 
ATOM     45  H14 BIG d   1     -26.018  -0.040 -32.466  0.00  0.00     0.027 H 
ATOM     46  H15 BIG d   1     -26.855   0.457 -30.956  0.00  0.00     0.027 H 
ATOM     47  H16 BIG d   1     -26.645  -1.287 -31.335  0.00  0.00     0.027 H 
ENDBRANCH  41  44
ENDBRANCH  38  41
ENDBRANCH  35  38
ENDBRANCH  34  35
ENDBRANCH  31  34
ENDBRANCH   2  31
BRANCH   1  48
ATOM     48  O3' BIG d   1     -25.096  -3.627 -24.657  0.00  0.00    -0.393 OA
ATOM     49  H3  BIG d   1     -25.662  -3.987 -23.984  0.00  0.00     0.210 HD
ENDBRANCH   1  48
TORSDOF 10
