REMARK  4 active torsions:
REMARK  status: ('A' for Active; 'I' for Inactive)
REMARK    1  A    between atoms: C7_1  and  C16_16 
REMARK    2  A    between atoms: N20_20  and  C7_1 
REMARK    3  A    between atoms: C15_15  and  C11_11 
REMARK    4  A    between atoms: C16_16  and  C12_12 
REMARK       I    between atoms: C15_15  and  N20_20 
ROOT
ATOM      1  C7  3PU d   1      -8.990   2.995  24.459  0.00  0.00     0.034 C 
ATOM      2  H   3PU d   1      -9.849   3.181  23.798  0.00  0.00     0.069 H 
ATOM      3  H   3PU d   1      -9.184   2.100  25.069  0.00  0.00     0.069 H 
ENDROOT
BRANCH   1   4
ATOM      4  C16 3PU d   1      -8.806   4.188  25.378  0.00  0.00     0.183 A 
ATOM      5  C13 3PU d   1      -8.515   5.380  24.513  0.00  0.00     0.262 A 
ATOM      6  N18 3PU d   1      -7.222   5.743  24.735  0.00  0.00    -0.277 N 
ATOM      7  O21 3PU d   1      -9.310   5.912  23.754  0.00  0.00    -0.270 OA
ATOM      8  C14 3PU d   1      -6.657   5.007  25.739  0.00  0.00     0.324 A 
ATOM      9  H   3PU d   1      -6.744   6.460  24.227  0.00  0.00     0.173 HD
ATOM     10  N19 3PU d   1      -7.594   4.107  26.151  0.00  0.00    -0.318 N 
ATOM     11  O22 3PU d   1      -5.524   5.150  26.165  0.00  0.00    -0.247 OA
ATOM     12  H   3PU d   1      -7.455   3.464  26.904  0.00  0.00     0.166 HD
BRANCH   4  13
ATOM     13  C12 3PU d   1      -9.976   4.490  26.243  0.00  0.00     0.114 A 
ATOM     14  N17 3PU d   1     -11.228   4.467  25.838  0.00  0.00    -0.254 NA
ATOM     15  C3  3PU d   1     -12.062   4.796  26.877  0.00  0.00     0.009 A 
ATOM     16  C4  3PU d   1     -11.446   5.072  28.077  0.00  0.00    -0.026 A 
ATOM     17  H   3PU d   1     -13.144   4.836  26.760  0.00  0.00     0.115 H 
ATOM     18  S25 3PU d   1      -9.744   4.915  27.894  0.00  0.00    -0.082 SA
ATOM     19  H   3PU d   1     -11.957   5.347  28.998  0.00  0.00     0.097 H 
ENDBRANCH   4  13
ENDBRANCH   1   4
BRANCH   1  20
ATOM     20  N20 3PU d   1      -7.811   2.767  23.647  0.00  0.00    -0.352 N 
ATOM     21  C15 3PU d   1      -6.898   1.807  24.024  0.00  0.00     0.275 C 
ATOM     22  O23 3PU d   1      -6.994   1.172  25.060  0.00  0.00    -0.265 OA
ATOM     23  H   3PU d   1      -7.661   3.304  22.817  0.00  0.00     0.162 HD
BRANCH  21  24
ATOM     24  C11 3PU d   1      -5.810   1.626  23.107  0.00  0.00     0.144 A 
ATOM     25  C6  3PU d   1      -4.685   0.826  23.128  0.00  0.00    -0.032 A 
ATOM     26  C10 3PU d   1      -3.953   1.076  21.930  0.00  0.00     0.002 A 
ATOM     27  H   3PU d   1      -4.407   0.129  23.917  0.00  0.00     0.089 H 
ATOM     28  C5  3PU d   1      -2.772   0.631  21.335  0.00  0.00    -0.049 A 
ATOM     29  C9  3PU d   1      -4.710   2.024  21.268  0.00  0.00     0.086 A 
ATOM     30  C8  3PU d   1      -2.461   1.190  20.107  0.00  0.00     0.035 A 
ATOM     31  H   3PU d   1      -2.135  -0.109  21.806  0.00  0.00     0.087 H 
ATOM     32  C1  3PU d   1      -3.258   2.128  19.502  0.00  0.00    -0.059 A 
ATOM     33 CL2  3PU d   1      -1.051   0.780  19.193  0.00  0.00    -0.084 Cl
ATOM     34  C2  3PU d   1      -4.421   2.586  20.055  0.00  0.00    -0.048 A 
ATOM     35  H   3PU d   1      -2.951   2.524  18.541  0.00  0.00     0.086 H 
ATOM     36  H   3PU d   1      -5.054   3.325  19.577  0.00  0.00     0.087 H 
ATOM     37  O24 3PU d   1      -5.822   2.356  21.962  0.00  0.00    -0.304 OA
ENDBRANCH  21  24
ENDBRANCH   1  20
TORSDOF 4
