REMARK  5 active torsions:
REMARK  status: ('A' for Active; 'I' for Inactive)
REMARK    1  A    between atoms: C8_5  and  C17_9 
REMARK    2  A    between atoms: N21_21  and  C8_5 
REMARK    3  A    between atoms: C17_9  and  C13_7 
REMARK    4  A    between atoms: N22_22  and  C1_10 
REMARK    5  A    between atoms: C16_17  and  C12_15 
REMARK       I    between atoms: C16_17  and  N21_21 
ROOT
ATOM      1  C8  3PW d   1      -9.196   3.256  24.228  0.00  0.00     0.035 C 
ATOM      2  H   3PW d   1     -10.027   3.435  23.530  0.00  0.00     0.069 H 
ATOM      3  H   3PW d   1      -9.415   2.368  24.839  0.00  0.00     0.069 H 
ENDROOT
BRANCH   1   4
ATOM      4  C17 3PW d   1      -9.061   4.461  25.147  0.00  0.00     0.192 C 
ATOM      5  C14 3PW d   1      -8.670   5.615  24.275  0.00  0.00     0.263 C 
ATOM      6  N19 3PW d   1      -7.367   5.914  24.563  0.00  0.00    -0.277 N 
ATOM      7  O23 3PW d   1      -9.398   6.150  23.455  0.00  0.00    -0.270 OA
ATOM      8  C15 3PW d   1      -6.874   5.176  25.593  0.00  0.00     0.324 C 
ATOM      9  H   3PW d   1      -6.834   6.601  24.069  0.00  0.00     0.173 HD
ATOM     10  N20 3PW d   1      -7.900   4.372  26.015  0.00  0.00    -0.317 N 
ATOM     11  O24 3PW d   1      -5.733   5.249  26.030  0.00  0.00    -0.247 OA
ATOM     12  H   3PW d   1      -7.855   3.791  26.827  0.00  0.00     0.166 HD
BRANCH   4  13
ATOM     13  C13 3PW d   1     -10.308   4.791  25.891  0.00  0.00     0.145 A 
ATOM     14  N18 3PW d   1     -11.438   4.116  25.801  0.00  0.00    -0.243 NA
ATOM     15  C4  3PW d   1     -12.331   4.747  26.631  0.00  0.00     0.019 A 
ATOM     16  C5  3PW d   1     -11.740   5.831  27.236  0.00  0.00    -0.003 A 
ATOM     17  H   3PW d   1     -13.362   4.433  26.788  0.00  0.00     0.117 H 
ATOM     18  N22 3PW d   1     -10.463   5.844  26.756  0.00  0.00    -0.346 N 
ATOM     19  H   3PW d   1     -12.192   6.526  27.942  0.00  0.00     0.113 H 
BRANCH  18  20
ATOM     20  C1  3PW d   1      -9.505   6.862  27.155  0.00  0.00    -0.013 C 
ATOM     21  H   3PW d   1      -9.979   7.552  27.869  0.00  0.00     0.057 H 
ATOM     22  H   3PW d   1      -9.174   7.422  26.268  0.00  0.00     0.057 H 
ATOM     23  H   3PW d   1      -8.637   6.382  27.630  0.00  0.00     0.057 H 
ENDBRANCH  18  20
ENDBRANCH   4  13
ENDBRANCH   1   4
BRANCH   1  24
ATOM     24  N21 3PW d   1      -7.993   3.010  23.464  0.00  0.00    -0.352 N 
ATOM     25  C16 3PW d   1      -7.101   2.040  23.883  0.00  0.00     0.275 C 
ATOM     26  O25 3PW d   1      -7.203   1.423  24.935  0.00  0.00    -0.265 OA
ATOM     27  H   3PW d   1      -7.807   3.539  22.636  0.00  0.00     0.162 HD
BRANCH  25  28
ATOM     28  C12 3PW d   1      -6.011   1.846  22.976  0.00  0.00     0.144 A 
ATOM     29  C7  3PW d   1      -4.879   1.057  23.001  0.00  0.00    -0.032 A 
ATOM     30  C11 3PW d   1      -4.155   1.311  21.799  0.00  0.00     0.002 A 
ATOM     31  H   3PW d   1      -4.591   0.367  23.793  0.00  0.00     0.089 H 
ATOM     32  C6  3PW d   1      -2.974   0.870  21.202  0.00  0.00    -0.049 A 
ATOM     33  C10 3PW d   1      -4.920   2.252  21.135  0.00  0.00     0.086 A 
ATOM     34  C9  3PW d   1      -2.669   1.428  19.971  0.00  0.00     0.035 A 
ATOM     35  H   3PW d   1      -2.333   0.134  21.673  0.00  0.00     0.087 H 
ATOM     36  C2  3PW d   1      -3.474   2.359  19.359  0.00  0.00    -0.059 A 
ATOM     37 CL2  3PW d   1      -1.252   1.010  19.077  0.00  0.00    -0.084 Cl
ATOM     38  C3  3PW d   1      -4.639   2.812  19.919  0.00  0.00    -0.048 A 
ATOM     39  H   3PW d   1      -3.175   2.751  18.394  0.00  0.00     0.086 H 
ATOM     40  H   3PW d   1      -5.279   3.546  19.443  0.00  0.00     0.087 H 
ATOM     41  O26 3PW d   1      -6.031   2.577  21.833  0.00  0.00    -0.304 OA
ENDBRANCH  25  28
ENDBRANCH   1  24
TORSDOF 5
