REMARK  3 active torsions:
REMARK  status: ('A' for Active; 'I' for Inactive)
REMARK    1  A    between atoms: C12_1  and  C13_2 
REMARK    2  A    between atoms: C13_2  and  B1_3 
REMARK    3  A    between atoms: B1_3  and  O2_4 
ROOT
ATOM      1  C13 NON d   1      23.943  26.624   0.882  0.00  0.00    -0.073 C 
ATOM      2  H   NON d   1      23.120  27.292   0.589  0.00  0.00     0.023 H 
ATOM      3  H   NON d   1      24.594  27.140   1.603  0.00  0.00     0.023 H 
ENDROOT
BRANCH   1   4
ATOM      4  C12 NON d   1      24.763  26.238  -0.368  0.00  0.00    -0.083 C 
ATOM      5  H   NON d   1      24.227  26.562  -1.272  0.00  0.00     0.026 H 
ATOM      6  H   NON d   1      24.900  25.147  -0.394  0.00  0.00     0.026 H 
ATOM      7  H   NON d   1      25.746  26.730  -0.328  0.00  0.00     0.026 H 
ENDBRANCH   1   4
BRANCH   1   8
ATOM      8  B1  NON d   1      24.611  26.206   2.356  0.00  0.00     0.318 B 
BRANCH   8   9
ATOM      9  O2  NON d   1      26.025  26.170   2.543  0.00  0.00    -0.467 OA
ATOM     10  H   NON d   1      26.219  25.914   3.437  0.00  0.00     0.181 HD
ENDBRANCH   8   9
ENDBRANCH   1   8
TORSDOF 3
