REMARK  5 active torsions:
REMARK  status: ('A' for Active; 'I' for Inactive)
REMARK    1  A    between atoms: C1_1  and  C2_2 
REMARK    2  A    between atoms: C2_2  and  C6_3 
REMARK    3  A    between atoms: C6_3  and  C9_4 
REMARK    4  A    between atoms: C9_4  and  B12_5 
REMARK    5  A    between atoms: B12_5  and  O15_6 
ROOT
ATOM      1  C6  BUB d   1      23.371  26.605   0.615  0.00  0.00    -0.075 C 
ATOM      2  H6  BUB d   1      22.791  25.752   0.997  0.00  0.00     0.032 H 
ATOM      3  H7  BUB d   1      22.754  27.515   0.655  0.00  0.00     0.032 H 
ENDROOT
BRANCH   1   4
ATOM      4  C2  BUB d   1      23.749  26.334  -0.823  0.00  0.00    -0.069 C 
ATOM      5  H4  BUB d   1      24.838  26.194  -0.885  0.00  0.00     0.032 H 
ATOM      6  H5  BUB d   1      23.242  25.417  -1.158  0.00  0.00     0.032 H 
BRANCH   4   7
ATOM      7  C1  BUB d   1      23.349  27.475  -1.733  0.00  0.00    -0.077 C 
ATOM      8  H1  BUB d   1      23.641  27.239  -2.767  0.00  0.00     0.027 H 
ATOM      9  H2  BUB d   1      23.856  28.396  -1.410  0.00  0.00     0.027 H 
ATOM     10  H3  BUB d   1      22.260  27.619  -1.683  0.00  0.00     0.027 H 
ENDBRANCH   4   7
ENDBRANCH   1   4
BRANCH   1  11
ATOM     11  C9  BUB d   1      24.587  26.801   1.491  0.00  0.00    -0.109 C 
ATOM     12  H8  BUB d   1      24.914  25.828   1.887  0.00  0.00     0.020 H 
ATOM     13  H10 BUB d   1      25.399  27.246   0.897  0.00  0.00     0.020 H 
BRANCH  11  14
ATOM     14  B12 BUB d   1      24.205  26.256   2.998  0.00  0.00     0.082 B 
BRANCH  14  15
ATOM     15  O15 BUB d   1      22.818  26.163   3.307  0.00  0.00     0.000 OA
ATOM     16  H11 BUB d   1      22.713  25.840   4.194  0.00  0.00     0.000 HD
ATOM     17  H12 BUB d   1      22.713  25.840   4.194  0.00  0.00     0.000 HD
ENDBRANCH  14  15
ENDBRANCH  11  14
ENDBRANCH   1  11
TORSDOF 5
