REMARK  8 active torsions:
REMARK  status: ('A' for Active; 'I' for Inactive)
REMARK    1  A    between atoms: B1_1  and  O3_2 
REMARK    2  A    between atoms: B1_1  and  O2_3 
REMARK    3  A    between atoms: B1_1  and  C13_4 
REMARK    4  A    between atoms: C13_4  and  C12_5 
REMARK    5  A    between atoms: C12_5  and  C11_6 
REMARK    6  A    between atoms: C11_6  and  C10_7 
REMARK    7  A    between atoms: C10_7  and  C9_8 
REMARK    8  A    between atoms: C9_8  and  C8_9 
ROOT
ATOM      1  C12 3QJ d   1      25.142  27.936   5.187  0.00  0.00    -0.074 C 
ATOM      2  H8  3QJ d   1      25.566  26.971   5.502  0.00  0.00     0.032 H 
ATOM      3  H9  3QJ d   1      24.072  27.966   5.439  0.00  0.00     0.032 H 
ENDROOT
BRANCH   1   4
ATOM      4  C13 3QJ d   1      25.297  28.069   3.627  0.00  0.00    -0.109 C 
ATOM      5  H6  3QJ d   1      26.358  28.211   3.375  0.00  0.00     0.020 H 
ATOM      6  H7  3QJ d   1      24.717  28.934   3.273  0.00  0.00     0.020 H 
BRANCH   4   7
ATOM      7  B1  3QJ d   1      24.730  26.679   2.920  0.00  0.00     0.082 B 
BRANCH   7   8
ATOM      8  O3  3QJ d   1      25.127  26.620   1.327  0.00  0.00     0.000 OA
ATOM      9  H1  3QJ d   1      26.070  26.682   1.234  0.00  0.00     0.000 HD
ATOM     10  H2  3QJ d   1      26.070  26.682   1.234  0.00  0.00     0.000 HD
ENDBRANCH   7   8
BRANCH   7  11
ATOM     11  O2  3QJ d   1      23.097  26.572   3.074  0.00  0.00     0.000 OA
ATOM     12  H3  3QJ d   1      22.689  27.297   2.616  0.00  0.00     0.000 HD
ATOM     13  H4  3QJ d   1      22.689  27.297   2.616  0.00  0.00     0.000 HD
ENDBRANCH   7  11
ENDBRANCH   4   7
ENDBRANCH   1   4
BRANCH   1  14
ATOM     14  C11 3QJ d   1      25.845  29.039   5.935  0.00  0.00    -0.066 C 
ATOM     15  H10 3QJ d   1      25.576  30.000   5.473  0.00  0.00     0.032 H 
ATOM     16  H11 3QJ d   1      26.930  28.882   5.850  0.00  0.00     0.032 H 
BRANCH  14  17
ATOM     17  C10 3QJ d   1      25.482  29.093   7.399  0.00  0.00    -0.065 C 
ATOM     18  H12 3QJ d   1      26.034  28.304   7.932  0.00  0.00     0.033 H 
ATOM     19  H13 3QJ d   1      24.401  28.919   7.504  0.00  0.00     0.033 H 
BRANCH  17  20
ATOM     20  C9  3QJ d   1      25.829  30.447   8.022  0.00  0.00    -0.069 C 
ATOM     21  H14 3QJ d   1      25.106  31.194   7.662  0.00  0.00     0.032 H 
ATOM     22  H15 3QJ d   1      26.841  30.732   7.699  0.00  0.00     0.032 H 
BRANCH  20  23
ATOM     23  C8  3QJ d   1      25.792  30.430   9.538  0.00  0.00    -0.077 C 
ATOM     24  H16 3QJ d   1      26.049  31.428   9.922  0.00  0.00     0.027 H 
ATOM     25  H17 3QJ d   1      26.518  29.694   9.914  0.00  0.00     0.027 H 
ATOM     26  H18 3QJ d   1      24.782  30.156   9.877  0.00  0.00     0.027 H 
ENDBRANCH  20  23
ENDBRANCH  17  20
ENDBRANCH  14  17
ENDBRANCH   1  14
TORSDOF 8
