REMARK  12 active torsions:
REMARK  status: ('A' for Active; 'I' for Inactive)
REMARK    1  A    between atoms: C4_1  and  C2_11 
REMARK    2  A    between atoms: N5_12  and  C4_1 
REMARK    3  A    between atoms: C7_4  and  C6_2 
REMARK    4  A    between atoms: C6_2  and  N5_12 
REMARK    5  A    between atoms: C2_11  and  C3_9 
REMARK    6  A    between atoms: C2_11  and  C1_10 
REMARK    7  A    between atoms: N5_12  and  S14_14 
REMARK    8  A    between atoms: S14_14  and  C17_17 
REMARK    9  A    between atoms: C20_20  and  N23_23 
REMARK   10  A    between atoms: N23_23  and  C24_24 
REMARK   11  A    between atoms: N27_27  and  S30_30 
REMARK   12  A    between atoms: S30_30  and  C33_33 
ROOT
ATOM      1  C17 3QQ d   1     -22.375   4.591  -8.291  0.00  0.00     0.092 A 
ATOM      2  C18 3QQ d   1     -21.146   5.015  -8.779  0.00  0.00    -0.056 A 
ATOM      3  C19 3QQ d   1     -21.122   5.690  -9.990  0.00  0.00    -0.037 A 
ATOM      4  C20 3QQ d   1     -22.305   5.926 -10.668  0.00  0.00     0.123 A 
ATOM      5  N21 3QQ d   1     -23.462   5.504 -10.168  0.00  0.00    -0.242 NA
ATOM      6  C22 3QQ d   1     -23.522   4.852  -9.021  0.00  0.00     0.026 A 
ATOM      7  H   3QQ d   1     -20.232   4.824  -8.229  0.00  0.00     0.086 H 
ATOM      8  H   3QQ d   1     -20.180   6.032 -10.404  0.00  0.00     0.089 H 
ATOM      9  H   3QQ d   1     -24.482   4.517  -8.646  0.00  0.00     0.117 H 
ENDROOT
BRANCH   1  10
ATOM     10  S14 3QQ d   1     -22.441   3.690  -6.779  0.00  0.00     0.245 S 
ATOM     11  O15 3QQ d   1     -21.112   3.233  -6.559  0.00  0.00    -0.206 OA
ATOM     12  O16 3QQ d   1     -23.579   2.846  -6.900  0.00  0.00    -0.206 OA
BRANCH  10  13
ATOM     13  N5  3QQ d   1     -22.834   4.683  -5.494  0.00  0.00    -0.202 NA
BRANCH  13  14
ATOM     14  C4  3QQ d   1     -23.955   5.526  -5.928  0.00  0.00    -0.004 C 
ATOM     15  H   3QQ d   1     -23.567   6.302  -6.604  0.00  0.00     0.058 H 
ATOM     16  H   3QQ d   1     -24.677   4.896  -6.468  0.00  0.00     0.058 H 
BRANCH  14  17
ATOM     17  C2  3QQ d   1     -24.679   6.210  -4.768  0.00  0.00    -0.049 C 
ATOM     18  H   3QQ d   1     -23.995   6.897  -4.249  0.00  0.00     0.040 H 
BRANCH  17  19
ATOM     19  C3  3QQ d   1     -25.211   5.169  -3.788  0.00  0.00    -0.072 C 
ATOM     20  H   3QQ d   1     -25.729   5.676  -2.960  0.00  0.00     0.028 H 
ATOM     21  H   3QQ d   1     -24.373   4.578  -3.390  0.00  0.00     0.028 H 
ATOM     22  H   3QQ d   1     -25.915   4.503  -4.308  0.00  0.00     0.028 H 
ENDBRANCH  17  19
BRANCH  17  23
ATOM     23  C1  3QQ d   1     -25.864   6.978  -5.352  0.00  0.00    -0.072 C 
ATOM     24  H   3QQ d   1     -25.497   7.734  -6.062  0.00  0.00     0.028 H 
ATOM     25  H   3QQ d   1     -26.415   7.475  -4.540  0.00  0.00     0.028 H 
ATOM     26  H   3QQ d   1     -26.533   6.278  -5.875  0.00  0.00     0.028 H 
ENDBRANCH  17  23
ENDBRANCH  14  17
ENDBRANCH  13  14
BRANCH  13  27
ATOM     27  C6  3QQ d   1     -21.675   5.506  -5.126  0.00  0.00     0.017 C 
ATOM     28  H   3QQ d   1     -20.900   5.402  -5.900  0.00  0.00     0.064 H 
ATOM     29  H   3QQ d   1     -21.988   6.558  -5.060  0.00  0.00     0.064 H 
BRANCH  27  30
ATOM     30  C7  3QQ d   1     -21.101   5.074  -3.788  0.00  0.00    -0.044 A 
ATOM     31  C8  3QQ d   1     -20.611   6.035  -2.919  0.00  0.00    -0.073 A 
ATOM     32  C9  3QQ d   1     -20.077   5.674  -1.697  0.00  0.00    -0.045 A 
ATOM     33  H   3QQ d   1     -20.647   7.081  -3.201  0.00  0.00     0.084 H 
ATOM     34  C10 3QQ d   1     -20.024   4.343  -1.323  0.00  0.00     0.116 A 
ATOM     35  H   3QQ d   1     -19.698   6.438  -1.028  0.00  0.00     0.088 H 
ATOM     36  C11 3QQ d   1     -20.510   3.378  -2.194  0.00  0.00    -0.045 A 
ATOM     37  F13 3QQ d   1     -19.489   3.995  -0.121  0.00  0.00    -0.206 F 
ATOM     38  C12 3QQ d   1     -21.048   3.741  -3.420  0.00  0.00    -0.073 A 
ATOM     39  H   3QQ d   1     -20.469   2.332  -1.914  0.00  0.00     0.088 H 
ATOM     40  H   3QQ d   1     -21.428   2.979  -4.091  0.00  0.00     0.084 H 
ENDBRANCH  27  30
ENDBRANCH  13  27
ENDBRANCH  10  13
ENDBRANCH   1  10
BRANCH   4  41
ATOM     41  N23 3QQ d   1     -22.274   6.617 -11.879  0.00  0.00    -0.370 N 
ATOM     42  H   3QQ d   1     -21.436   7.143 -12.163  0.00  0.00     0.161 HD
BRANCH  41  43
ATOM     43  C24 3QQ d   1     -23.462   6.578 -12.739  0.00  0.00     0.014 C 
ATOM     44  C25 3QQ d   1     -24.392   7.761 -12.453  0.00  0.00    -0.031 C 
ATOM     45  C26 3QQ d   1     -23.766   9.115 -12.842  0.00  0.00     0.007 C 
ATOM     46  H   3QQ d   1     -24.623   7.776 -11.378  0.00  0.00     0.038 H 
ATOM     47  H   3QQ d   1     -25.321   7.625 -13.026  0.00  0.00     0.038 H 
ATOM     48  N27 3QQ d   1     -23.054   9.095 -14.140  0.00  0.00    -0.311 N 
ATOM     49  H   3QQ d   1     -23.050   9.404 -12.059  0.00  0.00     0.065 H 
ATOM     50  H   3QQ d   1     -24.569   9.864 -12.899  0.00  0.00     0.065 H 
ATOM     51  C28 3QQ d   1     -22.327   7.887 -14.568  0.00  0.00     0.007 C 
ATOM     52  C29 3QQ d   1     -23.057   6.587 -14.214  0.00  0.00    -0.031 C 
ATOM     53  H   3QQ d   1     -21.342   7.880 -14.078  0.00  0.00     0.065 H 
ATOM     54  H   3QQ d   1     -22.194   7.927 -15.659  0.00  0.00     0.065 H 
ATOM     55  H   3QQ d   1     -23.959   6.499 -14.837  0.00  0.00     0.038 H 
ATOM     56  H   3QQ d   1     -22.391   5.734 -14.411  0.00  0.00     0.038 H 
ATOM     57  H   3QQ d   1     -24.009   5.646 -12.531  0.00  0.00     0.072 H 
BRANCH  48  58
ATOM     58  S30 3QQ d   1     -22.891  10.487 -15.045  0.00  0.00     0.224 S 
ATOM     59  O31 3QQ d   1     -22.699  10.112 -16.406  0.00  0.00    -0.206 OA
ATOM     60  O32 3QQ d   1     -23.923  11.399 -14.684  0.00  0.00    -0.206 OA
BRANCH  58  61
ATOM     61  C33 3QQ d   1     -21.261  11.102 -14.482  0.00  0.00     0.032 C 
ATOM     62  H   3QQ d   1     -21.020  12.037 -15.009  0.00  0.00     0.051 H 
ATOM     63  H   3QQ d   1     -20.489  10.349 -14.700  0.00  0.00     0.051 H 
ATOM     64  H   3QQ d   1     -21.294  11.290 -13.399  0.00  0.00     0.051 H 
ENDBRANCH  58  61
ENDBRANCH  48  58
ENDBRANCH  41  43
ENDBRANCH   4  41
TORSDOF 12
