REMARK  4 active torsions:
REMARK  status: ('A' for Active; 'I' for Inactive)
REMARK    1  A    between atoms: CA_5  and  C_6 
REMARK       I    between atoms: C_6  and  NAA_8 
REMARK    2  A    between atoms: CAO_11  and  NAK_12 
REMARK    3  A    between atoms: NAK_12  and  OAL_13 
REMARK    4  A    between atoms: OAL_13  and  SAR_14 
ROOT
ATOM      1  OAC NXL d   1      29.788  -1.280  14.699  0.00  0.00    -0.187 OA
ATOM      2  CAN NXL d   1      29.720  -0.180  13.871  0.00  0.00     0.111 C 
ATOM      3  N   NXL d   1      30.575   0.806  13.815  0.00  0.00    -0.354 N 
ATOM      4  CAJ NXL d   1      30.423   1.953  12.865  0.00  0.00     0.026 C 
ATOM      5  CA  NXL d   1      31.756   0.894  14.701  0.00  0.00     0.090 C 
ATOM      6  CB  NXL d   1      33.006   1.370  13.969  0.00  0.00    -0.036 C 
ATOM      7  CAH NXL d   1      32.876   2.179  12.906  0.00  0.00    -0.032 C 
ATOM      8  CAO NXL d   1      31.665   2.109  11.984  0.00  0.00     0.147 C 
ATOM      9  H1  NXL d   1      28.867  -0.128  13.195  0.00  0.00     0.156 H 
ATOM     10  H2  NXL d   1      30.273   2.878  13.441  0.00  0.00     0.067 H 
ATOM     11  H3  NXL d   1      29.548   1.774  12.223  0.00  0.00     0.067 H 
ATOM     12  H4  NXL d   1      31.961  -0.109  15.105  0.00  0.00     0.087 H 
ATOM     13  H7  NXL d   1      33.538   0.471  13.625  0.00  0.00     0.036 H 
ATOM     14  H8  NXL d   1      33.625   1.904  14.705  0.00  0.00     0.036 H 
ATOM     15  H9  NXL d   1      33.757   1.999  12.272  0.00  0.00     0.036 H 
ATOM     16  H10 NXL d   1      32.908   3.207  13.295  0.00  0.00     0.036 H 
ATOM     17  H11 NXL d   1      31.585   3.067  11.449  0.00  0.00     0.091 H 
ENDROOT
BRANCH   8  18
ATOM     18  NAK NXL d   1      31.790   1.063  10.974  0.00  0.00     0.061 N 
ATOM     19  H12 NXL d   1      32.669   1.210  10.504  0.00  0.00     0.316 HD
ATOM     20  H13 NXL d   1      31.034   1.192  10.320  0.00  0.00     0.316 HD
BRANCH  18  21
ATOM     21  OAL NXL d   1      31.759  -0.309  11.388  0.00  0.00    -0.054 OA
BRANCH  21  22
ATOM     22  SAR NXL d   1      32.058  -1.786  10.809  0.00  0.00     0.279 S 
ATOM     23  OAD NXL d   1      31.890  -2.659  11.958  0.00  0.00    -0.571 OA
ATOM     24  OAE NXL d   1      33.430  -2.057  10.342  0.00  0.00    -0.571 OA
ATOM     25  OAG NXL d   1      31.133  -2.152   9.729  0.00  0.00    -0.571 OA
ENDBRANCH  21  22
ENDBRANCH  18  21
ENDBRANCH   8  18
BRANCH   5  26
ATOM     26  C   NXL d   1      31.429   1.825  15.851  0.00  0.00     0.238 C 
ATOM     27  O   NXL d   1      30.318   2.318  16.007  0.00  0.00    -0.271 OA
ATOM     28  NAA NXL d   1      32.379   2.100  16.707  0.00  0.00    -0.368 N 
ATOM     29  H5  NXL d   1      32.196   2.711  17.477  0.00  0.00     0.159 HD
ATOM     30  H6  NXL d   1      33.288   1.699  16.591  0.00  0.00     0.159 HD
ENDBRANCH   5  26
TORSDOF 4
