REMARK  4 active torsions:
REMARK  status: ('A' for Active; 'I' for Inactive)
REMARK       I    between atoms: CAN_2  and  N_3 
REMARK    1  A    between atoms: CA_5  and  C_6 
REMARK       I    between atoms: C_6  and  NAA_8 
REMARK    2  A    between atoms: CAO_11  and  NAK_12 
REMARK    3  A    between atoms: NAK_12  and  OAL_13 
REMARK    4  A    between atoms: OAL_13  and  SAR_14 
ROOT
ATOM      1  OAC NXL d   1      42.223  35.811  54.911  0.00  0.00    -0.284 OA
ATOM      2  CAN NXL d   1      42.058  36.318  53.805  0.00  0.00     0.171 C 
ATOM      3  N   NXL d   1      42.795  35.904  52.779  0.00  0.00    -0.344 N 
ATOM      4  CAJ NXL d   1      42.463  36.156  51.378  0.00  0.00     0.027 C 
ATOM      5  CA  NXL d   1      43.977  35.075  53.071  0.00  0.00     0.091 C 
ATOM      6  CB  NXL d   1      43.667  33.727  52.433  0.00  0.00    -0.036 C 
ATOM      7  CAH NXL d   1      43.248  33.836  50.959  0.00  0.00    -0.032 C 
ATOM      8  CAO NXL d   1      42.087  34.818  50.754  0.00  0.00     0.147 C 
ATOM      9  H1  NXL d   1      41.314  37.101  53.666  0.00  0.00     0.180 H 
ATOM     10  H2  NXL d   1      43.332  36.584  50.856  0.00  0.00     0.067 H 
ATOM     11  H3  NXL d   1      41.615  36.854  51.312  0.00  0.00     0.067 H 
ATOM     12  H4  NXL d   1      44.080  34.970  54.161  0.00  0.00     0.087 H 
ATOM     13  H7  NXL d   1      42.848  33.255  52.995  0.00  0.00     0.036 H 
ATOM     14  H8  NXL d   1      44.566  33.096  52.495  0.00  0.00     0.036 H 
ATOM     15  H9  NXL d   1      42.937  32.842  50.605  0.00  0.00     0.036 H 
ATOM     16  H10 NXL d   1      44.111  34.181  50.371  0.00  0.00     0.036 H 
ATOM     17  H11 NXL d   1      41.966  34.975  49.672  0.00  0.00     0.091 H 
ENDROOT
BRANCH   8  18
ATOM     18  NAK NXL d   1      40.795  34.283  51.262  0.00  0.00     0.061 N 
ATOM     19  H12 NXL d   1      40.485  33.563  50.629  0.00  0.00     0.316 HD
ATOM     20  H13 NXL d   1      40.126  35.037  51.268  0.00  0.00     0.316 HD
BRANCH  18  21
ATOM     21  OAL NXL d   1      40.842  33.749  52.519  0.00  0.00    -0.054 OA
BRANCH  21  22
ATOM     22  SAR NXL d   1      39.434  33.206  53.021  0.00  0.00     0.279 S 
ATOM     23  OAD NXL d   1      39.361  33.072  54.454  0.00  0.00    -0.571 OA
ATOM     24  OAE NXL d   1      38.420  34.152  52.674  0.00  0.00    -0.571 OA
ATOM     25  OAG NXL d   1      39.197  31.773  52.359  0.00  0.00    -0.571 OA
ENDBRANCH  21  22
ENDBRANCH  18  21
ENDBRANCH   8  18
BRANCH   5  26
ATOM     26  C   NXL d   1      45.290  35.578  52.520  0.00  0.00     0.238 C 
ATOM     27  O   NXL d   1      45.471  36.766  52.355  0.00  0.00    -0.271 OA
ATOM     28  NAA NXL d   1      46.254  34.705  52.216  0.00  0.00    -0.368 N 
ATOM     29  H5  NXL d   1      47.126  35.030  51.851  0.00  0.00     0.159 HD
ATOM     30  H6  NXL d   1      46.104  33.726  52.354  0.00  0.00     0.159 HD
ENDBRANCH   5  26
TORSDOF 4
