REMARK  8 active torsions:
REMARK  status: ('A' for Active; 'I' for Inactive)
REMARK    1  A    between atoms: CAQ_2  and  CAW_4 
REMARK    2  A    between atoms: CAX_13  and  CAN_14 
REMARK    3  A    between atoms: CAN_14  and  CAL_15 
REMARK    4  A    between atoms: CAL_15  and  CAM_16 
REMARK    5  A    between atoms: CAM_16  and  OAP_17 
REMARK    6  A    between atoms: OAP_17  and  CAU_18 
REMARK    7  A    between atoms: CAR_20  and  CAA_21 
REMARK    8  A    between atoms: CAS_24  and  CAB_25 
ROOT
ATOM      1  CAL 19H d   1      14.553 190.482  36.389  0.00  0.00    -0.041 C 
ATOM      2  H7  19H d   1      14.928 189.689  37.053  0.00  0.00     0.036 H 
ATOM      3  H8  19H d   1      14.524 190.110  35.354  0.00  0.00     0.036 H 
ENDROOT
BRANCH   1   4
ATOM      4  CAN 19H d   1      15.495 191.674  36.460  0.00  0.00    -0.036 C 
ATOM      5  H5  19H d   1      15.419 192.131  37.458  0.00  0.00     0.040 H 
ATOM      6  H6  19H d   1      16.525 191.326  36.293  0.00  0.00     0.040 H 
BRANCH   4   7
ATOM      7  CAX 19H d   1      15.144 192.735  35.394  0.00  0.00    -0.012 A 
ATOM      8  CAW 19H d   1      15.542 192.693  34.046  0.00  0.00     0.117 A 
ATOM      9  NAO 19H d   1      15.042 193.788  33.430  0.00  0.00    -0.350 N 
ATOM     10  CAY 19H d   1      14.318 194.546  34.331  0.00  0.00     0.045 A 
ATOM     11  H1  19H d   1      15.180 194.023  32.437  0.00  0.00     0.166 HD
ATOM     12  CAK 19H d   1      13.611 195.750  34.188  0.00  0.00    -0.035 A 
ATOM     13  CAZ 19H d   1      14.357 193.908  35.563  0.00  0.00    -0.001 A 
ATOM     14  CAT 19H d   1      12.943 196.314  35.284  0.00  0.00     0.036 A 
ATOM     15  H2  19H d   1      13.581 196.246  33.225  0.00  0.00     0.089 H 
ATOM     16 CL2  19H d   1      12.061 197.825  35.124  0.00  0.00    -0.084 Cl
ATOM     17  CAG 19H d   1      12.984 195.675  36.522  0.00  0.00    -0.061 A 
ATOM     18  CAH 19H d   1      13.677 194.477  36.663  0.00  0.00    -0.069 A 
ATOM     19  H3  19H d   1      12.476 196.111  37.374  0.00  0.00     0.086 H 
ATOM     20  H4  19H d   1      13.695 193.976  37.624  0.00  0.00     0.085 H 
BRANCH   8  21
ATOM     21  CAQ 19H d   1      16.420 191.613  33.389  0.00  0.00     0.227 C 
ATOM     22  OAC 19H d   1      16.280 190.383  33.650  0.00  0.00    -0.643 OA
ATOM     23  OAD 19H d   1      17.311 191.969  32.581  0.00  0.00    -0.643 OA
ENDBRANCH   8  21
ENDBRANCH   4   7
ENDBRANCH   1   4
BRANCH   1  24
ATOM     24  CAM 19H d   1      13.129 190.867  36.823  0.00  0.00     0.026 C 
ATOM     25  H9  19H d   1      12.485 189.976  36.854  0.00  0.00     0.075 H 
ATOM     26  H10 19H d   1      12.703 191.604  36.126  0.00  0.00     0.075 H 
BRANCH  24  27
ATOM     27  OAP 19H d   1      13.257 191.441  38.145  0.00  0.00    -0.351 OA
BRANCH  27  28
ATOM     28  CAU 19H d   1      12.034 191.656  38.834  0.00  0.00     0.069 A 
ATOM     29  CAI 19H d   1      10.831 191.683  38.125  0.00  0.00    -0.043 A 
ATOM     30  CAR 19H d   1       9.654 191.894  38.825  0.00  0.00    -0.037 A 
ATOM     31  H11 19H d   1      10.818 191.542  37.050  0.00  0.00     0.088 H 
ATOM     32  CAV 19H d   1       9.681 192.080  40.213  0.00  0.00     0.046 A 
ATOM     33 CL1  19H d   1       8.207 192.342  41.102  0.00  0.00    -0.083 Cl
ATOM     34  CAS 19H d   1      10.885 192.056  40.910  0.00  0.00    -0.037 A 
ATOM     35  CAJ 19H d   1      12.067 191.844  40.215  0.00  0.00    -0.043 A 
ATOM     36  H18 19H d   1      13.013 191.825  40.744  0.00  0.00     0.088 H 
BRANCH  30  37
ATOM     37  CAA 19H d   1       8.313 191.917  38.048  0.00  0.00    -0.050 C 
ATOM     38  H12 19H d   1       8.507 191.753  36.978  0.00  0.00     0.033 H 
ATOM     39  H13 19H d   1       7.825 192.893  38.187  0.00  0.00     0.033 H 
ATOM     40  H14 19H d   1       7.655 191.121  38.428  0.00  0.00     0.033 H 
ENDBRANCH  30  37
BRANCH  34  41
ATOM     41  CAB 19H d   1      10.933 192.265  42.447  0.00  0.00    -0.050 C 
ATOM     42  H15 19H d   1      11.976 192.208  42.792  0.00  0.00     0.033 H 
ATOM     43  H16 19H d   1      10.340 191.482  42.942  0.00  0.00     0.033 H 
ATOM     44  H17 19H d   1      10.518 193.253  42.696  0.00  0.00     0.033 H 
ENDBRANCH  34  41
ENDBRANCH  27  28
ENDBRANCH  24  27
ENDBRANCH   1  24
TORSDOF 8
