REMARK  1 active torsions:
REMARK  status: ('A' for Active; 'I' for Inactive)
REMARK    1  A    between atoms: C02_3  and  C04_5 
ROOT
ATOM      1  C13 3R4 d   1     113.843 193.253  35.709  0.00  0.00     0.069 A 
ATOM      2  C04 3R4 d   1     114.681 193.194  34.608  0.00  0.00     0.104 A 
ATOM      3  S05 3R4 d   1     114.400 194.655  33.728  0.00  0.00    -0.081 SA
ATOM      4  C06 3R4 d   1     113.202 195.312  34.792  0.00  0.00     0.020 A 
ATOM      5  C07 3R4 d   1     112.460 196.494  34.778  0.00  0.00    -0.028 A 
ATOM      6  C08 3R4 d   1     111.546 196.752  35.797  0.00  0.00     0.117 A 
ATOM      7  F09 3R4 d   1     110.834 197.890  35.781  0.00  0.00    -0.206 F 
ATOM      8  C10 3R4 d   1     111.378 195.828  36.830  0.00  0.00    -0.045 A 
ATOM      9  C11 3R4 d   1     112.115 194.653  36.847  0.00  0.00    -0.067 A 
ATOM     10  C12 3R4 d   1     113.034 194.396  35.816  0.00  0.00     0.004 A 
ATOM     11 CL14 3R4 d   1     113.790 191.973  36.892  0.00  0.00    -0.082 Cl
ATOM     12  H1  3R4 d   1     112.595 197.210  33.975  0.00  0.00     0.090 H 
ATOM     13  H2  3R4 d   1     110.668 196.030  37.623  0.00  0.00     0.088 H 
ATOM     14  H3  3R4 d   1     111.983 193.938  37.651  0.00  0.00     0.085 H 
ENDROOT
BRANCH   2  15
ATOM     15  C02 3R4 d   1     115.651 192.081  34.256  0.00  0.00     0.218 C 
ATOM     16  O01 3R4 d   1     116.869 192.356  34.088  0.00  0.00    -0.643 OA
ATOM     17  O03 3R4 d   1     115.248 190.889  34.128  0.00  0.00    -0.643 OA
ENDBRANCH   2  15
TORSDOF 1
