REMARK  5 active torsions:
REMARK  status: ('A' for Active; 'I' for Inactive)
REMARK    1  A    between atoms: C11_2  and  N12_12 
REMARK    2  A    between atoms: C02_4  and  C04_6 
REMARK    3  A    between atoms: C07_9  and  C08_10 
REMARK    4  A    between atoms: N12_12  and  S13_13 
REMARK    5  A    between atoms: S13_13  and  C16_16 
ROOT
ATOM      1  C10 3R7 d   1      10.889 192.289  37.983  0.00  0.00    -0.046 A 
ATOM      2  C11 3R7 d   1      11.399 192.433  36.700  0.00  0.00     0.060 A 
ATOM      3  C04 3R7 d   1      10.533 192.633  35.638  0.00  0.00     0.068 A 
ATOM      4  C05 3R7 d   1       9.160 192.684  35.843  0.00  0.00    -0.063 A 
ATOM      5  C06 3R7 d   1       8.648 192.543  37.125  0.00  0.00    -0.072 A 
ATOM      6  C07 3R7 d   1       9.512 192.343  38.196  0.00  0.00    -0.035 A 
ATOM      7  H1  3R7 d   1      11.561 192.135  38.819  0.00  0.00     0.088 H 
ATOM      8  H2  3R7 d   1       8.490 192.833  35.004  0.00  0.00     0.085 H 
ATOM      9  H3  3R7 d   1       7.578 192.589  37.291  0.00  0.00     0.084 H 
ENDROOT
BRANCH   2  10
ATOM     10  N12 3R7 d   1      12.831 192.382  36.453  0.00  0.00    -0.280 N 
ATOM     11  H7  3R7 d   1      13.233 191.682  35.862  0.00  0.00     0.179 HD
BRANCH  10  12
ATOM     12  S13 3R7 d   1      13.802 193.570  37.216  0.00  0.00     0.263 S 
ATOM     13  O14 3R7 d   1      13.659 193.460  38.658  0.00  0.00    -0.200 OA
ATOM     14  O15 3R7 d   1      15.227 193.425  36.946  0.00  0.00    -0.200 OA
BRANCH  12  15
ATOM     15  C16 3R7 d   1      13.221 195.223  36.762  0.00  0.00     0.079 A 
ATOM     16  C17 3R7 d   1      13.699 195.828  35.615  0.00  0.00    -0.060 A 
ATOM     17  C18 3R7 d   1      13.238 197.094  35.289  0.00  0.00    -0.082 A 
ATOM     18  H8  3R7 d   1      14.420 195.323  34.983  0.00  0.00     0.085 H 
ATOM     19  C19 3R7 d   1      12.315 197.732  36.107  0.00  0.00    -0.083 A 
ATOM     20  H9  3R7 d   1      13.599 197.587  34.394  0.00  0.00     0.083 H 
ATOM     21  C20 3R7 d   1      11.849 197.119  37.251  0.00  0.00    -0.082 A 
ATOM     22  H10 3R7 d   1      11.957 198.721  35.844  0.00  0.00     0.083 H 
ATOM     23  C21 3R7 d   1      12.311 195.861  37.585  0.00  0.00    -0.060 A 
ATOM     24  H11 3R7 d   1      11.126 197.621  37.883  0.00  0.00     0.083 H 
ATOM     25  H12 3R7 d   1      11.962 195.375  38.489  0.00  0.00     0.085 H 
ENDBRANCH  12  15
ENDBRANCH  10  12
ENDBRANCH   2  10
BRANCH   3  26
ATOM     26  C02 3R7 d   1      11.090 192.788  34.235  0.00  0.00     0.211 C 
ATOM     27  O01 3R7 d   1      10.278 192.892  33.282  0.00  0.00    -0.644 OA
ATOM     28  O03 3R7 d   1      12.336 192.821  34.033  0.00  0.00    -0.644 OA
ENDBRANCH   3  26
BRANCH   6  29
ATOM     29  C08 3R7 d   1       8.930 192.187  39.602  0.00  0.00    -0.082 C 
ATOM     30  C09 3R7 d   1       9.717 192.030  40.652  0.00  0.00    -0.120 C 
ATOM     31  H5  3R7 d   1       9.284 191.921  41.645  0.00  0.00     0.066 H 
ATOM     32  H6  3R7 d   1      10.798 192.010  40.524  0.00  0.00     0.066 H 
ATOM     33  H4  3R7 d   1       7.850 192.206  39.740  0.00  0.00     0.083 H 
ENDBRANCH   6  29
TORSDOF 5
