REMARK  7 active torsions:
REMARK  status: ('A' for Active; 'I' for Inactive)
REMARK    1  A    between atoms: C18_13  and  C22_17 
REMARK    2  A    between atoms: C3_14  and  C8_22 
REMARK    3  A    between atoms: O15_32  and  C16_16 
REMARK    4  A    between atoms: C1_26  and  C2_18 
REMARK    5  A    between atoms: N5_29  and  C7_24 
REMARK    6  A    between atoms: N13_30  and  C14_25 
REMARK    7  A    between atoms: C1_26  and  O15_32 
ROOT
ATOM      1  C1  3SJ d   1      17.879   2.437  58.317  0.00  0.00     0.068 C 
ATOM      2  H   3SJ d   1      17.834   2.985  57.364  0.00  0.00     0.085 H 
ATOM      3  H   3SJ d   1      18.541   1.566  58.207  0.00  0.00     0.085 H 
ENDROOT
BRANCH   1   4
ATOM      4  C2  3SJ d   1      16.546   1.979  58.665  0.00  0.00     0.091 A 
ATOM      5  C3  3SJ d   1      15.938   1.892  59.944  0.00  0.00     0.021 A 
ATOM      6  C4  3SJ d   1      14.678   1.391  59.691  0.00  0.00     0.011 A 
ATOM      7  N5  3SJ d   1      14.620   1.230  58.326  0.00  0.00    -0.284 N 
ATOM      8  H   3SJ d   1      13.896   1.170  60.416  0.00  0.00     0.115 H 
ATOM      9  N6  3SJ d   1      15.744   1.575  57.673  0.00  0.00    -0.175 NA
BRANCH   5  10
ATOM     10  C8  3SJ d   1      16.524   2.202  61.198  0.00  0.00    -0.007 A 
ATOM     11  C12 3SJ d   1      17.673   3.044  61.251  0.00  0.00    -0.066 A 
ATOM     12  C11 3SJ d   1      18.374   3.375  62.338  0.00  0.00    -0.016 A 
ATOM     13  H   3SJ d   1      18.015   3.461  60.305  0.00  0.00     0.085 H 
ATOM     14  C10 3SJ d   1      17.886   2.817  63.606  0.00  0.00     0.246 A 
ATOM     15  H   3SJ d   1      19.252   4.018  62.288  0.00  0.00     0.092 H 
ATOM     16  N13 3SJ d   1      16.759   2.023  63.532  0.00  0.00    -0.328 N 
ATOM     17  O23 3SJ d   1      18.491   3.093  64.627  0.00  0.00    -0.268 OA
ATOM     18  C9  3SJ d   1      16.108   1.711  62.361  0.00  0.00    -0.007 A 
ATOM     19  H   3SJ d   1      15.241   1.053  62.387  0.00  0.00     0.113 H 
BRANCH  16  20
ATOM     20  C14 3SJ d   1      16.261   1.461  64.755  0.00  0.00    -0.012 C 
ATOM     21  H   3SJ d   1      15.367   0.857  64.543  0.00  0.00     0.057 H 
ATOM     22  H   3SJ d   1      15.999   2.272  65.451  0.00  0.00     0.057 H 
ATOM     23  H   3SJ d   1      17.035   0.824  65.208  0.00  0.00     0.057 H 
ENDBRANCH  16  20
ENDBRANCH   5  10
BRANCH   7  24
ATOM     24  C7  3SJ d   1      13.512   0.712  57.547  0.00  0.00     0.002 C 
ATOM     25  H   3SJ d   1      13.782   0.711  56.481  0.00  0.00     0.059 H 
ATOM     26  H   3SJ d   1      12.627   1.347  57.701  0.00  0.00     0.059 H 
ATOM     27  H   3SJ d   1      13.286  -0.315  57.869  0.00  0.00     0.059 H 
ENDBRANCH   7  24
ENDBRANCH   1   4
BRANCH   1  28
ATOM     28  O15 3SJ d   1      18.403   3.296  59.324  0.00  0.00    -0.345 OA
BRANCH  28  29
ATOM     29  C16 3SJ d   1      19.575   3.588  58.705  0.00  0.00     0.069 A 
ATOM     30  C21 3SJ d   1      20.735   2.886  58.954  0.00  0.00    -0.050 A 
ATOM     31  C19 3SJ d   1      21.859   3.250  58.246  0.00  0.00    -0.068 A 
ATOM     32  H   3SJ d   1      20.762   2.080  59.678  0.00  0.00     0.087 H 
ATOM     33  C18 3SJ d   1      21.800   4.278  57.324  0.00  0.00    -0.007 A 
ATOM     34  H   3SJ d   1      22.794   2.728  58.413  0.00  0.00     0.085 H 
ATOM     35  C20 3SJ d   1      20.625   4.954  57.109  0.00  0.00    -0.068 A 
ATOM     36  C17 3SJ d   1      19.500   4.620  57.810  0.00  0.00    -0.050 A 
ATOM     37  H   3SJ d   1      20.589   5.756  56.380  0.00  0.00     0.085 H 
ATOM     38  H   3SJ d   1      18.572   5.159  57.660  0.00  0.00     0.087 H 
BRANCH  33  39
ATOM     39  C22 3SJ d   1      22.869   4.648  56.461  0.00  0.00     0.067 A 
ATOM     40  C26 3SJ d   1      22.535   5.326  55.309  0.00  0.00    -0.053 A 
ATOM     41  C25 3SJ d   1      23.516   5.639  54.411  0.00  0.00    -0.069 A 
ATOM     42  H   3SJ d   1      21.506   5.608  55.117  0.00  0.00     0.087 H 
ATOM     43  C27 3SJ d   1      24.784   5.253  54.737  0.00  0.00    -0.007 A 
ATOM     44  H   3SJ d   1      23.299   6.166  53.489  0.00  0.00     0.085 H 
ATOM     45  C32 3SJ d   1      25.776   5.562  53.853  0.00  0.00    -0.071 A 
ATOM     46  C28 3SJ d   1      25.035   4.585  55.917  0.00  0.00     0.067 A 
ATOM     47  C31 3SJ d   1      27.066   5.197  54.144  0.00  0.00    -0.082 A 
ATOM     48  H   3SJ d   1      25.548   6.089  52.933  0.00  0.00     0.084 H 
ATOM     49  C30 3SJ d   1      27.349   4.528  55.311  0.00  0.00    -0.081 A 
ATOM     50  H   3SJ d   1      27.865   5.437  53.452  0.00  0.00     0.083 H 
ATOM     51  C29 3SJ d   1      26.332   4.226  56.182  0.00  0.00    -0.054 A 
ATOM     52  H   3SJ d   1      28.369   4.241  55.542  0.00  0.00     0.083 H 
ATOM     53  H   3SJ d   1      26.559   3.693  57.098  0.00  0.00     0.087 H 
ATOM     54  N24 3SJ d   1      24.091   4.257  56.794  0.00  0.00    -0.248 NA
ENDBRANCH  33  39
ENDBRANCH  28  29
ENDBRANCH   1  28
TORSDOF 7
