REMARK  7 active torsions:
REMARK  status: ('A' for Active; 'I' for Inactive)
REMARK       I    between atoms: CBB_2  and  NBD_3 
REMARK    1  A    between atoms: CBB_2  and  CAY_11 
REMARK    2  A    between atoms: NBD_3  and  CBE_4 
REMARK    3  A    between atoms: CBE_4  and  CBF_5 
REMARK    4  A    between atoms: CAU_17  and  CAN_18 
REMARK    5  A    between atoms: CAR_23  and  CAS_24 
REMARK    6  A    between atoms: CAM_25  and  CAK_26 
REMARK       I    between atoms: CAK_26  and  NAJ_28 
REMARK    7  A    between atoms: NAJ_28  and  CAG_29 
ROOT
ATOM      1  CAN 453 d   1       2.636  18.183 -38.259  0.00  0.00     0.072 C 
ATOM      2  NAO 453 d   1       1.700  18.716 -39.244  0.00  0.00    -0.330 N 
ATOM      3  CAP 453 d   1       0.409  18.366 -39.392  0.00  0.00     0.321 C 
ATOM      4  OAT 453 d   1      -0.353  18.994 -40.127  0.00  0.00    -0.247 OA
ATOM      5  NAQ 453 d   1      -0.049  17.309 -38.760  0.00  0.00    -0.312 N 
ATOM      6  CAR 453 d   1       0.892  16.477 -38.100  0.00  0.00     0.024 C 
ATOM      7  CAM 453 d   1       2.218  16.837 -37.832  0.00  0.00     0.059 C 
ATOM      8  H11 453 d   1       3.622  18.094 -38.739  0.00  0.00     0.088 H 
ATOM      9  H12 453 d   1       2.053  19.410 -39.871  0.00  0.00     0.165 HD
ATOM     10  H13 453 d   1      -1.026  17.098 -38.745  0.00  0.00     0.170 HD
ENDROOT
BRANCH   1  11
ATOM     11  CAU 453 d   1       2.774  19.101 -37.116  0.00  0.00    -0.029 A 
ATOM     12  CAZ 453 d   1       1.773  19.968 -36.751  0.00  0.00    -0.056 A 
ATOM     13  CAY 453 d   1       1.948  20.815 -35.676  0.00  0.00     0.071 A 
ATOM     14  H8  453 d   1       0.844  19.987 -37.309  0.00  0.00     0.086 H 
ATOM     15  CAX 453 d   1       3.111  20.794 -34.994  0.00  0.00     0.132 A 
ATOM     16  FBA 453 d   1       3.282  21.608 -33.971  0.00  0.00    -0.205 F 
ATOM     17  CAW 453 d   1       4.129  19.936 -35.347  0.00  0.00    -0.044 A 
ATOM     18  CAV 453 d   1       3.970  19.080 -36.415  0.00  0.00    -0.072 A 
ATOM     19  H9  453 d   1       5.056  19.934 -34.784  0.00  0.00     0.088 H 
ATOM     20  H10 453 d   1       4.766  18.402 -36.702  0.00  0.00     0.084 H 
BRANCH  13  21
ATOM     21  CBB 453 d   1       0.840  21.748 -35.302  0.00  0.00     0.255 C 
ATOM     22  OBC 453 d   1       1.071  22.925 -35.270  0.00  0.00    -0.268 OA
ATOM     23  NBD 453 d   1      -0.370  21.296 -35.026  0.00  0.00    -0.351 N 
ATOM     24  H1  453 d   1      -0.535  20.311 -35.066  0.00  0.00     0.163 HD
BRANCH  23  25
ATOM     25  CBE 453 d   1      -1.462  22.167 -34.669  0.00  0.00     0.035 C 
ATOM     26  H2  453 d   1      -2.411  21.662 -34.902  0.00  0.00     0.073 H 
ATOM     27  H3  453 d   1      -1.385  23.093 -35.258  0.00  0.00     0.073 H 
BRANCH  25  28
ATOM     28  CBF 453 d   1      -1.445  22.519 -33.202  0.00  0.00     0.051 A 
ATOM     29  CBK 453 d   1      -1.953  23.739 -32.796  0.00  0.00    -0.058 A 
ATOM     30  CBJ 453 d   1      -1.950  24.092 -31.450  0.00  0.00    -0.080 A 
ATOM     31  H4  453 d   1      -2.357  24.425 -33.532  0.00  0.00     0.086 H 
ATOM     32  CBI 453 d   1      -1.436  23.184 -30.536  0.00  0.00    -0.066 A 
ATOM     33  H5  453 d   1      -2.339  25.050 -31.125  0.00  0.00     0.083 H 
ATOM     34  CBH 453 d   1      -0.943  21.971 -30.990  0.00  0.00     0.003 A 
ATOM     35  H6  453 d   1      -1.420  23.421 -29.478  0.00  0.00     0.085 H 
ATOM     36  NBG 453 d   1      -0.956  21.670 -32.293  0.00  0.00    -0.264 NA
ATOM     37  H7  453 d   1      -0.542  21.257 -30.280  0.00  0.00     0.114 H 
ENDBRANCH  25  28
ENDBRANCH  23  25
ENDBRANCH  13  21
ENDBRANCH   1  11
BRANCH   7  38
ATOM     38  CAK 453 d   1       2.934  15.694 -37.225  0.00  0.00     0.256 C 
ATOM     39  OAL 453 d   1       3.796  15.239 -37.962  0.00  0.00    -0.267 OA
ATOM     40  NAJ 453 d   1       2.620  15.214 -36.043  0.00  0.00    -0.323 N 
ATOM     41  H17 453 d   1       1.931  15.695 -35.501  0.00  0.00     0.169 HD
BRANCH  40  42
ATOM     42  CAG 453 d   1       3.182  14.105 -35.527  0.00  0.00     0.035 A 
ATOM     43  CAF 453 d   1       4.182  13.308 -36.115  0.00  0.00    -0.044 A 
ATOM     44  CAD 453 d   1       4.580  12.143 -35.459  0.00  0.00     0.013 A 
ATOM     45  H18 453 d   1       4.634  13.594 -37.058  0.00  0.00     0.088 H 
ATOM     46  CAE 453 d   1       3.939  11.736 -34.208  0.00  0.00     0.088 A 
ATOM     47  CAC 453 d   1       5.570  11.169 -35.774  0.00  0.00     0.008 A 
ATOM     48  CAI 453 d   1       2.935  12.511 -33.669  0.00  0.00    -0.051 A 
ATOM     49  NAA 453 d   1       4.551  10.599 -33.876  0.00  0.00    -0.175 NA
ATOM     50  CAH 453 d   1       2.562  13.667 -34.341  0.00  0.00    -0.055 A 
ATOM     51  H20 453 d   1       2.449  12.225 -32.743  0.00  0.00     0.087 H 
ATOM     52  H19 453 d   1       1.753  14.262 -33.932  0.00  0.00     0.087 H 
ATOM     53  NAB 453 d   1       5.549  10.218 -34.795  0.00  0.00    -0.288 N 
ATOM     54  H21 453 d   1       6.148   9.382 -34.739  0.00  0.00     0.188 HD
ATOM     55  H22 453 d   1       6.227  11.181 -36.642  0.00  0.00     0.115 H 
ENDBRANCH  40  42
ENDBRANCH   7  38
BRANCH   6  56
ATOM     56  CAS 453 d   1       0.244  15.164 -37.802  0.00  0.00    -0.037 C 
ATOM     57  H14 453 d   1       0.963  14.508 -37.290  0.00  0.00     0.035 H 
ATOM     58  H15 453 d   1      -0.077  14.692 -38.742  0.00  0.00     0.035 H 
ATOM     59  H16 453 d   1      -0.631  15.325 -37.155  0.00  0.00     0.035 H 
ENDBRANCH   6  56
TORSDOF 7
