REMARK  6 active torsions:
REMARK  status: ('A' for Active; 'I' for Inactive)
REMARK    1  A    between atoms: C3_3  and  C1_1 
REMARK    2  A    between atoms: C1_1  and  C20_25 
REMARK    3  A    between atoms: N4_26  and  C7_11 
REMARK    4  A    between atoms: C8_12  and  N4_26 
REMARK    5  A    between atoms: N7_29  and  C14_18 
REMARK    6  A    between atoms: C15_19  and  N7_29 
ROOT
ATOM      1  N4  3RT d   1      -1.526   1.868  16.701  0.00  0.00    -0.187 N 
ATOM      2  H19 3RT d   1      -1.711   2.505  17.489  0.00  0.00     0.184 HD
ENDROOT
BRANCH   1   3
ATOM      3  C7  3RT d   1      -2.560   1.105  16.199  0.00  0.00     0.746 A 
ATOM      4  N2  3RT d   1      -3.796   1.056  16.695  0.00  0.00    -0.042 NA
ATOM      5  C2  3RT d   1      -4.466   0.201  15.980  0.00  0.00     0.170 A 
ATOM      6  C6  3RT d   1      -5.797  -0.247  16.042  0.00  0.00    -0.036 A 
ATOM      7  N1  3RT d   1      -3.618  -0.288  15.020  0.00  0.00    -0.203 N 
ATOM      8  C5  3RT d   1      -6.269  -1.169  15.117  0.00  0.00    -0.077 A 
ATOM      9  H5  3RT d   1      -6.461   0.131  16.819  0.00  0.00     0.089 H 
ATOM     10  C4  3RT d   1      -5.412  -1.669  14.136  0.00  0.00    -0.059 A 
ATOM     11  H4  3RT d   1      -7.305  -1.501  15.157  0.00  0.00     0.083 H 
ATOM     12  C3  3RT d   1      -4.097  -1.240  14.080  0.00  0.00     0.039 A 
ATOM     13  H3  3RT d   1      -5.778  -2.397  13.414  0.00  0.00     0.086 H 
ATOM     14  N3  3RT d   1      -2.505   0.260  15.164  0.00  0.00     0.028 NA
BRANCH  12  15
ATOM     15  C1  3RT d   1      -3.169  -1.801  13.034  0.00  0.00    -0.021 C 
ATOM     16  H1  3RT d   1      -2.501  -1.005  12.674  0.00  0.00     0.043 H 
ATOM     17  H2  3RT d   1      -3.760  -2.191  12.193  0.00  0.00     0.043 H 
BRANCH  15  18
ATOM     18  C20 3RT d   1      -2.326  -2.942  13.640  0.00  0.00    -0.045 C 
ATOM     19  C21 3RT d   1      -3.180  -4.163  13.833  0.00  0.00    -0.041 C 
ATOM     20  C22 3RT d   1      -2.317  -5.264  14.423  0.00  0.00     0.020 C 
ATOM     21  H10 3RT d   1      -4.008  -3.932  14.519  0.00  0.00     0.036 H 
ATOM     22  H11 3RT d   1      -3.587  -4.489  12.864  0.00  0.00     0.036 H 
ATOM     23  O2  3RT d   1      -1.171  -5.544  13.544  0.00  0.00    -0.391 OA
ATOM     24  H12 3RT d   1      -1.948  -4.946  15.409  0.00  0.00     0.074 H 
ATOM     25  H13 3RT d   1      -2.920  -6.177  14.534  0.00  0.00     0.074 H 
ATOM     26  C23 3RT d   1      -0.349  -4.401  13.375  0.00  0.00     0.020 C 
ATOM     27  C24 3RT d   1      -1.164  -3.294  12.721  0.00  0.00    -0.041 C 
ATOM     28  H14 3RT d   1       0.508  -4.655  12.734  0.00  0.00     0.074 H 
ATOM     29  H15 3RT d   1       0.015  -4.060  14.356  0.00  0.00     0.074 H 
ATOM     30  H16 3RT d   1      -1.550  -3.641  11.751  0.00  0.00     0.036 H 
ATOM     31  H17 3RT d   1      -0.530  -2.408  12.568  0.00  0.00     0.036 H 
ATOM     32  H18 3RT d   1      -1.931  -2.617  14.614  0.00  0.00     0.040 H 
ENDBRANCH  15  18
ENDBRANCH  12  15
ENDBRANCH   1   3
BRANCH   1  33
ATOM     33  C8  3RT d   1      -0.277   1.804  16.189  0.00  0.00     0.051 A 
ATOM     34  C9  3RT d   1       0.643   2.800  16.512  0.00  0.00    -0.056 A 
ATOM     35  C10 3RT d   1       1.930   2.763  15.969  0.00  0.00    -0.065 A 
ATOM     36  H6  3RT d   1       0.360   3.603  17.184  0.00  0.00     0.087 H 
ATOM     37  C11 3RT d   1       2.301   1.723  15.134  0.00  0.00     0.040 A 
ATOM     38  H7  3RT d   1       2.639   3.550  16.202  0.00  0.00     0.085 H 
ATOM     39  C12 3RT d   1       1.426   0.739  14.822  0.00  0.00     0.093 A 
ATOM     40  C14 3RT d   1       3.465   1.426  14.478  0.00  0.00     0.130 A 
ATOM     41  C13 3RT d   1       0.116   0.757  15.349  0.00  0.00    -0.026 A 
ATOM     42  N6  3RT d   1       2.075  -0.126  13.990  0.00  0.00    -0.172 NA
ATOM     43  H8  3RT d   1      -0.581  -0.036  15.104  0.00  0.00     0.090 H 
ATOM     44  N5  3RT d   1       3.264   0.273  13.800  0.00  0.00    -0.262 N 
ATOM     45  H20 3RT d   1       3.967  -0.206  13.220  0.00  0.00     0.191 HD
BRANCH  40  46
ATOM     46  N7  3RT d   1       4.594   2.158  14.495  0.00  0.00    -0.370 N 
ATOM     47  H21 3RT d   1       4.556   3.142  14.797  0.00  0.00     0.161 HD
BRANCH  46  48
ATOM     48  C15 3RT d   1       5.885   1.573  14.088  0.00  0.00     0.015 C 
ATOM     49  C16 3RT d   1       6.992   2.655  14.190  0.00  0.00    -0.026 C 
ATOM     50  C17 3RT d   1       8.380   2.011  13.982  0.00  0.00     0.021 C 
ATOM     51  H22 3RT d   1       6.953   3.123  15.184  0.00  0.00     0.039 H 
ATOM     52  H23 3RT d   1       6.826   3.420  13.417  0.00  0.00     0.039 H 
ATOM     53  O1  3RT d   1       8.596   0.928  14.958  0.00  0.00    -0.391 OA
ATOM     54  H24 3RT d   1       8.439   1.599  12.964  0.00  0.00     0.074 H 
ATOM     55  H25 3RT d   1       9.158   2.777  14.113  0.00  0.00     0.074 H 
ATOM     56  C18 3RT d   1       7.656  -0.130  14.718  0.00  0.00     0.021 C 
ATOM     57  C19 3RT d   1       6.227   0.382  15.020  0.00  0.00    -0.026 C 
ATOM     58  H26 3RT d   1       7.887  -0.983  15.373  0.00  0.00     0.074 H 
ATOM     59  H27 3RT d   1       7.719  -0.447  13.666  0.00  0.00     0.074 H 
ATOM     60  H28 3RT d   1       5.505  -0.431  14.852  0.00  0.00     0.039 H 
ATOM     61  H29 3RT d   1       6.172   0.711  16.068  0.00  0.00     0.039 H 
ATOM     62  H9  3RT d   1       5.816   1.217  13.050  0.00  0.00     0.072 H 
ENDBRANCH  46  48
ENDBRANCH  40  46
ENDBRANCH   1  33
TORSDOF 6
