REMARK  6 active torsions:
REMARK  status: ('A' for Active; 'I' for Inactive)
REMARK    1  A    between atoms: N18_21  and  C17_3 
REMARK    2  A    between atoms: C22_4  and  C23_25 
REMARK    3  A    between atoms: C02_8  and  N01_7 
REMARK    4  A    between atoms: N08_14  and  C07_13 
REMARK    5  A    between atoms: C09_15  and  N08_14 
REMARK    6  A    between atoms: N18_21  and  C19_22 
ROOT
ATOM      1  C13 3RF d   1      -2.702 -40.698 -18.839  0.00  0.00    -0.067 A 
ATOM      2  C15 3RF d   1      -0.669 -39.453 -19.346  0.00  0.00    -0.081 A 
ATOM      3  C17 3RF d   1      -4.225 -39.844 -16.998  0.00  0.00     0.161 A 
ATOM      4  C09 3RF d   1      -3.632 -37.941 -15.865  0.00  0.00     0.729 A 
ATOM      5  N10 3RF d   1      -2.527 -37.796 -16.594  0.00  0.00    -0.062 NA
ATOM      6  C11 3RF d   1      -2.196 -38.691 -17.580  0.00  0.00     0.090 A 
ATOM      7  C12 3RF d   1      -3.038 -39.757 -17.826  0.00  0.00     0.040 A 
ATOM      8  C14 3RF d   1      -1.524 -40.544 -19.596  0.00  0.00    -0.082 A 
ATOM      9  C16 3RF d   1      -0.981 -38.533 -18.340  0.00  0.00    -0.054 A 
ATOM     10  N27 3RF d   1      -4.492 -38.941 -16.044  0.00  0.00    -0.044 NA
ATOM     11  H1  3RF d   1      -3.358 -41.540 -19.030  0.00  0.00     0.085 H 
ATOM     12  H2  3RF d   1       0.233 -39.326 -19.934  0.00  0.00     0.083 H 
ATOM     13  H13 3RF d   1      -1.276 -41.263 -20.369  0.00  0.00     0.083 H 
ATOM     14  H14 3RF d   1      -0.313 -37.705 -18.133  0.00  0.00     0.087 H 
ENDROOT
BRANCH   3  15
ATOM     15  N18 3RF d   1      -5.097 -40.919 -17.250  0.00  0.00    -0.323 N 
ATOM     16  H15 3RF d   1      -4.897 -41.516 -18.065  0.00  0.00     0.169 HD
BRANCH  15  17
ATOM     17  C19 3RF d   1      -6.240 -41.241 -16.455  0.00  0.00     0.151 A 
ATOM     18  C26 3RF d   1      -6.751 -40.761 -15.220  0.00  0.00    -0.013 A 
ATOM     19  C22 3RF d   1      -7.929 -41.465 -14.937  0.00  0.00     0.035 A 
ATOM     20  H5  3RF d   1      -6.306 -39.983 -14.602  0.00  0.00     0.092 H 
ATOM     21  N21 3RF d   1      -8.054 -42.321 -15.975  0.00  0.00    -0.280 N 
ATOM     22  N20 3RF d   1      -7.064 -42.212 -16.896  0.00  0.00    -0.156 NA
ATOM     23  H16 3RF d   1      -8.829 -42.994 -16.059  0.00  0.00     0.189 HD
BRANCH  19  24
ATOM     24  C23 3RF d   1      -9.061 -41.584 -13.843  0.00  0.00    -0.012 A 
ATOM     25  C24 3RF d   1      -9.317 -40.089 -13.755  0.00  0.00    -0.056 A 
ATOM     26  C25 3RF d   1      -8.354 -40.721 -12.786  0.00  0.00    -0.056 A 
ATOM     27  H3  3RF d   1     -10.290 -39.721 -13.398  0.00  0.00     0.034 H 
ATOM     28  H4  3RF d   1      -8.940 -39.422 -14.544  0.00  0.00     0.034 H 
ATOM     29  H18 3RF d   1      -8.626 -40.819 -11.725  0.00  0.00     0.034 H 
ATOM     30  H19 3RF d   1      -7.276 -40.520 -12.871  0.00  0.00     0.034 H 
ATOM     31  H17 3RF d   1      -9.733 -42.450 -13.745  0.00  0.00     0.049 H 
ENDBRANCH  19  24
ENDBRANCH  15  17
ENDBRANCH   3  15
BRANCH   4  32
ATOM     32  N08 3RF d   1      -3.855 -36.951 -14.870  0.00  0.00    -0.188 N 
ATOM     33  H12 3RF d   1      -3.299 -36.084 -14.901  0.00  0.00     0.184 HD
BRANCH  32  34
ATOM     34  C07 3RF d   1      -4.819 -37.111 -13.830  0.00  0.00     0.049 A 
ATOM     35  C04 3RF d   1      -4.393 -37.481 -12.558  0.00  0.00    -0.054 A 
ATOM     36  C03 3RF d   1      -5.338 -37.604 -11.537  0.00  0.00    -0.056 A 
ATOM     37  H9  3RF d   1      -3.344 -37.671 -12.363  0.00  0.00     0.087 H 
ATOM     38  C02 3RF d   1      -6.679 -37.338 -11.811  0.00  0.00     0.025 A 
ATOM     39  H8  3RF d   1      -5.032 -37.903 -10.541  0.00  0.00     0.087 H 
ATOM     40  C05 3RF d   1      -7.089 -36.949 -13.074  0.00  0.00    -0.056 A 
ATOM     41  C06 3RF d   1      -6.147 -36.822 -14.098  0.00  0.00    -0.054 A 
ATOM     42  H10 3RF d   1      -8.136 -36.744 -13.268  0.00  0.00     0.087 H 
ATOM     43  H11 3RF d   1      -6.451 -36.502 -15.088  0.00  0.00     0.087 H 
BRANCH  38  44
ATOM     44  N01 3RF d   1      -7.653 -37.452 -10.768  0.00  0.00    -0.399 N 
ATOM     45  H6  3RF d   1      -7.364 -37.740  -9.822  0.00  0.00     0.156 HD
ATOM     46  H7  3RF d   1      -8.643 -37.246 -10.963  0.00  0.00     0.156 HD
ENDBRANCH  38  44
ENDBRANCH  32  34
ENDBRANCH   4  32
TORSDOF 6
