REMARK  5 active torsions:
REMARK  status: ('A' for Active; 'I' for Inactive)
REMARK    1  A    between atoms: C12_18  and  C13_1 
REMARK    2  A    between atoms: N20_23  and  C21_4 
REMARK    3  A    between atoms: C07_13  and  N08_14 
REMARK    4  A    between atoms: N08_14  and  C09_15 
REMARK    5  A    between atoms: C19_22  and  N20_23 
ROOT
ATOM      1  C01 3RJ d   1      99.894  41.112  20.038  0.00  0.00     0.090 A 
ATOM      2  C02 3RJ d   1      99.111  40.479  21.041  0.00  0.00    -0.054 A 
ATOM      3  C03 3RJ d   1      98.236  39.478  20.669  0.00  0.00    -0.081 A 
ATOM      4  C04 3RJ d   1      98.106  39.103  19.319  0.00  0.00    -0.082 A 
ATOM      5  C05 3RJ d   1      98.871  39.730  18.330  0.00  0.00    -0.067 A 
ATOM      6  C06 3RJ d   1      99.784  40.766  18.715  0.00  0.00     0.040 A 
ATOM      7  C07 3RJ d   1     100.602  41.443  17.773  0.00  0.00     0.161 A 
ATOM      8  N18 3RJ d   1     101.453  42.416  18.137  0.00  0.00    -0.044 NA
ATOM      9  C19 3RJ d   1     101.532  42.732  19.449  0.00  0.00     0.729 A 
ATOM     10  N30 3RJ d   1     100.787  42.106  20.395  0.00  0.00    -0.062 NA
ATOM     11  H7  3RJ d   1      99.199  40.777  22.079  0.00  0.00     0.087 H 
ATOM     12  H8  3RJ d   1      97.643  38.976  21.425  0.00  0.00     0.083 H 
ATOM     13  H9  3RJ d   1      97.407  38.322  19.043  0.00  0.00     0.083 H 
ATOM     14  H10 3RJ d   1      98.775  39.438  17.291  0.00  0.00     0.085 H 
ENDROOT
BRANCH   7  15
ATOM     15  N08 3RJ d   1     100.491  41.076  16.407  0.00  0.00    -0.323 N 
ATOM     16  H11 3RJ d   1      99.869  40.287  16.182  0.00  0.00     0.169 HD
BRANCH  15  17
ATOM     17  C09 3RJ d   1     101.171  41.709  15.307  0.00  0.00     0.151 A 
ATOM     18  C17 3RJ d   1     101.967  42.874  15.195  0.00  0.00    -0.013 A 
ATOM     19  C12 3RJ d   1     102.331  42.950  13.830  0.00  0.00     0.035 A 
ATOM     20  H4  3RJ d   1     102.241  43.565  15.991  0.00  0.00     0.092 H 
ATOM     21  N11 3RJ d   1     101.775  41.898  13.214  0.00  0.00    -0.280 N 
ATOM     22  N10 3RJ d   1     101.047  41.148  14.083  0.00  0.00    -0.156 NA
ATOM     23  H12 3RJ d   1     101.885  41.685  12.212  0.00  0.00     0.189 HD
BRANCH  19  24
ATOM     24  C13 3RJ d   1     103.150  43.961  13.065  0.00  0.00    -0.012 C 
ATOM     25  C14 3RJ d   1     102.868  45.430  13.274  0.00  0.00    -0.057 C 
ATOM     26  C15 3RJ d   1     104.339  45.624  13.447  0.00  0.00    -0.064 C 
ATOM     27  H13 3RJ d   1     102.267  45.659  14.167  0.00  0.00     0.034 H 
ATOM     28  H14 3RJ d   1     102.438  45.943  12.401  0.00  0.00     0.034 H 
ATOM     29  C16 3RJ d   1     104.482  44.157  13.698  0.00  0.00    -0.057 C 
ATOM     30  H2  3RJ d   1     104.614  46.258  14.303  0.00  0.00     0.033 H 
ATOM     31  H3  3RJ d   1     104.857  45.981  12.545  0.00  0.00     0.033 H 
ATOM     32  H15 3RJ d   1     105.316  43.682  13.160  0.00  0.00     0.034 H 
ATOM     33  H16 3RJ d   1     104.526  43.879  14.761  0.00  0.00     0.034 H 
ATOM     34  H1  3RJ d   1     103.178  43.672  12.004  0.00  0.00     0.049 H 
ENDBRANCH  19  24
ENDBRANCH  15  17
ENDBRANCH   7  15
BRANCH   9  35
ATOM     35  N20 3RJ d   1     102.442  43.725  19.867  0.00  0.00    -0.188 N 
ATOM     36  H17 3RJ d   1     102.475  43.985  20.863  0.00  0.00     0.184 HD
BRANCH  35  37
ATOM     37  C21 3RJ d   1     103.313  44.377  18.957  0.00  0.00     0.051 A 
ATOM     38  C22 3RJ d   1     104.668  44.161  19.110  0.00  0.00    -0.029 A 
ATOM     39  C23 3RJ d   1     105.570  44.832  18.254  0.00  0.00     0.064 A 
ATOM     40  H5  3RJ d   1     105.034  43.487  19.875  0.00  0.00     0.090 H 
ATOM     41  N24 3RJ d   1     106.927  44.792  18.158  0.00  0.00    -0.349 N 
ATOM     42  C27 3RJ d   1     105.100  45.699  17.302  0.00  0.00     0.085 A 
ATOM     43  C25 3RJ d   1     107.316  45.633  17.170  0.00  0.00     0.065 A 
ATOM     44  H18 3RJ d   1     107.554  44.218  18.740  0.00  0.00     0.167 HD
ATOM     45  N26 3RJ d   1     106.210  46.193  16.633  0.00  0.00    -0.242 NA
ATOM     46  H19 3RJ d   1     108.343  45.825  16.862  0.00  0.00     0.143 H 
ATOM     47  C28 3RJ d   1     103.712  45.923  17.162  0.00  0.00    -0.051 A 
ATOM     48  C29 3RJ d   1     102.819  45.263  18.008  0.00  0.00    -0.054 A 
ATOM     49  H6  3RJ d   1     103.343  46.603  16.403  0.00  0.00     0.087 H 
ATOM     50  H20 3RJ d   1     101.753  45.440  17.925  0.00  0.00     0.087 H 
ENDBRANCH  35  37
ENDBRANCH   9  35
TORSDOF 5
