REMARK  10 active torsions:
REMARK  status: ('A' for Active; 'I' for Inactive)
REMARK    1  A    between atoms: C16_5  and  C17_6 
REMARK    2  A    between atoms: C16_5  and  C18_7 
REMARK    3  A    between atoms: C15_25  and  C16_5 
REMARK    4  A    between atoms: C19_8  and  N20_21 
REMARK    5  A    between atoms: C8_22  and  C19_8 
REMARK    6  A    between atoms: C26_11  and  C27_12 
REMARK       I    between atoms: N23_17  and  C26_11 
REMARK    7  A    between atoms: C14_24  and  N7_23 
REMARK    8  A    between atoms: C14_24  and  C15_25 
REMARK    9  A    between atoms: N4_27  and  C12_28 
REMARK   10  A    between atoms: N6_30  and  C13_31 
ROOT
ATOM      1  C1  3SR d   1      34.997 -15.838  16.491  0.00  0.00     0.282 A 
ATOM      2  C2  3SR d   1      35.532 -16.805  15.505  0.00  0.00     0.151 A 
ATOM      3  C3  3SR d   1      34.711 -17.249  14.390  0.00  0.00     0.168 A 
ATOM      4  C5  3SR d   1      32.935 -15.854  15.155  0.00  0.00     0.332 A 
ATOM      5  C8  3SR d   1      36.681 -18.206  14.328  0.00  0.00     0.135 A 
ATOM      6  N7  3SR d   1      36.712 -17.416  15.435  0.00  0.00    -0.326 N 
ATOM      7  N9  3SR d   1      35.470 -18.118  13.693  0.00  0.00    -0.213 NA
ATOM      8  N4  3SR d   1      33.460 -16.791  14.202  0.00  0.00    -0.286 N 
ATOM      9  O11 3SR d   1      31.786 -15.396  15.032  0.00  0.00    -0.246 OA
ATOM     10  N6  3SR d   1      33.681 -15.390  16.266  0.00  0.00    -0.269 N 
ATOM     11  O10 3SR d   1      35.667 -15.439  17.469  0.00  0.00    -0.265 OA
ENDROOT
BRANCH   5  12
ATOM     12  C19 3SR d   1      37.804 -19.113  13.841  0.00  0.00     0.137 C 
ATOM     13  H8  3SR d   1      37.937 -19.916  14.581  0.00  0.00     0.088 H 
ATOM     14  H9  3SR d   1      37.496 -19.549  12.879  0.00  0.00     0.088 H 
BRANCH  12  15
ATOM     15  N20 3SR d   1      39.097 -18.458  13.647  0.00  0.00    -0.062 N 
ATOM     16  C21 3SR d   1      40.324 -19.155  14.044  0.00  0.00     0.095 C 
ATOM     17  C22 3SR d   1      41.123 -19.474  12.775  0.00  0.00     0.009 C 
ATOM     18  H10 3SR d   1      40.920 -18.512  14.708  0.00  0.00     0.077 H 
ATOM     19  H11 3SR d   1      40.070 -20.088  14.569  0.00  0.00     0.077 H 
ATOM     20  N23 3SR d   1      41.352 -18.210  12.072  0.00  0.00    -0.244 NA
ATOM     21  H15 3SR d   1      40.552 -20.162  12.134  0.00  0.00     0.059 H 
ATOM     22  H16 3SR d   1      42.085 -19.935  13.043  0.00  0.00     0.059 H 
ATOM     23  C26 3SR d   1      42.445 -18.209  11.256  0.00  0.00     0.257 C 
ATOM     24  C24 3SR d   1      40.081 -17.712  11.540  0.00  0.00     0.009 C 
ATOM     25  O32 3SR d   1      43.574 -18.295  11.729  0.00  0.00    -0.272 OA
ATOM     26  C25 3SR d   1      39.201 -17.329  12.728  0.00  0.00     0.095 C 
ATOM     27  H17 3SR d   1      39.589 -18.497  10.947  0.00  0.00     0.059 H 
ATOM     28  H18 3SR d   1      40.259 -16.831  10.906  0.00  0.00     0.059 H 
ATOM     29  H19 3SR d   1      38.198 -17.057  12.367  0.00  0.00     0.077 H 
ATOM     30  H20 3SR d   1      39.647 -16.471  13.252  0.00  0.00     0.077 H 
ATOM     31  H21 3SR d   1      39.037 -17.894  14.480  0.00  0.00     0.280 HD
BRANCH  23  32
ATOM     32  C27 3SR d   1      42.401 -18.120   9.754  0.00  0.00     0.137 A 
ATOM     33  O31 3SR d   1      41.209 -18.343   9.125  0.00  0.00    -0.318 OA
ATOM     34  C30 3SR d   1      41.442 -18.219   7.769  0.00  0.00     0.020 A 
ATOM     35  C29 3SR d   1      42.783 -17.930   7.571  0.00  0.00    -0.059 A 
ATOM     36  H12 3SR d   1      40.695 -18.330   6.985  0.00  0.00     0.123 H 
ATOM     37  C28 3SR d   1      43.388 -17.874   8.811  0.00  0.00    -0.043 A 
ATOM     38  H13 3SR d   1      43.272 -17.775   6.610  0.00  0.00     0.086 H 
ATOM     39  H14 3SR d   1      44.440 -17.675   9.011  0.00  0.00     0.088 H 
ENDBRANCH  23  32
ENDBRANCH  12  15
ENDBRANCH   5  12
BRANCH   6  40
ATOM     40  C14 3SR d   1      37.814 -17.223  16.381  0.00  0.00     0.002 C 
ATOM     41  H22 3SR d   1      38.554 -18.029  16.264  0.00  0.00     0.065 H 
ATOM     42  H23 3SR d   1      37.428 -17.226  17.411  0.00  0.00     0.065 H 
BRANCH  40  43
ATOM     43  C15 3SR d   1      38.461 -15.872  16.070  0.00  0.00    -0.047 C 
ATOM     44  H24 3SR d   1      38.858 -15.920  15.045  0.00  0.00     0.035 H 
ATOM     45  H25 3SR d   1      37.674 -15.105  16.123  0.00  0.00     0.035 H 
BRANCH  43  46
ATOM     46  C16 3SR d   1      39.600 -15.430  16.987  0.00  0.00    -0.060 C 
ATOM     47  H1  3SR d   1      40.429 -16.143  16.865  0.00  0.00     0.038 H 
BRANCH  46  48
ATOM     48  C17 3SR d   1      39.205 -15.419  18.460  0.00  0.00    -0.073 C 
ATOM     49  H2  3SR d   1      40.063 -15.094  19.067  0.00  0.00     0.028 H 
ATOM     50  H3  3SR d   1      38.902 -16.431  18.766  0.00  0.00     0.028 H 
ATOM     51  H4  3SR d   1      38.366 -14.724  18.609  0.00  0.00     0.028 H 
ENDBRANCH  46  48
BRANCH  46  52
ATOM     52  C18 3SR d   1      40.088 -14.040  16.568  0.00  0.00    -0.073 C 
ATOM     53  H5  3SR d   1      40.371 -14.056  15.505  0.00  0.00     0.028 H 
ATOM     54  H6  3SR d   1      40.961 -13.759  17.176  0.00  0.00     0.028 H 
ATOM     55  H7  3SR d   1      39.283 -13.307  16.722  0.00  0.00     0.028 H 
ENDBRANCH  46  52
ENDBRANCH  43  46
ENDBRANCH  40  43
ENDBRANCH   6  40
BRANCH   8  56
ATOM     56  C12 3SR d   1      32.669 -17.263  13.057  0.00  0.00    -0.008 C 
ATOM     57  H26 3SR d   1      33.268 -17.971  12.465  0.00  0.00     0.057 H 
ATOM     58  H27 3SR d   1      32.386 -16.406  12.428  0.00  0.00     0.057 H 
ATOM     59  H28 3SR d   1      31.761 -17.766  13.421  0.00  0.00     0.057 H 
ENDBRANCH   8  56
BRANCH  10  60
ATOM     60  C13 3SR d   1      33.071 -14.424  17.194  0.00  0.00    -0.007 C 
ATOM     61  H29 3SR d   1      33.789 -14.177  17.990  0.00  0.00     0.057 H 
ATOM     62  H30 3SR d   1      32.166 -14.864  17.639  0.00  0.00     0.057 H 
ATOM     63  H31 3SR d   1      32.802 -13.509  16.646  0.00  0.00     0.057 H 
ENDBRANCH  10  60
TORSDOF 10
