REMARK  7 active torsions:
REMARK  status: ('A' for Active; 'I' for Inactive)
REMARK    1  A    between atoms: N7_14  and  C10_7 
REMARK    2  A    between atoms: C13_9  and  C17_17 
REMARK    3  A    between atoms: C2_11  and  C1_10 
REMARK       I    between atoms: C2_11  and  N4_13 
REMARK    4  A    between atoms: C17_17  and  N18_18 
REMARK    5  A    between atoms: N18_18  and  C19_19 
REMARK    6  A    between atoms: N18_18  and  S23_23 
REMARK    7  A    between atoms: S23_23  and  C26_26 
ROOT
ATOM      1  C14 3SN d   1       4.744  55.856   3.309  0.00  0.00     0.126 A 
ATOM      2  C11 3SN d   1       7.147  57.190   3.626  0.00  0.00    -0.062 A 
ATOM      3  C10 3SN d   1       5.986  57.925   3.361  0.00  0.00     0.013 A 
ATOM      4  C12 3SN d   1       7.105  55.808   3.734  0.00  0.00    -0.071 A 
ATOM      5  C13 3SN d   1       5.904  55.131   3.579  0.00  0.00    -0.001 A 
ATOM      6  C15 3SN d   1       4.781  57.240   3.203  0.00  0.00    -0.025 A 
ATOM      7  F16 3SN d   1       3.560  55.224   3.157  0.00  0.00    -0.205 F 
ATOM      8  H5  3SN d   1       8.091  57.708   3.748  0.00  0.00     0.086 H 
ATOM      9  H10 3SN d   1       8.014  55.255   3.940  0.00  0.00     0.084 H 
ATOM     10  H14 3SN d   1       3.870  57.790   2.997  0.00  0.00     0.091 H 
ENDROOT
BRANCH   5  11
ATOM     11  C17 3SN d   1       5.862  53.621   3.705  0.00  0.00     0.032 C 
ATOM     12  H15 3SN d   1       6.651  53.196   3.068  0.00  0.00     0.072 H 
ATOM     13  H16 3SN d   1       4.880  53.269   3.356  0.00  0.00     0.072 H 
BRANCH  11  14
ATOM     14  N18 3SN d   1       6.068  53.139   5.093  0.00  0.00    -0.298 N 
BRANCH  14  15
ATOM     15  C19 3SN d   1       4.995  53.156   6.121  0.00  0.00     0.023 C 
ATOM     16  C20 3SN d   1       3.822  54.152   5.999  0.00  0.00    -0.045 C 
ATOM     17  C21 3SN d   1       2.950  53.047   6.621  0.00  0.00    -0.061 C 
ATOM     18  H18 3SN d   1       3.554  54.429   4.969  0.00  0.00     0.036 H 
ATOM     19  H19 3SN d   1       3.921  55.062   6.609  0.00  0.00     0.036 H 
ATOM     20  C22 3SN d   1       3.928  52.054   5.969  0.00  0.00    -0.045 C 
ATOM     21  H20 3SN d   1       1.919  53.000   6.241  0.00  0.00     0.033 H 
ATOM     22  H21 3SN d   1       2.936  53.031   7.721  0.00  0.00     0.033 H 
ATOM     23  H22 3SN d   1       4.119  51.141   6.553  0.00  0.00     0.036 H 
ATOM     24  H23 3SN d   1       3.688  51.782   4.931  0.00  0.00     0.036 H 
ATOM     25  H17 3SN d   1       5.479  53.181   7.108  0.00  0.00     0.073 H 
ENDBRANCH  14  15
BRANCH  14  26
ATOM     26  S23 3SN d   1       7.547  52.501   5.558  0.00  0.00     0.261 S 
ATOM     27  O24 3SN d   1       8.573  53.084   4.763  0.00  0.00    -0.200 OA
ATOM     28  O25 3SN d   1       7.617  52.531   6.979  0.00  0.00    -0.200 OA
BRANCH  26  29
ATOM     29  C26 3SN d   1       7.503  50.792   5.126  0.00  0.00     0.079 A 
ATOM     30  C27 3SN d   1       6.763  49.904   5.896  0.00  0.00    -0.060 A 
ATOM     31  C28 3SN d   1       6.721  48.561   5.561  0.00  0.00    -0.082 A 
ATOM     32  H24 3SN d   1       6.217  50.263   6.761  0.00  0.00     0.085 H 
ATOM     33  C29 3SN d   1       7.420  48.110   4.452  0.00  0.00    -0.083 A 
ATOM     34  H25 3SN d   1       6.145  47.867   6.162  0.00  0.00     0.083 H 
ATOM     35  C30 3SN d   1       8.162  48.992   3.678  0.00  0.00    -0.082 A 
ATOM     36  H26 3SN d   1       7.387  47.059   4.187  0.00  0.00     0.083 H 
ATOM     37  C31 3SN d   1       8.205  50.336   4.017  0.00  0.00    -0.060 A 
ATOM     38  H27 3SN d   1       8.706  48.632   2.812  0.00  0.00     0.083 H 
ATOM     39  H28 3SN d   1       8.785  51.029   3.418  0.00  0.00     0.085 H 
ENDBRANCH  26  29
ENDBRANCH  14  26
ENDBRANCH  11  14
ENDBRANCH   5  11
BRANCH   3  40
ATOM     40  N7  3SN d   1       6.026  59.328   3.250  0.00  0.00    -0.280 NA
ATOM     41  C6  3SN d   1       4.953  60.009   4.007  0.00  0.00    -0.002 C 
ATOM     42  C5  3SN d   1       4.926  61.499   3.633  0.00  0.00     0.009 C 
ATOM     43  H3  3SN d   1       3.984  59.552   3.760  0.00  0.00     0.058 H 
ATOM     44  H4  3SN d   1       5.143  59.905   5.085  0.00  0.00     0.058 H 
ATOM     45  N4  3SN d   1       6.283  62.054   3.834  0.00  0.00    -0.350 N 
ATOM     46  H1  3SN d   1       4.208  62.031   4.275  0.00  0.00     0.066 H 
ATOM     47  H2  3SN d   1       4.630  61.613   2.580  0.00  0.00     0.066 H 
ATOM     48  C9  3SN d   1       7.401  61.365   3.160  0.00  0.00     0.009 C 
ATOM     49  C2  3SN d   1       6.492  63.147   4.616  0.00  0.00     0.215 C 
ATOM     50  C8  3SN d   1       7.354  59.883   3.573  0.00  0.00    -0.002 C 
ATOM     51  H8  3SN d   1       7.293  61.454   2.069  0.00  0.00     0.066 H 
ATOM     52  H9  3SN d   1       8.357  61.810   3.471  0.00  0.00     0.066 H 
ATOM     53  H6  3SN d   1       7.535  59.797   4.655  0.00  0.00     0.058 H 
ATOM     54  H7  3SN d   1       8.128  59.325   3.026  0.00  0.00     0.058 H 
ATOM     55  O3  3SN d   1       5.552  63.692   5.159  0.00  0.00    -0.274 OA
BRANCH  49  56
ATOM     56  C1  3SN d   1       7.881  63.709   4.825  0.00  0.00    -0.003 C 
ATOM     57  H11 3SN d   1       8.610  63.102   4.268  0.00  0.00     0.040 H 
ATOM     58  H12 3SN d   1       8.128  63.686   5.897  0.00  0.00     0.040 H 
ATOM     59  H13 3SN d   1       7.915  64.747   4.463  0.00  0.00     0.040 H 
ENDBRANCH  49  56
ENDBRANCH   3  40
TORSDOF 7
