REMARK WARNING: 32 MAX_TORS EXCEEDED!!!
REMARK  45 active torsions:
REMARK  status: ('A' for Active; 'I' for Inactive)
REMARK    1  A    between atoms: CA_2  and  C_3 
REMARK       I    between atoms: C_3  and  N_8 
REMARK    2  A    between atoms: N_8  and  CA_9 
REMARK    3  A    between atoms: CA_9  and  C_10 
REMARK    4  A    between atoms: CA_9  and  CB_12 
REMARK       I    between atoms: C_10  and  N_19 
REMARK    5  A    between atoms: CB_12  and  CG_13 
REMARK    6  A    between atoms: CG_13  and  CD_14 
REMARK    7  A    between atoms: CD_14  and  NE_15 
REMARK       I    between atoms: NE_15  and  CZ_16 
REMARK       I    between atoms: CZ_16  and  NH1_17 
REMARK       I    between atoms: CZ_16  and  NH2_18 
REMARK    8  A    between atoms: N_19  and  CA_20 
REMARK    9  A    between atoms: CA_20  and  C_21 
REMARK   10  A    between atoms: CA_20  and  CB_23 
REMARK       I    between atoms: C_21  and  N_28 
REMARK   11  A    between atoms: CB_23  and  CG_24 
REMARK   12  A    between atoms: CG_24  and  CD_25 
REMARK   13  A    between atoms: CD_25  and  CE_26 
REMARK   14  A    between atoms: CE_26  and  NZ_27 
REMARK   15  A    between atoms: N_28  and  CA_29 
REMARK   16  A    between atoms: CA_29  and  C_30 
REMARK   17  A    between atoms: CA_29  and  CB_32 
REMARK       I    between atoms: C_30  and  N_34 
REMARK   18  A    between atoms: CB_32  and  SG_33 
REMARK   19  A    between atoms: N_34  and  CA_35 
REMARK   20  A    between atoms: CA_35  and  C_36 
REMARK   21  A    between atoms: CA_35  and  CB_38 
REMARK       I    between atoms: C_36  and  N_39 
REMARK   22  A    between atoms: N_39  and  CA_40 
REMARK   23  A    between atoms: CA_40  and  C_41 
REMARK   24  A    between atoms: CA_40  and  CB_43 
REMARK       I    between atoms: C_41  and  N_50 
REMARK   25  A    between atoms: CB_43  and  CG_44 
REMARK   26  A    between atoms: CG_44  and  CD_45 
REMARK   27  A    between atoms: CD_45  and  NE_46 
REMARK       I    between atoms: NE_46  and  CZ_47 
REMARK       I    between atoms: CZ_47  and  NH1_48 
REMARK       I    between atoms: CZ_47  and  NH2_49 
REMARK   28  A    between atoms: N_50  and  CA_51 
REMARK   29  A    between atoms: CA_51  and  C_52 
REMARK   30  A    between atoms: CA_51  and  CB_54 
REMARK       I    between atoms: C_52  and  N_59 
REMARK   31  A    between atoms: CB_54  and  CG_55 
REMARK   32  A    between atoms: CG_55  and  CD_56 
REMARK   33  A    between atoms: CD_56  and  CE_57 
REMARK   34  A    between atoms: CE_57  and  NZ_58 
REMARK   35  A    between atoms: N_59  and  CA_60 
REMARK   36  A    between atoms: CA_60  and  C_61 
REMARK   37  A    between atoms: CA_60  and  CB_63 
REMARK       I    between atoms: C_61  and  N_66 
REMARK   38  A    between atoms: CB_63  and  OG1_64 
REMARK   39  A    between atoms: CB_63  and  CG2_65 
REMARK   40  A    between atoms: N_66  and  CA_67 
REMARK   41  A    between atoms: CA_67  and  C_68 
REMARK   42  A    between atoms: CA_67  and  CB_70 
REMARK   43  A    between atoms: CB_70  and  CG_71 
REMARK   44  A    between atoms: CG_71  and  CD_72 
REMARK   45  A    between atoms: CD_72  and  NE_73 
REMARK       I    between atoms: NE_73  and  CZ_74 
REMARK       I    between atoms: CZ_74  and  NH1_75 
ROOT
ATOM      1  N   ARG d   1      45.680   1.898 -31.556  0.00  0.00    -0.346 N 
ATOM      2  H46 ARG d   1      45.953   2.369 -32.395  0.00  0.00     0.163 HD
ATOM      3  C   ALA d   1      46.063   0.639 -31.366  0.00  0.00     0.240 C 
ATOM      4  O   ALA d   1      45.722  -0.014 -30.398  0.00  0.00    -0.271 OA
ENDROOT
BRANCH   1   5
ATOM      5  CA  ARG d   1      44.870   2.611 -30.570  0.00  0.00     0.089 C 
ATOM      6  H47 ARG d   1      44.116   1.911 -30.182  0.00  0.00     0.087 H 
BRANCH   5   7
ATOM      7  C   ARG d   1      44.115   3.817 -31.183  0.00  0.00     0.241 C 
ATOM      8  O   ARG d   1      44.600   4.443 -32.124  0.00  0.00    -0.271 OA
ATOM      9  N   LYS d   1      42.933   4.126 -30.646  0.00  0.00    -0.346 N 
ATOM     10  H59 LYS d   1      42.565   3.540 -29.924  0.00  0.00     0.163 HD
BRANCH   9  11
ATOM     11  CA  LYS d   1      42.147   5.302 -31.077  0.00  0.00     0.089 C 
ATOM     12  H60 LYS d   1      42.261   5.427 -32.164  0.00  0.00     0.087 H 
BRANCH  11  13
ATOM     13  C   LYS d   1      42.670   6.536 -30.368  0.00  0.00     0.241 C 
ATOM     14  O   LYS d   1      43.258   6.418 -29.299  0.00  0.00    -0.271 OA
ATOM     15  N   THR d   1      42.451   7.717 -30.949  0.00  0.00    -0.344 N 
ATOM     16  H72 THR d   1      41.877   7.759 -31.767  0.00  0.00     0.163 HD
BRANCH  15  17
ATOM     17  CA  THR d   1      43.032   8.957 -30.417  0.00  0.00     0.113 C 
ATOM     18  H73 THR d   1      43.136   8.822 -29.330  0.00  0.00     0.091 H 
BRANCH  17  19
ATOM     19  C   THR d   1      42.166  10.210 -30.654  0.00  0.00     0.243 C 
ATOM     20  O   THR d   1      42.699  11.297 -30.847  0.00  0.00    -0.271 OA
ATOM     21  N   ARG d   1      40.844  10.073 -30.614  0.00  0.00    -0.345 N 
ATOM     22  H79 ARG d   1      40.449   9.161 -30.502  0.00  0.00     0.163 HD
BRANCH  21  23
ATOM     23  CA  ARG d   1      39.952  11.237 -30.732  0.00  0.00     0.096 C 
ATOM     24  H80 ARG d   1      40.331  12.029 -30.070  0.00  0.00     0.089 H 
BRANCH  23  25
ATOM     25  C   ARG d   1      38.537  10.891 -30.311  0.00  0.00     0.196 C 
ATOM     26  O   ARG d   1      37.988  11.508 -29.413  0.00  0.00    -0.646 OA
ATOM     27  OXT ARG d   1      37.927   9.991 -30.864  0.00  0.00    -0.646 OA
ENDBRANCH  23  25
BRANCH  23  28
ATOM     28  CB  ARG d   1      39.930  11.768 -32.167  0.00  0.00    -0.035 C 
ATOM     29  H81 ARG d   1      40.949  12.085 -32.434  0.00  0.00     0.036 H 
ATOM     30  H82 ARG d   1      39.254  12.635 -32.205  0.00  0.00     0.036 H 
BRANCH  28  31
ATOM     31  CG  ARG d   1      39.460  10.748 -33.196  0.00  0.00    -0.047 C 
ATOM     32  H83 ARG d   1      38.415  10.483 -32.978  0.00  0.00     0.035 H 
ATOM     33  H84 ARG d   1      40.090   9.850 -33.116  0.00  0.00     0.035 H 
BRANCH  31  34
ATOM     34  CD  ARG d   1      39.542  11.277 -34.623  0.00  0.00     0.009 C 
ATOM     35  H85 ARG d   1      39.635  12.372 -34.580  0.00  0.00     0.064 H 
ATOM     36  H86 ARG d   1      38.612  11.008 -35.145  0.00  0.00     0.064 H 
BRANCH  34  37
ATOM     37  NE  ARG d   1      40.674  10.748 -35.396  0.00  0.00    -0.227 N 
ATOM     38  CZ  ARG d   1      40.902  11.028 -36.682  0.00  0.00     0.665 C 
ATOM     39  NH1 ARG d   1      40.089  11.841 -37.355  0.00  0.00    -0.235 N 
ATOM     40  NH2 ARG d   1      41.943  10.493 -37.307  0.00  0.00    -0.235 N 
ATOM     41  H88 ARG d   1      40.275  12.050 -38.346  0.00  0.00     0.174 HD
ATOM     42  H89 ARG d   1      39.275  12.261 -36.884  0.00  0.00     0.174 HD
ATOM     43  H90 ARG d   1      42.580   9.863 -36.800  0.00  0.00     0.174 HD
ATOM     44  H91 ARG d   1      42.114  10.708 -38.300  0.00  0.00     0.174 HD
ATOM     45  H87 ARG d   1      41.334  10.121 -34.915  0.00  0.00     0.177 HD
ENDBRANCH  34  37
ENDBRANCH  31  34
ENDBRANCH  28  31
ENDBRANCH  23  28
ENDBRANCH  21  23
ENDBRANCH  17  19
BRANCH  17  46
ATOM     46  CB  THR d   1      44.445   9.234 -31.010  0.00  0.00     0.060 C 
ATOM     47  H74 THR d   1      44.901  10.059 -30.443  0.00  0.00     0.086 H 
BRANCH  46  48
ATOM     48  OG1 THR d   1      44.312   9.623 -32.376  0.00  0.00    -0.393 OA
ATOM     49  H75 THR d   1      43.892   8.924 -32.864  0.00  0.00     0.210 HD
ENDBRANCH  46  48
BRANCH  46  50
ATOM     50  CG2 THR d   1      45.383   8.018 -30.932  0.00  0.00    -0.050 C 
ATOM     51  H76 THR d   1      46.359   8.280 -31.366  0.00  0.00     0.031 H 
ATOM     52  H77 THR d   1      44.945   7.180 -31.494  0.00  0.00     0.031 H 
ATOM     53  H78 THR d   1      45.516   7.724 -29.880  0.00  0.00     0.031 H 
ENDBRANCH  46  50
ENDBRANCH  17  46
ENDBRANCH  15  17
ENDBRANCH  11  13
BRANCH  11  54
ATOM     54  CB  LYS d   1      40.655   5.145 -30.747  0.00  0.00    -0.038 C 
ATOM     55  H61 LYS d   1      40.112   5.975 -31.222  0.00  0.00     0.036 H 
ATOM     56  H62 LYS d   1      40.539   5.208 -29.655  0.00  0.00     0.036 H 
BRANCH  54  57
ATOM     57  CG  LYS d   1      40.023   3.836 -31.215  0.00  0.00    -0.061 C 
ATOM     58  H63 LYS d   1      39.017   3.760 -30.776  0.00  0.00     0.033 H 
ATOM     59  H64 LYS d   1      40.644   3.003 -30.855  0.00  0.00     0.033 H 
BRANCH  57  60
ATOM     60  CD  LYS d   1      39.896   3.721 -32.729  0.00  0.00    -0.043 C 
ATOM     61  H65 LYS d   1      40.899   3.747 -33.179  0.00  0.00     0.035 H 
ATOM     62  H66 LYS d   1      39.302   4.566 -33.107  0.00  0.00     0.035 H 
BRANCH  60  63
ATOM     63  CE  LYS d   1      39.213   2.422 -33.110  0.00  0.00     0.080 C 
ATOM     64  H67 LYS d   1      38.412   2.223 -32.383  0.00  0.00     0.075 H 
ATOM     65  H68 LYS d   1      39.956   1.612 -33.068  0.00  0.00     0.075 H 
BRANCH  63  66
ATOM     66  NZ  LYS d   1      38.619   2.447 -34.471  0.00  0.00    -0.079 N 
ATOM     67  H69 LYS d   1      38.182   1.559 -34.663  0.00  0.00     0.274 HD
ATOM     68  H70 LYS d   1      39.343   2.619 -35.151  0.00  0.00     0.274 HD
ATOM     69  H71 LYS d   1      37.928   3.179 -34.523  0.00  0.00     0.274 HD
ENDBRANCH  63  66
ENDBRANCH  60  63
ENDBRANCH  57  60
ENDBRANCH  54  57
ENDBRANCH  11  54
ENDBRANCH   9  11
ENDBRANCH   5   7
BRANCH   5  70
ATOM     70  CB  ARG d   1      45.766   3.050 -29.396  0.00  0.00    -0.036 C 
ATOM     71  H48 ARG d   1      46.642   3.578 -29.801  0.00  0.00     0.036 H 
ATOM     72  H49 ARG d   1      46.098   2.153 -28.853  0.00  0.00     0.036 H 
BRANCH  70  73
ATOM     73  CG  ARG d   1      45.054   3.969 -28.423  0.00  0.00    -0.048 C 
ATOM     74  H50 ARG d   1      44.040   3.574 -28.264  0.00  0.00     0.035 H 
ATOM     75  H51 ARG d   1      44.991   4.966 -28.883  0.00  0.00     0.035 H 
BRANCH  73  76
ATOM     76  CD  ARG d   1      45.714   4.123 -27.063  0.00  0.00     0.009 C 
ATOM     77  H52 ARG d   1      46.654   4.684 -27.169  0.00  0.00     0.064 H 
ATOM     78  H53 ARG d   1      45.925   3.130 -26.640  0.00  0.00     0.064 H 
BRANCH  76  79
ATOM     79  NE  ARG d   1      44.801   4.854 -26.175  0.00  0.00    -0.227 N 
ATOM     80  CZ  ARG d   1      45.109   5.362 -24.983  0.00  0.00     0.665 C 
ATOM     81  NH1 ARG d   1      46.336   5.240 -24.484  0.00  0.00    -0.235 N 
ATOM     82  NH2 ARG d   1      44.172   6.003 -24.283  0.00  0.00    -0.235 N 
ATOM     83  H55 ARG d   1      46.558   5.638 -23.561  0.00  0.00     0.174 HD
ATOM     84  H56 ARG d   1      47.064   4.747 -25.021  0.00  0.00     0.174 HD
ATOM     85  H57 ARG d   1      43.220   6.100 -24.665  0.00  0.00     0.174 HD
ATOM     86  H58 ARG d   1      44.400   6.401 -23.361  0.00  0.00     0.174 HD
ATOM     87  H54 ARG d   1      43.834   4.986 -26.504  0.00  0.00     0.177 HD
ENDBRANCH  76  79
ENDBRANCH  73  76
ENDBRANCH  70  73
ENDBRANCH   5  70
ENDBRANCH   1   5
BRANCH   3  88
ATOM     88  CA  ALA d   1      46.960   0.018 -32.420  0.00  0.00     0.086 C 
ATOM     89  H42 ALA d   1      46.647  -1.026 -32.570  0.00  0.00     0.086 H 
BRANCH  88  90
ATOM     90  N   ALA d   1      46.834   0.721 -33.689  0.00  0.00    -0.346 N 
ATOM     91  C   CYS d   1      45.978   0.317 -34.617  0.00  0.00     0.241 C 
ATOM     92  O   CYS d   1      45.276  -0.684 -34.486  0.00  0.00    -0.271 OA
ATOM     93  H41 ALA d   1      47.404   1.524 -33.864  0.00  0.00     0.163 HD
BRANCH  91  94
ATOM     94  CA  CYS d   1      45.935   1.127 -35.900  0.00  0.00     0.097 C 
ATOM     95  H37 CYS d   1      46.962   1.390 -36.195  0.00  0.00     0.088 H 
BRANCH  94  96
ATOM     96  N   CYS d   1      45.334   0.297 -36.925  0.00  0.00    -0.345 N 
ATOM     97  C   LYS d   1      46.019  -0.669 -37.516  0.00  0.00     0.241 C 
ATOM     98  O   LYS d   1      47.217  -0.858 -37.326  0.00  0.00    -0.271 OA
ATOM     99  H36 CYS d   1      44.383   0.457 -37.191  0.00  0.00     0.163 HD
BRANCH  97 100
ATOM    100  CA  LYS d   1      45.233  -1.577 -38.420  0.00  0.00     0.089 C 
ATOM    101  H24 LYS d   1      44.442  -1.012 -38.935  0.00  0.00     0.087 H 
BRANCH 100 102
ATOM    102  N   LYS d   1      46.130  -2.163 -39.415  0.00  0.00    -0.346 N 
ATOM    103  C   ARG d   1      46.455  -1.518 -40.536  0.00  0.00     0.241 C 
ATOM    104  O   ARG d   1      45.897  -0.478 -40.898  0.00  0.00    -0.271 OA
ATOM    105  H23 LYS d   1      46.510  -3.073 -39.250  0.00  0.00     0.163 HD
BRANCH 103 106
ATOM    106  CA  ARG d   1      47.589  -2.154 -41.370  0.00  0.00     0.089 C 
ATOM    107  H11 ARG d   1      47.446  -3.244 -41.330  0.00  0.00     0.087 H 
BRANCH 106 108
ATOM    108  N   ARG d   1      47.631  -1.777 -42.792  0.00  0.00    -0.346 N 
ATOM    109  C   PRO d   1      47.795  -2.682 -43.757  0.00  0.00     0.249 C 
ATOM    110  O   PRO d   1      47.765  -3.903 -43.558  0.00  0.00    -0.271 OA
ATOM    111  H10 ARG d   1      47.534  -0.814 -43.042  0.00  0.00     0.163 HD
BRANCH 109 112
ATOM    112  CA  PRO d   1      48.004  -2.146 -45.173  0.00  0.00     0.178 C 
ATOM    113  N   PRO d   1      48.816  -3.035 -45.985  0.00  0.00    -0.062 N 
ATOM    114  CD  PRO d   1      47.977  -4.038 -46.664  0.00  0.00     0.083 C 
ATOM    115  H1  PRO d   1      49.481  -3.507 -45.393  0.00  0.00     0.278 HD
ATOM    116  H2  PRO d   1      49.308  -2.493 -46.678  0.00  0.00     0.278 HD
ATOM    117  CG  PRO d   1      46.570  -3.526 -46.454  0.00  0.00    -0.040 C 
ATOM    118  H8  PRO d   1      48.106  -5.031 -46.208  0.00  0.00     0.075 H 
ATOM    119  H9  PRO d   1      48.219  -4.092 -47.736  0.00  0.00     0.075 H 
ATOM    120  CB  PRO d   1      46.683  -2.143 -45.924  0.00  0.00    -0.028 C 
ATOM    121  H6  PRO d   1      46.024  -3.521 -47.409  0.00  0.00     0.035 H 
ATOM    122  H7  PRO d   1      46.040  -4.165 -45.732  0.00  0.00     0.035 H 
ATOM    123  H4  PRO d   1      46.701  -1.410 -46.744  0.00  0.00     0.036 H 
ATOM    124  H5  PRO d   1      45.848  -1.914 -45.246  0.00  0.00     0.036 H 
ATOM    125  H3  PRO d   1      48.445  -1.140 -45.125  0.00  0.00     0.099 H 
ENDBRANCH 109 112
ENDBRANCH 106 108
BRANCH 106 126
ATOM    126  CB  ARG d   1      48.937  -1.819 -40.720  0.00  0.00    -0.036 C 
ATOM    127  H12 ARG d   1      48.883  -2.093 -39.656  0.00  0.00     0.036 H 
ATOM    128  H13 ARG d   1      49.102  -0.735 -40.811  0.00  0.00     0.036 H 
BRANCH 126 129
ATOM    129  CG  ARG d   1      50.130  -2.534 -41.334  0.00  0.00    -0.048 C 
ATOM    130  H14 ARG d   1      51.050  -2.016 -41.025  0.00  0.00     0.035 H 
ATOM    131  H15 ARG d   1      50.039  -2.497 -42.430  0.00  0.00     0.035 H 
BRANCH 129 132
ATOM    132  CD  ARG d   1      50.219  -3.988 -40.901  0.00  0.00     0.009 C 
ATOM    133  H16 ARG d   1      49.210  -4.352 -40.658  0.00  0.00     0.064 H 
ATOM    134  H17 ARG d   1      50.858  -4.058 -40.009  0.00  0.00     0.064 H 
BRANCH 132 135
ATOM    135  NE  ARG d   1      50.786  -4.824 -41.961  0.00  0.00    -0.227 N 
ATOM    136  CZ  ARG d   1      51.589  -5.874 -41.780  0.00  0.00     0.665 C 
ATOM    137  NH1 ARG d   1      51.970  -6.256 -40.565  0.00  0.00    -0.235 N 
ATOM    138  NH2 ARG d   1      52.032  -6.545 -42.837  0.00  0.00    -0.235 N 
ATOM    139  H19 ARG d   1      52.591  -7.070 -40.452  0.00  0.00     0.174 HD
ATOM    140  H20 ARG d   1      51.645  -5.738 -39.736  0.00  0.00     0.174 HD
ATOM    141  H21 ARG d   1      51.745  -6.261 -43.785  0.00  0.00     0.174 HD
ATOM    142  H22 ARG d   1      52.662  -7.350 -42.709  0.00  0.00     0.174 HD
ATOM    143  H18 ARG d   1      50.544  -4.580 -42.932  0.00  0.00     0.177 HD
ENDBRANCH 132 135
ENDBRANCH 129 132
ENDBRANCH 126 129
ENDBRANCH 106 126
ENDBRANCH 103 106
ENDBRANCH 100 102
BRANCH 100 144
ATOM    144  CB  LYS d   1      44.611  -2.633 -37.523  0.00  0.00    -0.038 C 
ATOM    145  H25 LYS d   1      43.903  -2.128 -36.850  0.00  0.00     0.036 H 
ATOM    146  H26 LYS d   1      45.418  -3.090 -36.931  0.00  0.00     0.036 H 
BRANCH 144 147
ATOM    147  CG  LYS d   1      43.868  -3.744 -38.228  0.00  0.00    -0.061 C 
ATOM    148  H27 LYS d   1      44.561  -4.301 -38.876  0.00  0.00     0.033 H 
ATOM    149  H28 LYS d   1      43.057  -3.320 -38.838  0.00  0.00     0.033 H 
BRANCH 147 150
ATOM    150  CD  LYS d   1      43.287  -4.674 -37.179  0.00  0.00    -0.043 C 
ATOM    151  H29 LYS d   1      42.217  -4.449 -37.061  0.00  0.00     0.035 H 
ATOM    152  H30 LYS d   1      43.806  -4.499 -36.225  0.00  0.00     0.035 H 
BRANCH 150 153
ATOM    153  CE  LYS d   1      43.438  -6.132 -37.554  0.00  0.00     0.080 C 
ATOM    154  H31 LYS d   1      44.180  -6.224 -38.361  0.00  0.00     0.075 H 
ATOM    155  H32 LYS d   1      42.469  -6.520 -37.901  0.00  0.00     0.075 H 
BRANCH 153 156
ATOM    156  NZ  LYS d   1      43.891  -6.923 -36.376  0.00  0.00    -0.079 N 
ATOM    157  H33 LYS d   1      43.988  -7.891 -36.639  0.00  0.00     0.274 HD
ATOM    158  H34 LYS d   1      43.212  -6.842 -35.636  0.00  0.00     0.274 HD
ATOM    159  H35 LYS d   1      44.780  -6.571 -36.057  0.00  0.00     0.274 HD
ENDBRANCH 153 156
ENDBRANCH 150 153
ENDBRANCH 147 150
ENDBRANCH 144 147
ENDBRANCH 100 144
ENDBRANCH  97 100
ENDBRANCH  94  96
BRANCH  94 160
ATOM    160  CB  CYS d   1      45.132   2.409 -35.732  0.00  0.00     0.001 C 
ATOM    161  H38 CYS d   1      45.678   3.092 -35.065  0.00  0.00     0.052 H 
ATOM    162  H39 CYS d   1      44.154   2.167 -35.289  0.00  0.00     0.052 H 
BRANCH 160 163
ATOM    163  SG  CYS d   1      44.877   3.217 -37.330  0.00  0.00    -0.180 SA
ATOM    164  H40 CYS d   1      44.344   4.062 -37.197  0.00  0.00     0.101 HD
ENDBRANCH 160 163
ENDBRANCH  94 160
ENDBRANCH  91  94
ENDBRANCH  88  90
BRANCH  88 165
ATOM    165  CB  ALA d   1      48.407   0.025 -31.954  0.00  0.00    -0.049 C 
ATOM    166  H43 ALA d   1      48.486  -0.509 -30.996  0.00  0.00     0.030 H 
ATOM    167  H44 ALA d   1      48.745   1.064 -31.824  0.00  0.00     0.030 H 
ATOM    168  H45 ALA d   1      49.036  -0.475 -32.705  0.00  0.00     0.030 H 
ENDBRANCH  88 165
ENDBRANCH   3  88
TORSDOF 45
