REMARK  10 active torsions:
REMARK  status: ('A' for Active; 'I' for Inactive)
REMARK    1  A    between atoms: C15_10  and  C8_4 
REMARK    2  A    between atoms: N9_5  and  C10_6 
REMARK    3  A    between atoms: C10_6  and  C11_7 
REMARK    4  A    between atoms: C11_7  and  C12_24 
REMARK    5  A    between atoms: C12_24  and  C13_8 
REMARK    6  A    between atoms: C12_24  and  C14_9 
REMARK    7  A    between atoms: N16_25  and  C15_10 
REMARK    8  A    between atoms: C19_26  and  C22_15 
REMARK       I    between atoms: C22_15  and  N23_28 
REMARK    9  A    between atoms: N6_18  and  C25_16 
REMARK   10  A    between atoms: N4_21  and  C27_22 
ROOT
ATOM      1  C1  3ST d   1      38.473  19.513  16.448  0.00  0.00     0.282 A 
ATOM      2  C2  3ST d   1      37.526  19.049  15.408  0.00  0.00     0.151 A 
ATOM      3  C3  3ST d   1      37.192  19.913  14.286  0.00  0.00     0.168 A 
ATOM      4  C8  3ST d   1      36.123  18.020  14.121  0.00  0.00     0.135 A 
ATOM      5  N9  3ST d   1      36.855  17.907  15.261  0.00  0.00    -0.326 N 
ATOM      6  O28 3ST d   1      38.786  18.806  17.428  0.00  0.00    -0.265 OA
ATOM      7  N6  3ST d   1      39.003  20.810  16.271  0.00  0.00    -0.269 N 
ATOM      8  C5  3ST d   1      38.632  21.599  15.146  0.00  0.00     0.332 A 
ATOM      9  O26 3ST d   1      39.128  22.739  15.027  0.00  0.00    -0.246 OA
ATOM     10  N4  3ST d   1      37.720  21.134  14.154  0.00  0.00    -0.286 N 
ATOM     11  N7  3ST d   1      36.322  19.232  13.519  0.00  0.00    -0.213 NA
ENDROOT
BRANCH   4  12
ATOM     12  C15 3ST d   1      35.206  16.948  13.567  0.00  0.00     0.137 C 
ATOM     13  H11 3ST d   1      34.934  17.202  12.532  0.00  0.00     0.088 H 
ATOM     14  H12 3ST d   1      34.296  16.895  14.183  0.00  0.00     0.088 H 
BRANCH  12  15
ATOM     15  N16 3ST d   1      35.875  15.653  13.584  0.00  0.00    -0.064 N 
ATOM     16  C17 3ST d   1      35.005  14.492  13.818  0.00  0.00     0.085 C 
ATOM     17  C18 3ST d   1      34.934  13.594  12.586  0.00  0.00    -0.031 C 
ATOM     18  H13 3ST d   1      35.403  13.911  14.663  0.00  0.00     0.076 H 
ATOM     19  H14 3ST d   1      33.993  14.847  14.062  0.00  0.00     0.076 H 
ATOM     20  C19 3ST d   1      36.378  13.318  12.211  0.00  0.00     0.026 C 
ATOM     21  H15 3ST d   1      34.413  14.107  11.764  0.00  0.00     0.036 H 
ATOM     22  H16 3ST d   1      34.411  12.656  12.822  0.00  0.00     0.036 H 
ATOM     23  C20 3ST d   1      36.893  14.600  11.584  0.00  0.00    -0.031 C 
ATOM     24  H29 3ST d   1      36.954  13.109  13.124  0.00  0.00     0.054 H 
ATOM     25  C21 3ST d   1      37.082  15.565  12.751  0.00  0.00     0.085 C 
ATOM     26  H17 3ST d   1      37.850  14.422  11.071  0.00  0.00     0.036 H 
ATOM     27  H18 3ST d   1      36.161  15.000  10.867  0.00  0.00     0.036 H 
ATOM     28  H19 3ST d   1      37.314  16.564  12.354  0.00  0.00     0.076 H 
ATOM     29  H20 3ST d   1      37.919  15.214  13.372  0.00  0.00     0.076 H 
ATOM     30  H28 3ST d   1      36.316  15.696  14.489  0.00  0.00     0.280 HD
BRANCH  20  31
ATOM     31  C22 3ST d   1      36.512  12.123  11.300  0.00  0.00     0.219 C 
ATOM     32  O24 3ST d   1      36.561  11.012  11.800  0.00  0.00    -0.273 OA
ATOM     33  N23 3ST d   1      36.583  12.281   9.977  0.00  0.00    -0.370 N 
ATOM     34  H30 3ST d   1      36.672  11.482   9.382  0.00  0.00     0.159 HD
ATOM     35  H31 3ST d   1      36.547  13.198   9.580  0.00  0.00     0.159 HD
ENDBRANCH  20  31
ENDBRANCH  12  15
ENDBRANCH   4  12
BRANCH   5  36
ATOM     36  C10 3ST d   1      36.892  16.758  16.170  0.00  0.00     0.002 C 
ATOM     37  H1  3ST d   1      36.349  15.920  15.708  0.00  0.00     0.065 H 
ATOM     38  H2  3ST d   1      36.402  17.035  17.115  0.00  0.00     0.065 H 
BRANCH  36  39
ATOM     39  C11 3ST d   1      38.325  16.316  16.466  0.00  0.00    -0.047 C 
ATOM     40  H3  3ST d   1      38.556  16.560  17.514  0.00  0.00     0.035 H 
ATOM     41  H4  3ST d   1      39.005  16.870  15.802  0.00  0.00     0.035 H 
BRANCH  39  42
ATOM     42  C12 3ST d   1      38.553  14.821  16.255  0.00  0.00    -0.060 C 
ATOM     43  H27 3ST d   1      38.587  14.638  15.171  0.00  0.00     0.038 H 
BRANCH  42  44
ATOM     44  C13 3ST d   1      37.424  13.973  16.831  0.00  0.00    -0.073 C 
ATOM     45  H5  3ST d   1      37.637  12.909  16.653  0.00  0.00     0.028 H 
ATOM     46  H6  3ST d   1      36.476  14.244  16.343  0.00  0.00     0.028 H 
ATOM     47  H7  3ST d   1      37.344  14.155  17.913  0.00  0.00     0.028 H 
ENDBRANCH  42  44
BRANCH  42  48
ATOM     48  C14 3ST d   1      39.897  14.405  16.846  0.00  0.00    -0.073 C 
ATOM     49  H8  3ST d   1      40.695  15.029  16.417  0.00  0.00     0.028 H 
ATOM     50  H9  3ST d   1      40.090  13.348  16.609  0.00  0.00     0.028 H 
ATOM     51  H10 3ST d   1      39.874  14.538  17.938  0.00  0.00     0.028 H 
ENDBRANCH  42  48
ENDBRANCH  39  42
ENDBRANCH  36  39
ENDBRANCH   5  36
BRANCH  10  52
ATOM     52  C27 3ST d   1      37.369  21.987  13.015  0.00  0.00    -0.008 C 
ATOM     53  H24 3ST d   1      36.658  21.456  12.365  0.00  0.00     0.057 H 
ATOM     54  H25 3ST d   1      38.278  22.229  12.444  0.00  0.00     0.057 H 
ATOM     55  H26 3ST d   1      36.908  22.916  13.381  0.00  0.00     0.057 H 
ENDBRANCH  10  52
BRANCH   7  56
ATOM     56  C25 3ST d   1      39.947  21.338  17.261  0.00  0.00    -0.007 C 
ATOM     57  H21 3ST d   1      40.108  20.589  18.050  0.00  0.00     0.057 H 
ATOM     58  H22 3ST d   1      39.536  22.256  17.706  0.00  0.00     0.057 H 
ATOM     59  H23 3ST d   1      40.905  21.565  16.770  0.00  0.00     0.057 H 
ENDBRANCH   7  56
TORSDOF 10
