REMARK  9 active torsions:
REMARK  status: ('A' for Active; 'I' for Inactive)
REMARK    1  A    between atoms: CAJ_4  and  CAL_2 
REMARK    2  A    between atoms: SAP_5  and  CAJ_4 
REMARK    3  A    between atoms: CAJ_4  and  CAI_6 
REMARK    4  A    between atoms: SAP_21  and  SAP_5 
REMARK    5  A    between atoms: CAI_6  and  CAH_7 
REMARK    6  A    between atoms: CAJ_20  and  CAL_18 
REMARK    7  A    between atoms: CAJ_20  and  SAP_21 
REMARK    8  A    between atoms: CAJ_20  and  CAI_22 
REMARK    9  A    between atoms: CAI_22  and  CAH_23 
ROOT
ATOM      1  SAP 3SU d   1      12.505 -13.689  25.963  0.00  0.00    -0.081 SA
ENDROOT
BRANCH   1   2
ATOM      2  CAJ 3SU d   1      14.231 -13.854  25.406  0.00  0.00     0.089 C 
ATOM      3  H1  3SU d   1      14.079 -13.085  24.634  0.00  0.00     0.075 H 
BRANCH   2   4
ATOM      4  CAL 3SU d   1      14.593 -14.916  24.395  0.00  0.00     0.188 C 
ATOM      5  OAM 3SU d   1      15.785 -15.041  24.077  0.00  0.00    -0.647 OA
ATOM      6  OAN 3SU d   1      13.725 -15.658  23.893  0.00  0.00    -0.647 OA
ENDBRANCH   2   4
BRANCH   2   7
ATOM      7  CAI 3SU d   1      15.436 -13.088  26.010  0.00  0.00    -0.017 C 
ATOM      8  H2  3SU d   1      16.017 -12.720  25.151  0.00  0.00     0.042 H 
ATOM      9  H3  3SU d   1      16.024 -13.840  26.556  0.00  0.00     0.042 H 
BRANCH   7  10
ATOM     10  CAH 3SU d   1      15.320 -12.054  26.835  0.00  0.00    -0.029 A 
ATOM     11  CAE 3SU d   1      16.260 -11.106  26.925  0.00  0.00    -0.002 A 
ATOM     12  CAD 3SU d   1      17.435 -10.964  26.325  0.00  0.00    -0.069 A 
ATOM     13  CAF 3SU d   1      15.814 -10.187  27.791  0.00  0.00     0.044 A 
ATOM     14  CAC 3SU d   1      18.210  -9.850  26.599  0.00  0.00    -0.065 A 
ATOM     15  H4  3SU d   1      17.785 -11.714  25.626  0.00  0.00     0.085 H 
ATOM     16  CAB 3SU d   1      17.784  -8.881  27.506  0.00  0.00     0.013 A 
ATOM     17  H5  3SU d   1      19.165  -9.729  26.100  0.00  0.00     0.085 H 
ATOM     18 BR   3SU d   1      18.882  -7.299  27.915  0.00  0.00    -0.051 Br
ATOM     19  CAG 3SU d   1      16.546  -9.098  28.114  0.00  0.00    -0.040 A 
ATOM     20  H6  3SU d   1      16.172  -8.392  28.846  0.00  0.00     0.089 H 
ATOM     21  NAA 3SU d   1      14.603 -10.601  28.216  0.00  0.00    -0.365 N 
ATOM     22  CAK 3SU d   1      14.294 -11.763  27.621  0.00  0.00    -0.015 A 
ATOM     23  H7  3SU d   1      14.008 -10.102  28.893  0.00  0.00     0.165 HD
ATOM     24  H8  3SU d   1      13.385 -12.348  27.756  0.00  0.00     0.112 H 
ENDBRANCH   7  10
ENDBRANCH   2   7
ENDBRANCH   1   2
BRANCH   1  25
ATOM     25  SAP 3SU d   1      11.320 -13.179  24.339  0.00  0.00    -0.081 SA
BRANCH  25  26
ATOM     26  CAJ 3SU d   1      11.355 -11.265  24.378  0.00  0.00     0.089 C 
ATOM     27  H9  3SU d   1      12.420 -11.293  24.653  0.00  0.00     0.075 H 
BRANCH  26  28
ATOM     28  CAL 3SU d   1      11.021 -10.532  25.693  0.00  0.00     0.188 C 
ATOM     29  OAM 3SU d   1      10.624 -11.143  26.706  0.00  0.00    -0.647 OA
ATOM     30  OAN 3SU d   1      11.098  -9.303  25.733  0.00  0.00    -0.647 OA
ENDBRANCH  26  28
BRANCH  26  31
ATOM     31  CAI 3SU d   1      11.703 -10.424  23.118  0.00  0.00    -0.017 C 
ATOM     32  H10 3SU d   1      12.530  -9.756  23.400  0.00  0.00     0.042 H 
ATOM     33  H11 3SU d   1      10.812  -9.824  22.881  0.00  0.00     0.042 H 
BRANCH  31  34
ATOM     34  CAH 3SU d   1      12.068 -11.033  21.990  0.00  0.00    -0.029 A 
ATOM     35  CAE 3SU d   1      13.057 -10.619  21.194  0.00  0.00    -0.002 A 
ATOM     36  CAD 3SU d   1      13.908  -9.621  21.338  0.00  0.00    -0.069 A 
ATOM     37  CAF 3SU d   1      13.166 -11.480  20.168  0.00  0.00     0.044 A 
ATOM     38  CAC 3SU d   1      14.886  -9.398  20.409  0.00  0.00    -0.065 A 
ATOM     39  H12 3SU d   1      13.831  -8.971  22.202  0.00  0.00     0.085 H 
ATOM     40  CAB 3SU d   1      15.009 -10.265  19.334  0.00  0.00     0.013 A 
ATOM     41  H13 3SU d   1      15.557  -8.553  20.512  0.00  0.00     0.085 H 
ATOM     42 BR   3SU d   1      16.390  -9.959  18.132  0.00  0.00    -0.051 Br
ATOM     43  CAG 3SU d   1      14.119 -11.321  19.232  0.00  0.00    -0.040 A 
ATOM     44  H14 3SU d   1      14.190 -12.015  18.403  0.00  0.00     0.089 H 
ATOM     45  NAA 3SU d   1      12.189 -12.383  20.317  0.00  0.00    -0.365 N 
ATOM     46  CAK 3SU d   1      11.512 -12.128  21.459  0.00  0.00    -0.015 A 
ATOM     47  H15 3SU d   1      11.985 -13.152  19.663  0.00  0.00     0.165 HD
ATOM     48  H16 3SU d   1      10.680 -12.700  21.866  0.00  0.00     0.112 H 
ENDBRANCH  31  34
ENDBRANCH  26  31
ENDBRANCH  25  26
ENDBRANCH   1  25
TORSDOF 9
