REMARK  6 active torsions:
REMARK  status: ('A' for Active; 'I' for Inactive)
REMARK    1  A    between atoms: C8_5  and  S11_6 
REMARK    2  A    between atoms: S11_6  and  C12_7 
REMARK    3  A    between atoms: C12_7  and  C13_8 
REMARK    4  A    between atoms: C13_8  and  C14_9 
REMARK    5  A    between atoms: C5_14  and  S1_15 
REMARK    6  A    between atoms: S1_15  and  N2_18 
ROOT
ATOM      1  F18 3TV d   1      12.515  38.150  15.904  0.00  0.00    -0.201 F 
ATOM      2  C7  3TV d   1      12.717  37.142  16.796  0.00  0.00     0.176 A 
ATOM      3  C6  3TV d   1      13.464  37.403  17.976  0.00  0.00     0.182 A 
ATOM      4  F17 3TV d   1      13.944  38.654  18.148  0.00  0.00    -0.201 F 
ATOM      5  C8  3TV d   1      12.174  35.902  16.599  0.00  0.00     0.084 A 
ATOM      6  C9  3TV d   1      12.393  34.881  17.502  0.00  0.00     0.176 A 
ATOM      7  F15 3TV d   1      11.929  33.606  17.324  0.00  0.00    -0.201 F 
ATOM      8  C10 3TV d   1      13.144  35.136  18.661  0.00  0.00     0.182 A 
ATOM      9  F16 3TV d   1      13.315  34.123  19.527  0.00  0.00    -0.201 F 
ATOM     10  C5  3TV d   1      13.665  36.439  18.931  0.00  0.00     0.162 A 
ENDROOT
BRANCH   5  11
ATOM     11  S11 3TV d   1      11.209  35.576  15.098  0.00  0.00    -0.124 SA
BRANCH  11  12
ATOM     12  C12 3TV d   1       9.712  34.830  15.892  0.00  0.00    -0.019 C 
ATOM     13  H1  3TV d   1       9.358  35.496  16.692  0.00  0.00     0.049 H 
ATOM     14  H2  3TV d   1       9.980  33.853  16.320  0.00  0.00     0.049 H 
BRANCH  12  15
ATOM     15  C13 3TV d   1       8.589  34.638  14.863  0.00  0.00    -0.060 C 
ATOM     16  H3  3TV d   1       7.782  34.031  15.300  0.00  0.00     0.033 H 
ATOM     17  H4  3TV d   1       8.985  34.133  13.970  0.00  0.00     0.033 H 
BRANCH  15  18
ATOM     18  C14 3TV d   1       8.055  36.007  14.485  0.00  0.00    -0.076 C 
ATOM     19  H5  3TV d   1       7.247  35.895  13.747  0.00  0.00     0.027 H 
ATOM     20  H6  3TV d   1       8.866  36.610  14.052  0.00  0.00     0.027 H 
ATOM     21  H7  3TV d   1       7.664  36.509  15.383  0.00  0.00     0.027 H 
ENDBRANCH  15  18
ENDBRANCH  12  15
ENDBRANCH  11  12
ENDBRANCH   5  11
BRANCH  10  22
ATOM     22  S1  3TV d   1      14.585  36.894  20.419  0.00  0.00     0.263 S 
ATOM     23  O3  3TV d   1      14.835  35.586  21.095  0.00  0.00    -0.201 OA
ATOM     24  O4  3TV d   1      13.773  37.943  21.067  0.00  0.00    -0.201 OA
BRANCH  22  25
ATOM     25  N2  3TV d   1      16.083  37.362  19.859  0.00  0.00    -0.324 N 
ATOM     26  H8  3TV d   1      16.785  37.664  20.503  0.00  0.00     0.169 HD
ATOM     27  H9  3TV d   1      16.279  37.340  18.879  0.00  0.00     0.169 HD
ENDBRANCH  22  25
ENDBRANCH  10  22
TORSDOF 6
