REMARK  3 active torsions:
REMARK  status: ('A' for Active; 'I' for Inactive)
REMARK    1  A    between atoms: OAA_1  and  CAP_2 
REMARK    2  A    between atoms: CAS_7  and  NAV_8 
REMARK    3  A    between atoms: CAR_12  and  CAQ_13 
ROOT
ATOM      1  NAV 3TX d   1      44.989 -25.268  71.767  0.00  0.00    -0.225 N 
ATOM      2  CAL 3TX d   1      43.974 -25.790  72.500  0.00  0.00     0.038 A 
ATOM      3  NAN 3TX d   1      46.161 -25.412  72.437  0.00  0.00    -0.060 NA
ATOM      4  NAM 3TX d   1      45.909 -26.024  73.565  0.00  0.00    -0.128 NA
ATOM      5  CAR 3TX d   1      44.573 -26.236  73.656  0.00  0.00     0.127 A 
ATOM      6  H6  3TX d   1      42.920 -25.844  72.233  0.00  0.00     0.118 H 
ENDROOT
BRANCH   5   7
ATOM      7  CAQ 3TX d   1      44.112 -26.977  74.831  0.00  0.00     0.089 A 
ATOM      8  CAH 3TX d   1      42.755 -27.188  75.027  0.00  0.00    -0.052 A 
ATOM      9  CAK 3TX d   1      42.331 -27.936  76.128  0.00  0.00    -0.069 A 
ATOM     10  H7  3TX d   1      42.031 -26.777  74.333  0.00  0.00     0.087 H 
ATOM     11  CAT 3TX d   1      43.287 -28.475  76.979  0.00  0.00    -0.007 A 
ATOM     12  H8  3TX d   1      41.275 -28.093  76.315  0.00  0.00     0.085 H 
ATOM     13  CAU 3TX d   1      44.640 -28.253  76.717  0.00  0.00     0.067 A 
ATOM     14  CAI 3TX d   1      42.911 -29.232  78.074  0.00  0.00    -0.071 A 
ATOM     15  NAO 3TX d   1      45.026 -27.519  75.651  0.00  0.00    -0.246 NA
ATOM     16  CAJ 3TX d   1      45.609 -28.795  77.554  0.00  0.00    -0.054 A 
ATOM     17  CAC 3TX d   1      45.241 -29.546  78.657  0.00  0.00    -0.081 A 
ATOM     18  H9  3TX d   1      46.659 -28.628  77.341  0.00  0.00     0.087 H 
ATOM     19  CAB 3TX d   1      43.892 -29.767  78.903  0.00  0.00    -0.082 A 
ATOM     20  H10 3TX d   1      45.995 -29.956  79.319  0.00  0.00     0.083 H 
ATOM     21  H11 3TX d   1      43.598 -30.367  79.757  0.00  0.00     0.083 H 
ATOM     22  H12 3TX d   1      41.862 -29.407  78.284  0.00  0.00     0.084 H 
ENDBRANCH   5   7
BRANCH   1  23
ATOM     23  CAS 3TX d   1      44.860 -24.641  70.490  0.00  0.00     0.059 A 
ATOM     24  CAF 3TX d   1      45.829 -23.752  70.012  0.00  0.00    -0.052 A 
ATOM     25  CAD 3TX d   1      45.663 -23.148  68.768  0.00  0.00    -0.049 A 
ATOM     26  H3  3TX d   1      46.707 -23.534  70.609  0.00  0.00     0.087 H 
ATOM     27  CAP 3TX d   1      44.538 -23.431  67.998  0.00  0.00     0.065 A 
ATOM     28  H2  3TX d   1      46.411 -22.456  68.398  0.00  0.00     0.087 H 
ATOM     29  CAE 3TX d   1      43.584 -24.305  68.480  0.00  0.00    -0.049 A 
ATOM     30  CAG 3TX d   1      43.740 -24.912  69.714  0.00  0.00    -0.052 A 
ATOM     31  H4  3TX d   1      42.703 -24.518  67.885  0.00  0.00     0.087 H 
ATOM     32  H5  3TX d   1      42.986 -25.601  70.076  0.00  0.00     0.087 H 
BRANCH  27  33
ATOM     33  OAA 3TX d   1      44.343 -22.871  66.765  0.00  0.00    -0.361 OA
ATOM     34  H1  3TX d   1      44.310 -21.925  66.850  0.00  0.00     0.217 HD
ENDBRANCH  27  33
ENDBRANCH   1  23
TORSDOF 3
