REMARK  19 active torsions:
REMARK  status: ('A' for Active; 'I' for Inactive)
REMARK    1  A    between atoms: C1_1  and  C2_2 
REMARK    2  A    between atoms: C2_2  and  C3_3 
REMARK    3  A    between atoms: C2_2  and  C44_44 
REMARK    4  A    between atoms: C2_2  and  O3_47 
REMARK    5  A    between atoms: C3_3  and  C4_4 
REMARK    6  A    between atoms: C7_7  and  O5_49 
REMARK    7  A    between atoms: C10_10  and  C43_43 
REMARK    8  A    between atoms: C12_12  and  C13_13 
REMARK    9  A    between atoms: C13_13  and  C14_14 
REMARK   10  A    between atoms: C13_13  and  C42_42 
REMARK   11  A    between atoms: C15_15  and  C16_16 
REMARK   12  A    between atoms: C24_24  and  O10_54 
REMARK   13  A    between atoms: C26_26  and  C27_27 
REMARK   14  A    between atoms: C27_27  and  C28_28 
REMARK   15  A    between atoms: C27_27  and  O11_55 
REMARK   16  A    between atoms: C28_28  and  C29_29 
REMARK   17  A    between atoms: C29_29  and  C30_30 
REMARK   18  A    between atoms: C29_29  and  C40_40 
REMARK   19  A    between atoms: C31_31  and  C39_39 
ROOT
ATOM      1  C16 OKA d   1      28.089  52.100  53.558  0.00  0.00     0.058 C 
ATOM      2  C17 OKA d   1      28.709  51.677  52.200  0.00  0.00    -0.033 C 
ATOM      3  C18 OKA d   1      30.227  51.674  52.457  0.00  0.00    -0.010 C 
ATOM      4  C19 OKA d   1      30.348  52.192  53.927  0.00  0.00     0.165 C 
ATOM      5  C20 OKA d   1      31.563  52.989  54.157  0.00  0.00    -0.010 C 
ATOM      6  C21 OKA d   1      31.603  53.409  55.651  0.00  0.00    -0.034 C 
ATOM      7  C22 OKA d   1      31.550  52.129  56.481  0.00  0.00     0.067 C 
ATOM      8  C23 OKA d   1      30.277  51.346  56.119  0.00  0.00     0.095 C 
ATOM      9  C24 OKA d   1      30.250  50.007  56.928  0.00  0.00     0.086 C 
ATOM     10  C25 OKA d   1      30.383  50.424  58.375  0.00  0.00    -0.027 C 
ATOM     11  C26 OKA d   1      31.500  51.345  58.714  0.00  0.00     0.087 C 
ATOM     12  C41 OKA d   1      29.575  50.016  59.315  0.00  0.00    -0.114 C 
ATOM     13  O7  OKA d   1      29.118  52.831  54.154  0.00  0.00    -0.346 OA
ATOM     14  O8  OKA d   1      30.333  50.993  54.746  0.00  0.00    -0.344 OA
ATOM     15  O9  OKA d   1      31.546  52.500  57.862  0.00  0.00    -0.371 OA
ATOM     16  H16 OKA d   1      27.809  51.211  54.142  0.00  0.00     0.089 H 
ATOM     17  H17 OKA d   1      28.449  52.399  51.412  0.00  0.00     0.037 H 
ATOM     18  H18 OKA d   1      28.361  50.675  51.909  0.00  0.00     0.037 H 
ATOM     19  H19 OKA d   1      30.746  52.347  51.759  0.00  0.00     0.041 H 
ATOM     20  H20 OKA d   1      30.640  50.659  52.362  0.00  0.00     0.041 H 
ATOM     21  H21 OKA d   1      31.544  53.886  53.520  0.00  0.00     0.041 H 
ATOM     22  H22 OKA d   1      32.452  52.387  53.917  0.00  0.00     0.041 H 
ATOM     23  H23 OKA d   1      30.738  54.047  55.886  0.00  0.00     0.037 H 
ATOM     24  H24 OKA d   1      32.532  53.958  55.864  0.00  0.00     0.037 H 
ATOM     25  H25 OKA d   1      32.432  51.508  56.269  0.00  0.00     0.087 H 
ATOM     26  H26 OKA d   1      29.382  51.949  56.332  0.00  0.00     0.092 H 
ATOM     27  H27 OKA d   1      31.111  49.381  56.653  0.00  0.00     0.094 H 
ATOM     28  H28 OKA d   1      31.320  51.704  59.738  0.00  0.00     0.094 H 
ATOM     29  H53 OKA d   1      28.755  49.341  59.073  0.00  0.00     0.067 H 
ATOM     30  H54 OKA d   1      29.721  50.350  60.341  0.00  0.00     0.067 H 
ENDROOT
BRANCH   1  31
ATOM     31  C15 OKA d   1      26.926  53.050  53.487  0.00  0.00    -0.079 C 
ATOM     32  C14 OKA d   1      25.825  52.713  54.160  0.00  0.00    -0.098 C 
ATOM     33  H14 OKA d   1      25.779  51.773  54.708  0.00  0.00     0.077 H 
ATOM     34  H15 OKA d   1      26.980  53.973  52.911  0.00  0.00     0.080 H 
BRANCH  32  35
ATOM     35  C13 OKA d   1      24.613  53.676  54.152  0.00  0.00    -0.016 C 
ATOM     36  H13 OKA d   1      24.800  54.524  53.477  0.00  0.00     0.049 H 
BRANCH  35  37
ATOM     37  C12 OKA d   1      24.382  54.193  55.581  0.00  0.00     0.052 C 
ATOM     38  C11 OKA d   1      23.137  55.124  55.623  0.00  0.00    -0.020 C 
ATOM     39  C10 OKA d   1      23.167  55.900  56.902  0.00  0.00    -0.080 C 
ATOM     40  H10 OKA d   1      23.162  55.816  54.768  0.00  0.00     0.043 H 
ATOM     41  H11 OKA d   1      22.220  54.519  55.578  0.00  0.00     0.043 H 
ATOM     42  C9  OKA d   1      24.274  56.037  57.654  0.00  0.00    -0.040 C 
ATOM     43  C8  OKA d   1      25.547  55.342  57.264  0.00  0.00     0.211 C 
ATOM     44  H9  OKA d   1      24.247  56.655  58.550  0.00  0.00     0.085 H 
ATOM     45  C7  OKA d   1      26.722  56.298  57.379  0.00  0.00     0.093 C 
ATOM     46  O4  OKA d   1      25.684  54.294  58.205  0.00  0.00    -0.344 OA
ATOM     47  O6  OKA d   1      25.513  54.862  55.920  0.00  0.00    -0.343 OA
ATOM     48  C6  OKA d   1      28.031  55.509  57.135  0.00  0.00    -0.034 C 
ATOM     49  H8  OKA d   1      26.734  56.726  58.392  0.00  0.00     0.091 H 
ATOM     50  C5  OKA d   1      28.111  54.312  58.085  0.00  0.00    -0.038 C 
ATOM     51  H6  OKA d   1      28.050  55.150  56.096  0.00  0.00     0.037 H 
ATOM     52  H7  OKA d   1      28.892  56.170  57.311  0.00  0.00     0.037 H 
ATOM     53  C4  OKA d   1      26.843  53.474  58.001  0.00  0.00     0.045 C 
ATOM     54  H4  OKA d   1      28.975  53.689  57.809  0.00  0.00     0.036 H 
ATOM     55  H5  OKA d   1      28.236  54.676  59.115  0.00  0.00     0.036 H 
ATOM     56  H3  OKA d   1      26.788  52.989  57.015  0.00  0.00     0.083 H 
ATOM     57  H12 OKA d   1      24.224  53.350  56.269  0.00  0.00     0.085 H 
BRANCH  39  58
ATOM     58  C43 OKA d   1      21.941  56.616  57.401  0.00  0.00    -0.055 C 
ATOM     59  H58 OKA d   1      22.173  57.122  58.350  0.00  0.00     0.033 H 
ATOM     60  H59 OKA d   1      21.131  55.889  57.561  0.00  0.00     0.033 H 
ATOM     61  H60 OKA d   1      21.623  57.361  56.657  0.00  0.00     0.033 H 
ENDBRANCH  39  58
BRANCH  45  62
ATOM     62  O5  OKA d   1      26.645  57.379  56.414  0.00  0.00    -0.390 OA
ATOM     63  H65 OKA d   1      27.396  57.951  56.520  0.00  0.00     0.210 HD
ENDBRANCH  45  62
BRANCH  53  64
ATOM     64  C3  OKA d   1      26.862  52.407  59.118  0.00  0.00    -0.003 C 
ATOM     65  H1  OKA d   1      27.792  51.827  59.029  0.00  0.00     0.042 H 
ATOM     66  H2  OKA d   1      26.843  52.921  60.090  0.00  0.00     0.042 H 
BRANCH  64  67
ATOM     67  C2  OKA d   1      25.682  51.438  59.061  0.00  0.00     0.144 C 
BRANCH  67  68
ATOM     68  C1  OKA d   1      25.664  50.713  57.694  0.00  0.00     0.208 C 
ATOM     69  O1  OKA d   1      26.715  50.148  57.388  0.00  0.00    -0.646 OA
ATOM     70  O2  OKA d   1      24.641  50.747  57.005  0.00  0.00    -0.646 OA
ENDBRANCH  67  68
BRANCH  67  71
ATOM     71  C44 OKA d   1      25.774  50.416  60.185  0.00  0.00    -0.038 C 
ATOM     72  H61 OKA d   1      24.917  49.729  60.127  0.00  0.00     0.032 H 
ATOM     73  H62 OKA d   1      25.762  50.935  61.155  0.00  0.00     0.032 H 
ATOM     74  H63 OKA d   1      26.709  49.845  60.086  0.00  0.00     0.032 H 
ENDBRANCH  67  71
BRANCH  67  75
ATOM     75  O3  OKA d   1      24.472  52.168  59.220  0.00  0.00    -0.379 OA
ATOM     76  H64 OKA d   1      24.395  52.807  58.522  0.00  0.00     0.211 HD
ENDBRANCH  67  75
ENDBRANCH  64  67
ENDBRANCH  53  64
ENDBRANCH  35  37
BRANCH  35  77
ATOM     77  C42 OKA d   1      23.416  52.879  53.668  0.00  0.00    -0.067 C 
ATOM     78  H55 OKA d   1      23.604  52.520  52.645  0.00  0.00     0.028 H 
ATOM     79  H56 OKA d   1      22.522  53.520  53.673  0.00  0.00     0.028 H 
ATOM     80  H57 OKA d   1      23.254  52.019  54.334  0.00  0.00     0.028 H 
ENDBRANCH  35  77
ENDBRANCH  32  35
ENDBRANCH   1  31
BRANCH   9  81
ATOM     81  O10 OKA d   1      29.101  49.309  56.635  0.00  0.00    -0.388 OA
ATOM     82  H66 OKA d   1      28.345  49.847  56.837  0.00  0.00     0.210 HD
ENDBRANCH   9  81
BRANCH  11  83
ATOM     83  C27 OKA d   1      32.861  50.614  58.714  0.00  0.00     0.065 C 
ATOM     84  H29 OKA d   1      33.019  50.090  57.760  0.00  0.00     0.087 H 
BRANCH  83  85
ATOM     85  C28 OKA d   1      32.876  49.611  59.878  0.00  0.00    -0.033 C 
ATOM     86  H30 OKA d   1      32.137  48.825  59.662  0.00  0.00     0.037 H 
ATOM     87  H31 OKA d   1      32.586  50.146  60.794  0.00  0.00     0.037 H 
BRANCH  85  88
ATOM     88  C29 OKA d   1      34.234  48.935  60.128  0.00  0.00    -0.030 C 
ATOM     89  H32 OKA d   1      34.992  49.672  60.432  0.00  0.00     0.043 H 
BRANCH  88  90
ATOM     90  C30 OKA d   1      33.993  47.879  61.248  0.00  0.00     0.048 C 
ATOM     91  C31 OKA d   1      33.641  48.420  62.613  0.00  0.00    -0.032 C 
ATOM     92  C32 OKA d   1      33.603  47.316  63.670  0.00  0.00    -0.055 C 
ATOM     93  H34 OKA d   1      32.629  48.845  62.541  0.00  0.00     0.043 H 
ATOM     94  C33 OKA d   1      34.773  46.342  63.593  0.00  0.00    -0.012 C 
ATOM     95  H35 OKA d   1      32.670  46.747  63.542  0.00  0.00     0.033 H 
ATOM     96  H36 OKA d   1      33.611  47.788  64.663  0.00  0.00     0.033 H 
ATOM     97  C34 OKA d   1      35.062  45.994  62.124  0.00  0.00     0.164 C 
ATOM     98  H37 OKA d   1      34.521  45.424  64.144  0.00  0.00     0.041 H 
ATOM     99  H38 OKA d   1      35.664  46.805  64.041  0.00  0.00     0.041 H 
ATOM    100  C35 OKA d   1      36.452  45.267  62.085  0.00  0.00    -0.013 C 
ATOM    101  O12 OKA d   1      35.219  47.092  61.315  0.00  0.00    -0.349 OA
ATOM    102  O13 OKA d   1      33.999  45.124  61.831  0.00  0.00    -0.355 OA
ATOM    103  C36 OKA d   1      36.616  44.673  60.691  0.00  0.00    -0.058 C 
ATOM    104  H39 OKA d   1      36.480  44.468  62.840  0.00  0.00     0.041 H 
ATOM    105  H40 OKA d   1      37.259  45.987  62.284  0.00  0.00     0.041 H 
ATOM    106  C37 OKA d   1      35.445  43.775  60.413  0.00  0.00    -0.045 C 
ATOM    107  H41 OKA d   1      37.549  44.092  60.643  0.00  0.00     0.033 H 
ATOM    108  H42 OKA d   1      36.649  45.481  59.945  0.00  0.00     0.033 H 
ATOM    109  C38 OKA d   1      34.125  44.496  60.506  0.00  0.00     0.023 C 
ATOM    110  H43 OKA d   1      35.450  42.954  61.145  0.00  0.00     0.036 H 
ATOM    111  H44 OKA d   1      35.550  43.363  59.398  0.00  0.00     0.036 H 
ATOM    112  H45 OKA d   1      33.304  43.778  60.361  0.00  0.00     0.074 H 
ATOM    113  H46 OKA d   1      34.075  45.271  59.727  0.00  0.00     0.074 H 
ATOM    114  H33 OKA d   1      33.162  47.231  60.932  0.00  0.00     0.084 H 
BRANCH  91 115
ATOM    115  C39 OKA d   1      34.578  49.544  63.055  0.00  0.00    -0.070 C 
ATOM    116  H47 OKA d   1      34.596  50.330  62.286  0.00  0.00     0.028 H 
ATOM    117  H48 OKA d   1      35.593  49.143  63.192  0.00  0.00     0.028 H 
ATOM    118  H49 OKA d   1      34.220  49.968  64.005  0.00  0.00     0.028 H 
ENDBRANCH  91 115
ENDBRANCH  88  90
BRANCH  88 119
ATOM    119  C40 OKA d   1      34.676  48.199  58.855  0.00  0.00    -0.070 C 
ATOM    120  H50 OKA d   1      34.851  48.929  58.051  0.00  0.00     0.028 H 
ATOM    121  H51 OKA d   1      33.889  47.496  58.546  0.00  0.00     0.028 H 
ATOM    122  H52 OKA d   1      35.605  47.645  59.056  0.00  0.00     0.028 H 
ENDBRANCH  88 119
ENDBRANCH  85  88
ENDBRANCH  83  85
BRANCH  83 123
ATOM    123  O11 OKA d   1      33.871  51.590  58.915  0.00  0.00    -0.393 OA
ATOM    124  H67 OKA d   1      34.719  51.163  58.954  0.00  0.00     0.210 HD
ENDBRANCH  83 123
ENDBRANCH  11  83
TORSDOF 19
