REMARK  32 active torsions:
REMARK  status: ('A' for Active; 'I' for Inactive)
REMARK    1  A    between atoms: N_1  and  CA_2 
REMARK    2  A    between atoms: CA_2  and  C_3 
REMARK    3  A    between atoms: CA_2  and  CB_5 
REMARK       I    between atoms: C_3  and  N_7 
REMARK    4  A    between atoms: CB_5  and  OG_6 
REMARK    5  A    between atoms: N_7  and  CA_8 
REMARK    6  A    between atoms: CA_8  and  C_9 
REMARK    7  A    between atoms: CA_8  and  CB_11 
REMARK       I    between atoms: C_9  and  N_12 
REMARK    8  A    between atoms: N_12  and  CA_13 
REMARK    9  A    between atoms: CA_13  and  CB_14 
REMARK   10  A    between atoms: CA_13  and  C_16 
REMARK   11  A    between atoms: CB_14  and  OG_15 
REMARK   12  A    between atoms: OG_15  and  P_18 
REMARK       I    between atoms: C_16  and  N_22 
REMARK   13  A    between atoms: N_22  and  CA_23 
REMARK   14  A    between atoms: CA_23  and  C_24 
REMARK   15  A    between atoms: CA_23  and  CB_26 
REMARK       I    between atoms: C_24  and  N_30 
REMARK   16  A    between atoms: CB_26  and  CG_27 
REMARK   17  A    between atoms: CG_27  and  CD1_28 
REMARK   18  A    between atoms: CG_27  and  CD2_29 
REMARK   19  A    between atoms: N_30  and  CA_31 
REMARK   20  A    between atoms: CA_31  and  C_32 
REMARK   21  A    between atoms: CA_31  and  CB_34 
REMARK       I    between atoms: C_32  and  N_36 
REMARK   22  A    between atoms: CB_34  and  OG_35 
REMARK   23  A    between atoms: N_36  and  CA_37 
REMARK   24  A    between atoms: CA_37  and  C_38 
REMARK   25  A    between atoms: CA_37  and  CB_40 
REMARK       I    between atoms: C_38  and  N_44 
REMARK   26  A    between atoms: CB_40  and  CG_41 
REMARK       I    between atoms: CG_41  and  ND2_43 
REMARK   27  A    between atoms: N_44  and  CA_45 
REMARK   28  A    between atoms: CA_45  and  C_46 
REMARK   29  A    between atoms: CA_45  and  CB_48 
REMARK   30  A    between atoms: CB_48  and  CG_49 
REMARK   31  A    between atoms: CG_49  and  CD1_50 
REMARK   32  A    between atoms: CG_49  and  CD2_51 
ROOT
ATOM      1  CA  LEU d   1      19.413  -8.080  38.874  0.00  0.00     0.089 C 
ATOM      2  H18 LEU d   1      19.847  -8.101  37.864  0.00  0.00     0.087 H 
ENDROOT
BRANCH   1   3
ATOM      3  N   LEU d   1      20.205  -8.979  39.711  0.00  0.00    -0.346 N 
ATOM      4  C   SEP d   1      21.528  -8.866  39.837  0.00  0.00     0.243 C 
ATOM      5  O   SEP d   1      22.197  -7.961  39.266  0.00  0.00    -0.271 OA
ATOM      6  H17 LEU d   1      19.736  -9.708  40.209  0.00  0.00     0.163 HD
BRANCH   4   7
ATOM      7  CA  SEP d   1      22.231  -9.907  40.675  0.00  0.00     0.110 C 
ATOM      8  H14 SEP d   1      22.171 -10.867  40.141  0.00  0.00     0.090 H 
BRANCH   7   9
ATOM      9  N   SEP d   1      23.625  -9.564  40.812  0.00  0.00    -0.344 N 
ATOM     10  C   ALA d   1      24.566 -10.106  40.039  0.00  0.00     0.240 C 
ATOM     11  O   ALA d   1      24.355 -11.070  39.305  0.00  0.00    -0.271 OA
ATOM     12  H13 SEP d   1      23.894  -8.899  41.509  0.00  0.00     0.163 HD
BRANCH  10  13
ATOM     13  CA  ALA d   1      25.953  -9.442  40.080  0.00  0.00     0.086 C 
ATOM     14  H9  ALA d   1      25.949  -8.741  40.928  0.00  0.00     0.086 H 
BRANCH  13  15
ATOM     15  N   ALA d   1      27.063 -10.350  40.279  0.00  0.00    -0.346 N 
ATOM     16  C   SER d   1      27.647 -10.472  41.463  0.00  0.00     0.251 C 
ATOM     17  O   SER d   1      27.144 -10.036  42.510  0.00  0.00    -0.271 OA
ATOM     18  H8  ALA d   1      27.395 -10.895  39.509  0.00  0.00     0.163 HD
BRANCH  16  19
ATOM     19  CA  SER d   1      28.981 -11.219  41.462  0.00  0.00     0.195 C 
ATOM     20  H4  SER d   1      29.052 -11.800  40.531  0.00  0.00     0.102 H 
BRANCH  19  21
ATOM     21  N   SER d   1      30.096 -10.275  41.499  0.00  0.00    -0.064 N 
ATOM     22  H1  SER d   1      30.967 -10.783  41.498  0.00  0.00     0.275 HD
ATOM     23  H2  SER d   1      30.035  -9.715  42.335  0.00  0.00     0.275 HD
ATOM     24  H3  SER d   1      30.056  -9.676  40.690  0.00  0.00     0.275 HD
ENDBRANCH  19  21
BRANCH  19  25
ATOM     25  CB  SER d   1      29.052 -12.192  42.640  0.00  0.00     0.051 C 
ATOM     26  H5  SER d   1      28.797 -11.653  43.565  0.00  0.00     0.077 H 
ATOM     27  H6  SER d   1      30.076 -12.588  42.716  0.00  0.00     0.077 H 
BRANCH  25  28
ATOM     28  OG  SER d   1      28.146 -13.280  42.473  0.00  0.00    -0.398 OA
ATOM     29  H7  SER d   1      28.214 -13.864  43.219  0.00  0.00     0.209 HD
ENDBRANCH  25  28
ENDBRANCH  19  25
ENDBRANCH  16  19
ENDBRANCH  13  15
BRANCH  13  30
ATOM     30  CB  ALA d   1      26.193  -8.646  38.807  0.00  0.00    -0.049 C 
ATOM     31  H10 ALA d   1      25.355  -7.952  38.645  0.00  0.00     0.030 H 
ATOM     32  H11 ALA d   1      26.269  -9.335  37.953  0.00  0.00     0.030 H 
ATOM     33  H12 ALA d   1      27.129  -8.075  38.902  0.00  0.00     0.030 H 
ENDBRANCH  13  30
ENDBRANCH  10  13
ENDBRANCH   7   9
BRANCH   7  34
ATOM     34  CB  SEP d   1      21.571 -10.091  42.002  0.00  0.00     0.059 C 
ATOM     35  H15 SEP d   1      22.082 -10.900  42.545  0.00  0.00     0.079 H 
ATOM     36  H16 SEP d   1      20.518 -10.365  41.841  0.00  0.00     0.079 H 
BRANCH  34  37
ATOM     37  OG  SEP d   1      21.622  -8.942  42.762  0.00  0.00    -0.280 OA
BRANCH  37  38
ATOM     38  P   SEP d   1      21.127  -8.941  44.242  0.00  0.00     0.422 P 
ATOM     39  O1P SEP d   1      19.692  -9.422  44.350  0.00  0.00    -0.617 OA
ATOM     40  O2P SEP d   1      21.202  -7.504  44.747  0.00  0.00    -0.617 OA
ATOM     41  O3P SEP d   1      21.996  -9.799  45.136  0.00  0.00    -0.617 OA
ENDBRANCH  37  38
ENDBRANCH  34  37
ENDBRANCH   7  34
ENDBRANCH   4   7
ENDBRANCH   1   3
BRANCH   1  42
ATOM     42  C   LEU d   1      19.468  -6.613  39.369  0.00  0.00     0.241 C 
ATOM     43  O   LEU d   1      19.284  -5.674  38.586  0.00  0.00    -0.271 OA
ATOM     44  N   SER d   1      19.721  -6.439  40.665  0.00  0.00    -0.344 N 
ATOM     45  H28 SER d   1      19.782  -7.250  41.247  0.00  0.00     0.163 HD
BRANCH  44  46
ATOM     46  CA  SER d   1      19.916  -5.122  41.287  0.00  0.00     0.109 C 
ATOM     47  H29 SER d   1      18.920  -4.677  41.431  0.00  0.00     0.090 H 
BRANCH  46  48
ATOM     48  C   SER d   1      20.736  -4.157  40.436  0.00  0.00     0.243 C 
ATOM     49  O   SER d   1      20.550  -2.950  40.506  0.00  0.00    -0.271 OA
ATOM     50  N   ASN d   1      21.644  -4.700  39.639  0.00  0.00    -0.345 N 
ATOM     51  H33 ASN d   1      21.816  -5.683  39.698  0.00  0.00     0.163 HD
BRANCH  50  52
ATOM     52  CA  ASN d   1      22.399  -3.905  38.679  0.00  0.00     0.097 C 
ATOM     53  H34 ASN d   1      22.610  -2.930  39.143  0.00  0.00     0.088 H 
BRANCH  52  54
ATOM     54  C   ASN d   1      21.629  -3.636  37.370  0.00  0.00     0.241 C 
ATOM     55  O   ASN d   1      21.604  -4.475  36.472  0.00  0.00    -0.271 OA
ATOM     56  N   LEU d   1      20.990  -2.470  37.274  0.00  0.00    -0.345 N 
ATOM     57  H39 LEU d   1      21.012  -1.835  38.046  0.00  0.00     0.163 HD
BRANCH  56  58
ATOM     58  CA  LEU d   1      20.254  -2.097  36.059  0.00  0.00     0.096 C 
ATOM     59  H40 LEU d   1      20.873  -2.409  35.205  0.00  0.00     0.089 H 
BRANCH  58  60
ATOM     60  C   LEU d   1      20.054  -0.583  35.932  0.00  0.00     0.196 C 
ATOM     61  O   LEU d   1      19.942  -0.048  34.827  0.00  0.00    -0.646 OA
ATOM     62  OXT LEU d   1      20.000   0.136  36.932  0.00  0.00    -0.646 OA
ENDBRANCH  58  60
BRANCH  58  63
ATOM     63  CB  LEU d   1      18.910  -2.860  35.945  0.00  0.00    -0.034 C 
ATOM     64  H41 LEU d   1      19.174  -3.928  35.942  0.00  0.00     0.037 H 
ATOM     65  H42 LEU d   1      18.492  -2.583  34.966  0.00  0.00     0.037 H 
BRANCH  63  66
ATOM     66  CG  LEU d   1      17.745  -2.720  36.951  0.00  0.00    -0.059 C 
ATOM     67  H43 LEU d   1      18.195  -2.690  37.954  0.00  0.00     0.038 H 
BRANCH  66  68
ATOM     68  CD1 LEU d   1      16.931  -1.400  36.787  0.00  0.00    -0.073 C 
ATOM     69  H44 LEU d   1      16.123  -1.372  37.533  0.00  0.00     0.028 H 
ATOM     70  H45 LEU d   1      16.498  -1.359  35.777  0.00  0.00     0.028 H 
ATOM     71  H46 LEU d   1      17.597  -0.537  36.935  0.00  0.00     0.028 H 
ENDBRANCH  66  68
BRANCH  66  72
ATOM     72  CD2 LEU d   1      16.817  -3.967  36.901  0.00  0.00    -0.073 C 
ATOM     73  H47 LEU d   1      17.421  -4.879  37.019  0.00  0.00     0.028 H 
ATOM     74  H48 LEU d   1      16.294  -3.997  35.934  0.00  0.00     0.028 H 
ATOM     75  H49 LEU d   1      16.079  -3.908  37.715  0.00  0.00     0.028 H 
ENDBRANCH  66  72
ENDBRANCH  63  66
ENDBRANCH  58  63
ENDBRANCH  56  58
ENDBRANCH  52  54
BRANCH  52  76
ATOM     76  CB  ASN d   1      23.731  -4.598  38.394  0.00  0.00     0.036 C 
ATOM     77  H35 ASN d   1      24.245  -4.058  37.586  0.00  0.00     0.051 H 
ATOM     78  H36 ASN d   1      23.531  -5.632  38.075  0.00  0.00     0.051 H 
BRANCH  76  79
ATOM     79  CG  ASN d   1      24.634  -4.629  39.611  0.00  0.00     0.217 C 
ATOM     80  OD1 ASN d   1      25.363  -3.669  39.878  0.00  0.00    -0.274 OA
ATOM     81  ND2 ASN d   1      24.584  -5.722  40.363  0.00  0.00    -0.370 N 
ATOM     82  H37 ASN d   1      25.159  -5.795  41.178  0.00  0.00     0.159 HD
ATOM     83  H38 ASN d   1      23.971  -6.472  40.115  0.00  0.00     0.159 HD
ENDBRANCH  76  79
ENDBRANCH  52  76
ENDBRANCH  50  52
ENDBRANCH  46  48
BRANCH  46  84
ATOM     84  CB  SER d   1      20.584  -5.264  42.663  0.00  0.00     0.044 C 
ATOM     85  H30 SER d   1      21.116  -4.332  42.904  0.00  0.00     0.077 H 
ATOM     86  H31 SER d   1      21.300  -6.098  42.632  0.00  0.00     0.077 H 
BRANCH  84  87
ATOM     87  OG  SER d   1      19.616  -5.519  43.665  0.00  0.00    -0.398 OA
ATOM     88  H32 SER d   1      20.048  -5.604  44.507  0.00  0.00     0.209 HD
ENDBRANCH  84  87
ENDBRANCH  46  84
ENDBRANCH  44  46
ENDBRANCH   1  42
BRANCH   1  89
ATOM     89  CB  LEU d   1      17.961  -8.581  38.770  0.00  0.00    -0.035 C 
ATOM     90  H19 LEU d   1      17.485  -8.420  39.749  0.00  0.00     0.037 H 
ATOM     91  H20 LEU d   1      17.999  -9.659  38.554  0.00  0.00     0.037 H 
BRANCH  89  92
ATOM     92  CG  LEU d   1      17.062  -7.929  37.708  0.00  0.00    -0.059 C 
ATOM     93  H21 LEU d   1      17.014  -6.852  37.927  0.00  0.00     0.038 H 
BRANCH  92  94
ATOM     94  CD1 LEU d   1      17.646  -8.099  36.314  0.00  0.00    -0.073 C 
ATOM     95  H22 LEU d   1      16.982  -7.623  35.578  0.00  0.00     0.028 H 
ATOM     96  H23 LEU d   1      17.740  -9.171  36.084  0.00  0.00     0.028 H 
ATOM     97  H24 LEU d   1      18.638  -7.626  36.272  0.00  0.00     0.028 H 
ENDBRANCH  92  94
BRANCH  92  98
ATOM     98  CD2 LEU d   1      15.646  -8.477  37.756  0.00  0.00    -0.073 C 
ATOM     99  H25 LEU d   1      15.237  -8.348  38.769  0.00  0.00     0.028 H 
ATOM    100  H26 LEU d   1      15.658  -9.547  37.499  0.00  0.00     0.028 H 
ATOM    101  H27 LEU d   1      15.018  -7.934  37.035  0.00  0.00     0.028 H 
ENDBRANCH  92  98
ENDBRANCH  89  92
ENDBRANCH   1  89
TORSDOF 32
