REMARK  4 active torsions:
REMARK  status: ('A' for Active; 'I' for Inactive)
REMARK    1  A    between atoms: C08_8  and  C09_9 
REMARK    2  A    between atoms: C15_15  and  C16_16 
REMARK    3  A    between atoms: C20_20  and  O21_21 
REMARK    4  A    between atoms: O21_21  and  C22_22 
ROOT
ATOM      1  C16 3U1 d   1     -40.229  -2.373  -0.095  0.00  0.00     0.108 A 
ATOM      2  C17 3U1 d   1     -39.062  -2.540  -0.851  0.00  0.00     0.032 A 
ATOM      3  N18 3U1 d   1     -37.875  -2.816  -0.261  0.00  0.00    -0.266 NA
ATOM      4  C19 3U1 d   1     -37.830  -2.949   1.084  0.00  0.00     0.053 A 
ATOM      5  C20 3U1 d   1     -38.990  -2.803   1.851  0.00  0.00     0.183 A 
ATOM      6  N30 3U1 d   1     -40.172  -2.522   1.247  0.00  0.00    -0.220 NA
ATOM      7  H7  3U1 d   1     -39.110  -2.446  -1.930  0.00  0.00     0.118 H 
ATOM      8  H8  3U1 d   1     -36.887  -3.171   1.571  0.00  0.00     0.121 H 
ENDROOT
BRANCH   1   9
ATOM      9  C15 3U1 d   1     -41.451  -2.114  -0.733  0.00  0.00     0.119 A 
ATOM     10  N14 3U1 d   1     -41.617  -2.135  -2.072  0.00  0.00    -0.171 NA
ATOM     11  N13 3U1 d   1     -42.902  -1.884  -2.383  0.00  0.00    -0.277 N 
ATOM     12  C12 3U1 d   1     -43.607  -1.691  -1.214  0.00  0.00     0.062 A 
ATOM     13  H6  3U1 d   1     -43.293  -1.843  -3.335  0.00  0.00     0.189 HD
ATOM     14  C11 3U1 d   1     -44.977  -1.411  -0.987  0.00  0.00    -0.054 A 
ATOM     15  C31 3U1 d   1     -42.739  -1.839  -0.152  0.00  0.00     0.026 A 
ATOM     16  C10 3U1 d   1     -45.462  -1.280   0.316  0.00  0.00    -0.070 A 
ATOM     17  H5  3U1 d   1     -45.651  -1.298  -1.828  0.00  0.00     0.087 H 
ATOM     18  C09 3U1 d   1     -44.607  -1.414   1.436  0.00  0.00    -0.019 A 
ATOM     19  H4  3U1 d   1     -46.514  -1.072   0.473  0.00  0.00     0.084 H 
ATOM     20  C32 3U1 d   1     -43.235  -1.698   1.195  0.00  0.00    -0.058 A 
ATOM     21  H22 3U1 d   1     -42.555  -1.810   2.032  0.00  0.00     0.086 H 
BRANCH  18  22
ATOM     22  C08 3U1 d   1     -45.165  -1.269   2.744  0.00  0.00     0.051 A 
ATOM     23  C02 3U1 d   1     -44.777  -2.108   3.802  0.00  0.00     0.130 A 
ATOM     24  F01 3U1 d   1     -43.853  -3.058   3.616  0.00  0.00    -0.205 F 
ATOM     25  C03 3U1 d   1     -45.331  -1.969   5.079  0.00  0.00    -0.045 A 
ATOM     26  C04 3U1 d   1     -46.297  -0.991   5.329  0.00  0.00    -0.077 A 
ATOM     27  H1  3U1 d   1     -45.009  -2.624   5.880  0.00  0.00     0.088 H 
ATOM     28  C05 3U1 d   1     -46.704  -0.148   4.294  0.00  0.00    -0.045 A 
ATOM     29  H2  3U1 d   1     -46.727  -0.888   6.319  0.00  0.00     0.083 H 
ATOM     30  C06 3U1 d   1     -46.146  -0.287   3.014  0.00  0.00     0.130 A 
ATOM     31  H3  3U1 d   1     -47.452   0.615   4.479  0.00  0.00     0.088 H 
ATOM     32  F07 3U1 d   1     -46.569   0.550   2.051  0.00  0.00    -0.205 F 
ENDBRANCH  18  22
ENDBRANCH   1   9
BRANCH   5  33
ATOM     33  O21 3U1 d   1     -38.887  -2.968   3.270  0.00  0.00    -0.325 OA
BRANCH  33  34
ATOM     34  C22 3U1 d   1     -40.121  -2.812   4.013  0.00  0.00     0.077 C 
ATOM     35  C23 3U1 d   1     -40.727  -4.168   4.415  0.00  0.00     0.106 C 
ATOM     36  N24 3U1 d   1     -40.029  -4.860   5.526  0.00  0.00    -0.073 N 
ATOM     37  H10 3U1 d   1     -40.704  -4.827   3.534  0.00  0.00     0.079 H 
ATOM     38  H11 3U1 d   1     -41.770  -3.999   4.720  0.00  0.00     0.079 H 
ATOM     39  C25 3U1 d   1     -39.659  -3.970   6.651  0.00  0.00     0.083 C 
ATOM     40  H12 3U1 d   1     -39.187  -5.277   5.161  0.00  0.00     0.277 HD
ATOM     41  H13 3U1 d   1     -40.635  -5.583   5.880  0.00  0.00     0.277 HD
ATOM     42  C26 3U1 d   1     -38.926  -2.723   6.153  0.00  0.00    -0.033 C 
ATOM     43  H14 3U1 d   1     -39.003  -4.519   7.342  0.00  0.00     0.075 H 
ATOM     44  H15 3U1 d   1     -40.573  -3.662   7.180  0.00  0.00     0.075 H 
ATOM     45  C27 3U1 d   1     -39.768  -1.983   5.182  0.00  0.00    -0.010 A 
ATOM     46  H16 3U1 d   1     -37.988  -3.025   5.664  0.00  0.00     0.036 H 
ATOM     47  H17 3U1 d   1     -38.700  -2.070   7.008  0.00  0.00     0.036 H 
ATOM     48  C28 3U1 d   1     -40.751  -1.014   5.817  0.00  0.00    -0.055 A 
ATOM     49  C29 3U1 d   1     -39.465  -0.494   5.196  0.00  0.00    -0.055 A 
ATOM     50  H18 3U1 d   1     -40.880  -0.998   6.909  0.00  0.00     0.034 H 
ATOM     51  H19 3U1 d   1     -41.717  -0.813   5.331  0.00  0.00     0.034 H 
ATOM     52  H20 3U1 d   1     -39.500   0.083   4.260  0.00  0.00     0.034 H 
ATOM     53  H21 3U1 d   1     -38.663  -0.102   5.839  0.00  0.00     0.034 H 
ATOM     54  H9  3U1 d   1     -40.858  -2.278   3.395  0.00  0.00     0.087 H 
ENDBRANCH  33  34
ENDBRANCH   5  33
TORSDOF 4
