REMARK  6 active torsions:
REMARK  status: ('A' for Active; 'I' for Inactive)
REMARK    1  A    between atoms: CAK_1  and  CAB_2 
REMARK    2  A    between atoms: CAC_3  and  OAJ_4 
REMARK    3  A    between atoms: CAD_5  and  OAI_6 
REMARK    4  A    between atoms: CAE_7  and  OAH_8 
REMARK    5  A    between atoms: CAA_10  and  NAG_11 
REMARK       I    between atoms: NAG_11  and  CAL_12 
REMARK    6  A    between atoms: CAL_12  and  CAN_14 
ROOT
ATOM      1  CAB 3U3 d   1      28.149   5.039  56.070  0.00  0.00    -0.011 C 
ATOM      2  CAC 3U3 d   1      29.280   4.523  55.142  0.00  0.00     0.068 C 
ATOM      3  CAD 3U3 d   1      30.545   5.253  55.444  0.00  0.00     0.085 C 
ATOM      4  CAE 3U3 d   1      30.444   6.604  55.002  0.00  0.00     0.064 C 
ATOM      5  CAF 3U3 d   1      29.245   7.360  55.421  0.00  0.00    -0.019 C 
ATOM      6  CAA 3U3 d   1      28.140   6.554  56.208  0.00  0.00     0.020 C 
ATOM      7  H4  3U3 d   1      28.349   4.625  57.069  0.00  0.00     0.046 H 
ATOM      8  H5  3U3 d   1      29.424   3.443  55.293  0.00  0.00     0.087 H 
ATOM      9  H7  3U3 d   1      30.711   5.256  56.531  0.00  0.00     0.090 H 
ATOM     10  H9  3U3 d   1      30.459   6.593  53.902  0.00  0.00     0.087 H 
ATOM     11  H11 3U3 d   1      28.776   7.771  54.515  0.00  0.00     0.040 H 
ATOM     12  H12 3U3 d   1      29.580   8.185  56.067  0.00  0.00     0.040 H 
ATOM     13  H13 3U3 d   1      27.165   6.917  55.852  0.00  0.00     0.073 H 
ENDROOT
BRANCH   6  14
ATOM     14  NAG 3U3 d   1      28.262   6.824  57.683  0.00  0.00    -0.356 N 
ATOM     15  CAL 3U3 d   1      27.771   7.952  58.146  0.00  0.00     0.213 C 
ATOM     16  OAM 3U3 d   1      27.283   8.878  57.479  0.00  0.00    -0.274 OA
ATOM     17  H14 3U3 d   1      28.703   6.165  58.293  0.00  0.00     0.162 HD
BRANCH  15  18
ATOM     18  CAN 3U3 d   1      27.960   8.111  59.664  0.00  0.00    -0.003 C 
ATOM     19  H15 3U3 d   1      27.530   9.070  59.989  0.00  0.00     0.040 H 
ATOM     20  H16 3U3 d   1      29.033   8.090  59.904  0.00  0.00     0.040 H 
ATOM     21  H17 3U3 d   1      27.452   7.286  60.185  0.00  0.00     0.040 H 
ENDBRANCH  15  18
ENDBRANCH   6  14
BRANCH   1  22
ATOM     22  CAK 3U3 d   1      26.749   4.536  55.640  0.00  0.00    -0.069 C 
ATOM     23  H1  3U3 d   1      26.767   3.440  55.543  0.00  0.00     0.028 H 
ATOM     24  H2  3U3 d   1      26.479   4.985  54.673  0.00  0.00     0.028 H 
ATOM     25  H3  3U3 d   1      26.007   4.825  56.398  0.00  0.00     0.028 H 
ENDBRANCH   1  22
BRANCH   2  26
ATOM     26  OAJ 3U3 d   1      28.909   4.797  53.731  0.00  0.00    -0.392 OA
ATOM     27  H6  3U3 d   1      29.598   4.483  53.157  0.00  0.00     0.210 HD
ENDBRANCH   2  26
BRANCH   4  28
ATOM     28  OAH 3U3 d   1      31.666   7.350  55.515  0.00  0.00    -0.393 OA
ATOM     29  H10 3U3 d   1      31.683   7.312  56.464  0.00  0.00     0.210 HD
ENDBRANCH   4  28
BRANCH   3  30
ATOM     30  OAI 3U3 d   1      31.650   4.534  54.800  0.00  0.00    -0.390 OA
ATOM     31  H8  3U3 d   1      31.692   3.649  55.142  0.00  0.00     0.210 HD
ENDBRANCH   3  30
TORSDOF 6
