REMARK  5 active torsions:
REMARK  status: ('A' for Active; 'I' for Inactive)
REMARK    1  A    between atoms: CAK_1  and  CAB_2 
REMARK    2  A    between atoms: CAC_3  and  OAJ_4 
REMARK    3  A    between atoms: CAD_5  and  OAI_6 
REMARK    4  A    between atoms: CAE_7  and  OAH_8 
REMARK    5  A    between atoms: CAA_10  and  NAG_11 
REMARK       I    between atoms: NAG_11  and  CAL_12 
ROOT
ATOM      1  CAB 3U2 d   1      28.224   5.110  56.012  0.00  0.00    -0.011 C 
ATOM      2  CAC 3U2 d   1      29.302   4.505  55.046  0.00  0.00     0.068 C 
ATOM      3  CAD 3U2 d   1      30.686   5.112  55.360  0.00  0.00     0.085 C 
ATOM      4  CAE 3U2 d   1      30.734   6.593  54.883  0.00  0.00     0.064 C 
ATOM      5  CAF 3U2 d   1      29.307   7.339  55.001  0.00  0.00    -0.019 C 
ATOM      6  CAA 3U2 d   1      28.425   6.629  56.181  0.00  0.00     0.019 C 
ATOM      7  H4  3U2 d   1      28.355   4.644  57.000  0.00  0.00     0.046 H 
ATOM      8  H5  3U2 d   1      29.345   3.414  55.181  0.00  0.00     0.087 H 
ATOM      9  H7  3U2 d   1      30.826   5.101  56.451  0.00  0.00     0.090 H 
ATOM     10  H9  3U2 d   1      30.949   6.557  53.805  0.00  0.00     0.087 H 
ATOM     11  H11 3U2 d   1      28.771   7.261  54.044  0.00  0.00     0.040 H 
ATOM     12  H12 3U2 d   1      29.465   8.399  55.248  0.00  0.00     0.040 H 
ATOM     13  H13 3U2 d   1      27.427   7.087  56.120  0.00  0.00     0.073 H 
ENDROOT
BRANCH   6  14
ATOM     14  NAG 3U2 d   1      28.946   6.899  57.582  0.00  0.00    -0.363 N 
ATOM     15  CAL 3U2 d   1      28.726   8.057  58.289  0.00  0.00     0.169 C 
ATOM     16  OAM 3U2 d   1      28.091   9.044  57.872  0.00  0.00    -0.284 OA
ATOM     17  H15 3U2 d   1      29.140   8.116  59.294  0.00  0.00     0.180 H 
ATOM     18  H14 3U2 d   1      29.488   6.183  58.022  0.00  0.00     0.162 HD
ENDBRANCH   6  14
BRANCH   1  19
ATOM     19  CAK 3U2 d   1      26.813   4.771  55.520  0.00  0.00    -0.069 C 
ATOM     20  H1  3U2 d   1      26.714   3.681  55.414  0.00  0.00     0.028 H 
ATOM     21  H2  3U2 d   1      26.639   5.252  54.546  0.00  0.00     0.028 H 
ATOM     22  H3  3U2 d   1      26.073   5.137  56.247  0.00  0.00     0.028 H 
ENDBRANCH   1  19
BRANCH   2  23
ATOM     23  OAJ 3U2 d   1      28.915   4.817  53.636  0.00  0.00    -0.392 OA
ATOM     24  H6  3U2 d   1      29.563   4.454  53.043  0.00  0.00     0.210 HD
ENDBRANCH   2  23
BRANCH   4  25
ATOM     25  OAH 3U2 d   1      31.865   7.294  55.482  0.00  0.00    -0.393 OA
ATOM     26  H10 3U2 d   1      31.875   8.194  55.178  0.00  0.00     0.210 HD
ENDBRANCH   4  25
BRANCH   3  27
ATOM     27  OAI 3U2 d   1      31.740   4.329  54.773  0.00  0.00    -0.390 OA
ATOM     28  H8  3U2 d   1      31.709   3.446  55.122  0.00  0.00     0.210 HD
ENDBRANCH   3  27
TORSDOF 5
