REMARK  3 active torsions:
REMARK  status: ('A' for Active; 'I' for Inactive)
REMARK    1  A    between atoms: C8_10  and  C7_11 
REMARK    2  A    between atoms: C4_19  and  C17_20 
REMARK    3  A    between atoms: C18_24  and  N5_25 
ROOT
ATOM      1  C7  3U5 d   1      21.507 -39.327  -0.525  0.00  0.00     0.074 A 
ATOM      2  C2  3U5 d   1      20.653 -38.396   0.028  0.00  0.00     0.024 A 
ATOM      3  C3  3U5 d   1      19.845 -37.403  -0.490  0.00  0.00    -0.057 A 
ATOM      4  N2  3U5 d   1      22.015 -40.034   0.489  0.00  0.00    -0.276 N 
ATOM      5  N1  3U5 d   1      21.570 -39.616   1.569  0.00  0.00    -0.174 NA
ATOM      6  C1  3U5 d   1      20.736 -38.609   1.384  0.00  0.00     0.089 A 
ATOM      7  C6  3U5 d   1      20.005 -37.840   2.258  0.00  0.00    -0.052 A 
ATOM      8  C5  3U5 d   1      19.185 -36.843   1.762  0.00  0.00    -0.069 A 
ATOM      9  C4  3U5 d   1      19.127 -36.619   0.390  0.00  0.00    -0.017 A 
ATOM     10  H7  3U5 d   1      19.776 -37.243  -1.560  0.00  0.00     0.086 H 
ATOM     11  H8  3U5 d   1      22.680 -40.814   0.388  0.00  0.00     0.189 HD
ATOM     12  H9  3U5 d   1      20.071 -38.014   3.326  0.00  0.00     0.087 H 
ATOM     13  H10 3U5 d   1      18.591 -36.239   2.438  0.00  0.00     0.085 H 
ENDROOT
BRANCH   1  14
ATOM     14  C8  3U5 d   1      21.704 -39.503  -1.901  0.00  0.00     0.011 A 
ATOM     15  C12 3U5 d   1      22.882 -40.057  -2.395  0.00  0.00    -0.057 A 
ATOM     16  C11 3U5 d   1      23.015 -40.242  -3.766  0.00  0.00    -0.006 A 
ATOM     17  H1  3U5 d   1      23.683 -40.340  -1.721  0.00  0.00     0.086 H 
ATOM     18  C16 3U5 d   1      24.190 -40.777  -4.287  0.00  0.00    -0.071 A 
ATOM     19  C10 3U5 d   1      21.968 -39.900  -4.614  0.00  0.00     0.066 A 
ATOM     20  C15 3U5 d   1      24.310 -40.966  -5.665  0.00  0.00    -0.082 A 
ATOM     21  H2  3U5 d   1      25.007 -41.045  -3.627  0.00  0.00     0.084 H 
ATOM     22  C14 3U5 d   1      23.259 -40.616  -6.507  0.00  0.00    -0.081 A 
ATOM     23  H3  3U5 d   1      25.220 -41.385  -6.078  0.00  0.00     0.083 H 
ATOM     24  C13 3U5 d   1      22.082 -40.078  -5.984  0.00  0.00    -0.054 A 
ATOM     25  H4  3U5 d   1      23.355 -40.762  -7.577  0.00  0.00     0.083 H 
ATOM     26  H5  3U5 d   1      21.266 -39.802  -6.642  0.00  0.00     0.087 H 
ATOM     27  N3  3U5 d   1      20.840 -39.381  -4.113  0.00  0.00    -0.259 NA
ATOM     28  C9  3U5 d   1      20.689 -39.192  -2.808  0.00  0.00     0.015 A 
ATOM     29  H6  3U5 d   1      19.755 -38.786  -2.437  0.00  0.00     0.116 H 
ENDBRANCH   1  14
BRANCH   9  30
ATOM     30  C17 3U5 d   1      18.278 -35.655  -0.102  0.00  0.00     0.036 A 
ATOM     31  S1  3U5 d   1      17.969 -35.539  -1.735  0.00  0.00    -0.051 SA
ATOM     32  C18 3U5 d   1      16.912 -34.317  -1.545  0.00  0.00     0.164 A 
ATOM     33  N4  3U5 d   1      16.767 -33.994  -0.264  0.00  0.00    -0.236 NA
ATOM     34  C19 3U5 d   1      17.523 -34.755   0.544  0.00  0.00     0.022 A 
ATOM     35  H11 3U5 d   1      17.523 -34.650   1.628  0.00  0.00     0.117 H 
BRANCH  32  36
ATOM     36  N5  3U5 d   1      16.286 -33.785  -2.559  0.00  0.00    -0.378 N 
ATOM     37  H12 3U5 d   1      15.622 -33.012  -2.407  0.00  0.00     0.158 HD
ATOM     38  H13 3U5 d   1      16.456 -34.138  -3.512  0.00  0.00     0.158 HD
ENDBRANCH  32  36
ENDBRANCH   9  30
TORSDOF 3
