REMARK  4 active torsions:
REMARK  status: ('A' for Active; 'I' for Inactive)
REMARK    1  A    between atoms: C16_5  and  N6_6 
REMARK    2  A    between atoms: N6_6  and  C15_7 
REMARK    3  A    between atoms: C9_12  and  C8_13 
REMARK    4  A    between atoms: C4_21  and  C10_22 
ROOT
ATOM      1  C15 3U6 d   1     -43.763  -1.909   4.103  0.00  0.00     0.124 A 
ATOM      2  N5  3U6 d   1     -43.645  -1.876   2.767  0.00  0.00    -0.231 NA
ATOM      3  C14 3U6 d   1     -44.979  -1.642   4.717  0.00  0.00    -0.039 A 
ATOM      4  C13 3U6 d   1     -46.078  -1.338   3.916  0.00  0.00    -0.077 A 
ATOM      5  C12 3U6 d   1     -45.932  -1.319   2.533  0.00  0.00    -0.054 A 
ATOM      6  C9  3U6 d   1     -44.683  -1.586   1.963  0.00  0.00     0.071 A 
ATOM      7  H11 3U6 d   1     -45.072  -1.669   5.797  0.00  0.00     0.089 H 
ATOM      8  H12 3U6 d   1     -47.039  -1.118   4.367  0.00  0.00     0.083 H 
ATOM      9  H13 3U6 d   1     -46.783  -1.098   1.899  0.00  0.00     0.087 H 
ENDROOT
BRANCH   6  10
ATOM     10  C8  3U6 d   1     -44.518  -1.596   0.570  0.00  0.00     0.021 A 
ATOM     11  C2  3U6 d   1     -43.323  -1.890  -0.082  0.00  0.00     0.005 A 
ATOM     12  C3  3U6 d   1     -42.031  -2.191   0.351  0.00  0.00    -0.057 A 
ATOM     13  C1  3U6 d   1     -43.608  -1.822  -1.441  0.00  0.00     0.043 A 
ATOM     14  C4  3U6 d   1     -41.027  -2.415  -0.593  0.00  0.00     0.003 A 
ATOM     15  H14 3U6 d   1     -41.809  -2.250   1.410  0.00  0.00     0.086 H 
ATOM     16  C5  3U6 d   1     -41.337  -2.356  -1.957  0.00  0.00    -0.068 A 
ATOM     17  C6  3U6 d   1     -42.627  -2.057  -2.380  0.00  0.00    -0.056 A 
ATOM     18  H18 3U6 d   1     -40.562  -2.546  -2.691  0.00  0.00     0.085 H 
ATOM     19  H17 3U6 d   1     -42.859  -2.009  -3.438  0.00  0.00     0.087 H 
ATOM     20  N1  3U6 d   1     -44.891  -1.524  -1.578  0.00  0.00    -0.364 N 
ATOM     21  C7  3U6 d   1     -45.447  -1.390  -0.367  0.00  0.00    -0.009 A 
ATOM     22  H16 3U6 d   1     -45.384  -1.413  -2.475  0.00  0.00     0.165 HD
ATOM     23  H15 3U6 d   1     -46.492  -1.151  -0.176  0.00  0.00     0.112 H 
BRANCH  14  24
ATOM     24  C10 3U6 d   1     -39.732  -2.750  -0.231  0.00  0.00     0.133 A 
ATOM     25  S1  3U6 d   1     -39.190  -3.027   1.376  0.00  0.00    -0.029 SA
ATOM     26  C11 3U6 d   1     -37.682  -3.382   0.835  0.00  0.00     0.188 A 
ATOM     27  N2  3U6 d   1     -37.624  -3.313  -0.506  0.00  0.00    -0.124 NA
ATOM     28  N4  3U6 d   1     -36.699  -3.714   1.642  0.00  0.00    -0.377 N 
ATOM     29  N3  3U6 d   1     -38.696  -2.998  -1.063  0.00  0.00    -0.140 NA
ATOM     30  H19 3U6 d   1     -35.768  -3.929   1.258  0.00  0.00     0.158 HD
ATOM     31  H20 3U6 d   1     -36.860  -3.759   2.658  0.00  0.00     0.158 HD
ENDBRANCH  14  24
ENDBRANCH   6  10
BRANCH   1  32
ATOM     32  N6  3U6 d   1     -42.693  -2.179   4.847  0.00  0.00    -0.370 N 
ATOM     33  H10 3U6 d   1     -42.821  -2.304   5.861  0.00  0.00     0.161 HD
BRANCH  32  34
ATOM     34  C16 3U6 d   1     -41.320  -2.310   4.285  0.00  0.00     0.011 C 
ATOM     35  C17 3U6 d   1     -40.381  -2.863   5.365  0.00  0.00    -0.046 C 
ATOM     36  C18 3U6 d   1     -39.065  -2.162   5.107  0.00  0.00    -0.063 C 
ATOM     37  H1  3U6 d   1     -40.759  -2.625   6.370  0.00  0.00     0.035 H 
ATOM     38  H2  3U6 d   1     -40.269  -3.953   5.264  0.00  0.00     0.035 H 
ATOM     39  C19 3U6 d   1     -39.523  -0.740   4.809  0.00  0.00    -0.063 C 
ATOM     40  H3  3U6 d   1     -38.539  -2.602   4.247  0.00  0.00     0.033 H 
ATOM     41  H4  3U6 d   1     -38.413  -2.196   5.992  0.00  0.00     0.033 H 
ATOM     42  C20 3U6 d   1     -40.743  -0.938   3.905  0.00  0.00    -0.046 C 
ATOM     43  H5  3U6 d   1     -38.736  -0.175   4.289  0.00  0.00     0.033 H 
ATOM     44  H6  3U6 d   1     -39.801  -0.215   5.735  0.00  0.00     0.033 H 
ATOM     45  H7  3U6 d   1     -40.443  -0.927   2.847  0.00  0.00     0.035 H 
ATOM     46  H8  3U6 d   1     -41.486  -0.146   4.083  0.00  0.00     0.035 H 
ATOM     47  H9  3U6 d   1     -41.341  -2.974   3.408  0.00  0.00     0.072 H 
ENDBRANCH  32  34
ENDBRANCH   1  32
TORSDOF 4
