REMARK  2 active torsions:
REMARK  status: ('A' for Active; 'I' for Inactive)
REMARK    1  A    between atoms: C20_6  and  C13_7 
REMARK    2  A    between atoms: C1_26  and  C21_27 
ROOT
ATOM      1  C13 3UT d   1      66.729  51.421  10.795  0.00  0.00     0.072 A 
ATOM      2  C14 3UT d   1      67.129  50.411   9.907  0.00  0.00    -0.042 A 
ATOM      3  N12 3UT d   1      67.674  52.264  11.243  0.00  0.00    -0.217 NA
ATOM      4  C11 3UT d   1      68.961  52.161  10.882  0.00  0.00     0.245 A 
ATOM      5  F33 3UT d   1      69.852  53.041  11.362  0.00  0.00    -0.181 F 
ATOM      6  C8  3UT d   1      69.402  51.182  10.021  0.00  0.00     0.143 A 
ATOM      7  O7  3UT d   1      70.738  51.151   9.737  0.00  0.00    -0.305 OA
ATOM      8  C9  3UT d   1      68.469  50.282   9.518  0.00  0.00     0.018 A 
ATOM      9  C10 3UT d   1      68.890  49.196   8.524  0.00  0.00     0.116 A 
ATOM     10  C15 3UT d   1      68.509  47.808   8.958  0.00  0.00     0.060 A 
ATOM     11  O16 3UT d   1      67.472  47.362   8.012  0.00  0.00    -0.319 OA
ATOM     12  C17 3UT d   1      67.267  48.340   7.088  0.00  0.00     0.213 A 
ATOM     13  N18 3UT d   1      68.036  49.404   7.297  0.00  0.00    -0.337 N 
ATOM     14  N19 3UT d   1      66.352  48.223   6.112  0.00  0.00    -0.365 N 
ATOM     15  C5  3UT d   1      70.383  49.311   8.175  0.00  0.00     0.012 A 
ATOM     16  C6  3UT d   1      70.933  48.457   7.215  0.00  0.00    -0.060 A 
ATOM     17  C4  3UT d   1      71.206  50.257   8.813  0.00  0.00     0.085 A 
ATOM     18  C3  3UT d   1      72.549  50.331   8.468  0.00  0.00    -0.049 A 
ATOM     19  C2  3UT d   1      73.095  49.467   7.513  0.00  0.00    -0.069 A 
ATOM     20  C1  3UT d   1      72.296  48.518   6.886  0.00  0.00    -0.021 A 
ATOM     21  H6  3UT d   1      66.391  49.720   9.516  0.00  0.00     0.088 H 
ATOM     22  H7  3UT d   1      68.111  47.823   9.983  0.00  0.00     0.080 H 
ATOM     23  H8  3UT d   1      69.381  47.140   8.913  0.00  0.00     0.080 H 
ATOM     24  H9  3UT d   1      68.047  50.248   6.707  0.00  0.00     0.164 HD
ATOM     25  H10 3UT d   1      66.226  48.985   5.431  0.00  0.00     0.159 HD
ATOM     26  H11 3UT d   1      65.777  47.371   6.045  0.00  0.00     0.159 HD
ATOM     27  H12 3UT d   1      70.296  47.735   6.716  0.00  0.00     0.086 H 
ATOM     28  H13 3UT d   1      73.183  51.069   8.946  0.00  0.00     0.087 H 
ATOM     29  H14 3UT d   1      74.147  49.538   7.261  0.00  0.00     0.085 H 
ENDROOT
BRANCH   1  30
ATOM     30  C20 3UT d   1      65.399  51.606  11.230  0.00  0.00     0.014 C 
ATOM     31  C28 3UT d   1      64.354  50.771  10.812  0.00  0.00     0.025 C 
ATOM     32  O29 3UT d   1      62.987  50.982  11.272  0.00  0.00    -0.358 OA
ATOM     33  H1  3UT d   1      64.567  49.949  10.130  0.00  0.00     0.124 H 
ATOM     34  C30 3UT d   1      62.742  52.359  11.642  0.00  0.00     0.040 C 
ATOM     35  C31 3UT d   1      63.799  52.874  12.612  0.00  0.00    -0.079 C 
ATOM     36  H2  3UT d   1      61.754  52.430  12.120  0.00  0.00     0.081 H 
ATOM     37  H3  3UT d   1      62.756  52.981  10.735  0.00  0.00     0.081 H 
ATOM     38  C32 3UT d   1      65.075  52.643  12.115  0.00  0.00    -0.071 C 
ATOM     39  H4  3UT d   1      63.583  53.357  13.564  0.00  0.00     0.080 H 
ATOM     40  H5  3UT d   1      65.875  53.310  12.433  0.00  0.00     0.084 H 
ENDBRANCH   1  30
BRANCH  20  41
ATOM     41  C21 3UT d   1      72.818  47.642   5.923  0.00  0.00     0.032 A 
ATOM     42  C26 3UT d   1      73.843  46.759   6.248  0.00  0.00    -0.066 A 
ATOM     43  C25 3UT d   1      74.311  45.887   5.261  0.00  0.00    -0.065 A 
ATOM     44  H15 3UT d   1      74.269  46.748   7.245  0.00  0.00     0.085 H 
ATOM     45  C24 3UT d   1      73.767  45.914   3.976  0.00  0.00     0.005 A 
ATOM     46  H16 3UT d   1      75.103  45.184   5.495  0.00  0.00     0.085 H 
ATOM     47  N23 3UT d   1      72.791  46.754   3.685  0.00  0.00    -0.232 NA
ATOM     48  H17 3UT d   1      74.147  45.243   3.214  0.00  0.00     0.114 H 
ATOM     49  C22 3UT d   1      72.315  47.605   4.608  0.00  0.00     0.220 A 
ATOM     50  F27 3UT d   1      71.342  48.440   4.227  0.00  0.00    -0.183 F 
ENDBRANCH  20  41
TORSDOF 2
