REMARK  6 active torsions:
REMARK  status: ('A' for Active; 'I' for Inactive)
REMARK    1  A    between atoms: C5_2  and  S2_4 
REMARK    2  A    between atoms: S2_4  and  N3_6 
REMARK    3  A    between atoms: C8_9  and  S11_11 
REMARK    4  A    between atoms: S11_11  and  C12_12 
REMARK    5  A    between atoms: C12_12  and  C13_13 
REMARK    6  A    between atoms: C13_13  and  O14_14 
ROOT
ATOM      1  C6  3UF d   1      14.117  36.904  18.066  0.00  0.00    -0.059 A 
ATOM      2  C5  3UF d   1      14.279  36.026  19.122  0.00  0.00     0.079 A 
ATOM      3  C10 3UF d   1      13.799  34.705  19.095  0.00  0.00    -0.059 A 
ATOM      4  C9  3UF d   1      13.171  34.230  17.929  0.00  0.00    -0.065 A 
ATOM      5  C8  3UF d   1      12.987  35.105  16.841  0.00  0.00     0.000 A 
ATOM      6  C7  3UF d   1      13.469  36.429  16.908  0.00  0.00    -0.065 A 
ATOM      7  H1  3UF d   1      14.477  37.925  18.127  0.00  0.00     0.086 H 
ATOM      8  H4  3UF d   1      13.911  34.062  19.960  0.00  0.00     0.086 H 
ATOM      9  H5  3UF d   1      12.833  33.202  17.869  0.00  0.00     0.085 H 
ATOM     10  H6  3UF d   1      13.339  37.089  16.058  0.00  0.00     0.085 H 
ENDROOT
BRANCH   5  11
ATOM     11  S11 3UF d   1      12.160  34.545  15.316  0.00  0.00    -0.128 SA
BRANCH  11  12
ATOM     12  C12 3UF d   1      10.528  35.371  15.348  0.00  0.00     0.001 C 
ATOM     13  H7  3UF d   1      10.596  36.279  15.966  0.00  0.00     0.052 H 
ATOM     14  H8  3UF d   1       9.786  34.686  15.784  0.00  0.00     0.052 H 
BRANCH  12  15
ATOM     15  C13 3UF d   1      10.082  35.759  13.935  0.00  0.00     0.025 C 
ATOM     16  H9  3UF d   1      10.502  35.055  13.201  0.00  0.00     0.075 H 
ATOM     17  H10 3UF d   1      10.420  36.779  13.700  0.00  0.00     0.075 H 
BRANCH  15  18
ATOM     18  O14 3UF d   1       8.682  35.700  13.910  0.00  0.00    -0.400 OA
ATOM     19  H11 3UF d   1       8.372  35.936  13.044  0.00  0.00     0.209 HD
ENDBRANCH  15  18
ENDBRANCH  12  15
ENDBRANCH  11  12
ENDBRANCH   5  11
BRANCH   2  20
ATOM     20  S2  3UF d   1      15.054  36.688  20.595  0.00  0.00     0.256 S 
ATOM     21  O4  3UF d   1      14.155  37.748  21.116  0.00  0.00    -0.201 OA
ATOM     22  O1  3UF d   1      15.164  35.538  21.612  0.00  0.00    -0.201 OA
BRANCH  20  23
ATOM     23  N3  3UF d   1      16.626  37.316  20.392  0.00  0.00    -0.324 N 
ATOM     24  H2  3UF d   1      17.116  37.701  21.174  0.00  0.00     0.169 HD
ATOM     25  H3  3UF d   1      17.058  37.299  19.491  0.00  0.00     0.169 HD
ENDBRANCH  20  23
ENDBRANCH   2  20
TORSDOF 6
