REMARK  11 active torsions:
REMARK  status: ('A' for Active; 'I' for Inactive)
REMARK    1  A    between atoms: C17_17  and  C16_16 
REMARK    2  A    between atoms: C22_22  and  C18_18 
REMARK    3  A    between atoms: C19_19  and  C31_31 
REMARK    4  A    between atoms: C21_21  and  N39_39 
REMARK       I    between atoms: N42_42  and  C22_22 
REMARK    5  A    between atoms: C32_32  and  C34_34 
REMARK    6  A    between atoms: C36_36  and  C32_32 
REMARK    7  A    between atoms: C35_35  and  C33_33 
REMARK    8  A    between atoms: C33_33  and  N38_38 
REMARK    9  A    between atoms: C34_34  and  N40_40 
REMARK   10  A    between atoms: N41_41  and  C35_35 
REMARK   11  A    between atoms: C36_36  and  N42_42 
ROOT
ATOM      1  C1  3UJ d   1     -17.105 -26.407  24.269  0.00  0.00     0.099 C 
ATOM      2  C10 3UJ d   1     -18.181 -25.516  26.275  0.00  0.00    -0.052 A 
ATOM      3  C11 3UJ d   1     -19.489 -25.827  24.258  0.00  0.00    -0.048 A 
ATOM      4  C12 3UJ d   1     -20.523 -24.944  26.262  0.00  0.00    -0.057 A 
ATOM      5  C14 3UJ d   1     -18.270 -25.914  24.940  0.00  0.00     0.046 A 
ATOM      6  C17 3UJ d   1     -19.313 -25.041  26.941  0.00  0.00    -0.021 A 
ATOM      7  C18 3UJ d   1     -20.614 -25.334  24.928  0.00  0.00     0.034 A 
ATOM      8  N37 3UJ d   1     -16.160 -26.804  23.725  0.00  0.00    -0.191 NA
ATOM      9  H9  3UJ d   1     -17.232 -25.576  26.796  0.00  0.00     0.087 H 
ATOM     10  H10 3UJ d   1     -19.561 -26.138  23.222  0.00  0.00     0.087 H 
ATOM     11  H11 3UJ d   1     -21.399 -24.563  26.773  0.00  0.00     0.086 H 
ENDROOT
BRANCH   6  12
ATOM     12  C16 3UJ d   1     -19.235 -24.603  28.317  0.00  0.00     0.001 A 
ATOM     13  C7  3UJ d   1     -19.784 -23.353  28.617  0.00  0.00    -0.070 A 
ATOM     14  C3  3UJ d   1     -19.735 -22.848  29.918  0.00  0.00    -0.082 A 
ATOM     15  H1  3UJ d   1     -20.252 -22.770  27.832  0.00  0.00     0.084 H 
ATOM     16  C5  3UJ d   1     -19.132 -23.606  30.922  0.00  0.00    -0.081 A 
ATOM     17  H5  3UJ d   1     -20.161 -21.877  30.145  0.00  0.00     0.083 H 
ATOM     18  C9  3UJ d   1     -18.586 -24.857  30.618  0.00  0.00    -0.057 A 
ATOM     19  H3  3UJ d   1     -19.087 -23.226  31.936  0.00  0.00     0.083 H 
ATOM     20  C21 3UJ d   1     -18.621 -25.356  29.317  0.00  0.00     0.041 A 
ATOM     21  H8  3UJ d   1     -18.129 -25.447  31.405  0.00  0.00     0.086 H 
BRANCH  20  22
ATOM     22  N39 3UJ d   1     -18.088 -26.623  29.049  0.00  0.00    -0.377 N 
ATOM     23  C27 3UJ d   1     -19.044 -27.590  28.492  0.00  0.00     0.018 C 
ATOM     24  C29 3UJ d   1     -18.351 -28.860  27.999  0.00  0.00     0.098 C 
ATOM     25  H21 3UJ d   1     -19.770 -27.861  29.272  0.00  0.00     0.066 H 
ATOM     26  H22 3UJ d   1     -19.571 -27.122  27.648  0.00  0.00     0.066 H 
ATOM     27  N41 3UJ d   1     -17.545 -29.477  29.060  0.00  0.00    -0.067 N 
ATOM     28  H25 3UJ d   1     -17.695 -28.605  27.154  0.00  0.00     0.078 H 
ATOM     29  H26 3UJ d   1     -19.115 -29.578  27.666  0.00  0.00     0.078 H 
ATOM     30  C30 3UJ d   1     -16.574 -28.519  29.613  0.00  0.00     0.098 C 
ATOM     31  H43 3UJ d   1     -17.020 -30.230  28.643  0.00  0.00     0.280 HD
ATOM     32  C28 3UJ d   1     -17.205 -27.199  30.073  0.00  0.00     0.018 C 
ATOM     33  H27 3UJ d   1     -16.078 -28.986  30.476  0.00  0.00     0.078 H 
ATOM     34  H28 3UJ d   1     -15.827 -28.295  28.838  0.00  0.00     0.078 H 
ATOM     35  H23 3UJ d   1     -16.402 -26.480  30.294  0.00  0.00     0.066 H 
ATOM     36  H24 3UJ d   1     -17.793 -27.385  30.984  0.00  0.00     0.066 H 
BRANCH  27  37
ATOM     37  C35 3UJ d   1     -18.393 -30.061  30.098  0.00  0.00     0.099 C 
ATOM     38  H38 3UJ d   1     -18.478 -29.343  30.927  0.00  0.00     0.078 H 
ATOM     39  H39 3UJ d   1     -19.390 -30.249  29.672  0.00  0.00     0.078 H 
BRANCH  37  40
ATOM     40  C33 3UJ d   1     -17.843 -31.376  30.648  0.00  0.00     0.022 C 
ATOM     41  H34 3UJ d   1     -16.746 -31.367  30.562  0.00  0.00     0.067 H 
ATOM     42  H35 3UJ d   1     -18.250 -32.208  30.055  0.00  0.00     0.067 H 
BRANCH  40  43
ATOM     43  N38 3UJ d   1     -18.206 -31.571  32.049  0.00  0.00    -0.354 N 
ATOM     44  C13 3UJ d   1     -19.453 -31.944  32.480  0.00  0.00    -0.013 A 
ATOM     45  C19 3UJ d   1     -19.422 -32.018  33.854  0.00  0.00    -0.034 A 
ATOM     46  H12 3UJ d   1     -20.316 -32.146  31.847  0.00  0.00     0.112 H 
ATOM     47  C15 3UJ d   1     -18.104 -31.674  34.275  0.00  0.00    -0.002 A 
ATOM     48  C6  3UJ d   1     -17.466 -31.572  35.529  0.00  0.00    -0.070 A 
ATOM     49  C20 3UJ d   1     -17.363 -31.398  33.122  0.00  0.00     0.045 A 
ATOM     50  C2  3UJ d   1     -16.115 -31.195  35.577  0.00  0.00    -0.082 A 
ATOM     51  H2  3UJ d   1     -18.011 -31.782  36.442  0.00  0.00     0.084 H 
ATOM     52  C4  3UJ d   1     -15.404 -30.926  34.408  0.00  0.00    -0.081 A 
ATOM     53  H6  3UJ d   1     -15.617 -31.112  36.536  0.00  0.00     0.083 H 
ATOM     54  C8  3UJ d   1     -16.015 -31.020  33.153  0.00  0.00    -0.056 A 
ATOM     55  H4  3UJ d   1     -14.361 -30.639  34.473  0.00  0.00     0.083 H 
ATOM     56  H7  3UJ d   1     -15.467 -30.809  32.242  0.00  0.00     0.087 H 
BRANCH  45  57
ATOM     57  C31 3UJ d   1     -20.559 -32.389  34.723  0.00  0.00    -0.049 C 
ATOM     58  H29 3UJ d   1     -21.442 -32.599  34.102  0.00  0.00     0.033 H 
ATOM     59  H30 3UJ d   1     -20.782 -31.559  35.409  0.00  0.00     0.033 H 
ATOM     60  H31 3UJ d   1     -20.299 -33.285  35.305  0.00  0.00     0.033 H 
ENDBRANCH  45  57
ENDBRANCH  40  43
ENDBRANCH  37  40
ENDBRANCH  27  37
ENDBRANCH  20  22
ENDBRANCH   6  12
BRANCH   7  61
ATOM     61  C22 3UJ d   1     -21.905 -25.226  24.273  0.00  0.00     0.251 C 
ATOM     62  N42 3UJ d   1     -22.375 -26.362  23.619  0.00  0.00    -0.357 N 
ATOM     63  H44 3UJ d   1     -21.802 -27.182  23.610  0.00  0.00     0.162 HD
ATOM     64  O43 3UJ d   1     -22.556 -24.160  24.311  0.00  0.00    -0.268 OA
BRANCH  62  65
ATOM     65  C36 3UJ d   1     -23.657 -26.404  22.953  0.00  0.00    -0.003 C 
ATOM     66  H40 3UJ d   1     -23.984 -25.376  22.739  0.00  0.00     0.064 H 
ATOM     67  H41 3UJ d   1     -23.553 -26.959  22.009  0.00  0.00     0.064 H 
BRANCH  65  68
ATOM     68  C32 3UJ d   1     -24.714 -27.094  23.826  0.00  0.00    -0.028 C 
ATOM     69  H32 3UJ d   1     -25.688 -26.994  23.324  0.00  0.00     0.037 H 
ATOM     70  H33 3UJ d   1     -24.448 -28.159  23.904  0.00  0.00     0.037 H 
BRANCH  68  71
ATOM     71  C34 3UJ d   1     -24.855 -26.535  25.249  0.00  0.00     0.085 C 
ATOM     72  H36 3UJ d   1     -24.884 -25.437  25.192  0.00  0.00     0.076 H 
ATOM     73  H37 3UJ d   1     -23.979 -26.848  25.836  0.00  0.00     0.076 H 
BRANCH  71  74
ATOM     74  N40 3UJ d   1     -26.072 -27.001  25.938  0.00  0.00    -0.071 N 
ATOM     75  C25 3UJ d   1     -26.005 -28.417  26.320  0.00  0.00     0.084 C 
ATOM     76  C23 3UJ d   1     -27.060 -28.549  27.416  0.00  0.00    -0.041 C 
ATOM     77  H17 3UJ d   1     -26.245 -29.065  25.465  0.00  0.00     0.076 H 
ATOM     78  H18 3UJ d   1     -25.006 -28.672  26.704  0.00  0.00     0.076 H 
ATOM     79  C24 3UJ d   1     -27.448 -27.118  27.779  0.00  0.00    -0.041 C 
ATOM     80  H13 3UJ d   1     -27.935 -29.102  27.044  0.00  0.00     0.035 H 
ATOM     81  H14 3UJ d   1     -26.643 -29.069  28.291  0.00  0.00     0.035 H 
ATOM     82  C26 3UJ d   1     -26.308 -26.295  27.201  0.00  0.00     0.084 C 
ATOM     83  H15 3UJ d   1     -27.513 -26.991  28.870  0.00  0.00     0.035 H 
ATOM     84  H16 3UJ d   1     -28.408 -26.840  27.319  0.00  0.00     0.035 H 
ATOM     85  H19 3UJ d   1     -25.421 -26.320  27.851  0.00  0.00     0.076 H 
ATOM     86  H20 3UJ d   1     -26.608 -25.251  27.031  0.00  0.00     0.076 H 
ATOM     87  H42 3UJ d   1     -26.854 -26.856  25.319  0.00  0.00     0.279 HD
ENDBRANCH  71  74
ENDBRANCH  68  71
ENDBRANCH  65  68
ENDBRANCH  62  65
ENDBRANCH   7  61
TORSDOF 11
