REMARK WARNING: 32 MAX_TORS EXCEEDED!!!
REMARK  46 active torsions:
REMARK  status: ('A' for Active; 'I' for Inactive)
REMARK    1  A    between atoms: CA_2  and  C_3 
REMARK       I    between atoms: C_3  and  N_8 
REMARK    2  A    between atoms: N_8  and  CA_9 
REMARK    3  A    between atoms: CA_9  and  C_10 
REMARK    4  A    between atoms: CA_9  and  CB_12 
REMARK       I    between atoms: C_10  and  N_15 
REMARK    5  A    between atoms: CB_12  and  CG1_13 
REMARK    6  A    between atoms: CB_12  and  CG2_14 
REMARK    7  A    between atoms: N_15  and  CA_16 
REMARK    8  A    between atoms: CA_16  and  C_17 
REMARK    9  A    between atoms: CA_16  and  CB_19 
REMARK       I    between atoms: C_17  and  N_24 
REMARK   10  A    between atoms: CB_19  and  CG_20 
REMARK   11  A    between atoms: CG_20  and  CD_21 
REMARK   12  A    between atoms: CD_21  and  CE_22 
REMARK   13  A    between atoms: CE_22  and  NZ_23 
REMARK   14  A    between atoms: N_24  and  CA_25 
REMARK   15  A    between atoms: CA_25  and  C_26 
REMARK   16  A    between atoms: CA_25  and  CB_28 
REMARK       I    between atoms: C_26  and  N_33 
REMARK   17  A    between atoms: CB_28  and  CG_29 
REMARK   18  A    between atoms: CG_29  and  CD_30 
REMARK   19  A    between atoms: CD_30  and  CE_31 
REMARK   20  A    between atoms: CE_31  and  NZ_32 
REMARK   21  A    between atoms: CA_34  and  C_35 
REMARK       I    between atoms: C_35  and  N_40 
REMARK   22  A    between atoms: N_40  and  CA_41 
REMARK   23  A    between atoms: CA_41  and  C_42 
REMARK   24  A    between atoms: CA_41  and  CB_44 
REMARK       I    between atoms: C_42  and  N_49 
REMARK   25  A    between atoms: CB_44  and  CG_45 
REMARK   26  A    between atoms: CG_45  and  CD_46 
REMARK   27  A    between atoms: CD_46  and  CE_47 
REMARK   28  A    between atoms: CE_47  and  NZ_48 
REMARK   29  A    between atoms: N_49  and  CA_50 
REMARK   30  A    between atoms: CA_50  and  C_51 
REMARK   31  A    between atoms: CA_50  and  CB_53 
REMARK       I    between atoms: C_51  and  N_57 
REMARK   32  A    between atoms: CB_53  and  CG1_54 
REMARK   33  A    between atoms: CB_53  and  CG2_55 
REMARK   34  A    between atoms: CG1_54  and  CD1_56 
REMARK   35  A    between atoms: N_57  and  CA_58 
REMARK   36  A    between atoms: CA_58  and  C_59 
REMARK   37  A    between atoms: CA_58  and  CB_61 
REMARK       I    between atoms: C_59  and  N_68 
REMARK   38  A    between atoms: CB_61  and  CG_62 
REMARK   39  A    between atoms: CG_62  and  CD_63 
REMARK   40  A    between atoms: CD_63  and  NE_64 
REMARK       I    between atoms: NE_64  and  CZ_65 
REMARK       I    between atoms: CZ_65  and  NH1_66 
REMARK       I    between atoms: CZ_65  and  NH2_67 
REMARK   41  A    between atoms: N_68  and  CA_69 
REMARK   42  A    between atoms: CA_69  and  C_70 
REMARK   43  A    between atoms: CA_69  and  CB_72 
REMARK   44  A    between atoms: CB_72  and  CG_73 
REMARK   45  A    between atoms: CG_73  and  CD_74 
REMARK   46  A    between atoms: CD_74  and  NE_75 
REMARK       I    between atoms: NE_75  and  CZ_76 
REMARK       I    between atoms: CZ_76  and  NH1_77 
ROOT
ATOM      1  C   PRO d   1     -12.780 -16.915  19.963  0.00  0.00     0.241 C 
ATOM      2  O   PRO d   1     -12.186 -15.839  19.829  0.00  0.00    -0.271 OA
ATOM      3  N   LYS d   1     -12.940 -17.525  21.131  0.00  0.00    -0.346 N 
ATOM      4  H52 LYS d   1     -13.529 -18.332  21.181  0.00  0.00     0.163 HD
ENDROOT
BRANCH   1   5
ATOM      5  CA  PRO d   1     -13.355 -17.626  18.749  0.00  0.00     0.091 C 
ATOM      6  N   PRO d   1     -13.680 -16.662  17.697  0.00  0.00    -0.337 N 
ATOM      7  C   LYS d   1     -14.863 -16.033  17.764  0.00  0.00     0.243 C 
ATOM      8  CD  PRO d   1     -12.627 -16.604  16.670  0.00  0.00    -0.001 C 
ATOM      9  O   LYS d   1     -15.722 -16.329  18.582  0.00  0.00    -0.271 OA
ATOM     10  CG  PRO d   1     -11.556 -17.575  17.199  0.00  0.00    -0.048 C 
ATOM     11  H50 PRO d   1     -12.223 -15.585  16.578  0.00  0.00     0.064 H 
ATOM     12  H51 PRO d   1     -13.011 -16.936  15.694  0.00  0.00     0.064 H 
ATOM     13  CB  PRO d   1     -12.305 -18.514  18.100  0.00  0.00    -0.036 C 
ATOM     14  H48 PRO d   1     -11.087 -18.125  16.370  0.00  0.00     0.035 H 
ATOM     15  H49 PRO d   1     -10.783 -17.031  17.762  0.00  0.00     0.035 H 
ATOM     16  H46 PRO d   1     -12.777 -19.321  17.521  0.00  0.00     0.036 H 
ATOM     17  H47 PRO d   1     -11.636 -18.949  18.857  0.00  0.00     0.036 H 
ATOM     18  H45 PRO d   1     -14.241 -18.208  19.043  0.00  0.00     0.087 H 
BRANCH   7  19
ATOM     19  CA  LYS d   1     -15.133 -14.915  16.761  0.00  0.00     0.089 C 
ATOM     20  H33 LYS d   1     -14.284 -14.851  16.064  0.00  0.00     0.087 H 
BRANCH  19  21
ATOM     21  N   LYS d   1     -16.340 -15.214  16.025  0.00  0.00    -0.346 N 
ATOM     22  C   LYS d   1     -16.535 -14.741  14.805  0.00  0.00     0.241 C 
ATOM     23  O   LYS d   1     -15.659 -14.192  14.137  0.00  0.00    -0.271 OA
ATOM     24  H32 LYS d   1     -17.041 -15.789  16.446  0.00  0.00     0.163 HD
BRANCH  22  25
ATOM     25  CA  LYS d   1     -17.922 -14.935  14.240  0.00  0.00     0.089 C 
ATOM     26  H20 LYS d   1     -18.663 -14.817  15.044  0.00  0.00     0.087 H 
BRANCH  25  27
ATOM     27  N   LYS d   1     -18.159 -13.916  13.233  0.00  0.00    -0.346 N 
ATOM     28  C   VAL d   1     -19.225 -13.122  13.261  0.00  0.00     0.241 C 
ATOM     29  O   VAL d   1     -20.144 -13.259  14.068  0.00  0.00    -0.271 OA
ATOM     30  H19 LYS d   1     -17.497 -13.808  12.492  0.00  0.00     0.163 HD
BRANCH  28  31
ATOM     31  CA  VAL d   1     -19.268 -12.020  12.205  0.00  0.00     0.092 C 
ATOM     32  H11 VAL d   1     -20.073 -11.317  12.467  0.00  0.00     0.088 H 
BRANCH  31  33
ATOM     33  N   VAL d   1     -18.010 -11.284  12.177  0.00  0.00    -0.346 N 
ATOM     34  C   PRO d   1     -17.662 -10.442  13.142  0.00  0.00     0.249 C 
ATOM     35  O   PRO d   1     -18.303 -10.300  14.178  0.00  0.00    -0.271 OA
ATOM     36  H10 VAL d   1     -17.389 -11.418  11.405  0.00  0.00     0.163 HD
BRANCH  34  37
ATOM     37  CA  PRO d   1     -16.395  -9.624  12.917  0.00  0.00     0.178 C 
ATOM     38  N   PRO d   1     -16.294  -8.496  13.849  0.00  0.00    -0.062 N 
ATOM     39  CD  PRO d   1     -15.433  -8.813  15.001  0.00  0.00     0.083 C 
ATOM     40  H1  PRO d   1     -17.216  -8.267  14.185  0.00  0.00     0.278 HD
ATOM     41  H2  PRO d   1     -15.907  -7.703  13.361  0.00  0.00     0.278 HD
ATOM     42  CG  PRO d   1     -14.951 -10.220  14.706  0.00  0.00    -0.040 C 
ATOM     43  H8  PRO d   1     -16.005  -8.782  15.940  0.00  0.00     0.075 H 
ATOM     44  H9  PRO d   1     -14.587  -8.113  15.064  0.00  0.00     0.075 H 
ATOM     45  CB  PRO d   1     -15.150 -10.445  13.233  0.00  0.00    -0.028 C 
ATOM     46  H6  PRO d   1     -13.886 -10.318  14.964  0.00  0.00     0.035 H 
ATOM     47  H7  PRO d   1     -15.537 -10.950  15.284  0.00  0.00     0.035 H 
ATOM     48  H4  PRO d   1     -14.284 -10.084  12.659  0.00  0.00     0.036 H 
ATOM     49  H5  PRO d   1     -15.315 -11.511  13.016  0.00  0.00     0.036 H 
ATOM     50  H3  PRO d   1     -16.376  -9.270  11.876  0.00  0.00     0.099 H 
ENDBRANCH  34  37
ENDBRANCH  31  33
BRANCH  31  51
ATOM     51  CB  VAL d   1     -19.582 -12.627  10.826  0.00  0.00    -0.033 C 
ATOM     52  H12 VAL d   1     -18.754 -13.295  10.545  0.00  0.00     0.042 H 
BRANCH  51  53
ATOM     53  CG1 VAL d   1     -20.858 -13.445  10.863  0.00  0.00    -0.071 C 
ATOM     54  H13 VAL d   1     -21.054 -13.864   9.865  0.00  0.00     0.028 H 
ATOM     55  H14 VAL d   1     -21.698 -12.801  11.162  0.00  0.00     0.028 H 
ATOM     56  H15 VAL d   1     -20.748 -14.264  11.589  0.00  0.00     0.028 H 
ENDBRANCH  51  53
BRANCH  51  57
ATOM     57  CG2 VAL d   1     -19.683 -11.514   9.779  0.00  0.00    -0.071 C 
ATOM     58  H16 VAL d   1     -18.748 -10.934   9.769  0.00  0.00     0.028 H 
ATOM     59  H17 VAL d   1     -20.524 -10.850  10.029  0.00  0.00     0.028 H 
ATOM     60  H18 VAL d   1     -19.849 -11.958   8.787  0.00  0.00     0.028 H 
ENDBRANCH  51  57
ENDBRANCH  31  51
ENDBRANCH  28  31
ENDBRANCH  25  27
BRANCH  25  61
ATOM     61  CB  LYS d   1     -18.041 -16.348  13.670  0.00  0.00    -0.038 C 
ATOM     62  H21 LYS d   1     -17.773 -17.061  14.464  0.00  0.00     0.036 H 
ATOM     63  H22 LYS d   1     -17.328 -16.442  12.837  0.00  0.00     0.036 H 
BRANCH  61  64
ATOM     64  CG  LYS d   1     -19.414 -16.713  13.156  0.00  0.00    -0.061 C 
ATOM     65  H23 LYS d   1     -19.703 -16.018  12.354  0.00  0.00     0.033 H 
ATOM     66  H24 LYS d   1     -20.143 -16.649  13.977  0.00  0.00     0.033 H 
BRANCH  64  67
ATOM     67  CD  LYS d   1     -19.385 -18.139  12.609  0.00  0.00    -0.043 C 
ATOM     68  H25 LYS d   1     -18.998 -18.811  13.389  0.00  0.00     0.035 H 
ATOM     69  H26 LYS d   1     -18.719 -18.170  11.734  0.00  0.00     0.035 H 
BRANCH  67  70
ATOM     70  CE  LYS d   1     -20.753 -18.612  12.195  0.00  0.00     0.080 C 
ATOM     71  H27 LYS d   1     -21.259 -17.806  11.643  0.00  0.00     0.075 H 
ATOM     72  H28 LYS d   1     -21.334 -18.861  13.095  0.00  0.00     0.075 H 
BRANCH  70  73
ATOM     73  NZ  LYS d   1     -20.665 -19.821  11.321  0.00  0.00    -0.079 N 
ATOM     74  H29 LYS d   1     -21.593 -20.115  11.060  0.00  0.00     0.274 HD
ATOM     75  H30 LYS d   1     -20.206 -20.565  11.822  0.00  0.00     0.274 HD
ATOM     76  H31 LYS d   1     -20.137 -19.598  10.492  0.00  0.00     0.274 HD
ENDBRANCH  70  73
ENDBRANCH  67  70
ENDBRANCH  64  67
ENDBRANCH  61  64
ENDBRANCH  25  61
ENDBRANCH  22  25
ENDBRANCH  19  21
BRANCH  19  77
ATOM     77  CB  LYS d   1     -15.315 -13.554  17.455  0.00  0.00    -0.038 C 
ATOM     78  H34 LYS d   1     -16.300 -13.562  17.945  0.00  0.00     0.036 H 
ATOM     79  H35 LYS d   1     -15.301 -12.780  16.674  0.00  0.00     0.036 H 
BRANCH  77  80
ATOM     80  CG  LYS d   1     -14.300 -13.168  18.490  0.00  0.00    -0.061 C 
ATOM     81  H36 LYS d   1     -13.296 -13.198  18.043  0.00  0.00     0.033 H 
ATOM     82  H37 LYS d   1     -14.349 -13.878  19.329  0.00  0.00     0.033 H 
BRANCH  80  83
ATOM     83  CD  LYS d   1     -14.581 -11.757  19.006  0.00  0.00    -0.043 C 
ATOM     84  H38 LYS d   1     -14.436 -11.042  18.183  0.00  0.00     0.035 H 
ATOM     85  H39 LYS d   1     -13.876 -11.529  19.819  0.00  0.00     0.035 H 
BRANCH  83  86
ATOM     86  CE  LYS d   1     -16.004 -11.617  19.535  0.00  0.00     0.080 C 
ATOM     87  H40 LYS d   1     -16.300 -12.566  20.005  0.00  0.00     0.075 H 
ATOM     88  H41 LYS d   1     -16.674 -11.401  18.690  0.00  0.00     0.075 H 
BRANCH  86  89
ATOM     89  NZ  LYS d   1     -16.136 -10.527  20.538  0.00  0.00    -0.079 N 
ATOM     90  H42 LYS d   1     -17.091 -10.476  20.855  0.00  0.00     0.274 HD
ATOM     91  H43 LYS d   1     -15.874  -9.649  20.117  0.00  0.00     0.274 HD
ATOM     92  H44 LYS d   1     -15.531 -10.717  21.322  0.00  0.00     0.274 HD
ENDBRANCH  86  89
ENDBRANCH  83  86
ENDBRANCH  80  83
ENDBRANCH  77  80
ENDBRANCH  19  77
ENDBRANCH   7  19
ENDBRANCH   1   5
BRANCH   3  93
ATOM     93  CA  LYS d   1     -12.284 -17.054  22.340  0.00  0.00     0.089 C 
ATOM     94  H53 LYS d   1     -12.117 -15.970  22.261  0.00  0.00     0.087 H 
BRANCH  93  95
ATOM     95  C   LYS d   1     -10.942 -17.755  22.472  0.00  0.00     0.241 C 
ATOM     96  O   LYS d   1     -10.878 -18.983  22.549  0.00  0.00    -0.271 OA
ATOM     97  N   ILE d   1      -9.867 -16.973  22.466  0.00  0.00    -0.346 N 
ATOM     98  H65 ILE d   1      -9.989 -15.984  22.379  0.00  0.00     0.163 HD
BRANCH  97  99
ATOM     99  CA  ILE d   1      -8.517 -17.507  22.582  0.00  0.00     0.092 C 
ATOM    100  H66 ILE d   1      -8.575 -18.581  22.814  0.00  0.00     0.088 H 
BRANCH  99 101
ATOM    101  C   ILE d   1      -7.810 -16.792  23.723  0.00  0.00     0.241 C 
ATOM    102  O   ILE d   1      -8.181 -15.673  24.076  0.00  0.00    -0.271 OA
ATOM    103  N   ARG d   1      -6.802 -17.431  24.311  0.00  0.00    -0.346 N 
ATOM    104  H76 ARG d   1      -6.621 -18.388  24.083  0.00  0.00     0.163 HD
BRANCH 103 105
ATOM    105  CA  ARG d   1      -5.960 -16.749  25.284  0.00  0.00     0.089 C 
ATOM    106  H77 ARG d   1      -6.603 -16.261  26.031  0.00  0.00     0.087 H 
BRANCH 105 107
ATOM    107  C   ARG d   1      -5.152 -15.674  24.542  0.00  0.00     0.241 C 
ATOM    108  O   ARG d   1      -5.169 -15.618  23.313  0.00  0.00    -0.271 OA
ATOM    109  N   ARG d   1      -4.450 -14.826  25.285  0.00  0.00    -0.345 N 
ATOM    110  H89 ARG d   1      -4.479 -14.909  26.281  0.00  0.00     0.163 HD
BRANCH 109 111
ATOM    111  CA  ARG d   1      -3.637 -13.776  24.680  0.00  0.00     0.096 C 
ATOM    112  H90 ARG d   1      -4.291 -13.157  24.048  0.00  0.00     0.089 H 
BRANCH 111 113
ATOM    113  C   ARG d   1      -2.526 -14.344  23.802  0.00  0.00     0.196 C 
ATOM    114  O   ARG d   1      -1.760 -15.207  24.235  0.00  0.00    -0.646 OA
ATOM    115  OXT ARG d   1      -2.375 -13.950  22.644  0.00  0.00    -0.646 OA
ENDBRANCH 111 113
BRANCH 111 116
ATOM    116  CB  ARG d   1      -3.036 -12.895  25.767  0.00  0.00    -0.035 C 
ATOM    117  H91 ARG d   1      -2.425 -13.527  26.428  0.00  0.00     0.036 H 
ATOM    118  H92 ARG d   1      -3.858 -12.447  26.345  0.00  0.00     0.036 H 
BRANCH 116 119
ATOM    119  CG  ARG d   1      -2.161 -11.775  25.229  0.00  0.00    -0.047 C 
ATOM    120  H93 ARG d   1      -2.627 -11.363  24.322  0.00  0.00     0.035 H 
ATOM    121  H94 ARG d   1      -1.171 -12.185  24.979  0.00  0.00     0.035 H 
BRANCH 119 122
ATOM    122  CD  ARG d   1      -1.989 -10.662  26.240  0.00  0.00     0.009 C 
ATOM    123  H95 ARG d   1      -1.416  -9.844  25.780  0.00  0.00     0.064 H 
ATOM    124  H96 ARG d   1      -1.441 -11.049  27.111  0.00  0.00     0.064 H 
BRANCH 122 125
ATOM    125  NE  ARG d   1      -3.284 -10.149  26.680  0.00  0.00    -0.227 N 
ATOM    126  CZ  ARG d   1      -3.568  -8.870  26.894  0.00  0.00     0.665 C 
ATOM    127  NH1 ARG d   1      -4.787  -8.537  27.290  0.00  0.00    -0.235 N 
ATOM    128  NH2 ARG d   1      -2.652  -7.925  26.713  0.00  0.00    -0.235 N 
ATOM    129  H98 ARG d   1      -5.021  -7.548  27.460  0.00  0.00     0.174 HD
ATOM    130  H99 ARG d   1      -5.501  -9.267  27.428  0.00  0.00     0.174 HD
ATOM    131 0H10 ARG d   1      -1.703  -8.180  26.405  0.00  0.00     0.174 HD
ATOM    132 1H10 ARG d   1      -2.891  -6.937  26.881  0.00  0.00     0.174 HD
ATOM    133  H97 ARG d   1      -4.037 -10.834  26.837  0.00  0.00     0.177 HD
ENDBRANCH 122 125
ENDBRANCH 119 122
ENDBRANCH 116 119
ENDBRANCH 111 116
ENDBRANCH 109 111
ENDBRANCH 105 107
BRANCH 105 134
ATOM    134  CB  ARG d   1      -5.032 -17.736  26.017  0.00  0.00    -0.036 C 
ATOM    135  H78 ARG d   1      -4.155 -17.177  26.376  0.00  0.00     0.036 H 
ATOM    136  H79 ARG d   1      -4.709 -18.501  25.295  0.00  0.00     0.036 H 
BRANCH 134 137
ATOM    137  CG  ARG d   1      -5.667 -18.456  27.224  0.00  0.00    -0.048 C 
ATOM    138  H80 ARG d   1      -6.465 -19.123  26.866  0.00  0.00     0.035 H 
ATOM    139  H81 ARG d   1      -6.094 -17.706  27.906  0.00  0.00     0.035 H 
BRANCH 137 140
ATOM    140  CD  ARG d   1      -4.621 -19.287  27.982  0.00  0.00     0.009 C 
ATOM    141  H82 ARG d   1      -3.787 -18.624  28.255  0.00  0.00     0.064 H 
ATOM    142  H83 ARG d   1      -4.256 -20.077  27.309  0.00  0.00     0.064 H 
BRANCH 140 143
ATOM    143  NE  ARG d   1      -5.122 -19.924  29.208  0.00  0.00    -0.227 N 
ATOM    144  CZ  ARG d   1      -4.370 -20.653  30.033  0.00  0.00     0.665 C 
ATOM    145  NH1 ARG d   1      -4.895 -21.205  31.131  0.00  0.00    -0.235 N 
ATOM    146  NH2 ARG d   1      -3.082 -20.835  29.767  0.00  0.00    -0.235 N 
ATOM    147  H85 ARG d   1      -4.302 -21.766  31.759  0.00  0.00     0.174 HD
ATOM    148  H86 ARG d   1      -5.893 -21.070  31.349  0.00  0.00     0.174 HD
ATOM    149  H87 ARG d   1      -2.666 -20.415  28.924  0.00  0.00     0.174 HD
ATOM    150  H88 ARG d   1      -2.499 -21.397  30.404  0.00  0.00     0.174 HD
ATOM    151  H84 ARG d   1      -6.117 -19.799  29.445  0.00  0.00     0.177 HD
ENDBRANCH 140 143
ENDBRANCH 137 140
ENDBRANCH 134 137
ENDBRANCH 105 134
ENDBRANCH 103 105
ENDBRANCH  99 101
BRANCH  99 152
ATOM    152  CB  ILE d   1      -7.743 -17.332  21.256  0.00  0.00    -0.030 C 
ATOM    153  H67 ILE d   1      -6.714 -17.696  21.393  0.00  0.00     0.043 H 
BRANCH 152 154
ATOM    154  CG1 ILE d   1      -7.701 -15.854  20.855  0.00  0.00    -0.063 C 
ATOM    155  H68 ILE d   1      -7.344 -15.272  21.717  0.00  0.00     0.033 H 
ATOM    156  H69 ILE d   1      -8.722 -15.537  20.596  0.00  0.00     0.033 H 
BRANCH 154 157
ATOM    157  CD1 ILE d   1      -6.801 -15.561  19.680  0.00  0.00    -0.076 C 
ATOM    158  H73 ILE d   1      -6.827 -14.484  19.458  0.00  0.00     0.027 H 
ATOM    159  H74 ILE d   1      -7.149 -16.125  18.802  0.00  0.00     0.027 H 
ATOM    160  H75 ILE d   1      -5.771 -15.860  19.924  0.00  0.00     0.027 H 
ENDBRANCH 154 157
ENDBRANCH 152 154
BRANCH 152 161
ATOM    161  CG2 ILE d   1      -8.417 -18.143  20.146  0.00  0.00    -0.071 C 
ATOM    162  H70 ILE d   1      -8.447 -19.204  20.434  0.00  0.00     0.028 H 
ATOM    163  H71 ILE d   1      -7.846 -18.032  19.212  0.00  0.00     0.028 H 
ATOM    164  H72 ILE d   1      -9.442 -17.775  19.994  0.00  0.00     0.028 H 
ENDBRANCH 152 161
ENDBRANCH  99 152
ENDBRANCH  97  99
ENDBRANCH  93  95
BRANCH  93 165
ATOM    165  CB  LYS d   1     -13.164 -17.329  23.562  0.00  0.00    -0.038 C 
ATOM    166  H54 LYS d   1     -13.350 -18.412  23.616  0.00  0.00     0.036 H 
ATOM    167  H55 LYS d   1     -14.118 -16.800  23.425  0.00  0.00     0.036 H 
BRANCH 165 168
ATOM    168  CG  LYS d   1     -12.563 -16.887  24.874  0.00  0.00    -0.061 C 
ATOM    169  H56 LYS d   1     -12.353 -15.808  24.822  0.00  0.00     0.033 H 
ATOM    170  H57 LYS d   1     -11.624 -17.436  25.036  0.00  0.00     0.033 H 
BRANCH 168 171
ATOM    171  CD  LYS d   1     -13.485 -17.147  26.040  0.00  0.00    -0.043 C 
ATOM    172  H58 LYS d   1     -13.767 -18.210  26.050  0.00  0.00     0.035 H 
ATOM    173  H59 LYS d   1     -14.389 -16.529  25.934  0.00  0.00     0.035 H 
BRANCH 171 174
ATOM    174  CE  LYS d   1     -12.797 -16.803  27.332  0.00  0.00     0.080 C 
ATOM    175  H60 LYS d   1     -12.230 -15.871  27.193  0.00  0.00     0.075 H 
ATOM    176  H61 LYS d   1     -12.105 -17.618  27.592  0.00  0.00     0.075 H 
BRANCH 174 177
ATOM    177  NZ  LYS d   1     -13.754 -16.616  28.448  0.00  0.00    -0.079 N 
ATOM    178  H62 LYS d   1     -13.248 -16.388  29.290  0.00  0.00     0.274 HD
ATOM    179  H63 LYS d   1     -14.275 -17.467  28.590  0.00  0.00     0.274 HD
ATOM    180  H64 LYS d   1     -14.389 -15.866  28.224  0.00  0.00     0.274 HD
ENDBRANCH 174 177
ENDBRANCH 171 174
ENDBRANCH 168 171
ENDBRANCH 165 168
ENDBRANCH  93 165
ENDBRANCH   3  93
TORSDOF 46
