REMARK  24 active torsions:
REMARK  status: ('A' for Active; 'I' for Inactive)
REMARK       I    between atoms: CAY_5  and  NAZ_6 
REMARK       I    between atoms: NAX_17  and  CAY_5 
REMARK    1  A    between atoms: NAZ_6  and  CBB_7 
REMARK    2  A    between atoms: CBE_12  and  CBH_13 
REMARK    3  A    between atoms: CBH_13  and  CBK_14 
REMARK    4  A    between atoms: CBH_13  and  CBJ_15 
REMARK    5  A    between atoms: CBH_13  and  CBI_16 
REMARK    6  A    between atoms: CAW_18  and  NAX_17 
REMARK    7  A    between atoms: CAV_19  and  CAW_18 
REMARK    8  A    between atoms: CAT_20  and  CAV_19 
REMARK    9  A    between atoms: NAS_21  and  CAT_20 
REMARK   10  A    between atoms: NAS_21  and  CAU_22 
REMARK   11  A    between atoms: CAR_25  and  NAS_21 
REMARK   12  A    between atoms: CAU_22  and  CBL_23 
REMARK   13  A    between atoms: CAU_22  and  CBM_24 
REMARK   14  A    between atoms: CAN_26  and  CAR_25 
REMARK   15  A    between atoms: CAM_27  and  OAQ_28 
REMARK   16  A    between atoms: CAL_29  and  OAP_30 
REMARK   17  A    between atoms: CAK_31  and  NAG_33 
REMARK   18  A    between atoms: C7_37  and  N9_39 
REMARK   19  A    between atoms: N9_39  and  C10_40 
REMARK   20  A    between atoms: C10_40  and  C11_41 
REMARK   21  A    between atoms: C11_41  and  C12_42 
REMARK   22  A    between atoms: C12_42  and  C13_43 
REMARK   23  A    between atoms: C13_43  and  N15_44 
REMARK       I    between atoms: N15_44  and  C16_45 
REMARK   24  A    between atoms: C16_45  and  C18_47 
ROOT
ATOM      1  NAS 3US d   1      66.552  12.808  -8.562  0.00  0.00    -0.065 N 
ATOM      2  H   3US d   1      65.561  12.895  -8.400  0.00  0.00     0.280 HD
ENDROOT
BRANCH   1   3
ATOM      3  CAT 3US d   1      67.067  11.804  -7.627  0.00  0.00     0.085 C 
ATOM      4  H   3US d   1      68.144  11.667  -7.804  0.00  0.00     0.076 H 
ATOM      5  H   3US d   1      66.906  12.155  -6.597  0.00  0.00     0.076 H 
BRANCH   3   6
ATOM      6  CAV 3US d   1      66.357  10.469  -7.815  0.00  0.00    -0.028 C 
ATOM      7  H   3US d   1      65.321  10.680  -8.119  0.00  0.00     0.037 H 
ATOM      8  H   3US d   1      66.872   9.926  -8.621  0.00  0.00     0.037 H 
BRANCH   6   9
ATOM      9  CAW 3US d   1      66.307   9.557  -6.601  0.00  0.00    -0.002 C 
ATOM     10  H   3US d   1      65.700   8.677  -6.860  0.00  0.00     0.064 H 
ATOM     11  H   3US d   1      67.334   9.239  -6.370  0.00  0.00     0.064 H 
BRANCH   9  12
ATOM     12  NAX 3US d   1      65.748  10.153  -5.420  0.00  0.00    -0.343 N 
ATOM     13  CAY 3US d   1      66.470  10.656  -4.464  0.00  0.00     0.320 C 
ATOM     14  OBA 3US d   1      67.648  10.535  -4.477  0.00  0.00    -0.247 OA
ATOM     15  NAZ 3US d   1      65.843  11.283  -3.512  0.00  0.00    -0.309 N 
ATOM     16  H   3US d   1      64.844  11.289  -3.545  0.00  0.00     0.170 HD
ATOM     17  H   3US d   1      64.753  10.182  -5.329  0.00  0.00     0.164 HD
BRANCH  15  18
ATOM     18  CBB 3US d   1      66.426  11.917  -2.498  0.00  0.00     0.036 A 
ATOM     19  CBG 3US d   1      65.830  13.026  -1.958  0.00  0.00    -0.057 A 
ATOM     20  CBF 3US d   1      66.414  13.686  -0.905  0.00  0.00    -0.074 A 
ATOM     21  H   3US d   1      64.891  13.385  -2.365  0.00  0.00     0.086 H 
ATOM     22  CBE 3US d   1      67.607  13.257  -0.368  0.00  0.00    -0.051 A 
ATOM     23  H   3US d   1      65.927  14.561  -0.489  0.00  0.00     0.084 H 
ATOM     24  CBD 3US d   1      68.194  12.146  -0.915  0.00  0.00    -0.074 A 
ATOM     25  CBC 3US d   1      67.605  11.490  -1.958  0.00  0.00    -0.057 A 
ATOM     26  H   3US d   1      69.135  11.784  -0.516  0.00  0.00     0.084 H 
ATOM     27  H   3US d   1      68.085  10.609  -2.367  0.00  0.00     0.086 H 
BRANCH  22  28
ATOM     28  CBH 3US d   1      68.269  13.954   0.787  0.00  0.00    -0.024 C 
BRANCH  28  29
ATOM     29  CBK 3US d   1      67.884  15.411   0.826  0.00  0.00    -0.066 C 
ATOM     30  H   3US d   1      68.380  15.899   1.678  0.00  0.00     0.028 H 
ATOM     31  H   3US d   1      66.793  15.499   0.937  0.00  0.00     0.028 H 
ATOM     32  H   3US d   1      68.198  15.898  -0.109  0.00  0.00     0.028 H 
ENDBRANCH  28  29
BRANCH  28  33
ATOM     33  CBJ 3US d   1      67.860  13.288   2.066  0.00  0.00    -0.066 C 
ATOM     34  H   3US d   1      68.143  12.226   2.033  0.00  0.00     0.028 H 
ATOM     35  H   3US d   1      66.771  13.374   2.192  0.00  0.00     0.028 H 
ATOM     36  H   3US d   1      68.366  13.776   2.912  0.00  0.00     0.028 H 
ENDBRANCH  28  33
BRANCH  28  37
ATOM     37  CBI 3US d   1      69.767  13.878   0.702  0.00  0.00    -0.066 C 
ATOM     38  H   3US d   1      70.106  14.359  -0.228  0.00  0.00     0.028 H 
ATOM     39  H   3US d   1      70.082  12.824   0.706  0.00  0.00     0.028 H 
ATOM     40  H   3US d   1      70.210  14.396   1.565  0.00  0.00     0.028 H 
ENDBRANCH  28  37
ENDBRANCH  22  28
ENDBRANCH  15  18
ENDBRANCH   9  12
ENDBRANCH   6   9
ENDBRANCH   3   6
ENDBRANCH   1   3
BRANCH   1  41
ATOM     41  CAU 3US d   1      67.181  14.127  -8.470  0.00  0.00     0.097 C 
ATOM     42  H   3US d   1      67.360  14.437  -9.510  0.00  0.00     0.083 H 
BRANCH  41  43
ATOM     43  CBL 3US d   1      66.192  15.103  -7.897  0.00  0.00    -0.050 C 
ATOM     44  H   3US d   1      66.658  16.097  -7.825  0.00  0.00     0.030 H 
ATOM     45  H   3US d   1      65.885  14.768  -6.895  0.00  0.00     0.030 H 
ATOM     46  H   3US d   1      65.310  15.158  -8.552  0.00  0.00     0.030 H 
ENDBRANCH  41  43
BRANCH  41  47
ATOM     47  CBM 3US d   1      68.539  14.230  -7.798  0.00  0.00    -0.050 C 
ATOM     48  H   3US d   1      68.875  15.277  -7.808  0.00  0.00     0.030 H 
ATOM     49  H   3US d   1      69.265  13.607  -8.341  0.00  0.00     0.030 H 
ATOM     50  H   3US d   1      68.461  13.880  -6.758  0.00  0.00     0.030 H 
ENDBRANCH  41  47
ENDBRANCH   1  41
BRANCH   1  51
ATOM     51  CAR 3US d   1      66.805  12.447  -9.955  0.00  0.00     0.110 C 
ATOM     52  H   3US d   1      67.298  11.464  -9.972  0.00  0.00     0.080 H 
ATOM     53  H   3US d   1      67.477  13.202 -10.390  0.00  0.00     0.080 H 
BRANCH  51  54
ATOM     54  CAN 3US d   1      65.560  12.368 -10.815  0.00  0.00     0.091 C 
ATOM     55  CAM 3US d   1      65.873  12.161 -12.266  0.00  0.00     0.091 C 
ATOM     56  CAL 3US d   1      65.177  13.295 -12.963  0.00  0.00     0.105 C 
ATOM     57  H   3US d   1      66.954  12.152 -12.467  0.00  0.00     0.091 H 
ATOM     58  CAK 3US d   1      64.113  13.675 -11.988  0.00  0.00     0.139 C 
ATOM     59  H   3US d   1      65.864  14.127 -13.175  0.00  0.00     0.093 H 
ATOM     60  OAO 3US d   1      64.813  13.549 -10.793  0.00  0.00    -0.354 OA
ATOM     61  H   3US d   1      63.256  12.987 -12.031  0.00  0.00     0.122 H 
ATOM     62  H   3US d   1      64.945  11.534 -10.446  0.00  0.00     0.090 H 
BRANCH  55  63
ATOM     63  OAQ 3US d   1      65.260  10.940 -12.651  0.00  0.00    -0.390 OA
ATOM     64  H   3US d   1      64.322  11.001 -12.514  0.00  0.00     0.210 HD
ENDBRANCH  55  63
BRANCH  56  65
ATOM     65  OAP 3US d   1      64.564  12.850 -14.141  0.00  0.00    -0.388 OA
ATOM     66  H   3US d   1      63.925  12.180 -13.930  0.00  0.00     0.210 HD
ENDBRANCH  56  65
BRANCH  58  67
ATOM     67  NAG 3US d   1      63.651  15.044 -12.209  0.00  0.00    -0.294 N 
ATOM     68  C4  3US d   1      62.415  15.475 -12.281  0.00  0.00     0.167 A 
ATOM     69  C3  3US d   1      62.505  16.895 -12.515  0.00  0.00     0.149 A 
ATOM     70  N5  3US d   1      61.213  14.935 -12.178  0.00  0.00    -0.222 NA
ATOM     71  N2  3US d   1      63.780  17.186 -12.563  0.00  0.00    -0.236 NA
ATOM     72  C7  3US d   1      61.287  17.684 -12.635  0.00  0.00     0.157 A 
ATOM     73  C1  3US d   1      64.457  16.072 -12.381  0.00  0.00     0.071 A 
ATOM     74  H   3US d   1      65.544  16.008 -12.373  0.00  0.00     0.144 H 
ATOM     75  N8  3US d   1      60.153  17.015 -12.527  0.00  0.00    -0.222 NA
ATOM     76  C6  3US d   1      60.144  15.702 -12.302  0.00  0.00     0.091 A 
ATOM     77  H   3US d   1      59.176  15.221 -12.213  0.00  0.00     0.146 H 
BRANCH  72  78
ATOM     78  N9  3US d   1      61.343  19.007 -12.860  0.00  0.00    -0.373 N 
ATOM     79  H   3US d   1      60.990  19.670 -12.155  0.00  0.00     0.161 HD
BRANCH  78  80
ATOM     80  C10 3US d   1      61.905  19.492 -14.103  0.00  0.00    -0.006 C 
ATOM     81  H   3US d   1      61.094  19.963 -14.677  0.00  0.00     0.064 H 
ATOM     82  H   3US d   1      62.292  18.625 -14.658  0.00  0.00     0.064 H 
BRANCH  80  83
ATOM     83  C11 3US d   1      63.029  20.500 -13.979  0.00  0.00    -0.049 C 
ATOM     84  H   3US d   1      63.229  20.659 -12.909  0.00  0.00     0.035 H 
ATOM     85  H   3US d   1      62.693  21.444 -14.434  0.00  0.00     0.035 H 
BRANCH  83  86
ATOM     86  C12 3US d   1      64.337  20.091 -14.649  0.00  0.00    -0.049 C 
ATOM     87  H   3US d   1      64.700  20.925 -15.268  0.00  0.00     0.035 H 
ATOM     88  H   3US d   1      64.155  19.213 -15.286  0.00  0.00     0.035 H 
BRANCH  86  89
ATOM     89  C13 3US d   1      65.402  19.741 -13.610  0.00  0.00    -0.005 C 
ATOM     90  H   3US d   1      65.404  18.648 -13.484  0.00  0.00     0.064 H 
ATOM     91  H   3US d   1      65.118  20.219 -12.661  0.00  0.00     0.064 H 
BRANCH  89  92
ATOM     92  N15 3US d   1      66.753  20.154 -13.928  0.00  0.00    -0.361 N 
ATOM     93  C16 3US d   1      67.821  19.401 -13.660  0.00  0.00     0.213 C 
ATOM     94  O17 3US d   1      67.740  18.327 -13.141  0.00  0.00    -0.274 OA
ATOM     95  H   3US d   1      66.891  21.042 -14.367  0.00  0.00     0.162 HD
BRANCH  93  96
ATOM     96  C18 3US d   1      69.171  19.914 -14.027  0.00  0.00    -0.003 C 
ATOM     97  H   3US d   1      69.934  19.176 -13.739  0.00  0.00     0.040 H 
ATOM     98  H   3US d   1      69.359  20.861 -13.500  0.00  0.00     0.040 H 
ATOM     99  H   3US d   1      69.216  20.084 -15.113  0.00  0.00     0.040 H 
ENDBRANCH  93  96
ENDBRANCH  89  92
ENDBRANCH  86  89
ENDBRANCH  83  86
ENDBRANCH  80  83
ENDBRANCH  78  80
ENDBRANCH  72  78
ENDBRANCH  58  67
ENDBRANCH  51  54
ENDBRANCH   1  51
TORSDOF 24
