REMARK  21 active torsions:
REMARK  status: ('A' for Active; 'I' for Inactive)
REMARK    1  A    between atoms: N_1  and  CM_2 
REMARK    2  A    between atoms: CA_3  and  N_1 
REMARK    3  A    between atoms: CA_3  and  CB_4 
REMARK    4  A    between atoms: C_5  and  CA_3 
REMARK       I    between atoms: N_11  and  C_5 
REMARK    5  A    between atoms: CB_9  and  CG_8 
REMARK    6  A    between atoms: CA_10  and  CB_9 
REMARK    7  A    between atoms: CA_10  and  N_11 
REMARK    8  A    between atoms: C_12  and  CA_10 
REMARK       I    between atoms: N_14  and  C_12 
REMARK    9  A    between atoms: C_16  and  CA_15 
REMARK       I    between atoms: N_21  and  C_16 
REMARK   10  A    between atoms: CA_22  and  N_21 
REMARK   11  A    between atoms: C_23  and  CA_22 
REMARK   12  A    between atoms: CA_22  and  CB_25 
REMARK       I    between atoms: N_33  and  C_23 
REMARK   13  A    between atoms: CB_25  and  CG_26 
REMARK   14  A    between atoms: CA_38  and  C_32 
REMARK   15  A    between atoms: CA_38  and  N_33 
REMARK   16  A    between atoms: C32_44  and  N6_35 
REMARK   17  A    between atoms: CB_39  and  CA_38 
REMARK   18  A    between atoms: CG_40  and  CB_39 
REMARK   19  A    between atoms: CZ_42  and  OH_41 
REMARK   20  A    between atoms: OH_41  and  C31_43 
REMARK   21  A    between atoms: C31_43  and  C32_44 
ROOT
ATOM      1  CD  LPH d   1      -8.438-850.176  -0.895  0.00  0.00    -0.154 C 
ATOM      2  CG  LPH d   1      -8.417-850.629   0.193  0.00  0.00    -0.115 C 
ATOM      3  H10 LPH d   1      -8.457-849.770  -1.870  0.00  0.00     0.166 H 
ENDROOT
BRANCH   2   4
ATOM      4  CB  LPH d   1      -8.439-851.161   1.559  0.00  0.00     0.017 C 
ATOM      5  H11 LPH d   1      -7.590-851.844   1.709  0.00  0.00     0.055 H 
ATOM      6  H12 LPH d   1      -9.380-851.702   1.735  0.00  0.00     0.055 H 
BRANCH   4   7
ATOM      7  CA  LPH d   1      -8.330-849.967   2.528  0.00  0.00     0.099 C 
ATOM      8  H13 LPH d   1      -9.167-849.277   2.344  0.00  0.00     0.088 H 
BRANCH   7   9
ATOM      9  N   LPH d   1      -7.068-849.270   2.376  0.00  0.00    -0.345 N 
ATOM     10  C   MAA d   1      -7.011-847.999   1.972  0.00  0.00     0.248 C 
ATOM     11  O   MAA d   1      -8.004-847.286   1.850  0.00  0.00    -0.271 OA
ATOM     12  H14 LPH d   1      -6.217-849.755   2.579  0.00  0.00     0.163 HD
BRANCH  10  13
ATOM     13  CA  MAA d   1      -5.629-847.466   1.624  0.00  0.00     0.174 C 
ATOM     14  H6  MAA d   1      -5.036-848.276   1.175  0.00  0.00     0.098 H 
BRANCH  13  15
ATOM     15  N   MAA d   1      -5.738-846.363   0.660  0.00  0.00    -0.067 N 
ATOM     16  H1  MAA d   1      -6.376-845.686   1.047  0.00  0.00     0.277 HD
ATOM     17  H2  MAA d   1      -4.823-845.949   0.570  0.00  0.00     0.277 HD
BRANCH  15  18
ATOM     18  CM  MAA d   1      -6.208-846.687  -0.691  0.00  0.00     0.066 C 
ATOM     19  H3  MAA d   1      -6.239-845.770  -1.298  0.00  0.00     0.067 H 
ATOM     20  H4  MAA d   1      -7.216-847.123  -0.634  0.00  0.00     0.067 H 
ATOM     21  H5  MAA d   1      -5.521-847.411  -1.154  0.00  0.00     0.067 H 
ENDBRANCH  15  18
ENDBRANCH  13  15
BRANCH  13  22
ATOM     22  CB  MAA d   1      -4.931-846.979   2.889  0.00  0.00    -0.041 C 
ATOM     23  H7  MAA d   1      -4.852-847.809   3.607  0.00  0.00     0.030 H 
ATOM     24  H8  MAA d   1      -5.513-846.160   3.337  0.00  0.00     0.030 H 
ATOM     25  H9  MAA d   1      -3.924-846.616   2.636  0.00  0.00     0.030 H 
ENDBRANCH  13  22
ENDBRANCH  10  13
ENDBRANCH   7   9
BRANCH   7  26
ATOM     26  C   LPH d   1      -8.353-850.455   3.974  0.00  0.00     0.244 C 
ATOM     27  O   LPH d   1      -7.403-851.069   4.411  0.00  0.00    -0.271 OA
ATOM     28  N   PRO d   1      -9.427-850.177   4.730  0.00  0.00    -0.337 N 
ATOM     29  CA  PRO d   1      -9.571-850.775   6.055  0.00  0.00     0.091 C 
ATOM     30  CD  PRO d   1     -10.606-849.377   4.346  0.00  0.00    -0.001 C 
ATOM     31  CB  PRO d   1     -10.721-849.979   6.674  0.00  0.00    -0.036 C 
ATOM     32  H15 PRO d   1      -8.652-850.646   6.645  0.00  0.00     0.087 H 
ATOM     33  CG  PRO d   1     -11.581-849.605   5.477  0.00  0.00    -0.048 C 
ATOM     34  H16 PRO d   1     -10.346-849.080   7.185  0.00  0.00     0.036 H 
ATOM     35  H17 PRO d   1     -11.287-850.596   7.387  0.00  0.00     0.036 H 
ATOM     36  H18 PRO d   1     -12.153-848.688   5.684  0.00  0.00     0.035 H 
ATOM     37  H19 PRO d   1     -12.275-850.422   5.230  0.00  0.00     0.035 H 
ATOM     38  H20 PRO d   1     -11.024-849.729   3.391  0.00  0.00     0.064 H 
ATOM     39  H21 PRO d   1     -10.346-848.312   4.262  0.00  0.00     0.064 H 
BRANCH  29  40
ATOM     40  C   PRO d   1      -9.887-852.260   5.947  0.00  0.00     0.241 C 
ATOM     41  O   PRO d   1     -10.428-852.721   4.944  0.00  0.00    -0.271 OA
ATOM     42  N   PHE d   1      -9.565-853.003   7.006  0.00  0.00    -0.346 N 
ATOM     43  H22 PHE d   1      -9.083-852.584   7.775  0.00  0.00     0.163 HD
BRANCH  42  44
ATOM     44  CA  PHE d   1      -9.907-854.416   7.056  0.00  0.00     0.093 C 
ATOM     45  H23 PHE d   1     -10.918-854.532   6.638  0.00  0.00     0.088 H 
BRANCH  44  46
ATOM     46  C   PHE d   1      -9.936-854.913   8.496  0.00  0.00     0.241 C 
ATOM     47  O   PHE d   1      -9.511-854.218   9.411  0.00  0.00    -0.271 OA
ATOM     48  N   4LZ d   1     -10.465-856.123   8.674  0.00  0.00    -0.344 N 
ATOM     49  H31 4LZ d   1     -10.639-856.687   7.867  0.00  0.00     0.163 HD
BRANCH  48  50
ATOM     50  CA  4LZ d   1     -10.801-856.665   9.975  0.00  0.00     0.100 C 
ATOM     51  H32 4LZ d   1     -10.235-856.132  10.753  0.00  0.00     0.090 H 
BRANCH  50  52
ATOM     52  C   4LZ d   1     -10.381-858.127   9.969  0.00  0.00     0.197 C 
ATOM     53  O   4LZ d   1      -9.595-858.590  10.766  0.00  0.00    -0.646 OA
ATOM     54  OXT 4LZ d   1     -10.845-858.771   8.931  0.00  0.00    -0.646 OA
ENDBRANCH  50  52
BRANCH  50  55
ATOM     55  CB  4LZ d   1     -12.306-856.481  10.255  0.00  0.00    -0.013 C 
ATOM     56  H33 4LZ d   1     -12.508-856.770  11.297  0.00  0.00     0.043 H 
ATOM     57  H34 4LZ d   1     -12.872-857.136   9.576  0.00  0.00     0.043 H 
BRANCH  55  58
ATOM     58  CG  4LZ d   1     -12.771-855.056  10.051  0.00  0.00    -0.056 A 
ATOM     59  CD1 4LZ d   1     -12.645-854.113  11.063  0.00  0.00    -0.074 A 
ATOM     60  CE1 4LZ d   1     -12.963-852.780  10.849  0.00  0.00    -0.050 A 
ATOM     61  H39 4LZ d   1     -12.291-854.425  12.039  0.00  0.00     0.084 H 
ATOM     62  CZ  4LZ d   1     -13.405-852.368   9.601  0.00  0.00     0.068 A 
ATOM     63  H41 4LZ d   1     -12.866-852.062  11.655  0.00  0.00     0.087 H 
ATOM     64  CE2 4LZ d   1     -13.561-853.303   8.583  0.00  0.00    -0.050 A 
ATOM     65  CD2 4LZ d   1     -13.249-854.633   8.816  0.00  0.00    -0.074 A 
ATOM     66  H42 4LZ d   1     -13.925-852.992   7.611  0.00  0.00     0.087 H 
ATOM     67  H40 4LZ d   1     -13.380-855.357   8.020  0.00  0.00     0.084 H 
BRANCH  62  68
ATOM     68  OH  4LZ d   1     -13.702-851.026   9.523  0.00  0.00    -0.349 OA
BRANCH  68  69
ATOM     69  C31 4LZ d   1     -14.270-850.518   8.300  0.00  0.00     0.045 C 
ATOM     70  H35 4LZ d   1     -15.205-851.051   8.071  0.00  0.00     0.077 H 
ATOM     71  H36 4LZ d   1     -13.559-850.653   7.472  0.00  0.00     0.077 H 
BRANCH  69  72
ATOM     72  C32 4LZ d   1     -14.551-849.054   8.501  0.00  0.00     0.067 C 
ATOM     73  H37 4LZ d   1     -15.573-848.828   8.162  0.00  0.00     0.074 H 
ATOM     74  H38 4LZ d   1     -14.456-848.807   9.569  0.00  0.00     0.074 H 
BRANCH  72  75
ATOM     75  N6  4LZ d   1     -13.582-848.247   7.720  0.00  0.00    -0.113 NA
ATOM     76  N7  4LZ d   1     -14.043-847.629   6.758  0.00  0.00    -0.168 NA
ATOM     77  N8  4LZ d   1     -14.465-847.060   5.869  0.00  0.00     0.068 N 
ENDBRANCH  72  75
ENDBRANCH  69  72
ENDBRANCH  68  69
ENDBRANCH  62  68
ENDBRANCH  55  58
ENDBRANCH  50  55
ENDBRANCH  48  50
ENDBRANCH  44  46
BRANCH  44  78
ATOM     78  CB  PHE d   1      -8.946-855.261   6.198  0.00  0.00    -0.014 C 
ATOM     79  H24 PHE d   1      -8.879-854.809   5.198  0.00  0.00     0.043 H 
ATOM     80  H25 PHE d   1      -9.354-856.279   6.114  0.00  0.00     0.043 H 
BRANCH  78  81
ATOM     81  CG  PHE d   1      -7.557-855.347   6.780  0.00  0.00    -0.056 A 
ATOM     82  CD1 PHE d   1      -7.151-856.483   7.470  0.00  0.00    -0.077 A 
ATOM     83  CE1 PHE d   1      -5.901-856.545   8.062  0.00  0.00    -0.082 A 
ATOM     84  H26 PHE d   1      -7.822-857.331   7.546  0.00  0.00     0.084 H 
ATOM     85  CZ  PHE d   1      -5.025-855.484   7.951  0.00  0.00    -0.083 A 
ATOM     86  H28 PHE d   1      -5.609-857.430   8.615  0.00  0.00     0.083 H 
ATOM     87  CE2 PHE d   1      -5.423-854.341   7.287  0.00  0.00    -0.082 A 
ATOM     88  H30 PHE d   1      -4.032-855.548   8.382  0.00  0.00     0.083 H 
ATOM     89  CD2 PHE d   1      -6.680-854.275   6.702  0.00  0.00    -0.077 A 
ATOM     90  H29 PHE d   1      -4.752-853.492   7.222  0.00  0.00     0.083 H 
ATOM     91  H27 PHE d   1      -6.980-853.375   6.178  0.00  0.00     0.084 H 
ENDBRANCH  78  81
ENDBRANCH  44  78
ENDBRANCH  42  44
ENDBRANCH  29  40
ENDBRANCH   7  26
ENDBRANCH   4   7
ENDBRANCH   2   4
TORSDOF 21
