REMARK  8 active torsions:
REMARK  status: ('A' for Active; 'I' for Inactive)
REMARK    1  A    between atoms: N_1  and  CM_2 
REMARK    2  A    between atoms: CA_3  and  N_1 
REMARK    3  A    between atoms: CA_3  and  CB_4 
REMARK    4  A    between atoms: C_5  and  CA_3 
REMARK       I    between atoms: N_7  and  C_5 
REMARK    5  A    between atoms: CA_8  and  N_7 
REMARK    6  A    between atoms: CA_26  and  CB_29 
REMARK    7  A    between atoms: CB_29  and  CG_30 
REMARK    8  A    between atoms: CA_37  and  C_38 
ROOT
ATOM      1  CA  PHE d   1      13.637   2.817   7.784  0.00  0.00     0.093 C 
ATOM      2  C   PHE d   1      12.140   3.148   7.819  0.00  0.00     0.243 C 
ATOM      3  O   PHE d   1      11.629   3.681   6.841  0.00  0.00    -0.271 OA
ATOM      4  CB  PHE d   1      14.455   4.118   7.720  0.00  0.00    -0.014 C 
ATOM      5  CG  PHE d   1      14.165   5.072   8.851  0.00  0.00    -0.056 A 
ATOM      6  CD1 PHE d   1      13.478   6.255   8.621  0.00  0.00    -0.074 A 
ATOM      7  CD2 PHE d   1      14.573   4.786  10.145  0.00  0.00    -0.074 A 
ATOM      8  CE1 PHE d   1      13.188   7.127   9.660  0.00  0.00    -0.050 A 
ATOM      9  CE2 PHE d   1      14.278   5.637  11.195  0.00  0.00    -0.050 A 
ATOM     10  CZ  PHE d   1      13.557   6.801  10.954  0.00  0.00     0.069 A 
ATOM     11  N   PHE d   1       8.864   5.441   8.858  0.00  0.00    -0.346 N 
ATOM     12  CA  PHE d   1       8.691   6.859   9.133  0.00  0.00     0.093 C 
ATOM     13  C   PHE d   1       7.223   7.237   8.973  0.00  0.00     0.241 C 
ATOM     14  O   PHE d   1       6.412   6.413   8.573  0.00  0.00    -0.271 OA
ATOM     15  N   PHE d   1       6.887   8.475   9.324  0.00  0.00    -0.344 N 
ATOM     16  CA  PHE d   1       5.528   8.962   9.203  0.00  0.00     0.100 C 
ATOM     17  CB  PHE d   1       4.771   8.786  10.530  0.00  0.00    -0.013 C 
ATOM     18  CG  PHE d   1       5.497   9.369  11.713  0.00  0.00    -0.056 A 
ATOM     19  CD1 PHE d   1       5.450  10.729  11.985  0.00  0.00    -0.074 A 
ATOM     20  CD2 PHE d   1       6.239   8.555  12.555  0.00  0.00    -0.074 A 
ATOM     21  CE1 PHE d   1       6.129  11.267  13.066  0.00  0.00    -0.050 A 
ATOM     22  CE2 PHE d   1       6.884   9.071  13.663  0.00  0.00    -0.050 A 
ATOM     23  CZ  PHE d   1       6.817  10.430  13.928  0.00  0.00     0.068 A 
ATOM     24  H11 PHE d   1      13.912   2.249   8.685  0.00  0.00     0.088 H 
ATOM     25  H12 PHE d   1      14.227   4.625   6.771  0.00  0.00     0.043 H 
ATOM     26  H13 PHE d   1      15.524   3.858   7.750  0.00  0.00     0.043 H 
ATOM     27  H14 PHE d   1      13.163   6.502   7.614  0.00  0.00     0.084 H 
ATOM     28  H15 PHE d   1      15.134   3.878  10.338  0.00  0.00     0.084 H 
ATOM     29  H16 PHE d   1      12.674   8.060   9.460  0.00  0.00     0.087 H 
ATOM     30  H17 PHE d   1      14.607   5.398  12.200  0.00  0.00     0.087 H 
ATOM     31  H25 PHE d   1       8.191   4.968   8.290  0.00  0.00     0.163 HD
ATOM     32  H26 PHE d   1       8.962   7.032  10.185  0.00  0.00     0.088 H 
ATOM     33  H34 PHE d   1       7.592   9.087   9.682  0.00  0.00     0.163 HD
ATOM     34  H35 PHE d   1       5.014   8.373   8.429  0.00  0.00     0.090 H 
ATOM     35  H36 PHE d   1       4.623   7.710  10.707  0.00  0.00     0.043 H 
ATOM     36  H37 PHE d   1       3.793   9.281  10.442  0.00  0.00     0.043 H 
ATOM     37  H38 PHE d   1       4.872  11.382  11.341  0.00  0.00     0.084 H 
ATOM     38  H39 PHE d   1       6.315   7.495  12.341  0.00  0.00     0.084 H 
ATOM     39  H40 PHE d   1       6.122  12.338  13.236  0.00  0.00     0.087 H 
ATOM     40  H41 PHE d   1       7.441   8.415  14.323  0.00  0.00     0.087 H 
ATOM     41  N   PRO d   1      11.415   2.870   8.923  0.00  0.00    -0.337 N 
ATOM     42  CA  PRO d   1       9.999   3.281   8.946  0.00  0.00     0.091 C 
ATOM     43  C   PRO d   1       9.902   4.757   9.347  0.00  0.00     0.241 C 
ATOM     44  O   PRO d   1      10.752   5.261  10.078  0.00  0.00    -0.271 OA
ATOM     45  CB  PRO d   1       9.379   2.365  10.007  0.00  0.00    -0.036 C 
ATOM     46  CG  PRO d   1      10.513   2.144  11.002  0.00  0.00    -0.048 C 
ATOM     47  CD  PRO d   1      11.810   2.180  10.166  0.00  0.00    -0.001 C 
ATOM     48  H18 PRO d   1       9.521   3.129   7.967  0.00  0.00     0.087 H 
ATOM     49  H19 PRO d   1       9.056   1.412   9.562  0.00  0.00     0.036 H 
ATOM     50  H20 PRO d   1       8.521   2.852  10.493  0.00  0.00     0.036 H 
ATOM     51  H21 PRO d   1      10.403   1.169  11.499  0.00  0.00     0.035 H 
ATOM     52  H22 PRO d   1      10.521   2.942  11.759  0.00  0.00     0.035 H 
ATOM     53  H23 PRO d   1      12.598   2.740  10.691  0.00  0.00     0.064 H 
ATOM     54  H24 PRO d   1      12.165   1.161   9.952  0.00  0.00     0.064 H 
ATOM     55  C11 3V7 d   1      12.956   8.751  13.914  0.00  0.00     0.099 A 
ATOM     56  C12 3V7 d   1      11.812   9.023  14.597  0.00  0.00     0.028 A 
ATOM     57  O1  3V7 d   1       7.624  10.517  15.028  0.00  0.00    -0.351 OA
ATOM     58  C7  3V7 d   1       8.436  11.671  15.249  0.00  0.00     0.028 C 
ATOM     59  C8  3V7 d   1       9.729  11.194  14.671  0.00  0.00    -0.028 C 
ATOM     60  C9  3V7 d   1      10.911  11.123  15.614  0.00  0.00     0.020 C 
ATOM     61  N1  3V7 d   1      11.961  10.272  15.053  0.00  0.00    -0.261 N 
ATOM     62  N2  3V7 d   1      13.158  10.770  14.694  0.00  0.00    -0.066 NA
ATOM     63  N3  3V7 d   1      13.753   9.848  13.976  0.00  0.00    -0.133 NA
ATOM     64  O8  3V7 d   1      13.123   7.714  11.883  0.00  0.00    -0.345 OA
ATOM     65  C36 3V7 d   1      13.397   7.494  13.246  0.00  0.00     0.069 C 
ATOM     66  H42 3V7 d   1      10.957   8.364  14.742  0.00  0.00     0.117 H 
ATOM     67  H43 3V7 d   1       8.529  11.905  16.320  0.00  0.00     0.075 H 
ATOM     68  H44 3V7 d   1       8.050  12.551  14.713  0.00  0.00     0.075 H 
ATOM     69  H45 3V7 d   1       9.998  11.875  13.850  0.00  0.00     0.038 H 
ATOM     70  H46 3V7 d   1       9.562  10.184  14.270  0.00  0.00     0.038 H 
ATOM     71  H47 3V7 d   1      10.582  10.705  16.577  0.00  0.00     0.067 H 
ATOM     72  H48 3V7 d   1      11.311  12.136  15.771  0.00  0.00     0.067 H 
ATOM     73  H49 3V7 d   1      12.829   6.631  13.624  0.00  0.00     0.085 H 
ATOM     74  H50 3V7 d   1      14.472   7.324  13.405  0.00  0.00     0.085 H 
ENDROOT
BRANCH   1  75
ATOM     75  N   PHE d   1      13.920   2.033   6.602  0.00  0.00    -0.346 N 
ATOM     76  C   MAA d   1      14.205   0.732   6.635  0.00  0.00     0.248 C 
ATOM     77  O   MAA d   1      14.136   0.049   7.650  0.00  0.00    -0.271 OA
ATOM     78  H10 PHE d   1      13.901   2.491   5.713  0.00  0.00     0.163 HD
BRANCH  76  79
ATOM     79  CA  MAA d   1      14.560   0.103   5.296  0.00  0.00     0.174 C 
ATOM     80  H6  MAA d   1      15.101   0.851   4.698  0.00  0.00     0.098 H 
BRANCH  79  81
ATOM     81  N   MAA d   1      15.438  -1.064   5.461  0.00  0.00    -0.067 N 
ATOM     82  H1  MAA d   1      14.986  -1.709   6.090  0.00  0.00     0.277 HD
ATOM     83  H2  MAA d   1      15.553  -1.499   4.559  0.00  0.00     0.277 HD
BRANCH  81  84
ATOM     84  CM  MAA d   1      16.765  -0.768   5.993  0.00  0.00     0.066 C 
ATOM     85  H3  MAA d   1      17.342  -1.701   6.079  0.00  0.00     0.067 H 
ATOM     86  H4  MAA d   1      16.667  -0.305   6.986  0.00  0.00     0.067 H 
ATOM     87  H5  MAA d   1      17.286  -0.076   5.315  0.00  0.00     0.067 H 
ENDBRANCH  81  84
ENDBRANCH  79  81
BRANCH  79  88
ATOM     88  CB  MAA d   1      13.281  -0.273   4.550  0.00  0.00    -0.041 C 
ATOM     89  H7  MAA d   1      12.645   0.618   4.441  0.00  0.00     0.030 H 
ATOM     90  H8  MAA d   1      12.739  -1.044   5.117  0.00  0.00     0.030 H 
ATOM     91  H9  MAA d   1      13.539  -0.663   3.554  0.00  0.00     0.030 H 
ENDBRANCH  79  88
ENDBRANCH  76  79
ENDBRANCH   1  75
BRANCH  12  92
ATOM     92  CB  PHE d   1       9.642   7.718   8.275  0.00  0.00    -0.014 C 
ATOM     93  H27 PHE d   1      10.626   7.227   8.255  0.00  0.00     0.043 H 
ATOM     94  H28 PHE d   1       9.735   8.706   8.749  0.00  0.00     0.043 H 
BRANCH  92  95
ATOM     95  CG  PHE d   1       9.185   7.919   6.848  0.00  0.00    -0.056 A 
ATOM     96  CD1 PHE d   1       8.583   9.110   6.457  0.00  0.00    -0.077 A 
ATOM     97  CE1 PHE d   1       8.191   9.310   5.141  0.00  0.00    -0.082 A 
ATOM     98  H29 PHE d   1       8.418   9.892   7.189  0.00  0.00     0.084 H 
ATOM     99  CZ  PHE d   1       8.399   8.323   4.198  0.00  0.00    -0.083 A 
ATOM    100  H31 PHE d   1       7.721  10.243   4.853  0.00  0.00     0.083 H 
ATOM    101  CE2 PHE d   1       8.993   7.134   4.574  0.00  0.00    -0.082 A 
ATOM    102  H33 PHE d   1       8.098   8.480   3.169  0.00  0.00     0.083 H 
ATOM    103  CD2 PHE d   1       9.372   6.929   5.893  0.00  0.00    -0.077 A 
ATOM    104  H32 PHE d   1       9.164   6.358   3.836  0.00  0.00     0.083 H 
ATOM    105  H30 PHE d   1       9.819   5.985   6.181  0.00  0.00     0.084 H 
ENDBRANCH  92  95
ENDBRANCH  12  92
BRANCH  16 106
ATOM    106  C   PHE d   1       5.530  10.421   8.776  0.00  0.00     0.197 C 
ATOM    107  O   PHE d   1       4.583  10.907   8.198  0.00  0.00    -0.646 OA
ATOM    108  OXT PHE d   1       6.605  11.075   9.115  0.00  0.00    -0.646 OA
ENDBRANCH  16 106
TORSDOF 8
