REMARK  12 active torsions:
REMARK  status: ('A' for Active; 'I' for Inactive)
REMARK    1  A    between atoms: N_1  and  CM_2 
REMARK    2  A    between atoms: CA_3  and  N_1 
REMARK    3  A    between atoms: CA_3  and  CB_4 
REMARK    4  A    between atoms: C_5  and  CA_3 
REMARK       I    between atoms: N_7  and  C_5 
REMARK    5  A    between atoms: CA_8  and  N_7 
REMARK    6  A    between atoms: C_9  and  CA_8 
REMARK    7  A    between atoms: CA_8  and  CB_11 
REMARK       I    between atoms: N4_24  and  C_9 
REMARK    8  A    between atoms: CB_11  and  CG1_12 
REMARK    9  A    between atoms: CB_11  and  CG2_13 
REMARK   10  A    between atoms: CA_31  and  CB_34 
REMARK   11  A    between atoms: CB_34  and  CG_35 
REMARK   12  A    between atoms: CA_45  and  C_42 
ROOT
ATOM      1  C   VAL d   1       6.898   1.456  12.689  0.00  0.00     0.243 C 
ATOM      2  O   VAL d   1       5.901   0.947  12.207  0.00  0.00    -0.271 OA
ATOM      3  C18 3V8 d   1       9.389   1.654  10.052  0.00  0.00    -0.015 C 
ATOM      4  C17 3V8 d   1       8.102   1.032  10.623  0.00  0.00     0.093 C 
ATOM      5  C16 3V8 d   1       8.217  -0.487  10.725  0.00  0.00     0.241 C 
ATOM      6  C19 3V8 d   1       9.955   2.626  11.085  0.00  0.00     0.053 C 
ATOM      7  C20 3V8 d   1       9.324   2.158  12.397  0.00  0.00     0.019 C 
ATOM      8  C11 3V8 d   1      14.820   2.246   8.754  0.00  0.00     0.015 C 
ATOM      9  C12 3V8 d   1      14.948   2.727  10.187  0.00  0.00    -0.014 C 
ATOM     10  C10 3V8 d   1      14.273   0.834   8.669  0.00  0.00     0.222 C 
ATOM     11  O3  3V8 d   1      14.751  -0.066   9.360  0.00  0.00    -0.273 OA
ATOM     12  O5  3V8 d   1       8.588  -1.016  11.772  0.00  0.00    -0.271 OA
ATOM     13  N4  3V8 d   1       8.036   1.582  11.983  0.00  0.00    -0.335 N 
ATOM     14  N5  3V8 d   1      11.464   2.617  11.181  0.00  0.00    -0.254 N 
ATOM     15  C30 3V8 d   1      12.367   3.074  10.296  0.00  0.00     0.026 A 
ATOM     16  C31 3V8 d   1      13.579   2.693  10.797  0.00  0.00     0.076 A 
ATOM     17  N8  3V8 d   1      13.365   2.064  11.983  0.00  0.00    -0.135 NA
ATOM     18  N9  3V8 d   1      12.077   2.018  12.222  0.00  0.00    -0.066 NA
ATOM     19  H19 3V8 d   1       9.159   2.193   9.121  0.00  0.00     0.040 H 
ATOM     20  H20 3V8 d   1      10.124   0.862   9.845  0.00  0.00     0.040 H 
ATOM     21  H21 3V8 d   1       7.223   1.310  10.023  0.00  0.00     0.088 H 
ATOM     22  H22 3V8 d   1       9.631   3.650  10.848  0.00  0.00     0.078 H 
ATOM     23  H23 3V8 d   1       9.172   3.005  13.082  0.00  0.00     0.067 H 
ATOM     24  H24 3V8 d   1       9.953   1.399  12.885  0.00  0.00     0.067 H 
ATOM     25  H25 3V8 d   1      15.813   2.270   8.283  0.00  0.00     0.047 H 
ATOM     26  H26 3V8 d   1      14.141   2.922   8.213  0.00  0.00     0.047 H 
ATOM     27  H27 3V8 d   1      15.342   3.754  10.205  0.00  0.00     0.043 H 
ATOM     28  H28 3V8 d   1      15.625   2.065  10.746  0.00  0.00     0.043 H 
ATOM     29  H29 3V8 d   1      12.174   3.628   9.379  0.00  0.00     0.117 H 
ATOM     30  N   PHE d   1       7.879  -1.188   9.641  0.00  0.00    -0.346 N 
ATOM     31  CA  PHE d   1       8.184  -2.609   9.550  0.00  0.00     0.093 C 
ATOM     32  C   PHE d   1       8.412  -2.997   8.090  0.00  0.00     0.241 C 
ATOM     33  O   PHE d   1       8.169  -2.197   7.190  0.00  0.00    -0.271 OA
ATOM     34  H30 PHE d   1       7.411  -0.733   8.883  0.00  0.00     0.163 HD
ATOM     35  H31 PHE d   1       9.135  -2.776  10.077  0.00  0.00     0.088 H 
ATOM     36  N   HOX d   1       8.973  -4.190   7.880  0.00  0.00    -0.344 N 
ATOM     37  CA  HOX d   1       9.510  -4.592   6.588  0.00  0.00     0.100 C 
ATOM     38  CB  HOX d   1      11.048  -4.484   6.577  0.00  0.00    -0.013 C 
ATOM     39  CG  HOX d   1      11.530  -3.093   6.916  0.00  0.00    -0.056 A 
ATOM     40  CZ  HOX d   1      12.557  -0.556   7.523  0.00  0.00     0.034 A 
ATOM     41  NZ  HOX d   1      13.238   0.661   7.809  0.00  0.00    -0.327 N 
ATOM     42  CD1 HOX d   1      11.895  -2.766   8.212  0.00  0.00    -0.075 A 
ATOM     43  CD2 HOX d   1      11.633  -2.116   5.938  0.00  0.00    -0.075 A 
ATOM     44  CE1 HOX d   1      12.390  -1.510   8.522  0.00  0.00    -0.057 A 
ATOM     45  CE2 HOX d   1      12.145  -0.861   6.230  0.00  0.00    -0.057 A 
ATOM     46  H39 HOX d   1       9.027  -4.835   8.643  0.00  0.00     0.163 HD
ATOM     47  H40 HOX d   1       9.101  -3.936   5.806  0.00  0.00     0.090 H 
ATOM     48  H41 HOX d   1      11.414  -4.750   5.574  0.00  0.00     0.043 H 
ATOM     49  H42 HOX d   1      11.457  -5.189   7.315  0.00  0.00     0.043 H 
ATOM     50  H43 HOX d   1      12.919   1.476   7.324  0.00  0.00     0.169 HD
ATOM     51  H44 HOX d   1      11.791  -3.506   8.997  0.00  0.00     0.084 H 
ATOM     52  H45 HOX d   1      11.308  -2.337   4.928  0.00  0.00     0.084 H 
ATOM     53  H46 HOX d   1      12.648  -1.269   9.547  0.00  0.00     0.086 H 
ATOM     54  H47 HOX d   1      12.225  -0.115   5.448  0.00  0.00     0.086 H 
ENDROOT
BRANCH   1  55
ATOM     55  CA  VAL d   1       6.870   1.973  14.129  0.00  0.00     0.092 C 
ATOM     56  H11 VAL d   1       7.606   2.785  14.216  0.00  0.00     0.088 H 
BRANCH  55  57
ATOM     57  N   VAL d   1       5.550   2.535  14.377  0.00  0.00    -0.346 N 
ATOM     58  C   MAA d   1       5.436   3.838  14.647  0.00  0.00     0.248 C 
ATOM     59  O   MAA d   1       6.407   4.588  14.722  0.00  0.00    -0.271 OA
ATOM     60  H10 VAL d   1       4.738   1.952  14.345  0.00  0.00     0.163 HD
BRANCH  58  61
ATOM     61  CA  MAA d   1       4.030   4.362  14.919  0.00  0.00     0.174 C 
ATOM     62  H6  MAA d   1       3.450   3.594  15.452  0.00  0.00     0.098 H 
BRANCH  61  63
ATOM     63  N   MAA d   1       4.124   5.569  15.750  0.00  0.00    -0.067 N 
ATOM     64  H1  MAA d   1       4.813   6.174  15.331  0.00  0.00     0.277 HD
ATOM     65  H2  MAA d   1       3.224   6.022  15.732  0.00  0.00     0.277 HD
BRANCH  63  66
ATOM     66  CM  MAA d   1       4.496   5.380  17.153  0.00  0.00     0.066 C 
ATOM     67  H3  MAA d   1       4.530   6.357  17.658  0.00  0.00     0.067 H 
ATOM     68  H4  MAA d   1       5.486   4.904  17.209  0.00  0.00     0.067 H 
ATOM     69  H5  MAA d   1       3.752   4.738  17.646  0.00  0.00     0.067 H 
ENDBRANCH  63  66
ENDBRANCH  61  63
BRANCH  61  70
ATOM     70  CB  MAA d   1       3.337   4.694  13.604  0.00  0.00    -0.041 C 
ATOM     71  H7  MAA d   1       3.269   3.787  12.986  0.00  0.00     0.030 H 
ATOM     72  H8  MAA d   1       3.916   5.461  13.068  0.00  0.00     0.030 H 
ATOM     73  H9  MAA d   1       2.325   5.074  13.809  0.00  0.00     0.030 H 
ENDBRANCH  61  70
ENDBRANCH  58  61
ENDBRANCH  55  57
BRANCH  55  74
ATOM     74  CB  VAL d   1       7.271   0.887  15.145  0.00  0.00    -0.033 C 
ATOM     75  H12 VAL d   1       8.327   0.640  14.962  0.00  0.00     0.042 H 
BRANCH  74  76
ATOM     76  CG1 VAL d   1       7.154   1.398  16.587  0.00  0.00    -0.071 C 
ATOM     77  H13 VAL d   1       7.447   0.599  17.284  0.00  0.00     0.028 H 
ATOM     78  H14 VAL d   1       6.114   1.696  16.787  0.00  0.00     0.028 H 
ATOM     79  H15 VAL d   1       7.817   2.265  16.724  0.00  0.00     0.028 H 
ENDBRANCH  74  76
BRANCH  74  80
ATOM     80  CG2 VAL d   1       6.471  -0.379  14.970  0.00  0.00    -0.071 C 
ATOM     81  H16 VAL d   1       6.565  -0.732  13.932  0.00  0.00     0.028 H 
ATOM     82  H17 VAL d   1       5.413  -0.178  15.194  0.00  0.00     0.028 H 
ATOM     83  H18 VAL d   1       6.851  -1.151  15.656  0.00  0.00     0.028 H 
ENDBRANCH  74  80
ENDBRANCH  55  74
ENDBRANCH   1  55
BRANCH  31  84
ATOM     84  CB  PHE d   1       7.123  -3.464  10.277  0.00  0.00    -0.014 C 
ATOM     85  H32 PHE d   1       6.930  -3.003  11.257  0.00  0.00     0.043 H 
ATOM     86  H33 PHE d   1       7.540  -4.472  10.421  0.00  0.00     0.043 H 
BRANCH  84  87
ATOM     87  CG  PHE d   1       5.802  -3.605   9.560  0.00  0.00    -0.056 A 
ATOM     88  CD1 PHE d   1       5.512  -4.748   8.823  0.00  0.00    -0.077 A 
ATOM     89  CE1 PHE d   1       4.310  -4.870   8.144  0.00  0.00    -0.082 A 
ATOM     90  H34 PHE d   1       6.236  -5.554   8.779  0.00  0.00     0.084 H 
ATOM     91  CZ  PHE d   1       3.371  -3.857   8.202  0.00  0.00    -0.083 A 
ATOM     92  H36 PHE d   1       4.105  -5.763   7.565  0.00  0.00     0.083 H 
ATOM     93  CE2 PHE d   1       3.638  -2.726   8.948  0.00  0.00    -0.082 A 
ATOM     94  H38 PHE d   1       2.433  -3.950   7.666  0.00  0.00     0.083 H 
ATOM     95  CD2 PHE d   1       4.847  -2.600   9.618  0.00  0.00    -0.077 A 
ATOM     96  H37 PHE d   1       2.901  -1.934   9.011  0.00  0.00     0.083 H 
ATOM     97  H35 PHE d   1       5.048  -1.704  10.194  0.00  0.00     0.084 H 
ENDBRANCH  84  87
ENDBRANCH  31  84
BRANCH  37  98
ATOM     98  C   HOX d   1       9.090  -6.026   6.313  0.00  0.00     0.197 C 
ATOM     99  O   HOX d   1       9.074  -6.855   7.186  0.00  0.00    -0.646 OA
ATOM    100  OXT HOX d   1       8.745  -6.239   5.084  0.00  0.00    -0.646 OA
ENDBRANCH  37  98
TORSDOF 12
