REMARK  6 active torsions:
REMARK  status: ('A' for Active; 'I' for Inactive)
REMARK    1  A    between atoms: C8_5  and  S11_6 
REMARK    2  A    between atoms: S11_6  and  C12_7 
REMARK    3  A    between atoms: C12_7  and  C13_8 
REMARK    4  A    between atoms: C13_8  and  C14_9 
REMARK    5  A    between atoms: C5_14  and  S1_15 
REMARK    6  A    between atoms: S1_15  and  N2_18 
ROOT
ATOM      1  F18 3TV d   1      14.905   7.426  15.238  0.00  0.00    -0.201 F 
ATOM      2  C7  3TV d   1      15.429   6.197  15.037  0.00  0.00     0.176 A 
ATOM      3  C6  3TV d   1      15.101   5.184  15.873  0.00  0.00     0.182 A 
ATOM      4  F17 3TV d   1      14.280   5.502  16.935  0.00  0.00    -0.201 F 
ATOM      5  C8  3TV d   1      16.209   5.985  13.961  0.00  0.00     0.084 A 
ATOM      6  C9  3TV d   1      16.708   4.693  13.816  0.00  0.00     0.176 A 
ATOM      7  F15 3TV d   1      17.483   4.388  12.796  0.00  0.00    -0.201 F 
ATOM      8  C10 3TV d   1      16.371   3.664  14.709  0.00  0.00     0.182 A 
ATOM      9  F16 3TV d   1      16.891   2.477  14.441  0.00  0.00    -0.201 F 
ATOM     10  C5  3TV d   1      15.561   3.927  15.769  0.00  0.00     0.162 A 
ENDROOT
BRANCH   5  11
ATOM     11  S11 3TV d   1      16.540   7.280  12.820  0.00  0.00    -0.124 SA
BRANCH  11  12
ATOM     12  C12 3TV d   1      18.310   7.273  12.663  0.00  0.00    -0.019 C 
ATOM     13  H1  3TV d   1      18.608   8.053  11.947  0.00  0.00     0.049 H 
ATOM     14  H2  3TV d   1      18.632   6.290  12.289  0.00  0.00     0.049 H 
BRANCH  12  15
ATOM     15  C13 3TV d   1      18.959   7.528  13.937  0.00  0.00    -0.060 C 
ATOM     16  H3  3TV d   1      20.031   7.316  13.813  0.00  0.00     0.033 H 
ATOM     17  H4  3TV d   1      18.531   6.833  14.674  0.00  0.00     0.033 H 
BRANCH  15  18
ATOM     18  C14 3TV d   1      18.834   8.893  14.485  0.00  0.00    -0.076 C 
ATOM     19  H5  3TV d   1      19.366   8.953  15.446  0.00  0.00     0.027 H 
ATOM     20  H6  3TV d   1      17.771   9.130  14.639  0.00  0.00     0.027 H 
ATOM     21  H7  3TV d   1      19.272   9.613  13.778  0.00  0.00     0.027 H 
ENDBRANCH  15  18
ENDBRANCH  12  15
ENDBRANCH  11  12
ENDBRANCH   5  11
BRANCH  10  22
ATOM     22  S1  3TV d   1      15.095   2.660  16.892  0.00  0.00     0.263 S 
ATOM     23  O3  3TV d   1      13.666   2.727  16.820  0.00  0.00    -0.201 OA
ATOM     24  O4  3TV d   1      15.744   2.968  18.133  0.00  0.00    -0.201 OA
BRANCH  22  25
ATOM     25  N2  3TV d   1      15.583   1.303  16.323  0.00  0.00    -0.324 N 
ATOM     26  H8  3TV d   1      15.408   0.458  16.828  0.00  0.00     0.169 HD
ATOM     27  H9  3TV d   1      16.072   1.273  15.451  0.00  0.00     0.169 HD
ENDBRANCH  22  25
ENDBRANCH  10  22
TORSDOF 6
