REMARK  5 active torsions:
REMARK  status: ('A' for Active; 'I' for Inactive)
REMARK    1  A    between atoms: C18_9  and  N7_10 
REMARK    2  A    between atoms: N7_10  and  C10_11 
REMARK    3  A    between atoms: C10_11  and  C11_12 
REMARK    4  A    between atoms: C10_11  and  C1_13 
REMARK    5  A    between atoms: C2_23  and  C12_24 
ROOT
ATOM      1  C1  3VC d   1      20.968  16.753  20.316  0.00  0.00    -0.004 A 
ATOM      2  C5  3VC d   1      21.498  15.901  19.352  0.00  0.00    -0.060 A 
ATOM      3  C4  3VC d   1      20.859  15.825  18.121  0.00  0.00    -0.007 A 
ATOM      4  C9  3VC d   1      21.354  14.974  17.152  0.00  0.00    -0.068 A 
ATOM      5  C8  3VC d   1      20.709  14.883  15.922  0.00  0.00    -0.045 A 
ATOM      6  C7  3VC d   1      19.580  15.658  15.652  0.00  0.00     0.118 A 
ATOM      7  F1  3VC d   1      18.987  15.545  14.446  0.00  0.00    -0.206 F 
ATOM      8  C6  3VC d   1      19.076  16.522  16.622  0.00  0.00    -0.017 A 
ATOM      9  C3  3VC d   1      19.719  16.598  17.855  0.00  0.00     0.070 A 
ATOM     10  N1  3VC d   1      19.229  17.406  18.794  0.00  0.00    -0.245 NA
ATOM     11  C2  3VC d   1      19.824  17.506  19.994  0.00  0.00     0.094 A 
ATOM     12  H   3VC d   1      22.385  15.313  19.556  0.00  0.00     0.086 H 
ATOM     13  H   3VC d   1      22.240  14.380  17.348  0.00  0.00     0.085 H 
ATOM     14  H   3VC d   1      21.087  14.204  15.166  0.00  0.00     0.088 H 
ATOM     15  H   3VC d   1      18.198  17.125  16.420  0.00  0.00     0.091 H 
ENDROOT
BRANCH   1  16
ATOM     16  C10 3VC d   1      21.665  16.853  21.677  0.00  0.00     0.035 C 
ATOM     17  H   3VC d   1      20.981  17.303  22.412  0.00  0.00     0.079 H 
BRANCH  16  18
ATOM     18  N7  3VC d   1      22.143  15.536  22.182  0.00  0.00    -0.364 N 
ATOM     19  H   3VC d   1      23.160  15.373  22.148  0.00  0.00     0.162 HD
BRANCH  18  20
ATOM     20  C18 3VC d   1      21.391  14.534  22.679  0.00  0.00     0.156 A 
ATOM     21  C19 3VC d   1      21.993  13.362  23.140  0.00  0.00     0.127 A 
ATOM     22  N5  3VC d   1      23.263  12.961  23.229  0.00  0.00    -0.345 N 
ATOM     23  C20 3VC d   1      21.208  12.328  23.637  0.00  0.00     0.182 A 
ATOM     24  C21 3VC d   1      23.280  11.736  23.746  0.00  0.00     0.067 A 
ATOM     25  H   3VC d   1      24.089  13.507  22.946  0.00  0.00     0.167 HD
ATOM     26  N6  3VC d   1      22.026  11.354  23.987  0.00  0.00    -0.222 NA
ATOM     27  H   3VC d   1      24.172  11.142  23.941  0.00  0.00     0.143 H 
ATOM     28  N4  3VC d   1      19.880  12.461  23.693  0.00  0.00    -0.220 NA
ATOM     29  C17 3VC d   1      19.339  13.587  23.240  0.00  0.00     0.091 A 
ATOM     30  N3  3VC d   1      20.061  14.603  22.754  0.00  0.00    -0.222 NA
ATOM     31  H   3VC d   1      18.260  13.687  23.265  0.00  0.00     0.146 H 
ENDBRANCH  18  20
ENDBRANCH  16  18
BRANCH  16  32
ATOM     32  C11 3VC d   1      22.894  17.734  21.468  0.00  0.00    -0.053 C 
ATOM     33  H   3VC d   1      22.579  18.719  21.094  0.00  0.00     0.030 H 
ATOM     34  H   3VC d   1      23.564  17.261  20.735  0.00  0.00     0.030 H 
ATOM     35  H   3VC d   1      23.424  17.857  22.424  0.00  0.00     0.030 H 
ENDBRANCH  16  32
ENDBRANCH   1  16
BRANCH  11  36
ATOM     36  C12 3VC d   1      19.218  18.388  20.873  0.00  0.00     0.085 A 
ATOM     37  C13 3VC d   1      19.690  19.695  20.980  0.00  0.00    -0.053 A 
ATOM     38  C14 3VC d   1      19.044  20.561  21.850  0.00  0.00    -0.079 A 
ATOM     39  H   3VC d   1      20.542  20.027  20.397  0.00  0.00     0.087 H 
ATOM     40  C15 3VC d   1      17.947  20.090  22.568  0.00  0.00    -0.066 A 
ATOM     41  H   3VC d   1      19.386  21.583  21.969  0.00  0.00     0.083 H 
ATOM     42  C16 3VC d   1      17.520  18.774  22.403  0.00  0.00     0.003 A 
ATOM     43  H   3VC d   1      17.426  20.747  23.255  0.00  0.00     0.085 H 
ATOM     44  N2  3VC d   1      18.144  17.968  21.573  0.00  0.00    -0.259 NA
ATOM     45  H   3VC d   1      16.666  18.412  22.964  0.00  0.00     0.114 H 
ENDBRANCH  11  36
TORSDOF 5
