REMARK  5 active torsions:
REMARK  status: ('A' for Active; 'I' for Inactive)
REMARK    1  A    between atoms: C17_9  and  N13_10 
REMARK    2  A    between atoms: N13_10  and  C12_11 
REMARK    3  A    between atoms: C12_11  and  C30_12 
REMARK    4  A    between atoms: C12_11  and  C7_13 
REMARK    5  A    between atoms: C2_23  and  C1_24 
ROOT
ATOM      1  C7  3VD d   1      21.191  16.872  20.507  0.00  0.00    -0.005 A 
ATOM      2  C6  3VD d   1      21.723  15.951  19.609  0.00  0.00    -0.060 A 
ATOM      3  C5  3VD d   1      21.182  15.887  18.319  0.00  0.00    -0.005 A 
ATOM      4  C11 3VD d   1      21.685  14.974  17.404  0.00  0.00    -0.071 A 
ATOM      5  C10 3VD d   1      21.152  14.895  16.124  0.00  0.00    -0.080 A 
ATOM      6  C9  3VD d   1      20.119  15.745  15.747  0.00  0.00    -0.060 A 
ATOM      7  C8  3VD d   1      19.605  16.673  16.646  0.00  0.00     0.063 A 
ATOM      8 CL1  3VD d   1      18.315  17.719  16.117  0.00  0.00    -0.082 Cl
ATOM      9  C4  3VD d   1      20.142  16.743  17.937  0.00  0.00     0.089 A 
ATOM     10  N3  3VD d   1      19.656  17.619  18.822  0.00  0.00    -0.245 NA
ATOM     11  C2  3VD d   1      20.159  17.719  20.058  0.00  0.00     0.076 A 
ATOM     12  H   3VD d   1      22.538  15.298  19.902  0.00  0.00     0.086 H 
ATOM     13  H   3VD d   1      22.499  14.318  17.690  0.00  0.00     0.084 H 
ATOM     14  H   3VD d   1      21.542  14.170  15.419  0.00  0.00     0.083 H 
ATOM     15  H   3VD d   1      19.711  15.684  14.745  0.00  0.00     0.086 H 
ENDROOT
BRANCH   1  16
ATOM     16  C12 3VD d   1      21.742  16.984  21.943  0.00  0.00     0.035 C 
ATOM     17  H   3VD d   1      20.943  17.335  22.613  0.00  0.00     0.079 H 
BRANCH  16  18
ATOM     18  N13 3VD d   1      22.264  15.686  22.456  0.00  0.00    -0.364 N 
ATOM     19  H   3VD d   1      23.286  15.557  22.460  0.00  0.00     0.162 HD
BRANCH  18  20
ATOM     20  C17 3VD d   1      21.510  14.664  22.916  0.00  0.00     0.156 A 
ATOM     21  C18 3VD d   1      22.097  13.474  23.383  0.00  0.00     0.127 A 
ATOM     22  N21 3VD d   1      23.355  13.049  23.486  0.00  0.00    -0.345 N 
ATOM     23  C19 3VD d   1      21.289  12.453  23.854  0.00  0.00     0.182 A 
ATOM     24  C22 3VD d   1      23.334  11.820  23.992  0.00  0.00     0.067 A 
ATOM     25  H   3VD d   1      24.197  13.580  23.220  0.00  0.00     0.167 HD
ATOM     26  N23 3VD d   1      22.074  11.457  24.220  0.00  0.00    -0.222 NA
ATOM     27  H   3VD d   1      24.211  11.206  24.189  0.00  0.00     0.143 H 
ATOM     28  N20 3VD d   1      19.964  12.606  23.869  0.00  0.00    -0.220 NA
ATOM     29  C15 3VD d   1      19.428  13.741  23.429  0.00  0.00     0.091 A 
ATOM     30  N16 3VD d   1      20.174  14.750  22.959  0.00  0.00    -0.222 NA
ATOM     31  H   3VD d   1      18.350  13.854  23.451  0.00  0.00     0.146 H 
ENDBRANCH  18  20
ENDBRANCH  16  18
BRANCH  16  32
ATOM     32  C30 3VD d   1      22.881  18.009  21.904  0.00  0.00    -0.053 C 
ATOM     33  H   3VD d   1      22.498  18.968  21.526  0.00  0.00     0.030 H 
ATOM     34  H   3VD d   1      23.679  17.645  21.240  0.00  0.00     0.030 H 
ATOM     35  H   3VD d   1      23.283  18.149  22.918  0.00  0.00     0.030 H 
ENDBRANCH  16  32
ENDBRANCH   1  16
BRANCH  11  36
ATOM     36  C1  3VD d   1      19.553  18.648  20.883  0.00  0.00    -0.004 A 
ATOM     37  C24 3VD d   1      18.444  18.198  21.577  0.00  0.00    -0.034 A 
ATOM     38  C25 3VD d   1      17.759  19.051  22.422  0.00  0.00     0.117 A 
ATOM     39  H   3VD d   1      18.111  17.173  21.458  0.00  0.00     0.089 H 
ATOM     40  F1  3VD d   1      16.688  18.568  23.077  0.00  0.00    -0.206 F 
ATOM     41  C26 3VD d   1      18.180  20.373  22.578  0.00  0.00    -0.046 A 
ATOM     42  C27 3VD d   1      19.295  20.826  21.873  0.00  0.00    -0.079 A 
ATOM     43  H   3VD d   1      17.645  21.042  23.242  0.00  0.00     0.088 H 
ATOM     44  C28 3VD d   1      19.987  19.960  21.019  0.00  0.00    -0.071 A 
ATOM     45  H   3VD d   1      19.626  21.852  21.987  0.00  0.00     0.083 H 
ATOM     46  H   3VD d   1      20.853  20.310  20.469  0.00  0.00     0.084 H 
ENDBRANCH  11  36
TORSDOF 5
