REMARK  6 active torsions:
REMARK  status: ('A' for Active; 'I' for Inactive)
REMARK    1  A    between atoms: C30_1  and  C29_2 
REMARK    2  A    between atoms: C11_7  and  C2_8 
REMARK    3  A    between atoms: C1_18  and  C13_19 
REMARK    4  A    between atoms: C13_19  and  C15_20 
REMARK    5  A    between atoms: C13_19  and  N14_21 
REMARK    6  A    between atoms: N14_21  and  C16_22 
ROOT
ATOM      1  C2  3VE d   1      19.526  17.615  19.816  0.00  0.00     0.078 A 
ATOM      2  N3  3VE d   1      19.043  17.515  18.585  0.00  0.00    -0.245 NA
ATOM      3  C6  3VE d   1      19.499  16.602  17.717  0.00  0.00     0.089 A 
ATOM      4  C7  3VE d   1      18.957  16.523  16.428  0.00  0.00     0.063 A 
ATOM      5 CL1  3VE d   1      17.699  17.602  15.906  0.00  0.00    -0.082 Cl
ATOM      6  C8  3VE d   1      19.429  15.567  15.535  0.00  0.00    -0.060 A 
ATOM      7  C9  3VE d   1      20.442  14.696  15.913  0.00  0.00    -0.080 A 
ATOM      8  C10 3VE d   1      20.987  14.783  17.192  0.00  0.00    -0.071 A 
ATOM      9  C5  3VE d   1      20.516  15.730  18.092  0.00  0.00    -0.005 A 
ATOM     10  C4  3VE d   1      21.060  15.807  19.364  0.00  0.00    -0.060 A 
ATOM     11  C1  3VE d   1      20.555  16.760  20.244  0.00  0.00    -0.005 A 
ATOM     12  H   3VE d   1      19.004  15.502  14.540  0.00  0.00     0.086 H 
ATOM     13  H   3VE d   1      20.807  13.951  15.215  0.00  0.00     0.083 H 
ATOM     14  H   3VE d   1      21.783  14.108  17.486  0.00  0.00     0.084 H 
ATOM     15  H   3VE d   1      21.860  15.141  19.667  0.00  0.00     0.086 H 
ENDROOT
BRANCH  11  16
ATOM     16  C13 3VE d   1      21.150  16.863  21.654  0.00  0.00     0.035 C 
ATOM     17  H   3VE d   1      20.396  17.264  22.347  0.00  0.00     0.079 H 
BRANCH  16  18
ATOM     18  C15 3VE d   1      22.325  17.829  21.528  0.00  0.00    -0.053 C 
ATOM     19  H   3VE d   1      22.805  17.953  22.510  0.00  0.00     0.030 H 
ATOM     20  H   3VE d   1      21.961  18.804  21.172  0.00  0.00     0.030 H 
ATOM     21  H   3VE d   1      23.056  17.426  20.811  0.00  0.00     0.030 H 
ENDBRANCH  16  18
BRANCH  16  22
ATOM     22  N14 3VE d   1      21.632  15.557  22.170  0.00  0.00    -0.364 N 
ATOM     23  H   3VE d   1      22.651  15.414  22.221  0.00  0.00     0.162 HD
BRANCH  22  24
ATOM     24  C16 3VE d   1      20.847  14.552  22.574  0.00  0.00     0.156 A 
ATOM     25  C21 3VE d   1      21.413  13.352  23.008  0.00  0.00     0.127 A 
ATOM     26  N22 3VE d   1      22.671  12.925  23.123  0.00  0.00    -0.345 N 
ATOM     27  C20 3VE d   1      20.584  12.327  23.433  0.00  0.00     0.182 A 
ATOM     28  C23 3VE d   1      22.635  11.681  23.592  0.00  0.00     0.067 A 
ATOM     29  H   3VE d   1      23.518  13.462  22.890  0.00  0.00     0.167 HD
ATOM     30  N24 3VE d   1      21.363  11.316  23.781  0.00  0.00    -0.222 NA
ATOM     31  H   3VE d   1      23.505  11.057  23.791  0.00  0.00     0.143 H 
ATOM     32  N17 3VE d   1      19.254  12.484  23.417  0.00  0.00    -0.220 NA
ATOM     33  C18 3VE d   1      18.742  13.638  22.995  0.00  0.00     0.091 A 
ATOM     34  N19 3VE d   1      19.513  14.654  22.584  0.00  0.00    -0.222 NA
ATOM     35  H   3VE d   1      17.665  13.760  22.983  0.00  0.00     0.146 H 
ENDBRANCH  22  24
ENDBRANCH  16  22
ENDBRANCH  11  16
BRANCH   1  36
ATOM     36  C11 3VE d   1      19.010  18.614  20.626  0.00  0.00     0.018 A 
ATOM     37  C29 3VE d   1      17.939  18.445  21.509  0.00  0.00     0.043 A 
ATOM     38  N28 3VE d   1      17.520  19.478  22.251  0.00  0.00    -0.265 NA
ATOM     39  C27 3VE d   1      18.089  20.666  22.184  0.00  0.00     0.003 A 
ATOM     40  C26 3VE d   1      19.161  20.885  21.331  0.00  0.00    -0.065 A 
ATOM     41  H   3VE d   1      17.716  21.477  22.800  0.00  0.00     0.114 H 
ATOM     42  C25 3VE d   1      19.628  19.852  20.534  0.00  0.00    -0.067 A 
ATOM     43  H   3VE d   1      19.632  21.861  21.288  0.00  0.00     0.085 H 
ATOM     44  H   3VE d   1      20.458  20.008  19.854  0.00  0.00     0.085 H 
BRANCH  37  45
ATOM     45  C30 3VE d   1      17.197  17.124  21.671  0.00  0.00    -0.035 C 
ATOM     46  H   3VE d   1      17.643  16.369  21.007  0.00  0.00     0.035 H 
ATOM     47  H   3VE d   1      16.138  17.264  21.408  0.00  0.00     0.035 H 
ATOM     48  H   3VE d   1      17.274  16.786  22.715  0.00  0.00     0.035 H 
ENDBRANCH  37  45
ENDBRANCH   1  36
TORSDOF 6
