REMARK  11 active torsions:
REMARK  status: ('A' for Active; 'I' for Inactive)
REMARK    1  A    between atoms: C7_23  and  C1_1 
REMARK    2  A    between atoms: C11_4  and  O21_28 
REMARK    3  A    between atoms: C12_5  and  C17_10 
REMARK    4  A    between atoms: C22_13  and  C14_7 
REMARK    5  A    between atoms: C17_10  and  C18_11 
REMARK    6  A    between atoms: C18_11  and  C20_12 
REMARK    7  A    between atoms: C18_11  and  C31_31 
REMARK    8  A    between atoms: C18_11  and  C32_32 
REMARK       I    between atoms: N8_24  and  C22_13 
REMARK    9  A    between atoms: O21_28  and  C30_19 
REMARK   10  A    between atoms: C5_21  and  C9_25 
REMARK   11  A    between atoms: C7_23  and  N8_24 
ROOT
ATOM      1  C11 3VF d   1     -11.343  -4.883  13.372  0.00  0.00     0.082 A 
ATOM      2  C12 3VF d   1     -10.088  -5.198  12.841  0.00  0.00     0.045 A 
ATOM      3  C13 3VF d   1      -8.937  -5.045  13.580  0.00  0.00    -0.051 A 
ATOM      4  C14 3VF d   1      -9.009  -4.506  14.883  0.00  0.00     0.033 A 
ATOM      5  C15 3VF d   1     -10.240  -4.129  15.354  0.00  0.00    -0.065 A 
ATOM      6  C16 3VF d   1     -11.423  -4.333  14.622  0.00  0.00    -0.049 A 
ATOM      7  H3  3VF d   1      -7.980  -5.337  13.164  0.00  0.00     0.086 H 
ATOM      8  H4  3VF d   1     -10.304  -3.656  16.327  0.00  0.00     0.085 H 
ATOM      9  H5  3VF d   1     -12.384  -4.059  15.042  0.00  0.00     0.087 H 
ENDROOT
BRANCH   2  10
ATOM     10  C17 3VF d   1     -10.024  -5.720  11.404  0.00  0.00     0.174 C 
ATOM     11  O19 3VF d   1     -10.349  -4.980  10.491  0.00  0.00    -0.291 OA
BRANCH  10  12
ATOM     12  C18 3VF d   1      -9.456  -7.147  11.104  0.00  0.00     0.045 C 
BRANCH  12  13
ATOM     13  C20 3VF d   1      -7.936  -6.977  10.843  0.00  0.00    -0.039 A 
ATOM     14  C23 3VF d   1      -6.982  -7.531  11.674  0.00  0.00    -0.055 A 
ATOM     15  C24 3VF d   1      -5.648  -7.363  11.370  0.00  0.00     0.036 A 
ATOM     16  H6  3VF d   1      -7.278  -8.091  12.554  0.00  0.00     0.086 H 
ATOM     17  C25 3VF d   1      -5.207  -6.620  10.286  0.00  0.00    -0.041 A 
ATOM     18 CL1  3VF d   1      -4.438  -8.086  12.401  0.00  0.00    -0.084 Cl
ATOM     19  C26 3VF d   1      -6.184  -6.079   9.467  0.00  0.00     0.036 A 
ATOM     20  H7  3VF d   1      -4.152  -6.470  10.089  0.00  0.00     0.088 H 
ATOM     21  C27 3VF d   1      -7.545  -6.236   9.732  0.00  0.00    -0.055 A 
ATOM     22 CL2  3VF d   1      -5.687  -5.155   8.078  0.00  0.00    -0.084 Cl
ATOM     23  H8  3VF d   1      -8.287  -5.787   9.082  0.00  0.00     0.086 H 
ENDBRANCH  12  13
BRANCH  12  24
ATOM     24  C31 3VF d   1      -9.742  -8.085  12.274  0.00  0.00    -0.058 C 
ATOM     25  H17 3VF d   1     -10.829  -8.171  12.417  0.00  0.00     0.029 H 
ATOM     26  H18 3VF d   1      -9.283  -7.681  13.188  0.00  0.00     0.029 H 
ATOM     27  H19 3VF d   1      -9.320  -9.078  12.059  0.00  0.00     0.029 H 
ENDBRANCH  12  24
BRANCH  12  28
ATOM     28  C32 3VF d   1     -10.165  -7.685   9.816  0.00  0.00    -0.058 C 
ATOM     29  H20 3VF d   1      -9.958  -7.008   8.974  0.00  0.00     0.029 H 
ATOM     30  H21 3VF d   1     -11.250  -7.735   9.988  0.00  0.00     0.029 H 
ATOM     31  H22 3VF d   1      -9.785  -8.690   9.581  0.00  0.00     0.029 H 
ENDBRANCH  12  28
ENDBRANCH  10  12
ENDBRANCH   2  10
BRANCH   1  32
ATOM     32  O21 3VF d   1     -12.410  -5.099  12.553  0.00  0.00    -0.355 OA
BRANCH  32  33
ATOM     33  C30 3VF d   1     -13.698  -5.006  13.184  0.00  0.00     0.010 C 
ATOM     34  H9  3VF d   1     -14.485  -5.196  12.440  0.00  0.00     0.066 H 
ATOM     35  H10 3VF d   1     -13.828  -3.998  13.606  0.00  0.00     0.066 H 
ATOM     36  H11 3VF d   1     -13.767  -5.752  13.989  0.00  0.00     0.066 H 
ENDBRANCH  32  33
ENDBRANCH   1  32
BRANCH   4  37
ATOM     37  C22 3VF d   1      -7.743  -4.374  15.631  0.00  0.00     0.252 C 
ATOM     38  N8  3VF d   1      -7.741  -3.690  16.789  0.00  0.00    -0.351 N 
ATOM     39  H14 3VF d   1      -8.575  -3.283  17.163  0.00  0.00     0.163 HD
ATOM     40  O33 3VF d   1      -6.690  -4.845  15.178  0.00  0.00    -0.268 OA
BRANCH  38  41
ATOM     41  C7  3VF d   1      -6.434  -3.572  17.481  0.00  0.00     0.035 C 
ATOM     42  H12 3VF d   1      -6.070  -4.579  17.732  0.00  0.00     0.073 H 
ATOM     43  H13 3VF d   1      -5.716  -3.080  16.808  0.00  0.00     0.073 H 
BRANCH  41  44
ATOM     44  C1  3VF d   1      -6.550  -2.773  18.734  0.00  0.00     0.056 A 
ATOM     45  C2  3VF d   1      -7.374  -3.132  19.809  0.00  0.00    -0.041 A 
ATOM     46  C3  3VF d   1      -7.376  -2.329  20.970  0.00  0.00     0.006 A 
ATOM     47  H1  3VF d   1      -8.001  -4.014  19.750  0.00  0.00     0.088 H 
ATOM     48  N4  3VF d   1      -6.576  -1.246  21.050  0.00  0.00    -0.240 NA
ATOM     49  H2  3VF d   1      -8.024  -2.584  21.801  0.00  0.00     0.114 H 
ATOM     50  C5  3VF d   1      -5.768  -0.980  19.920  0.00  0.00     0.166 A 
ATOM     51  N6  3VF d   1      -5.784  -1.700  18.818  0.00  0.00    -0.231 NA
BRANCH  50  52
ATOM     52  C9  3VF d   1      -4.968   0.208  20.097  0.00  0.00     0.040 C 
ATOM     53  N10 3VF d   1      -4.782   0.955  21.038  0.00  0.00    -0.308 NA
ATOM     54  H16 3VF d   1      -4.166   1.747  20.939  0.00  0.00     0.186 HD
ATOM     55  H15 3VF d   1      -4.417   0.495  19.203  0.00  0.00     0.119 H 
ENDBRANCH  50  52
ENDBRANCH  41  44
ENDBRANCH  38  41
ENDBRANCH   4  37
TORSDOF 11
