REMARK  18 active torsions:
REMARK  status: ('A' for Active; 'I' for Inactive)
REMARK    1  A    between atoms: C14_4  and  C15_5 
REMARK    2  A    between atoms: C14_4  and  C18_6 
REMARK    3  A    between atoms: N13_25  and  C14_4 
REMARK       I    between atoms: C15_5  and  N16_26 
REMARK    4  A    between atoms: C18_6  and  C19_7 
REMARK    5  A    between atoms: C18_6  and  C20_8 
REMARK    6  A    between atoms: C18_6  and  C21_9 
REMARK    7  A    between atoms: C22_10  and  C23_11 
REMARK    8  A    between atoms: N16_26  and  C22_10 
REMARK       I    between atoms: C23_11  and  N24_28 
REMARK    9  A    between atoms: C25_12  and  C27_13 
REMARK   10  A    between atoms: N24_28  and  C25_12 
REMARK   11  A    between atoms: C27_13  and  C28_14 
REMARK   12  A    between atoms: C28_14  and  S29_30 
REMARK   13  A    between atoms: S29_30  and  C30_15 
REMARK   14  A    between atoms: C9_21  and  C4_16 
REMARK   15  A    between atoms: C10_22  and  C9_21 
REMARK   16  A    between atoms: C9_21  and  N11_23 
REMARK       I    between atoms: C10_22  and  N13_25 
REMARK   17  A    between atoms: N11_23  and  C33_33 
REMARK   18  A    between atoms: C33_33  and  C34_34 
ROOT
ATOM      1  C14 3VK d   1      39.482  39.277  17.263  0.00  0.00     0.095 C 
ATOM      2  H3  3VK d   1      39.240  38.361  16.703  0.00  0.00     0.088 H 
ENDROOT
BRANCH   1   3
ATOM      3  C15 3VK d   1      38.254  39.875  17.897  0.00  0.00     0.241 C 
ATOM      4  N16 3VK d   1      37.506  39.003  18.575  0.00  0.00    -0.351 N 
ATOM      5  H29 3VK d   1      37.746  38.033  18.604  0.00  0.00     0.163 HD
ATOM      6  O17 3VK d   1      38.020  41.094  17.816  0.00  0.00    -0.271 OA
BRANCH   4   7
ATOM      7  C22 3VK d   1      36.339  39.502  19.266  0.00  0.00     0.069 C 
ATOM      8  H13 3VK d   1      36.576  40.447  19.777  0.00  0.00     0.078 H 
ATOM      9  H14 3VK d   1      35.517  39.666  18.553  0.00  0.00     0.078 H 
BRANCH   7  10
ATOM     10  C23 3VK d   1      35.955  38.459  20.264  0.00  0.00     0.235 C 
ATOM     11  N24 3VK d   1      35.474  38.907  21.466  0.00  0.00    -0.360 N 
ATOM     12  H30 3VK d   1      35.435  39.891  21.638  0.00  0.00     0.162 HD
ATOM     13  O26 3VK d   1      36.089  37.291  19.887  0.00  0.00    -0.272 OA
BRANCH  11  14
ATOM     14  C25 3VK d   1      35.016  37.985  22.503  0.00  0.00    -0.004 C 
ATOM     15  H15 3VK d   1      35.295  36.953  22.246  0.00  0.00     0.064 H 
ATOM     16  H16 3VK d   1      35.457  38.253  23.474  0.00  0.00     0.064 H 
BRANCH  14  17
ATOM     17  C27 3VK d   1      33.487  38.127  22.554  0.00  0.00    -0.038 C 
ATOM     18  H17 3VK d   1      33.125  37.494  23.377  0.00  0.00     0.036 H 
ATOM     19  H18 3VK d   1      33.090  37.750  21.600  0.00  0.00     0.036 H 
BRANCH  17  20
ATOM     20  C28 3VK d   1      32.905  39.542  22.770  0.00  0.00     0.030 C 
ATOM     21  H19 3VK d   1      32.050  39.665  22.089  0.00  0.00     0.056 H 
ATOM     22  H20 3VK d   1      33.686  40.273  22.514  0.00  0.00     0.056 H 
BRANCH  20  23
ATOM     23  S29 3VK d   1      32.357  39.887  24.386  0.00  0.00     0.140 S 
ATOM     24  O31 3VK d   1      31.543  38.702  24.721  0.00  0.00    -0.228 OA
ATOM     25  O32 3VK d   1      31.845  41.253  24.576  0.00  0.00    -0.228 OA
BRANCH  23  26
ATOM     26  C30 3VK d   1      33.968  39.794  25.207  0.00  0.00     0.015 C 
ATOM     27  H21 3VK d   1      33.843  39.989  26.282  0.00  0.00     0.048 H 
ATOM     28  H22 3VK d   1      34.644  40.546  24.774  0.00  0.00     0.048 H 
ATOM     29  H23 3VK d   1      34.395  38.791  25.064  0.00  0.00     0.048 H 
ENDBRANCH  23  26
ENDBRANCH  20  23
ENDBRANCH  17  20
ENDBRANCH  14  17
ENDBRANCH  11  14
ENDBRANCH   7  10
ENDBRANCH   4   7
ENDBRANCH   1   3
BRANCH   1  30
ATOM     30  C18 3VK d   1      40.586  38.997  18.352  0.00  0.00    -0.022 C 
BRANCH  30  31
ATOM     31  C19 3VK d   1      40.255  37.908  19.442  0.00  0.00    -0.067 C 
ATOM     32  H4  3VK d   1      41.104  37.813  20.135  0.00  0.00     0.028 H 
ATOM     33  H5  3VK d   1      40.072  36.941  18.951  0.00  0.00     0.028 H 
ATOM     34  H6  3VK d   1      39.358  38.210  20.002  0.00  0.00     0.028 H 
ENDBRANCH  30  31
BRANCH  30  35
ATOM     35  C20 3VK d   1      41.930  38.498  17.716  0.00  0.00    -0.067 C 
ATOM     36  H7  3VK d   1      42.248  39.202  16.933  0.00  0.00     0.028 H 
ATOM     37  H8  3VK d   1      41.779  37.502  17.275  0.00  0.00     0.028 H 
ATOM     38  H9  3VK d   1      42.705  38.441  18.494  0.00  0.00     0.028 H 
ENDBRANCH  30  35
BRANCH  30  39
ATOM     39  C21 3VK d   1      40.788  40.379  19.070  0.00  0.00    -0.067 C 
ATOM     40  H10 3VK d   1      39.834  40.708  19.507  0.00  0.00     0.028 H 
ATOM     41  H11 3VK d   1      41.133  41.125  18.339  0.00  0.00     0.028 H 
ATOM     42  H12 3VK d   1      41.539  40.272  19.867  0.00  0.00     0.028 H 
ENDBRANCH  30  39
ENDBRANCH   1  30
BRANCH   1  43
ATOM     43  N13 3VK d   1      39.995  40.322  16.405  0.00  0.00    -0.345 N 
ATOM     44  C10 3VK d   1      40.261  40.038  15.108  0.00  0.00     0.253 C 
ATOM     45  O12 3VK d   1      40.045  38.939  14.599  0.00  0.00    -0.271 OA
ATOM     46  H28 3VK d   1      40.151  41.242  16.765  0.00  0.00     0.163 HD
BRANCH  44  47
ATOM     47  C9  3VK d   1      40.801  41.188  14.291  0.00  0.00     0.203 C 
ATOM     48  H25 3VK d   1      41.302  41.930  14.930  0.00  0.00     0.107 H 
BRANCH  47  49
ATOM     49  C4  3VK d   1      39.534  41.796  13.664  0.00  0.00    -0.015 A 
ATOM     50  C3  3VK d   1      38.900  42.954  14.161  0.00  0.00    -0.053 A 
ATOM     51  C2  3VK d   1      37.716  43.429  13.565  0.00  0.00     0.036 A 
ATOM     52  H2  3VK d   1      39.327  43.481  15.007  0.00  0.00     0.087 H 
ATOM     53  C1  3VK d   1      37.156  42.786  12.471  0.00  0.00    -0.041 A 
ATOM     54 CL8  3VK d   1      36.889  44.855  14.132  0.00  0.00    -0.084 Cl
ATOM     55  C6  3VK d   1      37.796  41.655  12.005  0.00  0.00     0.036 A 
ATOM     56  H1  3VK d   1      36.252  43.157  12.001  0.00  0.00     0.088 H 
ATOM     57  C5  3VK d   1      38.955  41.149  12.580  0.00  0.00    -0.053 A 
ATOM     58 CL7  3VK d   1      37.102  40.847  10.671  0.00  0.00    -0.084 Cl
ATOM     59  H24 3VK d   1      39.408  40.248  12.182  0.00  0.00     0.087 H 
ENDBRANCH  47  49
BRANCH  47  60
ATOM     60  N11 3VK d   1      41.765  40.670  13.310  0.00  0.00    -0.059 N 
ATOM     61  H26 3VK d   1      41.682  41.222  12.471  0.00  0.00     0.278 HD
ATOM     62  H27 3VK d   1      41.520  39.713  13.108  0.00  0.00     0.278 HD
BRANCH  60  63
ATOM     63  C33 3VK d   1      43.173  40.699  13.736  0.00  0.00     0.080 C 
ATOM     64  H31 3VK d   1      43.385  39.836  14.385  0.00  0.00     0.075 H 
ATOM     65  H32 3VK d   1      43.379  41.630  14.285  0.00  0.00     0.075 H 
BRANCH  63  66
ATOM     66  C34 3VK d   1      44.061  40.631  12.457  0.00  0.00    -0.053 C 
ATOM     67  H33 3VK d   1      45.122  40.651  12.746  0.00  0.00     0.029 H 
ATOM     68  H34 3VK d   1      43.840  41.494  11.811  0.00  0.00     0.029 H 
ATOM     69  H35 3VK d   1      43.847  39.700  11.911  0.00  0.00     0.029 H 
ENDBRANCH  63  66
ENDBRANCH  60  63
ENDBRANCH  47  60
ENDBRANCH  44  47
ENDBRANCH   1  43
TORSDOF 18
