REMARK  12 active torsions:
REMARK  status: ('A' for Active; 'I' for Inactive)
REMARK    1  A    between atoms: C1_1  and  O11_24 
REMARK    2  A    between atoms: C7_20  and  C2_2 
REMARK    3  A    between atoms: C4_17  and  C12_4 
REMARK       I    between atoms: C12_4  and  N20_27 
REMARK    4  A    between atoms: C22_10  and  C23_11 
REMARK    5  A    between atoms: N20_27  and  C22_10 
REMARK       I    between atoms: C23_11  and  N25_30 
REMARK    6  A    between atoms: C26_12  and  C30_16 
REMARK    7  A    between atoms: N25_30  and  C26_12 
REMARK    8  A    between atoms: O11_24  and  C27_13 
REMARK    9  A    between atoms: C8_21  and  C28_14 
REMARK   10  A    between atoms: C8_21  and  C29_15 
REMARK   11  A    between atoms: C8_21  and  C7_20 
REMARK   12  A    between atoms: C8_21  and  C10_23 
ROOT
ATOM      1  C1  3VJ d   1      33.619  51.469 -15.563  0.00  0.00     0.082 A 
ATOM      2  C2  3VJ d   1      33.581  50.249 -14.836  0.00  0.00     0.045 A 
ATOM      3  C3  3VJ d   1      33.194  49.059 -15.497  0.00  0.00    -0.051 A 
ATOM      4  C4  3VJ d   1      32.829  49.061 -16.864  0.00  0.00     0.033 A 
ATOM      5  C5  3VJ d   1      32.856  50.285 -17.544  0.00  0.00    -0.065 A 
ATOM      6  C6  3VJ d   1      33.245  51.475 -16.925  0.00  0.00    -0.049 A 
ATOM      7  H1  3VJ d   1      33.177  48.127 -14.944  0.00  0.00     0.086 H 
ATOM      8  H19 3VJ d   1      32.565  50.310 -18.588  0.00  0.00     0.085 H 
ATOM      9  H20 3VJ d   1      33.260  52.401 -17.488  0.00  0.00     0.087 H 
ENDROOT
BRANCH   2  10
ATOM     10  C7  3VJ d   1      34.020  50.220 -13.391  0.00  0.00     0.174 C 
ATOM     11  O9  3VJ d   1      33.375  50.735 -12.507  0.00  0.00    -0.291 OA
BRANCH  10  12
ATOM     12  C8  3VJ d   1      35.311  49.566 -12.929  0.00  0.00     0.045 C 
BRANCH  12  13
ATOM     13  C28 3VJ d   1      36.497  49.675 -13.959  0.00  0.00    -0.058 C 
ATOM     14  H12 3VJ d   1      36.684  50.734 -14.192  0.00  0.00     0.029 H 
ATOM     15  H13 3VJ d   1      36.232  49.138 -14.882  0.00  0.00     0.029 H 
ATOM     16  H14 3VJ d   1      37.404  49.230 -13.523  0.00  0.00     0.029 H 
ENDBRANCH  12  13
BRANCH  12  17
ATOM     17  C29 3VJ d   1      35.802  50.371 -11.694  0.00  0.00    -0.058 C 
ATOM     18  H15 3VJ d   1      35.029  50.350 -10.912  0.00  0.00     0.029 H 
ATOM     19  H16 3VJ d   1      35.997  51.413 -11.989  0.00  0.00     0.029 H 
ATOM     20  H17 3VJ d   1      36.727  49.920 -11.306  0.00  0.00     0.029 H 
ENDBRANCH  12  17
BRANCH  12  21
ATOM     21  C10 3VJ d   1      34.979  48.115 -12.544  0.00  0.00    -0.039 A 
ATOM     22  C13 3VJ d   1      35.513  47.043 -13.264  0.00  0.00    -0.055 A 
ATOM     23  C14 3VJ d   1      35.230  45.731 -12.900  0.00  0.00     0.036 A 
ATOM     24  H2  3VJ d   1      36.155  47.236 -14.116  0.00  0.00     0.086 H 
ATOM     25  C15 3VJ d   1      34.384  45.429 -11.823  0.00  0.00    -0.041 A 
ATOM     26 CL1  3VJ d   1      35.947  44.460 -13.851  0.00  0.00    -0.084 Cl
ATOM     27  C16 3VJ d   1      33.810  46.487 -11.107  0.00  0.00     0.036 A 
ATOM     28  H3  3VJ d   1      34.179  44.400 -11.551  0.00  0.00     0.088 H 
ATOM     29  C17 3VJ d   1      34.107  47.816 -11.477  0.00  0.00    -0.055 A 
ATOM     30 CL2  3VJ d   1      32.770  46.181  -9.733  0.00  0.00    -0.084 Cl
ATOM     31  H4  3VJ d   1      33.652  48.630 -10.925  0.00  0.00     0.086 H 
ENDBRANCH  12  21
ENDBRANCH  10  12
ENDBRANCH   2  10
BRANCH   1  32
ATOM     32  O11 3VJ d   1      33.991  52.667 -14.913  0.00  0.00    -0.355 OA
BRANCH  32  33
ATOM     33  C27 3VJ d   1      34.053  53.978 -15.558  0.00  0.00     0.010 C 
ATOM     34  H9  3VJ d   1      34.370  54.733 -14.824  0.00  0.00     0.066 H 
ATOM     35  H10 3VJ d   1      33.059  54.242 -15.949  0.00  0.00     0.066 H 
ATOM     36  H11 3VJ d   1      34.776  53.945 -16.386  0.00  0.00     0.066 H 
ENDBRANCH  32  33
ENDBRANCH   1  32
BRANCH   4  37
ATOM     37  C12 3VJ d   1      32.402  47.778 -17.558  0.00  0.00     0.252 C 
ATOM     38  N20 3VJ d   1      31.566  47.787 -18.617  0.00  0.00    -0.348 N 
ATOM     39  H21 3VJ d   1      31.216  48.664 -18.945  0.00  0.00     0.163 HD
ATOM     40  O21 3VJ d   1      32.819  46.727 -17.118  0.00  0.00    -0.268 OA
BRANCH  38  41
ATOM     41  C22 3VJ d   1      31.148  46.552 -19.310  0.00  0.00     0.069 C 
ATOM     42  H5  3VJ d   1      31.884  46.257 -20.073  0.00  0.00     0.078 H 
ATOM     43  H6  3VJ d   1      31.007  45.726 -18.598  0.00  0.00     0.078 H 
BRANCH  41  44
ATOM     44  C23 3VJ d   1      29.847  46.951 -19.940  0.00  0.00     0.235 C 
ATOM     45  O24 3VJ d   1      29.326  47.903 -19.416  0.00  0.00    -0.272 OA
ATOM     46  N25 3VJ d   1      29.238  46.415 -21.019  0.00  0.00    -0.355 N 
ATOM     47  H22 3VJ d   1      28.422  46.901 -21.333  0.00  0.00     0.162 HD
BRANCH  46  48
ATOM     48  C26 3VJ d   1      29.591  45.239 -21.790  0.00  0.00     0.025 C 
ATOM     49  H7  3VJ d   1      29.887  45.526 -22.810  0.00  0.00     0.072 H 
ATOM     50  H8  3VJ d   1      30.419  44.700 -21.306  0.00  0.00     0.072 H 
BRANCH  48  51
ATOM     51  C30 3VJ d   1      28.374  44.388 -21.827  0.00  0.00    -0.010 C 
ATOM     52  N31 3VJ d   1      27.966  43.956 -22.875  0.00  0.00    -0.315 NA
ATOM     53  H23 3VJ d   1      27.140  43.379 -22.895  0.00  0.00     0.185 HD
ATOM     54  H18 3VJ d   1      27.848  44.154 -20.903  0.00  0.00     0.109 H 
ENDBRANCH  48  51
ENDBRANCH  46  48
ENDBRANCH  41  44
ENDBRANCH  38  41
ENDBRANCH   4  37
TORSDOF 12
