REMARK  9 active torsions:
REMARK  status: ('A' for Active; 'I' for Inactive)
REMARK    1  A    between atoms: C14_25  and  C13_1 
REMARK    2  A    between atoms: C18_2  and  N32_32 
REMARK    3  A    between atoms: C28_28  and  C17_3 
REMARK    4  A    between atoms: C26_27  and  C15_5 
REMARK    5  A    between atoms: C19_6  and  C24_11 
REMARK       I    between atoms: N34_34  and  C19_6 
REMARK    6  A    between atoms: C25_26  and  C27_14 
REMARK    7  A    between atoms: C27_14  and  N33_33 
REMARK    8  A    between atoms: C28_28  and  C26_27 
REMARK    9  A    between atoms: C28_28  and  N34_34 
ROOT
ATOM      1  C28 3VM d   1      39.806 -20.642  28.844  0.00  0.00     0.058 C 
ATOM      2  H26 3VM d   1      39.769 -20.689  29.942  0.00  0.00     0.083 H 
ENDROOT
BRANCH   1   3
ATOM      3  C17 3VM d   1      41.277 -20.592  28.455  0.00  0.00     0.058 A 
ATOM      4  C10 3VM d   1      42.245 -20.829  29.432  0.00  0.00    -0.046 A 
ATOM      5  C14 3VM d   1      43.589 -20.770  29.040  0.00  0.00    -0.022 A 
ATOM      6  H22 3VM d   1      41.967 -21.050  30.456  0.00  0.00     0.088 H 
ATOM      7  C8  3VM d   1      43.901 -20.541  27.691  0.00  0.00    -0.055 A 
ATOM      8  C11 3VM d   1      42.872 -20.332  26.780  0.00  0.00     0.003 A 
ATOM      9  H20 3VM d   1      44.934 -20.527  27.363  0.00  0.00     0.087 H 
ATOM     10  N29 3VM d   1      41.563 -20.364  27.133  0.00  0.00    -0.263 NA
ATOM     11  H10 3VM d   1      43.126 -20.135  25.745  0.00  0.00     0.114 H 
BRANCH   5  12
ATOM     12  C13 3VM d   1      44.671 -21.024  29.987  0.00  0.00    -0.024 A 
ATOM     13  C5  3VM d   1      44.439 -21.804  31.144  0.00  0.00    -0.071 A 
ATOM     14  C4  3VM d   1      45.474 -22.103  32.052  0.00  0.00    -0.066 A 
ATOM     15  H17 3VM d   1      43.441 -22.181  31.337  0.00  0.00     0.084 H 
ATOM     16  C12 3VM d   1      46.774 -21.619  31.773  0.00  0.00     0.039 A 
ATOM     17  H16 3VM d   1      45.279 -22.689  32.943  0.00  0.00     0.085 H 
ATOM     18  C18 3VM d   1      48.060 -21.742  32.349  0.00  0.00     0.128 A 
ATOM     19  C16 3VM d   1      46.988 -20.859  30.615  0.00  0.00     0.091 A 
ATOM     20  N30 3VM d   1      48.990 -21.054  31.671  0.00  0.00    -0.262 N 
ATOM     21  N31 3VM d   1      48.327 -20.549  30.625  0.00  0.00    -0.172 NA
ATOM     22  H27 3VM d   1      49.987 -20.940  31.903  0.00  0.00     0.191 HD
ATOM     23  C9  3VM d   1      45.957 -20.528  29.709  0.00  0.00    -0.042 A 
ATOM     24  H21 3VM d   1      46.149 -19.916  28.835  0.00  0.00     0.088 H 
BRANCH  18  25
ATOM     25  N32 3VM d   1      48.268 -22.419  33.513  0.00  0.00    -0.384 N 
ATOM     26  H28 3VM d   1      47.489 -22.921  33.963  0.00  0.00     0.157 HD
ATOM     27  H29 3VM d   1      49.204 -22.429  33.943  0.00  0.00     0.157 HD
ENDBRANCH  18  25
ENDBRANCH   5  12
ENDBRANCH   1   3
BRANCH   1  28
ATOM     28  C26 3VM d   1      39.108 -21.899  28.289  0.00  0.00    -0.017 C 
ATOM     29  H24 3VM d   1      38.062 -21.910  28.630  0.00  0.00     0.043 H 
ATOM     30  H25 3VM d   1      39.135 -21.870  27.190  0.00  0.00     0.043 H 
BRANCH  28  31
ATOM     31  C15 3VM d   1      39.793 -23.148  28.765  0.00  0.00    -0.056 A 
ATOM     32  C6  3VM d   1      40.501 -23.942  27.865  0.00  0.00    -0.077 A 
ATOM     33  C2  3VM d   1      41.177 -25.058  28.356  0.00  0.00    -0.082 A 
ATOM     34  H18 3VM d   1      40.526 -23.698  26.809  0.00  0.00     0.084 H 
ATOM     35  C1  3VM d   1      41.153 -25.376  29.720  0.00  0.00    -0.083 A 
ATOM     36  H14 3VM d   1      41.730 -25.690  27.671  0.00  0.00     0.083 H 
ATOM     37  C3  3VM d   1      40.459 -24.574  30.612  0.00  0.00    -0.082 A 
ATOM     38  H13 3VM d   1      41.679 -26.253  30.079  0.00  0.00     0.083 H 
ATOM     39  C7  3VM d   1      39.790 -23.448  30.131  0.00  0.00    -0.077 A 
ATOM     40  H15 3VM d   1      40.436 -24.818  31.668  0.00  0.00     0.083 H 
ATOM     41  H19 3VM d   1      39.263 -22.800  30.822  0.00  0.00     0.084 H 
ENDBRANCH  28  31
ENDBRANCH   1  28
BRANCH   1  42
ATOM     42  N34 3VM d   1      39.039 -19.484  28.430  0.00  0.00    -0.350 N 
ATOM     43  C19 3VM d   1      38.935 -18.308  29.145  0.00  0.00     0.222 C 
ATOM     44  O35 3VM d   1      39.501 -18.099  30.203  0.00  0.00    -0.273 OA
ATOM     45  H33 3VM d   1      38.548 -19.541  27.561  0.00  0.00     0.163 HD
BRANCH  43  46
ATOM     46  C24 3VM d   1      38.046 -17.255  28.522  0.00  0.00     0.024 C 
ATOM     47  C20 3VM d   1      37.057 -16.675  29.540  0.00  0.00    -0.053 C 
ATOM     48  C22 3VM d   1      36.169 -15.617  28.896  0.00  0.00    -0.059 C 
ATOM     49  H1  3VM d   1      36.425 -17.486  29.930  0.00  0.00     0.034 H 
ATOM     50  H2  3VM d   1      37.619 -16.218  30.368  0.00  0.00     0.034 H 
ATOM     51  C25 3VM d   1      37.007 -14.495  28.267  0.00  0.00    -0.031 C 
ATOM     52  H5  3VM d   1      35.511 -15.185  29.664  0.00  0.00     0.033 H 
ATOM     53  H6  3VM d   1      35.558 -16.090  28.113  0.00  0.00     0.033 H 
ATOM     54  C23 3VM d   1      37.912 -15.064  27.173  0.00  0.00    -0.059 C 
ATOM     55  H23 3VM d   1      37.651 -14.053  29.042  0.00  0.00     0.042 H 
ATOM     56  C21 3VM d   1      38.817 -16.170  27.743  0.00  0.00    -0.053 C 
ATOM     57  H7  3VM d   1      37.289 -15.484  26.370  0.00  0.00     0.033 H 
ATOM     58  H8  3VM d   1      38.539 -14.257  26.766  0.00  0.00     0.033 H 
ATOM     59  H3  3VM d   1      39.547 -15.707  28.422  0.00  0.00     0.034 H 
ATOM     60  H4  3VM d   1      39.347 -16.651  26.908  0.00  0.00     0.034 H 
ATOM     61  H9  3VM d   1      37.437 -17.781  27.772  0.00  0.00     0.054 H 
BRANCH  51  62
ATOM     62  C27 3VM d   1      36.057 -13.421  27.767  0.00  0.00     0.083 C 
ATOM     63  H11 3VM d   1      35.298 -13.226  28.539  0.00  0.00     0.075 H 
ATOM     64  H12 3VM d   1      35.564 -13.777  26.850  0.00  0.00     0.075 H 
BRANCH  62  65
ATOM     65  N33 3VM d   1      36.744 -12.219  27.483  0.00  0.00    -0.079 N 
ATOM     66  H30 3VM d   1      36.089 -11.527  27.154  0.00  0.00     0.274 HD
ATOM     67  H31 3VM d   1      37.438 -12.389  26.772  0.00  0.00     0.274 HD
ATOM     68  H32 3VM d   1      37.195 -11.884  28.320  0.00  0.00     0.274 HD
ENDBRANCH  62  65
ENDBRANCH  51  62
ENDBRANCH  43  46
ENDBRANCH   1  42
TORSDOF 9
