REMARK  2 active torsions:
REMARK  status: ('A' for Active; 'I' for Inactive)
REMARK    1  A    between atoms: C8_7  and  C4_1 
REMARK    2  A    between atoms: C11_15  and  N2_2 
ROOT
ATOM      1  C9  3VO d   1      22.615  38.145  43.056  0.00  0.00    -0.013 C 
ATOM      2  C8  3VO d   1      23.078  38.349  41.549  0.00  0.00     0.088 C 
ATOM      3  O1  3VO d   1      21.631  40.289  41.390  0.00  0.00    -0.388 OA
ATOM      4  C1  3VO d   1      21.223  40.231  42.802  0.00  0.00     0.020 C 
ATOM      5  C2  3VO d   1      21.225  38.773  43.369  0.00  0.00    -0.038 C 
ATOM      6  C3  3VO d   1      22.905  39.854  41.131  0.00  0.00     0.047 C 
ATOM      7  C10 3VO d   1      22.816  36.672  43.510  0.00  0.00    -0.010 C 
ATOM      8  S1  3VO d   1      21.864  35.490  42.489  0.00  0.00    -0.094 SA
ATOM      9  C11 3VO d   1      21.769  36.339  40.908  0.00  0.00     0.134 C 
ATOM     10  N1  3VO d   1      22.223  37.548  40.598  0.00  0.00    -0.355 N 
ATOM     11  H4  3VO d   1      23.324  38.728  43.662  0.00  0.00     0.045 H 
ATOM     12  H5  3VO d   1      20.207  40.643  42.892  0.00  0.00     0.074 H 
ATOM     13  H6  3VO d   1      21.920  40.841  43.395  0.00  0.00     0.074 H 
ATOM     14  H7  3VO d   1      21.060  38.794  44.456  0.00  0.00     0.036 H 
ATOM     15  H8  3VO d   1      20.431  38.183  42.888  0.00  0.00     0.036 H 
ATOM     16  H9  3VO d   1      23.108  39.955  40.055  0.00  0.00     0.078 H 
ATOM     17  H10 3VO d   1      23.618  40.470  41.698  0.00  0.00     0.078 H 
ATOM     18  H12 3VO d   1      22.490  36.577  44.556  0.00  0.00     0.050 H 
ATOM     19  H13 3VO d   1      23.885  36.422  43.435  0.00  0.00     0.050 H 
ATOM     20  H14 3VO d   1      21.984  37.951  39.681  0.00  0.00     0.162 HD
ENDROOT
BRANCH   2  21
ATOM     21  C4  3VO d   1      24.550  37.985  41.323  0.00  0.00     0.011 A 
ATOM     22  C7  3VO d   1      25.618  38.642  42.076  0.00  0.00     0.128 A 
ATOM     23  C12 3VO d   1      26.964  38.348  41.875  0.00  0.00    -0.008 A 
ATOM     24  F1  3VO d   1      25.395  39.653  42.911  0.00  0.00    -0.205 F 
ATOM     25  C13 3VO d   1      27.275  37.319  40.974  0.00  0.00     0.119 A 
ATOM     26  H15 3VO d   1      27.742  38.894  42.395  0.00  0.00     0.093 H 
ATOM     27  C6  3VO d   1      26.277  36.620  40.250  0.00  0.00    -0.045 A 
ATOM     28  F2  3VO d   1      28.540  36.970  40.796  0.00  0.00    -0.206 F 
ATOM     29  C5  3VO d   1      24.952  36.967  40.439  0.00  0.00    -0.069 A 
ATOM     30  H3  3VO d   1      26.547  35.828  39.561  0.00  0.00     0.088 H 
ATOM     31  H11 3VO d   1      24.191  36.432  39.883  0.00  0.00     0.084 H 
ENDBRANCH   2  21
BRANCH   9  32
ATOM     32  N2  3VO d   1      21.111  35.593  39.954  0.00  0.00    -0.380 N 
ATOM     33  H1  3VO d   1      20.988  35.967  39.002  0.00  0.00     0.158 HD
ATOM     34  H2  3VO d   1      20.742  34.661  40.193  0.00  0.00     0.158 HD
ENDBRANCH   9  32
TORSDOF 2
