REMARK  8 active torsions:
REMARK  status: ('A' for Active; 'I' for Inactive)
REMARK    1  A    between atoms: C24_2  and  C23_3 
REMARK    2  A    between atoms: C23_3  and  C25_4 
REMARK    3  A    between atoms: C23_3  and  N1_10 
REMARK    4  A    between atoms: C25_4  and  C26_5 
REMARK    5  A    between atoms: N1_10  and  C22_11 
REMARK    6  A    between atoms: C22_11  and  C21_12 
REMARK       I    between atoms: N_21  and  C_22 
REMARK    7  A    between atoms: C_22  and  C1_24 
REMARK    8  A    between atoms: C4_27  and  C5_30 
ROOT
ATOM      1  C21 3X5 d   1     -24.761 -42.594   3.529  0.00  0.00     0.038 C 
ATOM      2  C20 3X5 d   1     -24.873 -42.989   5.000  0.00  0.00    -0.041 C 
ATOM      3  C19 3X5 d   1     -24.754 -41.777   5.913  0.00  0.00    -0.047 C 
ATOM      4  C18 3X5 d   1     -24.951 -42.189   7.366  0.00  0.00    -0.061 C 
ATOM      5  C17 3X5 d   1     -24.858 -40.977   8.286  0.00  0.00    -0.065 C 
ATOM      6  C16 3X5 d   1     -25.846 -39.891   7.875  0.00  0.00    -0.065 C 
ATOM      7  C15 3X5 d   1     -25.664 -39.499   6.412  0.00  0.00    -0.060 C 
ATOM      8  C14 3X5 d   1     -25.773 -40.723   5.512  0.00  0.00    -0.035 C 
ATOM      9  C13 3X5 d   1     -25.564 -40.327   4.057  0.00  0.00     0.002 C 
ATOM     10  N   3X5 d   1     -25.764 -41.553   3.290  0.00  0.00    -0.341 N 
ATOM     11  C   3X5 d   1     -26.752 -41.776   2.427  0.00  0.00     0.254 C 
ATOM     12  O   3X5 d   1     -27.149 -42.903   2.182  0.00  0.00    -0.267 OA
ATOM     13  H12 3X5 d   1     -24.932 -43.466   2.881  0.00  0.00     0.075 H 
ATOM     14  H13 3X5 d   1     -24.069 -43.699   5.242  0.00  0.00     0.036 H 
ATOM     15  H14 3X5 d   1     -25.848 -43.469   5.168  0.00  0.00     0.036 H 
ATOM     16  H15 3X5 d   1     -23.746 -41.351   5.803  0.00  0.00     0.040 H 
ATOM     17  H16 3X5 d   1     -24.172 -42.914   7.644  0.00  0.00     0.033 H 
ATOM     18  H17 3X5 d   1     -25.942 -42.653   7.479  0.00  0.00     0.033 H 
ATOM     19  H18 3X5 d   1     -23.837 -40.569   8.239  0.00  0.00     0.033 H 
ATOM     20  H19 3X5 d   1     -25.080 -41.292   9.316  0.00  0.00     0.033 H 
ATOM     21  H20 3X5 d   1     -25.686 -39.004   8.506  0.00  0.00     0.033 H 
ATOM     22  H21 3X5 d   1     -26.870 -40.265   8.021  0.00  0.00     0.033 H 
ATOM     23  H22 3X5 d   1     -24.672 -39.041   6.281  0.00  0.00     0.033 H 
ATOM     24  H23 3X5 d   1     -26.443 -38.774   6.132  0.00  0.00     0.033 H 
ATOM     25  H24 3X5 d   1     -26.781 -41.149   5.621  0.00  0.00     0.043 H 
ATOM     26  H25 3X5 d   1     -24.546 -39.940   3.906  0.00  0.00     0.065 H 
ATOM     27  H26 3X5 d   1     -26.295 -39.562   3.757  0.00  0.00     0.065 H 
ENDROOT
BRANCH   1  28
ATOM     28  C22 3X5 d   1     -23.388 -41.982   3.250  0.00  0.00     0.101 C 
ATOM     29  H10 3X5 d   1     -23.466 -41.274   2.412  0.00  0.00     0.079 H 
ATOM     30  H11 3X5 d   1     -23.034 -41.452   4.146  0.00  0.00     0.079 H 
BRANCH  28  31
ATOM     31  N1  3X5 d   1     -22.436 -43.050   2.904  0.00  0.00    -0.062 N 
ATOM     32  H8  3X5 d   1     -22.007 -43.403   3.745  0.00  0.00     0.278 HD
ATOM     33  H9  3X5 d   1     -22.925 -43.797   2.437  0.00  0.00     0.278 HD
BRANCH  31  34
ATOM     34  C23 3X5 d   1     -21.394 -42.509   2.010  0.00  0.00     0.156 C 
ATOM     35  H2  3X5 d   1     -21.869 -41.961   1.183  0.00  0.00     0.096 H 
BRANCH  34  36
ATOM     36  C24 3X5 d   1     -20.569 -43.645   1.453  0.00  0.00     0.118 C 
ATOM     37  O1  3X5 d   1     -21.030 -44.773   1.392  0.00  0.00    -0.305 OA
ATOM     38  H1  3X5 d   1     -19.555 -43.456   1.103  0.00  0.00     0.146 H 
ENDBRANCH  34  36
BRANCH  34  39
ATOM     39  C25 3X5 d   1     -20.492 -41.564   2.794  0.00  0.00     0.007 C 
ATOM     40  H3  3X5 d   1     -19.739 -42.148   3.343  0.00  0.00     0.046 H 
ATOM     41  H4  3X5 d   1     -21.098 -40.985   3.506  0.00  0.00     0.046 H 
BRANCH  39  42
ATOM     42  C26 3X5 d   1     -19.800 -40.621   1.840  0.00  0.00     0.030 A 
ATOM     43  N3  3X5 d   1     -18.578 -40.073   2.005  0.00  0.00    -0.353 N 
ATOM     44  C28 3X5 d   1     -18.320 -39.290   0.934  0.00  0.00     0.063 A 
ATOM     45  H5  3X5 d   1     -17.951 -40.225   2.808  0.00  0.00     0.166 HD
ATOM     46  N2  3X5 d   1     -19.377 -39.342   0.095  0.00  0.00    -0.254 NA
ATOM     47  H6  3X5 d   1     -17.410 -38.713   0.774  0.00  0.00     0.143 H 
ATOM     48  C27 3X5 d   1     -20.305 -40.160   0.635  0.00  0.00     0.025 A 
ATOM     49  H7  3X5 d   1     -21.273 -40.411   0.203  0.00  0.00     0.117 H 
ENDBRANCH  39  42
ENDBRANCH  34  39
ENDBRANCH  31  34
ENDBRANCH  28  31
ENDBRANCH   1  28
BRANCH  11  50
ATOM     50  C1  3X5 d   1     -27.391 -40.605   1.741  0.00  0.00     0.032 A 
ATOM     51  C12 3X5 d   1     -28.289 -39.800   2.432  0.00  0.00    -0.067 A 
ATOM     52  C11 3X5 d   1     -28.881 -38.715   1.796  0.00  0.00    -0.071 A 
ATOM     53  H27 3X5 d   1     -28.528 -40.018   3.467  0.00  0.00     0.085 H 
ATOM     54  C4  3X5 d   1     -28.575 -38.435   0.469  0.00  0.00    -0.026 A 
ATOM     55  H28 3X5 d   1     -29.581 -38.087   2.335  0.00  0.00     0.084 H 
ATOM     56  C3  3X5 d   1     -27.677 -39.241  -0.222  0.00  0.00    -0.071 A 
ATOM     57  C2  3X5 d   1     -27.085 -40.325   0.414  0.00  0.00    -0.067 A 
ATOM     58  H29 3X5 d   1     -27.439 -39.023  -1.257  0.00  0.00     0.084 H 
ATOM     59  H30 3X5 d   1     -26.384 -40.953  -0.124  0.00  0.00     0.085 H 
BRANCH  54  60
ATOM     60  C5  3X5 d   1     -29.208 -37.275  -0.211  0.00  0.00    -0.026 A 
ATOM     61  C10 3X5 d   1     -29.260 -37.226  -1.599  0.00  0.00    -0.072 A 
ATOM     62  C9  3X5 d   1     -29.852 -36.141  -2.235  0.00  0.00    -0.082 A 
ATOM     63  H31 3X5 d   1     -28.839 -38.034  -2.186  0.00  0.00     0.084 H 
ATOM     64  C8  3X5 d   1     -30.393 -35.105  -1.483  0.00  0.00    -0.083 A 
ATOM     65  H32 3X5 d   1     -29.892 -36.103  -3.318  0.00  0.00     0.083 H 
ATOM     66  C7  3X5 d   1     -30.341 -35.153  -0.095  0.00  0.00    -0.082 A 
ATOM     67  H33 3X5 d   1     -30.856 -34.259  -1.979  0.00  0.00     0.083 H 
ATOM     68  C6  3X5 d   1     -29.749 -36.238   0.541  0.00  0.00    -0.072 A 
ATOM     69  H34 3X5 d   1     -30.762 -34.344   0.491  0.00  0.00     0.083 H 
ATOM     70  H35 3X5 d   1     -29.709 -36.276   1.624  0.00  0.00     0.084 H 
ENDBRANCH  54  60
ENDBRANCH  11  50
TORSDOF 8
