REMARK  3 active torsions:
REMARK  status: ('A' for Active; 'I' for Inactive)
REMARK    1  A    between atoms: C13_6  and  N2_2 
REMARK    2  A    between atoms: C7_3  and  C3_10 
REMARK    3  A    between atoms: C9_5  and  C14_20 
ROOT
ATOM      1  C7  3VP d   1      17.884 -38.713   8.700  0.00  0.00     0.088 C 
ATOM      2  C9  3VP d   1      16.304 -37.811  10.937  0.00  0.00     0.064 C 
ATOM      3  C13 3VP d   1      16.340 -40.022   7.370  0.00  0.00     0.134 C 
ATOM      4  C8  3VP d   1      17.686 -37.226   9.133  0.00  0.00     0.048 C 
ATOM      5  O1  3VP d   1      16.456 -37.038   9.773  0.00  0.00    -0.381 OA
ATOM      6  C10 3VP d   1      16.320 -39.303  10.588  0.00  0.00    -0.032 C 
ATOM      7  C11 3VP d   1      17.651 -39.642   9.915  0.00  0.00    -0.012 C 
ATOM      8  C12 3VP d   1      17.727 -41.103   9.509  0.00  0.00    -0.010 C 
ATOM      9  S1  3VP d   1      16.547 -41.581   8.213  0.00  0.00    -0.094 SA
ATOM     10  N1  3VP d   1      16.883 -38.874   7.640  0.00  0.00    -0.355 N 
ATOM     11  H3  3VP d   1      17.096 -37.587  11.667  0.00  0.00     0.087 H 
ATOM     12  H4  3VP d   1      17.726 -36.585   8.240  0.00  0.00     0.078 H 
ATOM     13  H5  3VP d   1      18.495 -36.944   9.823  0.00  0.00     0.078 H 
ATOM     14  H9  3VP d   1      15.491 -39.530   9.902  0.00  0.00     0.037 H 
ATOM     15  H10 3VP d   1      16.209 -39.898  11.507  0.00  0.00     0.037 H 
ATOM     16  H11 3VP d   1      18.454 -39.457  10.644  0.00  0.00     0.045 H 
ATOM     17  H12 3VP d   1      17.529 -41.719  10.399  0.00  0.00     0.050 H 
ATOM     18  H13 3VP d   1      18.744 -41.306   9.141  0.00  0.00     0.050 H 
ATOM     19  H14 3VP d   1      16.602 -38.049   7.092  0.00  0.00     0.162 HD
ENDROOT
BRANCH   1  20
ATOM     20  C3  3VP d   1      19.286 -38.911   8.151  0.00  0.00     0.011 A 
ATOM     21  C4  3VP d   1      20.431 -38.625   8.912  0.00  0.00     0.128 A 
ATOM     22  C5  3VP d   1      21.733 -38.760   8.414  0.00  0.00    -0.008 A 
ATOM     23  F2  3VP d   1      20.334 -38.213  10.170  0.00  0.00    -0.205 F 
ATOM     24  C6  3VP d   1      21.879 -39.220   7.107  0.00  0.00     0.119 A 
ATOM     25  H8  3VP d   1      22.596 -38.516   9.023  0.00  0.00     0.093 H 
ATOM     26  C1  3VP d   1      20.769 -39.530   6.315  0.00  0.00    -0.045 A 
ATOM     27  F1  3VP d   1      23.098 -39.369   6.612  0.00  0.00    -0.206 F 
ATOM     28  C2  3VP d   1      19.496 -39.356   6.843  0.00  0.00    -0.069 A 
ATOM     29  H6  3VP d   1      20.900 -39.900   5.305  0.00  0.00     0.088 H 
ATOM     30  H7  3VP d   1      18.636 -39.573   6.219  0.00  0.00     0.084 H 
ENDBRANCH   1  20
BRANCH   3  31
ATOM     31  N2  3VP d   1      15.475 -40.133   6.302  0.00  0.00    -0.380 N 
ATOM     32  H1  3VP d   1      15.262 -39.308   5.724  0.00  0.00     0.158 HD
ATOM     33  H2  3VP d   1      15.041 -41.041   6.083  0.00  0.00     0.158 HD
ENDBRANCH   3  31
BRANCH   2  34
ATOM     34  C14 3VP d   1      14.908 -37.409  11.485  0.00  0.00     0.082 C 
ATOM     35  F3  3VP d   1      14.944 -36.141  11.944  0.00  0.00    -0.253 F 
ATOM     36  H15 3VP d   1      14.629 -38.086  12.306  0.00  0.00     0.086 H 
ATOM     37  H16 3VP d   1      14.164 -37.484  10.678  0.00  0.00     0.086 H 
ENDBRANCH   2  34
TORSDOF 3
