REMARK WARNING: 32 MAX_TORS EXCEEDED!!!
REMARK  77 active torsions:
REMARK  status: ('A' for Active; 'I' for Inactive)
REMARK    1  A    between atoms: N_1  and  CA_2 
REMARK    2  A    between atoms: CA_2  and  C_3 
REMARK    3  A    between atoms: CA_2  and  CB_5 
REMARK       I    between atoms: C_3  and  N_9 
REMARK    4  A    between atoms: CB_5  and  CG_6 
REMARK       I    between atoms: CG_6  and  ND2_8 
REMARK    5  A    between atoms: N_9  and  CA_10 
REMARK    6  A    between atoms: CA_10  and  C_11 
REMARK    7  A    between atoms: CA_10  and  CB_13 
REMARK       I    between atoms: C_11  and  N_23 
REMARK    8  A    between atoms: CB_13  and  CG_14 
REMARK    9  A    between atoms: N_23  and  CA_24 
REMARK   10  A    between atoms: CA_24  and  C_25 
REMARK   11  A    between atoms: CA_24  and  CB_27 
REMARK       I    between atoms: C_25  and  N_34 
REMARK   12  A    between atoms: CB_27  and  CG_28 
REMARK   13  A    between atoms: N_34  and  CA_35 
REMARK   14  A    between atoms: CA_35  and  C_36 
REMARK   15  A    between atoms: CA_35  and  CB_38 
REMARK       I    between atoms: C_36  and  N_42 
REMARK   16  A    between atoms: CB_38  and  CG_39 
REMARK   17  A    between atoms: N_42  and  CA_43 
REMARK   18  A    between atoms: CA_43  and  C_44 
REMARK   19  A    between atoms: CA_43  and  CB_46 
REMARK       I    between atoms: C_44  and  N_50 
REMARK   20  A    between atoms: CB_46  and  CG1_47 
REMARK   21  A    between atoms: CB_46  and  CG2_48 
REMARK   22  A    between atoms: CG1_47  and  CD1_49 
REMARK   23  A    between atoms: N_50  and  CA_51 
REMARK   24  A    between atoms: CA_51  and  C_52 
REMARK   25  A    between atoms: CA_51  and  CB_54 
REMARK       I    between atoms: C_52  and  N_57 
REMARK   26  A    between atoms: CB_54  and  OG1_55 
REMARK   27  A    between atoms: CB_54  and  CG2_56 
REMARK   28  A    between atoms: N_57  and  CA_58 
REMARK   29  A    between atoms: CA_58  and  C_59 
REMARK   30  A    between atoms: CA_58  and  CB_61 
REMARK       I    between atoms: C_59  and  N_65 
REMARK   31  A    between atoms: CB_61  and  CG_62 
REMARK       I    between atoms: CG_62  and  ND2_64 
REMARK   32  A    between atoms: N_65  and  CA_66 
REMARK   33  A    between atoms: CA_66  and  C_67 
REMARK   34  A    between atoms: CA_66  and  CB_69 
REMARK       I    between atoms: C_67  and  N_79 
REMARK   35  A    between atoms: CB_69  and  CG_70 
REMARK   36  A    between atoms: N_79  and  CA_80 
REMARK   37  A    between atoms: CA_80  and  C_81 
REMARK   38  A    between atoms: CA_80  and  CB_83 
REMARK       I    between atoms: C_81  and  N_87 
REMARK   39  A    between atoms: CB_83  and  CG_84 
REMARK   40  A    between atoms: CG_84  and  CD1_85 
REMARK   41  A    between atoms: CG_84  and  CD2_86 
REMARK   42  A    between atoms: N_87  and  CA_88 
REMARK   43  A    between atoms: CA_88  and  C_89 
REMARK   44  A    between atoms: CA_88  and  CB_91 
REMARK       I    between atoms: C_89  and  N_101 
REMARK   45  A    between atoms: CB_91  and  CG_92 
REMARK   46  A    between atoms: N_101  and  CA_102 
REMARK   47  A    between atoms: CA_102  and  C_103 
REMARK   48  A    between atoms: CA_102  and  CB_105 
REMARK       I    between atoms: C_103  and  N_113 
REMARK   49  A    between atoms: CB_105  and  CG_106 
REMARK   50  A    between atoms: CZ_111  and  OH_112 
REMARK   51  A    between atoms: N_113  and  CA_114 
REMARK   52  A    between atoms: CA_114  and  C_115 
REMARK   53  A    between atoms: CA_114  and  CB_117 
REMARK       I    between atoms: C_115  and  N_121 
REMARK   54  A    between atoms: CB_117  and  CG1_118 
REMARK   55  A    between atoms: CB_117  and  CG2_119 
REMARK   56  A    between atoms: CG1_118  and  CD1_120 
REMARK   57  A    between atoms: N_121  and  CA_122 
REMARK   58  A    between atoms: CA_122  and  C_123 
REMARK   59  A    between atoms: CA_122  and  CB_125 
REMARK       I    between atoms: C_123  and  N_130 
REMARK   60  A    between atoms: CB_125  and  CG_126 
REMARK   61  A    between atoms: CG_126  and  CD_127 
REMARK   62  A    between atoms: CD_127  and  CE_128 
REMARK   63  A    between atoms: CE_128  and  NZ_129 
REMARK   64  A    between atoms: N_130  and  CA_131 
REMARK   65  A    between atoms: CA_131  and  C_132 
REMARK   66  A    between atoms: CA_131  and  CB_134 
REMARK       I    between atoms: C_132  and  N_139 
REMARK   67  A    between atoms: CB_134  and  CG_135 
REMARK   68  A    between atoms: CG_135  and  CD_136 
REMARK   69  A    between atoms: CD_136  and  CE_137 
REMARK   70  A    between atoms: CE_137  and  NZ_138 
REMARK   71  A    between atoms: N_139  and  CA_140 
REMARK   72  A    between atoms: CA_140  and  C_141 
REMARK   73  A    between atoms: CA_140  and  CB_143 
REMARK   74  A    between atoms: CB_143  and  CG_144 
REMARK   75  A    between atoms: CG_144  and  CD_145 
REMARK   76  A    between atoms: CD_145  and  CE_146 
REMARK   77  A    between atoms: CE_146  and  NZ_147 
ROOT
ATOM      1  CA  LEU d   1      21.768  -4.722 -37.212  0.00  0.00     0.089 C 
ATOM      2  H67 LEU d   1      21.290  -4.536 -38.185  0.00  0.00     0.087 H 
ENDROOT
BRANCH   1   3
ATOM      3  N   LEU d   1      21.417  -6.033 -36.765  0.00  0.00    -0.346 N 
ATOM      4  C   TRP d   1      21.752  -7.098 -37.463  0.00  0.00     0.241 C 
ATOM      5  O   TRP d   1      22.379  -7.022 -38.516  0.00  0.00    -0.271 OA
ATOM      6  H66 LEU d   1      20.910  -6.143 -35.910  0.00  0.00     0.163 HD
BRANCH   4   7
ATOM      7  CA  TRP d   1      21.314  -8.429 -36.850  0.00  0.00     0.093 C 
ATOM      8  H57 TRP d   1      21.853  -9.249 -37.347  0.00  0.00     0.088 H 
BRANCH   7   9
ATOM      9  N   TRP d   1      21.633  -8.421 -35.415  0.00  0.00    -0.346 N 
ATOM     10  C   ASN d   1      22.860  -8.247 -34.939  0.00  0.00     0.241 C 
ATOM     11  O   ASN d   1      23.844  -8.113 -35.654  0.00  0.00    -0.271 OA
ATOM     12  H56 TRP d   1      20.886  -8.554 -34.763  0.00  0.00     0.163 HD
BRANCH  10  13
ATOM     13  CA  ASN d   1      22.996  -8.137 -33.402  0.00  0.00     0.097 C 
ATOM     14  H51 ASN d   1      23.986  -7.714 -33.179  0.00  0.00     0.088 H 
BRANCH  13  15
ATOM     15  N   ASN d   1      21.973  -7.217 -32.878  0.00  0.00    -0.345 N 
ATOM     16  C   THR d   1      21.985  -5.917 -33.148  0.00  0.00     0.243 C 
ATOM     17  O   THR d   1      22.851  -5.373 -33.822  0.00  0.00    -0.271 OA
ATOM     18  H50 ASN d   1      21.244  -7.583 -32.299  0.00  0.00     0.163 HD
BRANCH  16  19
ATOM     19  CA  THR d   1      20.868  -5.073 -32.527  0.00  0.00     0.113 C 
ATOM     20  H44 THR d   1      20.598  -4.296 -33.258  0.00  0.00     0.091 H 
BRANCH  19  21
ATOM     21  N   THR d   1      19.676  -5.866 -32.301  0.00  0.00    -0.344 N 
ATOM     22  C   ILE d   1      19.015  -6.317 -33.358  0.00  0.00     0.241 C 
ATOM     23  O   ILE d   1      19.452  -6.191 -34.523  0.00  0.00    -0.271 OA
ATOM     24  H43 THR d   1      19.361  -6.067 -31.373  0.00  0.00     0.163 HD
BRANCH  22  25
ATOM     25  CA  ILE d   1      17.685  -6.997 -33.093  0.00  0.00     0.092 C 
ATOM     26  H33 ILE d   1      17.439  -7.569 -34.000  0.00  0.00     0.088 H 
BRANCH  25  27
ATOM     27  N   ILE d   1      17.740  -7.944 -32.001  0.00  0.00    -0.346 N 
ATOM     28  C   ASP d   1      18.571  -8.976 -32.032  0.00  0.00     0.241 C 
ATOM     29  O   ASP d   1      19.434  -9.113 -32.900  0.00  0.00    -0.271 OA
ATOM     30  H32 ILE d   1      17.141  -7.818 -31.210  0.00  0.00     0.163 HD
BRANCH  28  31
ATOM     31  CA  ASP d   1      18.450  -9.954 -30.906  0.00  0.00     0.098 C 
ATOM     32  H29 ASP d   1      19.454 -10.153 -30.503  0.00  0.00     0.088 H 
BRANCH  31  33
ATOM     33  N   ASP d   1      17.605  -9.464 -29.809  0.00  0.00    -0.345 N 
ATOM     34  C   PHE d   1      18.119  -8.892 -28.733  0.00  0.00     0.241 C 
ATOM     35  O   PHE d   1      19.342  -8.741 -28.586  0.00  0.00    -0.271 OA
ATOM     36  H28 ASP d   1      16.613  -9.566 -29.878  0.00  0.00     0.163 HD
BRANCH  34  37
ATOM     37  CA  PHE d   1      17.125  -8.397 -27.662  0.00  0.00     0.093 C 
ATOM     38  H20 PHE d   1      17.388  -7.349 -27.458  0.00  0.00     0.088 H 
BRANCH  37  39
ATOM     39  N   PHE d   1      15.711  -8.404 -28.054  0.00  0.00    -0.346 N 
ATOM     40  C   TRP d   1      15.256  -7.611 -29.022  0.00  0.00     0.241 C 
ATOM     41  O   TRP d   1      16.003  -6.856 -29.641  0.00  0.00    -0.271 OA
ATOM     42  H19 PHE d   1      15.076  -9.017 -27.584  0.00  0.00     0.163 HD
BRANCH  40  43
ATOM     43  CA  TRP d   1      13.766  -7.698 -29.378  0.00  0.00     0.093 C 
ATOM     44  H10 TRP d   1      13.653  -7.368 -30.421  0.00  0.00     0.088 H 
BRANCH  43  45
ATOM     45  N   TRP d   1      13.223  -9.051 -29.262  0.00  0.00    -0.346 N 
ATOM     46  C   ASN d   1      13.787 -10.079 -29.879  0.00  0.00     0.249 C 
ATOM     47  O   ASN d   1      14.766  -9.976 -30.621  0.00  0.00    -0.271 OA
ATOM     48  H9  TRP d   1      12.407  -9.204 -28.704  0.00  0.00     0.163 HD
BRANCH  46  49
ATOM     49  CA  ASN d   1      13.173 -11.412 -29.598  0.00  0.00     0.183 C 
ATOM     50  H4  ASN d   1      12.403 -11.298 -28.821  0.00  0.00     0.099 H 
BRANCH  49  51
ATOM     51  N   ASN d   1      12.542 -11.923 -30.810  0.00  0.00    -0.066 N 
ATOM     52  H1  ASN d   1      12.128 -12.822 -30.620  0.00  0.00     0.275 HD
ATOM     53  H2  ASN d   1      13.236 -12.019 -31.535  0.00  0.00     0.275 HD
ATOM     54  H3  ASN d   1      11.826 -11.281 -31.113  0.00  0.00     0.275 HD
ENDBRANCH  49  51
BRANCH  49  55
ATOM     55  CB  ASN d   1      14.258 -12.368 -29.082  0.00  0.00     0.044 C 
ATOM     56  H5  ASN d   1      15.079 -12.404 -29.813  0.00  0.00     0.051 H 
ATOM     57  H6  ASN d   1      13.824 -13.372 -28.968  0.00  0.00     0.051 H 
BRANCH  55  58
ATOM     58  CG  ASN d   1      14.812 -11.911 -27.736  0.00  0.00     0.217 C 
ATOM     59  OD1 ASN d   1      14.315 -10.941 -27.167  0.00  0.00    -0.274 OA
ATOM     60  ND2 ASN d   1      15.821 -12.617 -27.213  0.00  0.00    -0.370 N 
ATOM     61  H7  ASN d   1      16.213 -12.351 -26.332  0.00  0.00     0.159 HD
ATOM     62  H8  ASN d   1      16.183 -13.410 -27.703  0.00  0.00     0.159 HD
ENDBRANCH  55  58
ENDBRANCH  49  55
ENDBRANCH  46  49
ENDBRANCH  43  45
BRANCH  43  63
ATOM     63  CB  TRP d   1      12.928  -6.780 -28.477  0.00  0.00    -0.012 C 
ATOM     64  H11 TRP d   1      13.027  -7.152 -27.447  0.00  0.00     0.044 H 
ATOM     65  H12 TRP d   1      11.880  -6.870 -28.800  0.00  0.00     0.044 H 
BRANCH  63  66
ATOM     66  CG  TRP d   1      13.267  -5.317 -28.459  0.00  0.00    -0.028 A 
ATOM     67  CD1 TRP d   1      12.753  -4.350 -29.255  0.00  0.00    -0.015 A 
ATOM     68  NE1 TRP d   1      13.300  -3.121 -28.908  0.00  0.00    -0.365 N 
ATOM     69  H13 TRP d   1      12.022  -4.511 -30.046  0.00  0.00     0.112 H 
ATOM     70  CE2 TRP d   1      14.176  -3.292 -27.866  0.00  0.00     0.042 A 
ATOM     71  H14 TRP d   1      13.082  -2.222 -29.362  0.00  0.00     0.165 HD
ATOM     72  CD2 TRP d   1      14.201  -4.659 -27.565  0.00  0.00    -0.002 A 
ATOM     73  CZ2 TRP d   1      14.925  -2.363 -27.162  0.00  0.00    -0.056 A 
ATOM     74  CE3 TRP d   1      15.013  -5.102 -26.515  0.00  0.00    -0.070 A 
ATOM     75  CZ3 TRP d   1      15.786  -4.167 -25.815  0.00  0.00    -0.082 A 
ATOM     76  H15 TRP d   1      15.043  -6.152 -26.248  0.00  0.00     0.084 H 
ATOM     77  CH2 TRP d   1      15.730  -2.818 -26.144  0.00  0.00    -0.081 A 
ATOM     78  H17 TRP d   1      16.433  -4.498 -25.011  0.00  0.00     0.083 H 
ATOM     79  H18 TRP d   1      16.333  -2.110 -25.587  0.00  0.00     0.083 H 
ATOM     80  H16 TRP d   1      14.878  -1.308 -27.407  0.00  0.00     0.086 H 
ENDBRANCH  63  66
ENDBRANCH  43  63
ENDBRANCH  40  43
ENDBRANCH  37  39
BRANCH  37  81
ATOM     81  CB  PHE d   1      17.297  -9.175 -26.361  0.00  0.00    -0.014 C 
ATOM     82  H21 PHE d   1      18.372  -9.297 -26.165  0.00  0.00     0.043 H 
ATOM     83  H22 PHE d   1      16.831 -10.164 -26.480  0.00  0.00     0.043 H 
BRANCH  81  84
ATOM     84  CG  PHE d   1      16.671  -8.490 -25.184  0.00  0.00    -0.056 A 
ATOM     85  CD1 PHE d   1      15.371  -8.793 -24.791  0.00  0.00    -0.077 A 
ATOM     86  CE1 PHE d   1      14.784  -8.129 -23.749  0.00  0.00    -0.082 A 
ATOM     87  H23 PHE d   1      14.818  -9.563 -25.316  0.00  0.00     0.084 H 
ATOM     88  CZ  PHE d   1      15.501  -7.157 -23.058  0.00  0.00    -0.083 A 
ATOM     89  H25 PHE d   1      13.764  -8.359 -23.463  0.00  0.00     0.083 H 
ATOM     90  CE2 PHE d   1      16.787  -6.845 -23.450  0.00  0.00    -0.082 A 
ATOM     91  H27 PHE d   1      15.051  -6.646 -22.214  0.00  0.00     0.083 H 
ATOM     92  CD2 PHE d   1      17.364  -7.508 -24.509  0.00  0.00    -0.077 A 
ATOM     93  H26 PHE d   1      17.343  -6.077 -22.924  0.00  0.00     0.083 H 
ATOM     94  H24 PHE d   1      18.373  -7.256 -24.815  0.00  0.00     0.084 H 
ENDBRANCH  81  84
ENDBRANCH  37  81
ENDBRANCH  34  37
ENDBRANCH  31  33
BRANCH  31  95
ATOM     95  CB  ASP d   1      17.875 -11.241 -31.476  0.00  0.00     0.043 C 
ATOM     96  H30 ASP d   1      18.399 -11.477 -32.414  0.00  0.00     0.052 H 
ATOM     97  H31 ASP d   1      16.805 -11.089 -31.682  0.00  0.00     0.052 H 
BRANCH  95  98
ATOM     98  CG  ASP d   1      18.024 -12.401 -30.537  0.00  0.00     0.175 C 
ATOM     99  OD1 ASP d   1      18.967 -12.394 -29.708  0.00  0.00    -0.648 OA
ATOM    100  OD2 ASP d   1      17.185 -13.319 -30.631  0.00  0.00    -0.648 OA
ENDBRANCH  95  98
ENDBRANCH  31  95
ENDBRANCH  28  31
ENDBRANCH  25  27
BRANCH  25 101
ATOM    101  CB  ILE d   1      16.553  -5.990 -32.878  0.00  0.00    -0.030 C 
ATOM    102  H34 ILE d   1      16.646  -5.532 -31.883  0.00  0.00     0.043 H 
BRANCH 101 103
ATOM    103  CG1 ILE d   1      15.235  -6.738 -32.987  0.00  0.00    -0.063 C 
ATOM    104  H35 ILE d   1      15.303  -7.643 -32.365  0.00  0.00     0.033 H 
ATOM    105  H36 ILE d   1      15.092  -7.027 -34.039  0.00  0.00     0.033 H 
BRANCH 103 106
ATOM    106  CD1 ILE d   1      14.018  -5.954 -32.545  0.00  0.00    -0.076 C 
ATOM    107  H40 ILE d   1      13.119  -6.577 -32.661  0.00  0.00     0.027 H 
ATOM    108  H41 ILE d   1      13.920  -5.050 -33.164  0.00  0.00     0.027 H 
ATOM    109  H42 ILE d   1      14.131  -5.666 -31.489  0.00  0.00     0.027 H 
ENDBRANCH 103 106
ENDBRANCH 101 103
BRANCH 101 110
ATOM    110  CG2 ILE d   1      16.596  -4.903 -33.948  0.00  0.00    -0.071 C 
ATOM    111  H37 ILE d   1      17.547  -4.356 -33.877  0.00  0.00     0.028 H 
ATOM    112  H38 ILE d   1      15.759  -4.205 -33.796  0.00  0.00     0.028 H 
ATOM    113  H39 ILE d   1      16.512  -5.364 -34.943  0.00  0.00     0.028 H 
ENDBRANCH 101 110
ENDBRANCH  25 101
ENDBRANCH  22  25
ENDBRANCH  19  21
BRANCH  19 114
ATOM    114  CB  THR d   1      21.373  -4.348 -31.273  0.00  0.00     0.060 C 
ATOM    115  H45 THR d   1      22.353  -3.905 -31.504  0.00  0.00     0.086 H 
BRANCH 114 116
ATOM    116  OG1 THR d   1      21.558  -5.272 -30.170  0.00  0.00    -0.393 OA
ATOM    117  H46 THR d   1      21.870  -4.797 -29.409  0.00  0.00     0.210 HD
ENDBRANCH 114 116
BRANCH 114 118
ATOM    118  CG2 THR d   1      20.402  -3.199 -30.917  0.00  0.00    -0.050 C 
ATOM    119  H47 THR d   1      20.764  -2.679 -30.018  0.00  0.00     0.031 H 
ATOM    120  H48 THR d   1      19.401  -3.612 -30.724  0.00  0.00     0.031 H 
ATOM    121  H49 THR d   1      20.351  -2.489 -31.756  0.00  0.00     0.031 H 
ENDBRANCH 114 118
ENDBRANCH  19 114
ENDBRANCH  16  19
ENDBRANCH  13  15
BRANCH  13 122
ATOM    122  CB  ASN d   1      22.906  -9.496 -32.713  0.00  0.00     0.036 C 
ATOM    123  H52 ASN d   1      21.882  -9.881 -32.828  0.00  0.00     0.051 H 
ATOM    124  H53 ASN d   1      23.130  -9.363 -31.644  0.00  0.00     0.051 H 
BRANCH 122 125
ATOM    125  CG  ASN d   1      23.879 -10.521 -33.291  0.00  0.00     0.217 C 
ATOM    126  OD1 ASN d   1      23.463 -11.454 -33.937  0.00  0.00    -0.274 OA
ATOM    127  ND2 ASN d   1      25.169 -10.311 -33.104  0.00  0.00    -0.370 N 
ATOM    128  H54 ASN d   1      25.839 -10.959 -33.467  0.00  0.00     0.159 HD
ATOM    129  H55 ASN d   1      25.476  -9.504 -32.600  0.00  0.00     0.159 HD
ENDBRANCH 122 125
ENDBRANCH  13 122
ENDBRANCH  10  13
ENDBRANCH   7   9
BRANCH   7 130
ATOM    130  CB  TRP d   1      19.801  -8.653 -37.000  0.00  0.00    -0.012 C 
ATOM    131  H58 TRP d   1      19.298  -8.005 -36.267  0.00  0.00     0.044 H 
ATOM    132  H59 TRP d   1      19.599  -9.707 -36.758  0.00  0.00     0.044 H 
BRANCH 130 133
ATOM    133  CG  TRP d   1      19.196  -8.379 -38.320  0.00  0.00    -0.028 A 
ATOM    134  CD1 TRP d   1      19.220  -9.185 -39.426  0.00  0.00    -0.015 A 
ATOM    135  NE1 TRP d   1      18.502  -8.603 -40.458  0.00  0.00    -0.365 N 
ATOM    136  H60 TRP d   1      19.730 -10.145 -39.486  0.00  0.00     0.112 H 
ATOM    137  CE2 TRP d   1      17.988  -7.415 -40.017  0.00  0.00     0.042 A 
ATOM    138  H61 TRP d   1      18.376  -8.999 -41.400  0.00  0.00     0.165 HD
ATOM    139  CD2 TRP d   1      18.401  -7.243 -38.671  0.00  0.00    -0.002 A 
ATOM    140  CZ2 TRP d   1      17.211  -6.480 -40.677  0.00  0.00    -0.056 A 
ATOM    141  CE3 TRP d   1      17.993  -6.098 -37.983  0.00  0.00    -0.070 A 
ATOM    142  CZ3 TRP d   1      17.214  -5.187 -38.639  0.00  0.00    -0.082 A 
ATOM    143  H62 TRP d   1      18.288  -5.936 -36.953  0.00  0.00     0.084 H 
ATOM    144  CH2 TRP d   1      16.835  -5.378 -39.978  0.00  0.00    -0.081 A 
ATOM    145  H64 TRP d   1      16.881  -4.298 -38.115  0.00  0.00     0.083 H 
ATOM    146  H65 TRP d   1      16.226  -4.626 -40.466  0.00  0.00     0.083 H 
ATOM    147  H63 TRP d   1      16.914  -6.621 -41.710  0.00  0.00     0.086 H 
ENDBRANCH 130 133
ENDBRANCH   7 130
ENDBRANCH   4   7
ENDBRANCH   1   3
BRANCH   1 148
ATOM    148  C   LEU d   1      23.287  -4.610 -37.388  0.00  0.00     0.241 C 
ATOM    149  O   LEU d   1      23.781  -4.115 -38.402  0.00  0.00    -0.271 OA
ATOM    150  N   TRP d   1      24.025  -5.071 -36.394  0.00  0.00    -0.346 N 
ATOM    151  H77 TRP d   1      23.578  -5.470 -35.593  0.00  0.00     0.163 HD
BRANCH 150 152
ATOM    152  CA  TRP d   1      25.461  -5.008 -36.446  0.00  0.00     0.093 C 
ATOM    153  H78 TRP d   1      25.761  -3.955 -36.554  0.00  0.00     0.088 H 
BRANCH 152 154
ATOM    154  C   TRP d   1      26.017  -5.796 -37.653  0.00  0.00     0.241 C 
ATOM    155  O   TRP d   1      26.908  -5.334 -38.337  0.00  0.00    -0.271 OA
ATOM    156  N   TYR d   1      25.474  -6.983 -37.875  0.00  0.00    -0.346 N 
ATOM    157  H87 TYR d   1      24.754  -7.295 -37.255  0.00  0.00     0.163 HD
BRANCH 156 158
ATOM    158  CA  TYR d   1      25.866  -7.866 -38.975  0.00  0.00     0.093 C 
ATOM    159  H88 TYR d   1      26.946  -8.062 -38.898  0.00  0.00     0.088 H 
BRANCH 158 160
ATOM    160  C   TYR d   1      25.584  -7.261 -40.359  0.00  0.00     0.241 C 
ATOM    161  O   TYR d   1      26.442  -7.278 -41.248  0.00  0.00    -0.271 OA
ATOM    162  N   ILE d   1      24.388  -6.715 -40.547  0.00  0.00    -0.346 N 
ATOM    163  H96 ILE d   1      23.725  -6.694 -39.799  0.00  0.00     0.163 HD
BRANCH 162 164
ATOM    164  CA  ILE d   1      24.040  -6.145 -41.848  0.00  0.00     0.092 C 
ATOM    165  H97 ILE d   1      24.430  -6.850 -42.597  0.00  0.00     0.088 H 
BRANCH 164 166
ATOM    166  C   ILE d   1      24.739  -4.822 -42.125  0.00  0.00     0.241 C 
ATOM    167  O   ILE d   1      24.935  -4.471 -43.271  0.00  0.00    -0.271 OA
ATOM    168  N   LYS d   1      25.154  -4.097 -41.097  0.00  0.00    -0.346 N 
ATOM    169 7H10 LYS d   1      24.922  -4.378 -40.166  0.00  0.00     0.163 HD
BRANCH 168 170
ATOM    170  CA  LYS d   1      25.956  -2.878 -41.316  0.00  0.00     0.089 C 
ATOM    171 8H10 LYS d   1      25.589  -2.438 -42.255  0.00  0.00     0.087 H 
BRANCH 170 172
ATOM    172  C   LYS d   1      27.472  -3.086 -41.500  0.00  0.00     0.241 C 
ATOM    173  O   LYS d   1      28.148  -2.155 -41.925  0.00  0.00    -0.271 OA
ATOM    174  N   LYS d   1      28.013  -4.261 -41.169  0.00  0.00    -0.346 N 
ATOM    175 0H12 LYS d   1      27.468  -4.926 -40.658  0.00  0.00     0.163 HD
BRANCH 174 176
ATOM    176  CA  LYS d   1      29.407  -4.598 -41.546  0.00  0.00     0.089 C 
ATOM    177 1H12 LYS d   1      30.080  -3.827 -41.142  0.00  0.00     0.087 H 
BRANCH 176 178
ATOM    178  C   LYS d   1      29.567  -4.678 -43.069  0.00  0.00     0.241 C 
ATOM    179  O   LYS d   1      30.396  -3.984 -43.660  0.00  0.00    -0.271 OA
ATOM    180  N   LYS d   1      28.784  -5.571 -43.673  0.00  0.00    -0.345 N 
ATOM    181 3H13 LYS d   1      28.233  -6.178 -43.100  0.00  0.00     0.163 HD
BRANCH 180 182
ATOM    182  CA  LYS d   1      28.682  -5.716 -45.136  0.00  0.00     0.096 C 
ATOM    183 4H13 LYS d   1      29.708  -5.784 -45.528  0.00  0.00     0.089 H 
BRANCH 182 184
ATOM    184  C   LYS d   1      28.022  -4.485 -45.805  0.00  0.00     0.196 C 
ATOM    185  O   LYS d   1      28.298  -4.160 -46.961  0.00  0.00    -0.646 OA
ATOM    186  OXT LYS d   1      27.200  -3.792 -45.202  0.00  0.00    -0.646 OA
ENDBRANCH 182 184
BRANCH 182 187
ATOM    187  CB  LYS d   1      27.954  -7.038 -45.515  0.00  0.00    -0.037 C 
ATOM    188 5H13 LYS d   1      28.682  -7.857 -45.422  0.00  0.00     0.036 H 
ATOM    189 6H13 LYS d   1      27.631  -6.951 -46.563  0.00  0.00     0.036 H 
BRANCH 187 190
ATOM    190  CG  LYS d   1      26.718  -7.416 -44.676  0.00  0.00    -0.061 C 
ATOM    191 7H13 LYS d   1      25.817  -7.189 -45.266  0.00  0.00     0.033 H 
ATOM    192 8H13 LYS d   1      26.721  -6.805 -43.761  0.00  0.00     0.033 H 
BRANCH 190 193
ATOM    193  CD  LYS d   1      26.667  -8.897 -44.267  0.00  0.00    -0.043 C 
ATOM    194 9H13 LYS d   1      26.110  -8.981 -43.322  0.00  0.00     0.035 H 
ATOM    195 0H14 LYS d   1      27.696  -9.255 -44.119  0.00  0.00     0.035 H 
BRANCH 193 196
ATOM    196  CE  LYS d   1      25.987  -9.785 -45.315  0.00  0.00     0.080 C 
ATOM    197 1H14 LYS d   1      26.116 -10.835 -45.013  0.00  0.00     0.075 H 
ATOM    198 2H14 LYS d   1      26.484  -9.618 -46.282  0.00  0.00     0.075 H 
BRANCH 196 199
ATOM    199  NZ  LYS d   1      24.524  -9.525 -45.490  0.00  0.00    -0.079 N 
ATOM    200 3H14 LYS d   1      24.154 -10.146 -46.192  0.00  0.00     0.274 HD
ATOM    201 4H14 LYS d   1      24.385  -8.570 -45.779  0.00  0.00     0.274 HD
ATOM    202 5H14 LYS d   1      24.047  -9.684 -44.616  0.00  0.00     0.274 HD
ENDBRANCH 196 199
ENDBRANCH 193 196
ENDBRANCH 190 193
ENDBRANCH 187 190
ENDBRANCH 182 187
ENDBRANCH 180 182
ENDBRANCH 176 178
BRANCH 176 203
ATOM    203  CB  LYS d   1      29.803  -5.961 -41.005  0.00  0.00    -0.038 C 
ATOM    204 2H12 LYS d   1      30.645  -6.327 -41.611  0.00  0.00     0.036 H 
ATOM    205 3H12 LYS d   1      28.941  -6.632 -41.131  0.00  0.00     0.036 H 
BRANCH 203 206
ATOM    206  CG  LYS d   1      30.222  -6.025 -39.557  0.00  0.00    -0.061 C 
ATOM    207 4H12 LYS d   1      29.343  -5.884 -38.911  0.00  0.00     0.033 H 
ATOM    208 5H12 LYS d   1      30.960  -5.236 -39.350  0.00  0.00     0.033 H 
BRANCH 206 209
ATOM    209  CD  LYS d   1      30.843  -7.390 -39.286  0.00  0.00    -0.043 C 
ATOM    210 6H12 LYS d   1      31.029  -7.483 -38.206  0.00  0.00     0.035 H 
ATOM    211 7H12 LYS d   1      31.797  -7.457 -39.830  0.00  0.00     0.035 H 
BRANCH 209 212
ATOM    212  CE  LYS d   1      29.942  -8.552 -39.731  0.00  0.00     0.080 C 
ATOM    213 8H12 LYS d   1      29.628  -8.375 -40.770  0.00  0.00     0.075 H 
ATOM    214 9H12 LYS d   1      29.056  -8.579 -39.080  0.00  0.00     0.075 H 
BRANCH 212 215
ATOM    215  NZ  LYS d   1      30.626  -9.872 -39.659  0.00  0.00    -0.079 N 
ATOM    216 0H13 LYS d   1      29.992 -10.596 -39.961  0.00  0.00     0.274 HD
ATOM    217 1H13 LYS d   1      30.912 -10.051 -38.709  0.00  0.00     0.274 HD
ATOM    218 2H13 LYS d   1      31.436  -9.864 -40.258  0.00  0.00     0.274 HD
ENDBRANCH 212 215
ENDBRANCH 209 212
ENDBRANCH 206 209
ENDBRANCH 203 206
ENDBRANCH 176 203
ENDBRANCH 174 176
ENDBRANCH 170 172
BRANCH 170 219
ATOM    219  CB  LYS d   1      25.712  -1.853 -40.208  0.00  0.00    -0.038 C 
ATOM    220 9H10 LYS d   1      26.601  -1.213 -40.108  0.00  0.00     0.036 H 
ATOM    221 0H11 LYS d   1      25.533  -2.383 -39.261  0.00  0.00     0.036 H 
BRANCH 219 222
ATOM    222  CG  LYS d   1      24.512  -0.987 -40.526  0.00  0.00    -0.061 C 
ATOM    223 1H11 LYS d   1      23.735  -1.610 -40.994  0.00  0.00     0.033 H 
ATOM    224 2H11 LYS d   1      24.818  -0.195 -41.225  0.00  0.00     0.033 H 
BRANCH 222 225
ATOM    225  CD  LYS d   1      23.947  -0.352 -39.283  0.00  0.00    -0.043 C 
ATOM    226 3H11 LYS d   1      24.718   0.278 -38.816  0.00  0.00     0.035 H 
ATOM    227 4H11 LYS d   1      23.642  -1.141 -38.580  0.00  0.00     0.035 H 
BRANCH 225 228
ATOM    228  CE  LYS d   1      22.738   0.507 -39.628  0.00  0.00     0.080 C 
ATOM    229 5H11 LYS d   1      22.142   0.650 -38.714  0.00  0.00     0.075 H 
ATOM    230 6H11 LYS d   1      22.136  -0.027 -40.378  0.00  0.00     0.075 H 
BRANCH 228 231
ATOM    231  NZ  LYS d   1      23.089   1.853 -40.177  0.00  0.00    -0.079 N 
ATOM    232 7H11 LYS d   1      22.244   2.363 -40.381  0.00  0.00     0.274 HD
ATOM    233 8H11 LYS d   1      23.627   1.741 -41.022  0.00  0.00     0.274 HD
ATOM    234 9H11 LYS d   1      23.633   2.362 -39.498  0.00  0.00     0.274 HD
ENDBRANCH 228 231
ENDBRANCH 225 228
ENDBRANCH 222 225
ENDBRANCH 219 222
ENDBRANCH 170 219
ENDBRANCH 168 170
ENDBRANCH 164 166
BRANCH 164 235
ATOM    235  CB  ILE d   1      22.511  -6.084 -42.085  0.00  0.00    -0.030 C 
ATOM    236  H98 ILE d   1      22.340  -5.731 -43.112  0.00  0.00     0.043 H 
BRANCH 235 237
ATOM    237  CG1 ILE d   1      21.834  -5.096 -41.137  0.00  0.00    -0.063 C 
ATOM    238  H99 ILE d   1      22.113  -4.075 -41.437  0.00  0.00     0.033 H 
ATOM    239 0H10 ILE d   1      22.192  -5.289 -40.115  0.00  0.00     0.033 H 
BRANCH 237 240
ATOM    240  CD1 ILE d   1      20.329  -5.206 -41.148  0.00  0.00    -0.076 C 
ATOM    241 4H10 ILE d   1      19.903  -4.472 -40.448  0.00  0.00     0.027 H 
ATOM    242 5H10 ILE d   1      20.033  -6.220 -40.841  0.00  0.00     0.027 H 
ATOM    243 6H10 ILE d   1      19.954  -5.006 -42.163  0.00  0.00     0.027 H 
ENDBRANCH 237 240
ENDBRANCH 235 237
BRANCH 235 244
ATOM    244  CG2 ILE d   1      21.908  -7.495 -41.961  0.00  0.00    -0.071 C 
ATOM    245 1H10 ILE d   1      22.420  -8.175 -42.657  0.00  0.00     0.028 H 
ATOM    246 2H10 ILE d   1      20.836  -7.459 -42.206  0.00  0.00     0.028 H 
ATOM    247 3H10 ILE d   1      22.037  -7.859 -40.931  0.00  0.00     0.028 H 
ENDBRANCH 235 244
ENDBRANCH 164 235
ENDBRANCH 162 164
ENDBRANCH 158 160
BRANCH 158 248
ATOM    248  CB  TYR d   1      25.111  -9.174 -38.831  0.00  0.00    -0.014 C 
ATOM    249  H89 TYR d   1      24.041  -8.969 -38.981  0.00  0.00     0.043 H 
ATOM    250  H90 TYR d   1      25.273  -9.551 -37.810  0.00  0.00     0.043 H 
BRANCH 248 251
ATOM    251  CG  TYR d   1      25.518 -10.248 -39.793  0.00  0.00    -0.056 A 
ATOM    252  CD1 TYR d   1      26.821 -10.753 -39.790  0.00  0.00    -0.074 A 
ATOM    253  CE1 TYR d   1      27.200 -11.759 -40.679  0.00  0.00    -0.051 A 
ATOM    254  H91 TYR d   1      27.546 -10.358 -39.088  0.00  0.00     0.084 H 
ATOM    255  CZ  TYR d   1      26.266 -12.289 -41.569  0.00  0.00     0.065 A 
ATOM    256  H93 TYR d   1      28.219 -12.128 -40.678  0.00  0.00     0.087 H 
ATOM    257  CE2 TYR d   1      24.959 -11.814 -41.582  0.00  0.00    -0.051 A 
ATOM    258  CD2 TYR d   1      24.590 -10.802 -40.701  0.00  0.00    -0.074 A 
ATOM    259  H94 TYR d   1      24.234 -12.229 -42.273  0.00  0.00     0.087 H 
ATOM    260  H92 TYR d   1      23.571 -10.432 -40.712  0.00  0.00     0.084 H 
BRANCH 255 261
ATOM    261  OH  TYR d   1      26.647 -13.298 -42.429  0.00  0.00    -0.361 OA
ATOM    262  H95 TYR d   1      27.565 -13.501 -42.290  0.00  0.00     0.217 HD
ENDBRANCH 255 261
ENDBRANCH 248 251
ENDBRANCH 158 248
ENDBRANCH 156 158
ENDBRANCH 152 154
BRANCH 152 263
ATOM    263  CB  TRP d   1      26.034  -5.546 -35.144  0.00  0.00    -0.012 C 
ATOM    264  H79 TRP d   1      25.641  -6.561 -34.987  0.00  0.00     0.044 H 
ATOM    265  H80 TRP d   1      25.701  -4.893 -34.324  0.00  0.00     0.044 H 
BRANCH 263 266
ATOM    266  CG  TRP d   1      27.523  -5.610 -35.118  0.00  0.00    -0.028 A 
ATOM    267  CD1 TRP d   1      28.387  -4.612 -34.781  0.00  0.00    -0.015 A 
ATOM    268  NE1 TRP d   1      29.680  -5.063 -34.867  0.00  0.00    -0.365 N 
ATOM    269  H81 TRP d   1      28.095  -3.605 -34.487  0.00  0.00     0.112 H 
ATOM    270  CE2 TRP d   1      29.661  -6.379 -35.244  0.00  0.00     0.042 A 
ATOM    271  H82 TRP d   1      30.525  -4.504 -34.679  0.00  0.00     0.165 HD
ATOM    272  CD2 TRP d   1      28.316  -6.751 -35.413  0.00  0.00    -0.002 A 
ATOM    273  CZ2 TRP d   1      30.714  -7.268 -35.447  0.00  0.00    -0.056 A 
ATOM    274  CE3 TRP d   1      28.015  -8.062 -35.794  0.00  0.00    -0.070 A 
ATOM    275  CZ3 TRP d   1      29.062  -8.950 -35.998  0.00  0.00    -0.082 A 
ATOM    276  H83 TRP d   1      26.987  -8.378 -35.927  0.00  0.00     0.084 H 
ATOM    277  CH2 TRP d   1      30.393  -8.546 -35.827  0.00  0.00    -0.081 A 
ATOM    278  H85 TRP d   1      28.847  -9.970 -36.294  0.00  0.00     0.083 H 
ATOM    279  H86 TRP d   1      31.189  -9.262 -35.999  0.00  0.00     0.083 H 
ATOM    280  H84 TRP d   1      31.745  -6.962 -35.310  0.00  0.00     0.086 H 
ENDBRANCH 263 266
ENDBRANCH 152 263
ENDBRANCH 150 152
ENDBRANCH   1 148
BRANCH   1 281
ATOM    281  CB  LEU d   1      21.250  -3.705 -36.211  0.00  0.00    -0.035 C 
ATOM    282  H68 LEU d   1      21.915  -3.741 -35.336  0.00  0.00     0.037 H 
ATOM    283  H69 LEU d   1      20.239  -4.023 -35.916  0.00  0.00     0.037 H 
BRANCH 281 284
ATOM    284  CG  LEU d   1      21.158  -2.270 -36.642  0.00  0.00    -0.059 C 
ATOM    285  H70 LEU d   1      22.174  -1.879 -36.799  0.00  0.00     0.038 H 
BRANCH 284 286
ATOM    286  CD1 LEU d   1      20.377  -2.132 -37.942  0.00  0.00    -0.073 C 
ATOM    287  H71 LEU d   1      20.328  -1.071 -38.230  0.00  0.00     0.028 H 
ATOM    288  H72 LEU d   1      19.358  -2.521 -37.800  0.00  0.00     0.028 H 
ATOM    289  H73 LEU d   1      20.881  -2.704 -38.735  0.00  0.00     0.028 H 
ENDBRANCH 284 286
BRANCH 284 290
ATOM    290  CD2 LEU d   1      20.475  -1.466 -35.529  0.00  0.00    -0.073 C 
ATOM    291  H74 LEU d   1      21.047  -1.573 -34.596  0.00  0.00     0.028 H 
ATOM    292  H75 LEU d   1      19.453  -1.844 -35.378  0.00  0.00     0.028 H 
ATOM    293  H76 LEU d   1      20.435  -0.405 -35.815  0.00  0.00     0.028 H 
ENDBRANCH 284 290
ENDBRANCH 281 284
ENDBRANCH   1 281
TORSDOF 77
