REMARK WARNING: 32 MAX_TORS EXCEEDED!!!
REMARK  38 active torsions:
REMARK  status: ('A' for Active; 'I' for Inactive)
REMARK    1  A    between atoms: CA_2  and  C_3 
REMARK       I    between atoms: C_3  and  N_8 
REMARK    2  A    between atoms: N_8  and  CA_9 
REMARK    3  A    between atoms: CA_9  and  C_10 
REMARK    4  A    between atoms: CA_9  and  CB_12 
REMARK       I    between atoms: C_10  and  N_15 
REMARK    5  A    between atoms: CB_12  and  CG1_13 
REMARK    6  A    between atoms: CB_12  and  CG2_14 
REMARK    7  A    between atoms: N_15  and  CA_16 
REMARK    8  A    between atoms: CA_16  and  C_17 
REMARK    9  A    between atoms: CA_16  and  CB_19 
REMARK       I    between atoms: C_17  and  N_23 
REMARK   10  A    between atoms: CB_19  and  CG_20 
REMARK   11  A    between atoms: CG_20  and  CD1_21 
REMARK   12  A    between atoms: CG_20  and  CD2_22 
REMARK   13  A    between atoms: N_23  and  CA_24 
REMARK   14  A    between atoms: CA_24  and  C_25 
REMARK   15  A    between atoms: CA_24  and  CB_27 
REMARK       I    between atoms: C_25  and  N_34 
REMARK   16  A    between atoms: CB_27  and  CG_28 
REMARK   17  A    between atoms: CA_35  and  C_36 
REMARK       I    between atoms: C_36  and  N_41 
REMARK   18  A    between atoms: N_41  and  CA_42 
REMARK   19  A    between atoms: CA_42  and  C_43 
REMARK       I    between atoms: C_43  and  N_45 
REMARK   20  A    between atoms: N_45  and  CA_46 
REMARK   21  A    between atoms: CA_46  and  C_47 
REMARK   22  A    between atoms: CA_46  and  CB_49 
REMARK       I    between atoms: C_47  and  N_54 
REMARK   23  A    between atoms: CB_49  and  CG_50 
REMARK   24  A    between atoms: CG_50  and  CD_51 
REMARK       I    between atoms: CD_51  and  NE2_53 
REMARK   25  A    between atoms: CA_55  and  C_56 
REMARK       I    between atoms: C_56  and  N_61 
REMARK   26  A    between atoms: N_61  and  CA_62 
REMARK   27  A    between atoms: CA_62  and  C_63 
REMARK   28  A    between atoms: CA_62  and  CB_65 
REMARK       I    between atoms: C_63  and  N_72 
REMARK   29  A    between atoms: CB_65  and  CG_66 
REMARK   30  A    between atoms: N_72  and  CA_73 
REMARK   31  A    between atoms: CA_73  and  C_74 
REMARK       I    between atoms: C_74  and  N_76 
REMARK   32  A    between atoms: N_76  and  CA_77 
REMARK   33  A    between atoms: CA_77  and  C_78 
REMARK   34  A    between atoms: CA_77  and  CB_80 
REMARK       I    between atoms: C_78  and  N_85 
REMARK   35  A    between atoms: CB_80  and  CG_81 
REMARK   36  A    between atoms: CG_81  and  CD_82 
REMARK       I    between atoms: CD_82  and  NE2_84 
REMARK   37  A    between atoms: CA_86  and  C_87 
REMARK       I    between atoms: C_87  and  N_92 
REMARK   38  A    between atoms: CA_93  and  C_94 
ROOT
ATOM      1  CA  GLN d   1      -0.751 -53.606 -52.639  0.00  0.00     0.090 C 
ATOM      2  H   GLN d   1      -1.274 -52.664 -52.864  0.00  0.00     0.087 H 
ENDROOT
BRANCH   1   3
ATOM      3  N   GLN d   1       0.681 -53.380 -52.793  0.00  0.00    -0.346 N 
ATOM      4  C   GLY d   1       1.237 -52.225 -52.442  0.00  0.00     0.236 C 
ATOM      5  O   GLY d   1       0.598 -51.302 -51.936  0.00  0.00    -0.272 OA
ATOM      6  H   GLN d   1       1.255 -54.107 -53.169  0.00  0.00     0.163 HD
BRANCH   4   7
ATOM      7  CA  GLY d   1       2.725 -52.083 -52.699  0.00  0.00     0.069 C 
ATOM      8  H   GLY d   1       2.864 -51.685 -53.715  0.00  0.00     0.078 H 
ATOM      9  H   GLY d   1       3.136 -51.371 -51.968  0.00  0.00     0.078 H 
BRANCH   7  10
ATOM     10  N   GLY d   1       3.465 -53.326 -52.591  0.00  0.00    -0.351 N 
ATOM     11  C   PRO d   1       3.880 -53.984 -53.669  0.00  0.00     0.241 C 
ATOM     12  O   PRO d   1       3.621 -53.632 -54.820  0.00  0.00    -0.271 OA
ATOM     13  H   GLY d   1       3.668 -53.697 -51.685  0.00  0.00     0.163 HD
BRANCH  11  14
ATOM     14  CA  PRO d   1       4.714 -55.237 -53.424  0.00  0.00     0.091 C 
ATOM     15  N   PRO d   1       4.177 -56.424 -54.101  0.00  0.00    -0.337 N 
ATOM     16  C   PHE d   1       2.931 -56.862 -53.858  0.00  0.00     0.243 C 
ATOM     17  CD  PRO d   1       5.192 -57.083 -54.942  0.00  0.00    -0.001 C 
ATOM     18  O   PHE d   1       2.183 -56.322 -53.042  0.00  0.00    -0.271 OA
ATOM     19  CG  PRO d   1       6.471 -56.445 -54.494  0.00  0.00    -0.048 C 
ATOM     20  H   PRO d   1       5.007 -56.890 -56.009  0.00  0.00     0.064 H 
ATOM     21  H   PRO d   1       5.208 -58.168 -54.764  0.00  0.00     0.064 H 
ATOM     22  CB  PRO d   1       6.106 -55.082 -54.041  0.00  0.00    -0.036 C 
ATOM     23  H   PRO d   1       6.915 -57.017 -53.666  0.00  0.00     0.035 H 
ATOM     24  H   PRO d   1       7.186 -56.393 -55.329  0.00  0.00     0.035 H 
ATOM     25  H   PRO d   1       6.824 -54.717 -53.292  0.00  0.00     0.036 H 
ATOM     26  H   PRO d   1       6.078 -54.385 -54.892  0.00  0.00     0.036 H 
ATOM     27  H   PRO d   1       4.783 -55.413 -52.340  0.00  0.00     0.087 H 
BRANCH  16  28
ATOM     28  CA  PHE d   1       2.464 -58.096 -54.631  0.00  0.00     0.093 C 
ATOM     29  H   PHE d   1       3.327 -58.764 -54.771  0.00  0.00     0.088 H 
BRANCH  28  30
ATOM     30  N   PHE d   1       1.441 -58.816 -53.884  0.00  0.00    -0.346 N 
ATOM     31  C   LEU d   1       1.661 -60.020 -53.367  0.00  0.00     0.241 C 
ATOM     32  O   LEU d   1       2.727 -60.624 -53.492  0.00  0.00    -0.271 OA
ATOM     33  H   PHE d   1       0.545 -58.391 -53.756  0.00  0.00     0.163 HD
BRANCH  31  34
ATOM     34  CA  LEU d   1       0.501 -60.633 -52.592  0.00  0.00     0.089 C 
ATOM     35  H   LEU d   1      -0.421 -60.108 -52.881  0.00  0.00     0.087 H 
BRANCH  34  36
ATOM     36  N   LEU d   1       0.334 -62.047 -52.905  0.00  0.00    -0.346 N 
ATOM     37  C   VAL d   1      -0.751 -62.497 -53.527  0.00  0.00     0.241 C 
ATOM     38  O   VAL d   1      -1.666 -61.760 -53.894  0.00  0.00    -0.271 OA
ATOM     39  H   LEU d   1       1.052 -62.693 -52.646  0.00  0.00     0.163 HD
BRANCH  37  40
ATOM     40  CA  VAL d   1      -0.812 -64.002 -53.771  0.00  0.00     0.092 C 
ATOM     41  H   VAL d   1      -1.622 -64.204 -54.487  0.00  0.00     0.088 H 
BRANCH  40  42
ATOM     42  N   VAL d   1       0.430 -64.508 -54.344  0.00  0.00    -0.346 N 
ATOM     43  C   PRO d   1       0.806 -64.222 -55.587  0.00  0.00     0.249 C 
ATOM     44  O   PRO d   1       0.151 -63.504 -56.342  0.00  0.00    -0.271 OA
ATOM     45  H   VAL d   1       1.019 -65.090 -53.783  0.00  0.00     0.163 HD
BRANCH  43  46
ATOM     46  CA  PRO d   1       2.125 -64.836 -56.055  0.00  0.00     0.178 C 
ATOM     47  N   PRO d   1       1.929 -66.106 -56.764  0.00  0.00    -0.062 N 
ATOM     48  CD  PRO d   1       2.279 -66.005 -58.191  0.00  0.00     0.083 C 
ATOM     49  H   PRO d   1       0.961 -66.376 -56.685  0.00  0.00     0.278 HD
ATOM     50  H   PRO d   1       2.510 -66.810 -56.336  0.00  0.00     0.278 HD
ATOM     51  CG  PRO d   1       2.381 -64.526 -58.414  0.00  0.00    -0.040 C 
ATOM     52  H   PRO d   1       1.493 -66.446 -58.822  0.00  0.00     0.075 H 
ATOM     53  H   PRO d   1       3.238 -66.502 -58.398  0.00  0.00     0.075 H 
ATOM     54  CB  PRO d   1       2.802 -63.949 -57.105  0.00  0.00    -0.028 C 
ATOM     55  H   PRO d   1       3.130 -64.306 -59.189  0.00  0.00     0.035 H 
ATOM     56  H   PRO d   1       1.407 -64.116 -58.718  0.00  0.00     0.035 H 
ATOM     57  H   PRO d   1       3.896 -63.987 -56.998  0.00  0.00     0.036 H 
ATOM     58  H   PRO d   1       2.460 -62.908 -57.012  0.00  0.00     0.036 H 
ATOM     59  H   PRO d   1       2.781 -64.979 -55.184  0.00  0.00     0.099 H 
ENDBRANCH  43  46
ENDBRANCH  40  42
BRANCH  40  60
ATOM     60  CB  VAL d   1      -1.145 -64.716 -52.444  0.00  0.00    -0.033 C 
ATOM     61  H   VAL d   1      -0.263 -64.657 -51.790  0.00  0.00     0.042 H 
BRANCH  60  62
ATOM     62  CG1 VAL d   1      -2.308 -64.033 -51.736  0.00  0.00    -0.071 C 
ATOM     63  H   VAL d   1      -2.525 -64.560 -50.795  0.00  0.00     0.028 H 
ATOM     64  H   VAL d   1      -3.197 -64.058 -52.383  0.00  0.00     0.028 H 
ATOM     65  H   VAL d   1      -2.042 -62.988 -51.518  0.00  0.00     0.028 H 
ENDBRANCH  60  62
BRANCH  60  66
ATOM     66  CG2 VAL d   1      -1.453 -66.182 -52.697  0.00  0.00    -0.071 C 
ATOM     67  H   VAL d   1      -0.600 -66.653 -53.208  0.00  0.00     0.028 H 
ATOM     68  H   VAL d   1      -2.350 -66.265 -53.328  0.00  0.00     0.028 H 
ATOM     69  H   VAL d   1      -1.632 -66.690 -51.738  0.00  0.00     0.028 H 
ENDBRANCH  60  66
ENDBRANCH  40  60
ENDBRANCH  37  40
ENDBRANCH  34  36
BRANCH  34  70
ATOM     70  CB  LEU d   1       0.717 -60.440 -51.089  0.00  0.00    -0.035 C 
ATOM     71  H   LEU d   1       0.982 -59.386 -50.920  0.00  0.00     0.037 H 
ATOM     72  H   LEU d   1       1.556 -61.083 -50.784  0.00  0.00     0.037 H 
BRANCH  70  73
ATOM     73  CG  LEU d   1      -0.476 -60.772 -50.192  0.00  0.00    -0.059 C 
ATOM     74  H   LEU d   1      -0.774 -61.814 -50.383  0.00  0.00     0.038 H 
BRANCH  73  75
ATOM     75  CD1 LEU d   1      -0.103 -60.645 -48.722  0.00  0.00    -0.073 C 
ATOM     76  H   LEU d   1      -0.977 -60.889 -48.100  0.00  0.00     0.028 H 
ATOM     77  H   LEU d   1       0.220 -59.614 -48.513  0.00  0.00     0.028 H 
ATOM     78  H   LEU d   1       0.717 -61.340 -48.490  0.00  0.00     0.028 H 
ENDBRANCH  73  75
BRANCH  73  79
ATOM     79  CD2 LEU d   1      -1.649 -59.868 -50.531  0.00  0.00    -0.073 C 
ATOM     80  H   LEU d   1      -1.900 -59.977 -51.596  0.00  0.00     0.028 H 
ATOM     81  H   LEU d   1      -1.378 -58.822 -50.323  0.00  0.00     0.028 H 
ATOM     82  H   LEU d   1      -2.518 -60.150 -49.919  0.00  0.00     0.028 H 
ENDBRANCH  73  79
ENDBRANCH  70  73
ENDBRANCH  34  70
ENDBRANCH  31  34
ENDBRANCH  28  30
BRANCH  28  83
ATOM     83  CB  PHE d   1       1.933 -57.696 -56.010  0.00  0.00    -0.014 C 
ATOM     84  H   PHE d   1       2.658 -57.012 -56.476  0.00  0.00     0.043 H 
ATOM     85  H   PHE d   1       0.973 -57.176 -55.874  0.00  0.00     0.043 H 
BRANCH  83  86
ATOM     86  CG  PHE d   1       1.715 -58.858 -56.937  0.00  0.00    -0.056 A 
ATOM     87  CD1 PHE d   1       2.782 -59.444 -57.599  0.00  0.00    -0.077 A 
ATOM     88  CE1 PHE d   1       2.585 -60.511 -58.454  0.00  0.00    -0.082 A 
ATOM     89  H   PHE d   1       3.784 -59.060 -57.444  0.00  0.00     0.084 H 
ATOM     90  CZ  PHE d   1       1.313 -61.004 -58.657  0.00  0.00    -0.083 A 
ATOM     91  H   PHE d   1       3.429 -60.960 -58.965  0.00  0.00     0.083 H 
ATOM     92  CE2 PHE d   1       0.240 -60.429 -58.006  0.00  0.00    -0.082 A 
ATOM     93  H   PHE d   1       1.156 -61.842 -59.327  0.00  0.00     0.083 H 
ATOM     94  CD2 PHE d   1       0.443 -59.362 -57.151  0.00  0.00    -0.077 A 
ATOM     95  H   PHE d   1      -0.761 -60.814 -58.165  0.00  0.00     0.083 H 
ATOM     96  H   PHE d   1      -0.403 -58.915 -56.642  0.00  0.00     0.084 H 
ENDBRANCH  83  86
ENDBRANCH  28  83
ENDBRANCH  16  28
ENDBRANCH  11  14
ENDBRANCH   7  10
ENDBRANCH   4   7
ENDBRANCH   1   3
BRANCH   1  97
ATOM     97  C   GLN d   1      -1.087 -54.009 -51.206  0.00  0.00     0.243 C 
ATOM     98  O   GLN d   1      -0.311 -54.703 -50.551  0.00  0.00    -0.271 OA
ATOM     99  N   PRO d   1      -2.244 -53.551 -50.708  0.00  0.00    -0.337 N 
ATOM    100  CA  PRO d   1      -2.710 -53.871 -49.354  0.00  0.00     0.091 C 
ATOM    101  CD  PRO d   1      -3.118 -52.569 -51.370  0.00  0.00    -0.001 C 
ATOM    102  CB  PRO d   1      -3.999 -53.052 -49.224  0.00  0.00    -0.036 C 
ATOM    103  H   PRO d   1      -1.968 -53.552 -48.608  0.00  0.00     0.087 H 
ATOM    104  CG  PRO d   1      -3.859 -51.961 -50.224  0.00  0.00    -0.048 C 
ATOM    105  H   PRO d   1      -4.094 -52.638 -48.209  0.00  0.00     0.036 H 
ATOM    106  H   PRO d   1      -4.878 -53.674 -49.450  0.00  0.00     0.036 H 
ATOM    107  H   PRO d   1      -3.290 -51.120 -49.800  0.00  0.00     0.035 H 
ATOM    108  H   PRO d   1      -4.848 -51.607 -50.549  0.00  0.00     0.035 H 
ATOM    109  H   PRO d   1      -3.808 -53.062 -52.071  0.00  0.00     0.064 H 
ATOM    110  H   PRO d   1      -2.528 -51.812 -51.907  0.00  0.00     0.064 H 
BRANCH 100 111
ATOM    111  C   PRO d   1      -2.994 -55.361 -49.164  0.00  0.00     0.241 C 
ATOM    112  O   PRO d   1      -3.088 -56.103 -50.144  0.00  0.00    -0.271 OA
ATOM    113  N   PHE d   1      -3.117 -55.787 -47.911  0.00  0.00    -0.346 N 
ATOM    114  H   PHE d   1      -2.981 -55.138 -47.162  0.00  0.00     0.163 HD
BRANCH 113 115
ATOM    115  CA  PHE d   1      -3.445 -57.173 -47.596  0.00  0.00     0.093 C 
ATOM    116  H   PHE d   1      -2.793 -57.828 -48.193  0.00  0.00     0.088 H 
BRANCH 115 117
ATOM    117  C   PHE d   1      -4.899 -57.479 -47.955  0.00  0.00     0.241 C 
ATOM    118  O   PHE d   1      -5.795 -56.681 -47.678  0.00  0.00    -0.271 OA
ATOM    119  N   GLY d   1      -5.128 -58.635 -48.571  0.00  0.00    -0.351 N 
ATOM    120  H   GLY d   1      -4.357 -59.236 -48.781  0.00  0.00     0.163 HD
BRANCH 119 121
ATOM    121  CA  GLY d   1      -6.469 -59.048 -48.947  0.00  0.00     0.069 C 
ATOM    122  H   GLY d   1      -7.158 -58.781 -48.132  0.00  0.00     0.078 H 
ATOM    123  H   GLY d   1      -6.472 -60.139 -49.087  0.00  0.00     0.078 H 
BRANCH 121 124
ATOM    124  C   GLY d   1      -6.962 -58.397 -50.226  0.00  0.00     0.236 C 
ATOM    125  O   GLY d   1      -8.150 -58.463 -50.550  0.00  0.00    -0.272 OA
ATOM    126  N   GLN d   1      -6.046 -57.770 -50.956  0.00  0.00    -0.346 N 
ATOM    127  H   GLN d   1      -5.098 -57.757 -50.639  0.00  0.00     0.163 HD
BRANCH 126 128
ATOM    128  CA  GLN d   1      -6.384 -57.101 -52.206  0.00  0.00     0.090 C 
ATOM    129  H   GLN d   1      -7.361 -56.612 -52.082  0.00  0.00     0.087 H 
BRANCH 128 130
ATOM    130  C   GLN d   1      -6.489 -58.097 -53.356  0.00  0.00     0.243 C 
ATOM    131  O   GLN d   1      -5.519 -58.787 -53.674  0.00  0.00    -0.271 OA
ATOM    132  N   PRO d   1      -7.673 -58.171 -53.985  0.00  0.00    -0.337 N 
ATOM    133  CA  PRO d   1      -7.918 -59.060 -55.126  0.00  0.00     0.092 C 
ATOM    134  CD  PRO d   1      -8.869 -57.388 -53.629  0.00  0.00    -0.001 C 
ATOM    135  CB  PRO d   1      -9.418 -58.885 -55.391  0.00  0.00    -0.036 C 
ATOM    136  H   PRO d   1      -7.688 -60.102 -54.859  0.00  0.00     0.087 H 
ATOM    137  CG  PRO d   1      -9.746 -57.540 -54.837  0.00  0.00    -0.048 C 
ATOM    138  H   PRO d   1      -9.996 -59.667 -54.878  0.00  0.00     0.036 H 
ATOM    139  H   PRO d   1      -9.628 -58.922 -56.470  0.00  0.00     0.036 H 
ATOM    140  H   PRO d   1     -10.807 -57.488 -54.552  0.00  0.00     0.035 H 
ATOM    141  H   PRO d   1      -9.526 -56.755 -55.575  0.00  0.00     0.035 H 
ATOM    142  H   PRO d   1      -8.613 -56.332 -53.457  0.00  0.00     0.064 H 
ATOM    143  H   PRO d   1      -9.357 -57.798 -52.732  0.00  0.00     0.064 H 
BRANCH 133 144
ATOM    144  C   PRO d   1      -7.096 -58.669 -56.353  0.00  0.00     0.243 C 
ATOM    145  O   PRO d   1      -6.838 -57.482 -56.556  0.00  0.00    -0.271 OA
ATOM    146  N   PRO d   1      -6.686 -59.663 -57.160  0.00  0.00    -0.336 N 
ATOM    147  CA  PRO d   1      -5.863 -59.442 -58.356  0.00  0.00     0.098 C 
ATOM    148  CD  PRO d   1      -6.958 -61.094 -56.939  0.00  0.00    -0.001 C 
ATOM    149  CB  PRO d   1      -5.712 -60.851 -58.943  0.00  0.00    -0.035 C 
ATOM    150  H   PRO d   1      -4.883 -59.028 -58.075  0.00  0.00     0.089 H 
ATOM    151  CG  PRO d   1      -5.925 -61.768 -57.789  0.00  0.00    -0.048 C 
ATOM    152  H   PRO d   1      -4.706 -60.989 -59.367  0.00  0.00     0.036 H 
ATOM    153  H   PRO d   1      -6.466 -61.029 -59.724  0.00  0.00     0.036 H 
ATOM    154  H   PRO d   1      -4.990 -61.903 -57.226  0.00  0.00     0.035 H 
ATOM    155  H   PRO d   1      -6.289 -62.746 -58.136  0.00  0.00     0.035 H 
ATOM    156  H   PRO d   1      -7.974 -61.359 -57.267  0.00  0.00     0.064 H 
ATOM    157  H   PRO d   1      -6.834 -61.361 -55.879  0.00  0.00     0.064 H 
BRANCH 147 158
ATOM    158  C   PRO d   1      -6.523 -58.508 -59.367  0.00  0.00     0.196 C 
ATOM    159  O   PRO d   1      -5.879 -58.152 -60.354  0.00  0.00    -0.646 OA
ATOM    160  O1  PRO d   1      -7.705 -58.109 -59.194  0.00  0.00    -0.646 OA
ENDBRANCH 147 158
ENDBRANCH 133 144
ENDBRANCH 128 130
BRANCH 128 161
ATOM    161  CB  GLN d   1      -5.342 -56.029 -52.534  0.00  0.00    -0.030 C 
ATOM    162  H   GLN d   1      -4.359 -56.516 -52.609  0.00  0.00     0.037 H 
ATOM    163  H   GLN d   1      -5.328 -55.299 -51.711  0.00  0.00     0.037 H 
BRANCH 161 164
ATOM    164  CG  GLN d   1      -5.603 -55.281 -53.830  0.00  0.00     0.011 C 
ATOM    165  H   GLN d   1      -5.707 -56.013 -54.644  0.00  0.00     0.047 H 
ATOM    166  H   GLN d   1      -4.745 -54.624 -54.036  0.00  0.00     0.047 H 
BRANCH 164 167
ATOM    167  CD  GLN d   1      -6.859 -54.436 -53.774  0.00  0.00     0.215 C 
ATOM    168  OE1 GLN d   1      -7.679 -54.460 -54.693  0.00  0.00    -0.274 OA
ATOM    169  NE2 GLN d   1      -7.015 -53.677 -52.696  0.00  0.00    -0.370 N 
ATOM    170  H   GLN d   1      -7.825 -53.098 -52.605  0.00  0.00     0.159 HD
ATOM    171  H   GLN d   1      -6.322 -53.684 -51.975  0.00  0.00     0.159 HD
ENDBRANCH 164 167
ENDBRANCH 161 164
ENDBRANCH 128 161
ENDBRANCH 126 128
ENDBRANCH 121 124
ENDBRANCH 119 121
ENDBRANCH 115 117
BRANCH 115 172
ATOM    172  CB  PHE d   1      -3.197 -57.464 -46.112  0.00  0.00    -0.014 C 
ATOM    173  H   PHE d   1      -3.585 -58.469 -45.888  0.00  0.00     0.043 H 
ATOM    174  H   PHE d   1      -3.745 -56.718 -45.517  0.00  0.00     0.043 H 
BRANCH 172 175
ATOM    175  CG  PHE d   1      -1.746 -57.416 -45.710  0.00  0.00    -0.056 A 
ATOM    176  CD1 PHE d   1      -1.149 -56.220 -45.343  0.00  0.00    -0.077 A 
ATOM    177  CE1 PHE d   1       0.184 -56.177 -44.969  0.00  0.00    -0.082 A 
ATOM    178  H   PHE d   1      -1.733 -55.307 -45.349  0.00  0.00     0.084 H 
ATOM    179  CZ  PHE d   1       0.932 -57.337 -44.952  0.00  0.00    -0.083 A 
ATOM    180  H   PHE d   1       0.639 -55.234 -44.690  0.00  0.00     0.083 H 
ATOM    181  CE2 PHE d   1       0.349 -58.536 -45.309  0.00  0.00    -0.082 A 
ATOM    182  H   PHE d   1       1.975 -57.306 -44.659  0.00  0.00     0.083 H 
ATOM    183  CD2 PHE d   1      -0.984 -58.573 -45.683  0.00  0.00    -0.077 A 
ATOM    184  H   PHE d   1       0.934 -59.448 -45.297  0.00  0.00     0.083 H 
ATOM    185  H   PHE d   1      -1.437 -59.519 -45.958  0.00  0.00     0.084 H 
ENDBRANCH 172 175
ENDBRANCH 115 172
ENDBRANCH 113 115
ENDBRANCH 100 111
ENDBRANCH   1  97
BRANCH   1 186
ATOM    186  CB  GLN d   1      -1.240 -54.674 -53.623  0.00  0.00    -0.030 C 
ATOM    187  H   GLN d   1      -0.762 -54.488 -54.596  0.00  0.00     0.037 H 
ATOM    188  H   GLN d   1      -2.330 -54.572 -53.725  0.00  0.00     0.037 H 
BRANCH 186 189
ATOM    189  CG  GLN d   1      -0.935 -56.104 -53.213  0.00  0.00     0.011 C 
ATOM    190  H   GLN d   1      -1.396 -56.296 -52.233  0.00  0.00     0.047 H 
ATOM    191  H   GLN d   1       0.156 -56.223 -53.135  0.00  0.00     0.047 H 
BRANCH 189 192
ATOM    192  CD  GLN d   1      -1.464 -57.118 -54.204  0.00  0.00     0.215 C 
ATOM    193  OE1 GLN d   1      -1.314 -56.955 -55.415  0.00  0.00    -0.274 OA
ATOM    194  NE2 GLN d   1      -2.093 -58.171 -53.694  0.00  0.00    -0.370 N 
ATOM    195  H   GLN d   1      -2.464 -58.874 -54.301  0.00  0.00     0.159 HD
ATOM    196  H   GLN d   1      -2.196 -58.261 -52.703  0.00  0.00     0.159 HD
ENDBRANCH 189 192
ENDBRANCH 186 189
ENDBRANCH   1 186
TORSDOF 38
