REMARK  5 active torsions:
REMARK  status: ('A' for Active; 'I' for Inactive)
REMARK       I    between atoms: C11_15  and  N4_11 
REMARK    1  A    between atoms: C12_16  and  C11_15 
REMARK    2  A    between atoms: N25_26  and  C27_27 
REMARK    3  A    between atoms: C27_27  and  C28_28 
REMARK    4  A    between atoms: C27_27  and  C29_29 
REMARK    5  A    between atoms: C27_27  and  C30_30 
ROOT
ATOM      1  C6  3W2 d   1      11.507 -10.353 -18.837  0.00  0.00    -0.020 C 
ATOM      2  C9  3W2 d   1      10.060 -10.977 -22.350  0.00  0.00     0.185 C 
ATOM      3  C8  3W2 d   1      10.700 -11.271 -20.989  0.00  0.00     0.026 C 
ATOM      4  C26 3W2 d   1      10.188  -7.366 -22.478  0.00  0.00     0.034 A 
ATOM      5  C1  3W2 d   1      10.520 -10.097 -20.002  0.00  0.00     0.078 C 
ATOM      6  C2  3W2 d   1       9.036 -10.078 -19.551  0.00  0.00    -0.020 C 
ATOM      7  C3  3W2 d   1       8.835  -9.161 -18.334  0.00  0.00     0.001 C 
ATOM      8  N4  3W2 d   1       9.782  -9.563 -17.267  0.00  0.00    -0.348 N 
ATOM      9  C5  3W2 d   1      11.229  -9.495 -17.592  0.00  0.00     0.001 C 
ATOM     10  O7  3W2 d   1      10.858  -8.812 -20.589  0.00  0.00    -0.336 OA
ATOM     11  O10 3W2 d   1       9.643 -11.855 -23.081  0.00  0.00    -0.290 OA
ATOM     12  C11 3W2 d   1       9.339  -9.966 -16.037  0.00  0.00     0.253 C 
ATOM     13  O13 3W2 d   1      10.134 -10.307 -15.180  0.00  0.00    -0.267 OA
ATOM     14  C22 3W2 d   1      10.385  -8.524 -21.829  0.00  0.00     0.121 A 
ATOM     15  C23 3W2 d   1      10.005  -9.561 -22.747  0.00  0.00     0.157 A 
ATOM     16  N24 3W2 d   1       9.561  -8.988 -23.825  0.00  0.00    -0.166 NA
ATOM     17  N25 3W2 d   1       9.679  -7.697 -23.710  0.00  0.00    -0.269 N 
ATOM     18  H1  3W2 d   1      12.525 -10.133 -19.190  0.00  0.00     0.040 H 
ATOM     19  H2  3W2 d   1      11.439 -11.413 -18.551  0.00  0.00     0.040 H 
ATOM     20  H3  3W2 d   1      11.775 -11.452 -21.133  0.00  0.00     0.049 H 
ATOM     21  H4  3W2 d   1      10.231 -12.170 -20.562  0.00  0.00     0.049 H 
ATOM     22  H7  3W2 d   1      10.391  -6.364 -22.103  0.00  0.00     0.118 H 
ATOM     23  H8  3W2 d   1       8.729 -11.100 -19.284  0.00  0.00     0.040 H 
ATOM     24  H9  3W2 d   1       8.414  -9.713 -20.381  0.00  0.00     0.040 H 
ATOM     25  H10 3W2 d   1       7.803  -9.257 -17.966  0.00  0.00     0.064 H 
ATOM     26  H11 3W2 d   1       9.026  -8.117 -18.623  0.00  0.00     0.064 H 
ATOM     27  H12 3W2 d   1      11.512  -8.451 -17.793  0.00  0.00     0.064 H 
ATOM     28  H13 3W2 d   1      11.815  -9.877 -16.743  0.00  0.00     0.064 H 
ENDROOT
BRANCH  12  29
ATOM     29  C12 3W2 d   1       7.887 -10.030 -15.725  0.00  0.00     0.033 A 
ATOM     30  C16 3W2 d   1       7.344 -11.285 -15.401  0.00  0.00    -0.066 A 
ATOM     31  C15 3W2 d   1       5.995 -11.449 -15.231  0.00  0.00    -0.054 A 
ATOM     32  H5  3W2 d   1       8.004 -12.137 -15.284  0.00  0.00     0.085 H 
ATOM     33  C17 3W2 d   1       5.127 -10.351 -15.299  0.00  0.00     0.061 A 
ATOM     34  H15 3W2 d   1       5.595 -12.438 -15.042  0.00  0.00     0.087 H 
ATOM     35  C18 3W2 d   1       5.655  -9.064 -15.603  0.00  0.00     0.012 A 
ATOM     36  N21 3W2 d   1       3.783 -10.205 -15.086  0.00  0.00    -0.278 N 
ATOM     37  C19 3W2 d   1       4.515  -8.160 -15.584  0.00  0.00     0.034 A 
ATOM     38  C14 3W2 d   1       7.038  -8.909 -15.840  0.00  0.00    -0.054 A 
ATOM     39  N20 3W2 d   1       3.454  -8.857 -15.276  0.00  0.00    -0.186 NA
ATOM     40  H6  3W2 d   1       4.542  -7.091 -15.790  0.00  0.00     0.118 H 
ATOM     41  H14 3W2 d   1       7.443  -7.940 -16.107  0.00  0.00     0.086 H 
ATOM     42  H16 3W2 d   1       3.127 -10.957 -14.830  0.00  0.00     0.189 HD
ENDBRANCH  12  29
BRANCH  17  43
ATOM     43  C27 3W2 d   1       9.321  -6.764 -24.785  0.00  0.00     0.044 C 
BRANCH  43  44
ATOM     44  C28 3W2 d   1       7.880  -7.066 -25.219  0.00  0.00    -0.052 C 
ATOM     45  H17 3W2 d   1       7.588  -6.378 -26.026  0.00  0.00     0.030 H 
ATOM     46  H18 3W2 d   1       7.204  -6.934 -24.362  0.00  0.00     0.030 H 
ATOM     47  H19 3W2 d   1       7.816  -8.103 -25.580  0.00  0.00     0.030 H 
ENDBRANCH  43  44
BRANCH  43  48
ATOM     48  C29 3W2 d   1       9.479  -5.308 -24.311  0.00  0.00    -0.052 C 
ATOM     49  H20 3W2 d   1       9.207  -4.625 -25.129  0.00  0.00     0.030 H 
ATOM     50  H21 3W2 d   1      10.524  -5.130 -24.017  0.00  0.00     0.030 H 
ATOM     51  H22 3W2 d   1       8.819  -5.129 -23.449  0.00  0.00     0.030 H 
ENDBRANCH  43  48
BRANCH  43  52
ATOM     52  C30 3W2 d   1      10.269  -7.006 -25.970  0.00  0.00    -0.052 C 
ATOM     53  H23 3W2 d   1      10.017  -6.315 -26.788  0.00  0.00     0.030 H 
ATOM     54  H24 3W2 d   1      10.161  -8.043 -26.320  0.00  0.00     0.030 H 
ATOM     55  H25 3W2 d   1      11.307  -6.832 -25.650  0.00  0.00     0.030 H 
ENDBRANCH  43  52
ENDBRANCH  17  43
TORSDOF 5
