REMARK  7 active torsions:
REMARK  status: ('A' for Active; 'I' for Inactive)
REMARK    1  A    between atoms: P_1  and  O5'_5 
REMARK    2  A    between atoms: O5'_5  and  C5'_6 
REMARK    3  A    between atoms: C5'_6  and  C4'_7 
REMARK    4  A    between atoms: C3'_9  and  O3'_10 
REMARK    5  A    between atoms: C2'_11  and  O2'_12 
REMARK    6  A    between atoms: C1'_13  and  N9_14 
REMARK    7  A    between atoms: C6_18  and  N6_19 
ROOT
ATOM      1  C4' AMP d   1      21.070  -5.699   1.693  0.00  0.00     0.089 C 
ATOM      2  O4' AMP d   1      21.929  -5.039   0.729  0.00  0.00    -0.353 OA
ATOM      3  C3' AMP d   1      20.884  -4.719   2.853  0.00  0.00     0.091 C 
ATOM      4  C2' AMP d   1      21.394  -3.394   2.294  0.00  0.00     0.105 C 
ATOM      5  C1' AMP d   1      22.432  -3.847   1.285  0.00  0.00     0.139 C 
ATOM      6  H3  AMP d   1      21.583  -6.589   2.087  0.00  0.00     0.090 H 
ATOM      7  H4  AMP d   1      19.835  -4.656   3.177  0.00  0.00     0.091 H 
ATOM      8  H6  AMP d   1      20.578  -2.846   1.801  0.00  0.00     0.093 H 
ATOM      9  H8  AMP d   1      23.374  -4.043   1.818  0.00  0.00     0.122 H 
ENDROOT
BRANCH   5  10
ATOM     10  N9  AMP d   1      22.718  -2.926   0.178  0.00  0.00    -0.294 N 
ATOM     11  C8  AMP d   1      21.981  -2.743  -0.930  0.00  0.00     0.071 A 
ATOM     12  N7  AMP d   1      22.603  -1.876  -1.748  0.00  0.00    -0.236 NA
ATOM     13  H9  AMP d   1      21.025  -3.224  -1.135  0.00  0.00     0.144 H 
ATOM     14  C5  AMP d   1      23.762  -1.518  -1.155  0.00  0.00     0.149 A 
ATOM     15  C6  AMP d   1      24.811  -0.657  -1.514  0.00  0.00     0.155 A 
ATOM     16  C4  AMP d   1      23.844  -2.190   0.058  0.00  0.00     0.167 A 
ATOM     17  N1  AMP d   1      25.856  -0.508  -0.677  0.00  0.00    -0.222 NA
ATOM     18  C2  AMP d   1      25.881  -1.161   0.488  0.00  0.00     0.091 A 
ATOM     19  N3  AMP d   1      24.906  -2.003   0.859  0.00  0.00    -0.222 NA
ATOM     20  H12 AMP d   1      26.719  -1.005   1.157  0.00  0.00     0.146 H 
BRANCH  15  21
ATOM     21  N6  AMP d   1      24.759   0.052  -2.761  0.00  0.00    -0.382 N 
ATOM     22  H10 AMP d   1      25.528   0.684  -3.026  0.00  0.00     0.157 HD
ATOM     23  H11 AMP d   1      23.953  -0.071  -3.390  0.00  0.00     0.157 HD
ENDBRANCH  15  21
ENDBRANCH   5  10
BRANCH   4  24
ATOM     24  O2' AMP d   1      21.977  -2.560   3.270  0.00  0.00    -0.388 OA
ATOM     25  H7  AMP d   1      22.716  -3.006   3.666  0.00  0.00     0.210 HD
ENDBRANCH   4  24
BRANCH   1  26
ATOM     26  C5' AMP d   1      19.819  -6.178   0.995  0.00  0.00     0.059 C 
ATOM     27  H1  AMP d   1      20.109  -6.805   0.139  0.00  0.00     0.079 H 
ATOM     28  H2  AMP d   1      19.225  -6.775   1.702  0.00  0.00     0.079 H 
BRANCH  26  29
ATOM     29  O5' AMP d   1      19.026  -5.105   0.526  0.00  0.00    -0.280 OA
BRANCH  29  30
ATOM     30  P   AMP d   1      17.879  -5.344  -0.565  0.00  0.00     0.422 P 
ATOM     31  O1P AMP d   1      18.558  -5.348  -1.913  0.00  0.00    -0.617 OA
ATOM     32  O2P AMP d   1      17.102  -6.616  -0.250  0.00  0.00    -0.617 OA
ATOM     33  O3P AMP d   1      17.062  -4.123  -0.349  0.00  0.00    -0.617 OA
ENDBRANCH  29  30
ENDBRANCH  26  29
ENDBRANCH   1  26
BRANCH   3  34
ATOM     34  O3' AMP d   1      21.735  -5.117   3.934  0.00  0.00    -0.390 OA
ATOM     35  H5  AMP d   1      21.626  -4.514   4.660  0.00  0.00     0.210 HD
ENDBRANCH   3  34
TORSDOF 7
