REMARK  7 active torsions:
REMARK  status: ('A' for Active; 'I' for Inactive)
REMARK    1  A    between atoms: C2_2  and  O3_21 
REMARK    2  A    between atoms: C3_3  and  C10_8 
REMARK    3  A    between atoms: B_17  and  O4_4 
REMARK    4  A    between atoms: C7_5  and  C8_6 
REMARK    5  A    between atoms: C6_15  and  C7_5 
REMARK    6  A    between atoms: C4_20  and  C9_7 
REMARK    7  A    between atoms: O3_21  and  C11_9 
ROOT
ATOM      1  C1  3VT d   1      -6.603 -12.212  19.274  0.00  0.00    -0.048 A 
ATOM      2  C2  3VT d   1      -6.486 -13.560  19.585  0.00  0.00     0.084 A 
ATOM      3  C3  3VT d   1      -5.248 -14.205  19.639  0.00  0.00    -0.021 A 
ATOM      4  C6  3VT d   1      -3.132 -11.155  18.565  0.00  0.00     0.057 C 
ATOM      5  O   3VT d   1      -3.775  -9.891  18.545  0.00  0.00    -0.414 OA
ATOM      6  B   3VT d   1      -5.113 -10.091  18.217  0.00  0.00     0.533 B 
ATOM      7  C5  3VT d   1      -4.209 -12.117  19.016  0.00  0.00    -0.023 A 
ATOM      8  C   3VT d   1      -5.472 -11.455  18.933  0.00  0.00    -0.020 A 
ATOM      9  C4  3VT d   1      -4.085 -13.480  19.345  0.00  0.00    -0.045 A 
ATOM     10  H   3VT d   1      -7.578 -11.739  19.295  0.00  0.00     0.087 H 
ATOM     11  H   3VT d   1      -2.295 -11.155  19.279  0.00  0.00     0.089 H 
ENDROOT
BRANCH   2  12
ATOM     12  O3  3VT d   1      -7.654 -14.312  19.857  0.00  0.00    -0.290 OA
BRANCH  12  13
ATOM     13  C11 3VT d   1      -8.550 -14.589  18.859  0.00  0.00     0.187 A 
ATOM     14  C12 3VT d   1      -8.231 -14.260  17.515  0.00  0.00     0.053 A 
ATOM     15  N   3VT d   1      -9.074 -14.559  16.515  0.00  0.00    -0.267 NA
ATOM     16  H   3VT d   1      -7.294 -13.761  17.294  0.00  0.00     0.121 H 
ATOM     17  C13 3VT d   1     -10.208 -15.178  16.850  0.00  0.00     0.019 A 
ATOM     18  C14 3VT d   1     -10.502 -15.509  18.164  0.00  0.00     0.022 A 
ATOM     19  H   3VT d   1     -10.920 -15.429  16.072  0.00  0.00     0.117 H 
ATOM     20  N1  3VT d   1      -9.676 -15.203  19.183  0.00  0.00    -0.234 NA
ATOM     21  H   3VT d   1     -11.427 -16.031  18.378  0.00  0.00     0.117 H 
ENDBRANCH  12  13
ENDBRANCH   2  12
BRANCH   3  22
ATOM     22  C10 3VT d   1      -5.145 -15.662  20.018  0.00  0.00    -0.048 C 
ATOM     23  H   3VT d   1      -6.151 -16.062  20.212  0.00  0.00     0.033 H 
ATOM     24  H   3VT d   1      -4.529 -15.763  20.924  0.00  0.00     0.033 H 
ATOM     25  H   3VT d   1      -4.680 -16.223  19.194  0.00  0.00     0.033 H 
ENDBRANCH   3  22
BRANCH   9  26
ATOM     26  C9  3VT d   1      -2.725 -14.154  19.387  0.00  0.00    -0.050 C 
ATOM     27  H   3VT d   1      -2.848 -15.212  19.663  0.00  0.00     0.033 H 
ATOM     28  H   3VT d   1      -2.090 -13.652  20.132  0.00  0.00     0.033 H 
ATOM     29  H   3VT d   1      -2.251 -14.086  18.396  0.00  0.00     0.033 H 
ENDBRANCH   9  26
BRANCH   6  30
ATOM     30  O4  3VT d   1      -5.604 -10.053  16.944  0.00  0.00    -0.433 OA
ATOM     31  H   3VT d   1      -6.540 -10.217  16.962  0.00  0.00     0.185 HD
ENDBRANCH   6  30
BRANCH   4  32
ATOM     32  C7  3VT d   1      -2.595 -11.504  17.145  0.00  0.00     0.042 C 
ATOM     33  H   3VT d   1      -1.969 -12.404  17.229  0.00  0.00     0.053 H 
ATOM     34  H   3VT d   1      -3.458 -11.717  16.497  0.00  0.00     0.053 H 
BRANCH  32  35
ATOM     35  C8  3VT d   1      -1.770 -10.418  16.487  0.00  0.00     0.175 C 
ATOM     36  O1  3VT d   1      -0.904  -9.857  17.227  0.00  0.00    -0.648 OA
ATOM     37  O2  3VT d   1      -1.917 -10.104  15.297  0.00  0.00    -0.648 OA
ENDBRANCH  32  35
ENDBRANCH   4  32
TORSDOF 7
