REMARK  6 active torsions:
REMARK  status: ('A' for Active; 'I' for Inactive)
REMARK    1  A    between atoms: C1'_21  and  N1_1 
REMARK    2  A    between atoms: O3'_18  and  P_9 
REMARK    3  A    between atoms: C5'_14  and  O5'_13 
REMARK    4  A    between atoms: C4'_15  and  C5'_14 
REMARK    5  A    between atoms: C3'_17  and  O3'_18 
REMARK    6  A    between atoms: C2'_19  and  O2'_20 
ROOT
ATOM      1  C4' U3P d   1       3.057 -22.831 -29.538  0.00  0.00     0.089 C 
ATOM      2  O4' U3P d   1       3.412 -23.303 -28.252  0.00  0.00    -0.353 OA
ATOM      3  C3' U3P d   1       4.280 -22.708 -30.402  0.00  0.00     0.107 C 
ATOM      4  C2' U3P d   1       5.279 -23.498 -29.668  0.00  0.00     0.106 C 
ATOM      5  C1' U3P d   1       4.806 -23.348 -28.263  0.00  0.00     0.141 C 
ATOM      6  H7  U3P d   1       2.623 -21.826 -29.431  0.00  0.00     0.090 H 
ATOM      7  H8  U3P d   1       4.112 -23.147 -31.396  0.00  0.00     0.092 H 
ATOM      8  H9  U3P d   1       5.247 -24.552 -29.981  0.00  0.00     0.093 H 
ATOM      9  H11 U3P d   1       5.217 -22.413 -27.853  0.00  0.00     0.123 H 
ENDROOT
BRANCH   5  10
ATOM     10  N1  U3P d   1       5.178 -24.438 -27.410  0.00  0.00    -0.280 N 
ATOM     11  C2  U3P d   1       6.116 -24.274 -26.340  0.00  0.00     0.331 A 
ATOM     12  N3  U3P d   1       6.432 -25.399 -25.511  0.00  0.00    -0.275 N 
ATOM     13  O2  U3P d   1       6.664 -23.197 -26.143  0.00  0.00    -0.246 OA
ATOM     14  C4  U3P d   1       5.849 -26.653 -25.729  0.00  0.00     0.250 A 
ATOM     15  H1  U3P d   1       7.083 -25.286 -24.760  0.00  0.00     0.173 HD
ATOM     16  C5  U3P d   1       4.861 -26.821 -26.829  0.00  0.00    -0.002 A 
ATOM     17  O4  U3P d   1       6.161 -27.582 -24.977  0.00  0.00    -0.268 OA
ATOM     18  C6  U3P d   1       4.544 -25.734 -27.630  0.00  0.00    -0.008 A 
ATOM     19  H2  U3P d   1       4.391 -27.788 -27.003  0.00  0.00     0.094 H 
ATOM     20  H3  U3P d   1       3.815 -25.849 -28.431  0.00  0.00     0.112 H 
ENDBRANCH   5  10
BRANCH   4  21
ATOM     21  O2' U3P d   1       6.550 -23.031 -29.836  0.00  0.00    -0.388 OA
ATOM     22  H10 U3P d   1       7.154 -23.574 -29.343  0.00  0.00     0.210 HD
ENDBRANCH   4  21
BRANCH   1  23
ATOM     23  C5' U3P d   1       1.992 -23.735 -30.134  0.00  0.00     0.043 C 
ATOM     24  H5  U3P d   1       1.077 -23.673 -29.526  0.00  0.00     0.078 H 
ATOM     25  H6  U3P d   1       1.772 -23.412 -31.162  0.00  0.00     0.078 H 
BRANCH  23  26
ATOM     26  O5' U3P d   1       2.442 -25.027 -30.149  0.00  0.00    -0.398 OA
ATOM     27  H4  U3P d   1       3.232 -25.080 -30.674  0.00  0.00     0.209 HD
ENDBRANCH  23  26
ENDBRANCH   1  23
BRANCH   3  28
ATOM     28  O3' U3P d   1       4.589 -21.361 -30.553  0.00  0.00    -0.272 OA
BRANCH  28  29
ATOM     29  P   U3P d   1       4.885 -20.770 -31.970  0.00  0.00     0.422 P 
ATOM     30  O1P U3P d   1       5.243 -19.318 -31.973  0.00  0.00    -0.617 OA
ATOM     31  O2P U3P d   1       3.725 -20.897 -32.928  0.00  0.00    -0.617 OA
ATOM     32  O3P U3P d   1       6.016 -21.438 -32.671  0.00  0.00    -0.617 OA
ENDBRANCH  28  29
ENDBRANCH   3  28
TORSDOF 6
