REMARK  8 active torsions:
REMARK  status: ('A' for Active; 'I' for Inactive)
REMARK    1  A    between atoms: C2_2  and  O3_19 
REMARK    2  A    between atoms: C3_3  and  C10_8 
REMARK    3  A    between atoms: B_15  and  O4_4 
REMARK    4  A    between atoms: C7_5  and  C8_6 
REMARK    5  A    between atoms: C6_13  and  C7_5 
REMARK    6  A    between atoms: C4_18  and  C9_7 
REMARK    7  A    between atoms: O3_19  and  C11_9 
REMARK    8  A    between atoms: C12_10  and  N2_23 
ROOT
ATOM      1  C1  3VU d   1      -6.617 -12.484  19.358  0.00  0.00    -0.048 A 
ATOM      2  C2  3VU d   1      -6.461 -13.830  19.683  0.00  0.00     0.084 A 
ATOM      3  C3  3VU d   1      -5.216 -14.456  19.715  0.00  0.00    -0.021 A 
ATOM      4  C6  3VU d   1      -3.206 -11.389  18.518  0.00  0.00     0.057 C 
ATOM      5  O   3VU d   1      -3.893 -10.120  18.566  0.00  0.00    -0.414 OA
ATOM      6  B   3VU d   1      -5.247 -10.344  18.289  0.00  0.00     0.533 B 
ATOM      7  C5  3VU d   1      -4.262 -12.350  19.026  0.00  0.00    -0.023 A 
ATOM      8  C   3VU d   1      -5.500 -11.692  19.033  0.00  0.00    -0.020 A 
ATOM      9  C4  3VU d   1      -4.079 -13.697  19.386  0.00  0.00    -0.045 A 
ATOM     10  H   3VU d   1      -7.607 -12.043  19.355  0.00  0.00     0.087 H 
ATOM     11  H   3VU d   1      -2.345 -11.386  19.202  0.00  0.00     0.089 H 
ENDROOT
BRANCH   2  12
ATOM     12  O3  3VU d   1      -7.608 -14.577  20.054  0.00  0.00    -0.284 OA
BRANCH  12  13
ATOM     13  C11 3VU d   1      -8.519 -14.838  19.076  0.00  0.00     0.251 A 
ATOM     14  S   3VU d   1      -8.467 -14.221  17.432  0.00  0.00     0.077 SA
ATOM     15  N1  3VU d   1      -9.878 -15.005  17.080  0.00  0.00    -0.020 NA
ATOM     16  C12 3VU d   1     -10.301 -15.678  18.161  0.00  0.00     0.730 A 
ATOM     17  N   3VU d   1      -9.594 -15.595  19.302  0.00  0.00    -0.029 NA
BRANCH  16  18
ATOM     18  N2  3VU d   1     -11.415 -16.411  18.124  0.00  0.00    -0.230 N 
ATOM     19  H   3VU d   1     -11.959 -16.477  17.252  0.00  0.00     0.174 HD
ATOM     20  H   3VU d   1     -11.731 -16.911  18.967  0.00  0.00     0.174 HD
ENDBRANCH  16  18
ENDBRANCH  12  13
ENDBRANCH   2  12
BRANCH   3  21
ATOM     21  C10 3VU d   1      -5.089 -15.925  20.052  0.00  0.00    -0.048 C 
ATOM     22  H   3VU d   1      -6.084 -16.336  20.279  0.00  0.00     0.033 H 
ATOM     23  H   3VU d   1      -4.434 -16.045  20.927  0.00  0.00     0.033 H 
ATOM     24  H   3VU d   1      -4.657 -16.462  19.195  0.00  0.00     0.033 H 
ENDBRANCH   3  21
BRANCH   9  25
ATOM     25  C9  3VU d   1      -2.704 -14.327  19.383  0.00  0.00    -0.050 C 
ATOM     26  H   3VU d   1      -2.782 -15.379  19.694  0.00  0.00     0.033 H 
ATOM     27  H   3VU d   1      -2.051 -13.786  20.083  0.00  0.00     0.033 H 
ATOM     28  H   3VU d   1      -2.279 -14.274  18.370  0.00  0.00     0.033 H 
ENDBRANCH   9  25
BRANCH   6  29
ATOM     29  O4  3VU d   1      -5.712 -10.328  16.999  0.00  0.00    -0.433 OA
ATOM     30  H   3VU d   1      -6.647 -10.498  16.998  0.00  0.00     0.185 HD
ENDBRANCH   6  29
BRANCH   4  31
ATOM     31  C7  3VU d   1      -2.693 -11.695  17.113  0.00  0.00     0.042 C 
ATOM     32  H   3VU d   1      -2.082 -12.608  17.157  0.00  0.00     0.053 H 
ATOM     33  H   3VU d   1      -3.559 -11.864  16.456  0.00  0.00     0.053 H 
BRANCH  31  34
ATOM     34  C8  3VU d   1      -1.849 -10.580  16.519  0.00  0.00     0.175 C 
ATOM     35  O1  3VU d   1      -0.984  -9.999  17.258  0.00  0.00    -0.648 OA
ATOM     36  O2  3VU d   1      -2.068 -10.252  15.354  0.00  0.00    -0.648 OA
ENDBRANCH  31  34
ENDBRANCH   4  31
TORSDOF 8
