REMARK  8 active torsions:
REMARK  status: ('A' for Active; 'I' for Inactive)
REMARK    1  A    between atoms: C2_2  and  O3_19 
REMARK    2  A    between atoms: C3_3  and  C10_8 
REMARK    3  A    between atoms: B_15  and  O4_4 
REMARK    4  A    between atoms: C7_5  and  C8_6 
REMARK    5  A    between atoms: C6_13  and  C7_5 
REMARK    6  A    between atoms: C4_18  and  C9_7 
REMARK    7  A    between atoms: O3_19  and  C11_9 
REMARK    8  A    between atoms: C12_10  and  N2_23 
ROOT
ATOM      1  C1  3VU d   1      18.085 -10.085  32.120  0.00  0.00    -0.048 A 
ATOM      2  C2  3VU d   1      17.799 -10.884  31.023  0.00  0.00     0.084 A 
ATOM      3  C3  3VU d   1      16.712 -11.755  30.987  0.00  0.00    -0.021 A 
ATOM      4  C6  3VU d   1      15.290 -10.762  34.469  0.00  0.00     0.057 C 
ATOM      5  O   3VU d   1      15.999  -9.819  35.311  0.00  0.00    -0.414 OA
ATOM      6  B   3VU d   1      17.202  -9.559  34.653  0.00  0.00     0.533 B 
ATOM      7  C5  3VU d   1      16.045 -10.911  33.164  0.00  0.00    -0.023 A 
ATOM      8  C   3VU d   1      17.201 -10.131  33.209  0.00  0.00    -0.020 A 
ATOM      9  C4  3VU d   1      15.792 -11.754  32.049  0.00  0.00    -0.045 A 
ATOM     10  H   3VU d   1      18.961  -9.447  32.136  0.00  0.00     0.087 H 
ATOM     11  H   3VU d   1      14.274 -10.386  34.277  0.00  0.00     0.089 H 
ENDROOT
BRANCH   2  12
ATOM     12  O3  3VU d   1      18.537 -10.693  29.838  0.00  0.00    -0.284 OA
BRANCH  12  13
ATOM     13  C11 3VU d   1      19.789 -11.244  29.775  0.00  0.00     0.251 A 
ATOM     14  S   3VU d   1      20.575 -12.214  31.055  0.00  0.00     0.077 SA
ATOM     15  N1  3VU d   1      21.931 -12.451  30.092  0.00  0.00    -0.020 NA
ATOM     16  C12 3VU d   1      21.757 -11.812  28.898  0.00  0.00     0.730 A 
ATOM     17  N   3VU d   1      20.585 -11.134  28.694  0.00  0.00    -0.029 NA
BRANCH  16  18
ATOM     18  N2  3VU d   1      22.712 -11.838  27.955  0.00  0.00    -0.230 N 
ATOM     19  H   3VU d   1      23.588 -12.352  28.123  0.00  0.00     0.174 HD
ATOM     20  H   3VU d   1      22.569 -11.344  27.063  0.00  0.00     0.174 HD
ENDBRANCH  16  18
ENDBRANCH  12  13
ENDBRANCH   2  12
BRANCH   3  21
ATOM     21  C10 3VU d   1      16.574 -12.755  29.859  0.00  0.00    -0.048 C 
ATOM     22  H   3VU d   1      17.382 -12.598  29.129  0.00  0.00     0.033 H 
ATOM     23  H   3VU d   1      15.601 -12.618  29.364  0.00  0.00     0.033 H 
ATOM     24  H   3VU d   1      16.639 -13.776  30.264  0.00  0.00     0.033 H 
ENDBRANCH   3  21
BRANCH   9  25
ATOM     25  C9  3VU d   1      14.575 -12.647  31.993  0.00  0.00    -0.050 C 
ATOM     26  H   3VU d   1      14.576 -13.209  31.048  0.00  0.00     0.033 H 
ATOM     27  H   3VU d   1      13.665 -12.031  32.052  0.00  0.00     0.033 H 
ATOM     28  H   3VU d   1      14.597 -13.351  32.838  0.00  0.00     0.033 H 
ENDBRANCH   9  25
BRANCH   6  29
ATOM     29  O4  3VU d   1      18.378  -9.486  35.308  0.00  0.00    -0.433 OA
ATOM     30  H   3VU d   1      18.337  -8.791  35.954  0.00  0.00     0.185 HD
ENDBRANCH   6  29
BRANCH   4  31
ATOM     31  C7  3VU d   1      15.209 -12.141  35.121  0.00  0.00     0.042 C 
ATOM     32  H   3VU d   1      14.795 -12.849  34.388  0.00  0.00     0.053 H 
ATOM     33  H   3VU d   1      16.226 -12.455  35.400  0.00  0.00     0.053 H 
BRANCH  31  34
ATOM     34  C8  3VU d   1      14.343 -12.171  36.357  0.00  0.00     0.175 C 
ATOM     35  O1  3VU d   1      14.697 -13.100  37.204  0.00  0.00    -0.648 OA
ATOM     36  O2  3VU d   1      13.429 -11.395  36.560  0.00  0.00    -0.648 OA
ENDBRANCH  31  34
ENDBRANCH   4  31
TORSDOF 8
