REMARK  11 active torsions:
REMARK  status: ('A' for Active; 'I' for Inactive)
REMARK    1  A    between atoms: O3B_8  and  PG_1 
REMARK    2  A    between atoms: PB_5  and  O3B_8 
REMARK    3  A    between atoms: O3A_12  and  PB_5 
REMARK    4  A    between atoms: PA_9  and  O3A_12 
REMARK    5  A    between atoms: PA_9  and  O5'_13 
REMARK    6  A    between atoms: O5'_13  and  C5'_14 
REMARK    7  A    between atoms: C5'_14  and  C4'_15 
REMARK    8  A    between atoms: C3'_17  and  O3'_18 
REMARK    9  A    between atoms: C2'_19  and  O2'_20 
REMARK   10  A    between atoms: C1'_21  and  N9_22 
REMARK   11  A    between atoms: C6_26  and  N6_27 
ROOT
ATOM      1  C4' ATP d   1      40.327  65.165  18.387  0.00  0.00     0.089 C 
ATOM      2  O4' ATP d   1      40.854  63.835  18.157  0.00  0.00    -0.353 OA
ATOM      3  C3' ATP d   1      39.736  65.505  17.025  0.00  0.00     0.091 C 
ATOM      4  C2' ATP d   1      39.626  64.220  16.217  0.00  0.00     0.105 C 
ATOM      5  C1' ATP d   1      40.762  63.431  16.771  0.00  0.00     0.139 C 
ATOM      6  H3  ATP d   1      41.133  65.865  18.653  0.00  0.00     0.090 H 
ATOM      7  H4  ATP d   1      38.759  66.000  17.128  0.00  0.00     0.091 H 
ATOM      8  H6  ATP d   1      38.660  63.727  16.399  0.00  0.00     0.093 H 
ATOM      9  H8  ATP d   1      41.686  63.681  16.228  0.00  0.00     0.122 H 
ENDROOT
BRANCH   1  10
ATOM     10  C5' ATP d   1      39.278  65.189  19.477  0.00  0.00     0.058 C 
ATOM     11  H1  ATP d   1      39.600  64.530  20.297  0.00  0.00     0.079 H 
ATOM     12  H2  ATP d   1      39.176  66.218  19.852  0.00  0.00     0.079 H 
BRANCH  10  13
ATOM     13  O5' ATP d   1      38.016  64.746  18.997  0.00  0.00    -0.287 OA
BRANCH  13  14
ATOM     14  PA  ATP d   1      37.203  63.458  19.506  0.00  0.00     0.417 P 
ATOM     15  O1A ATP d   1      36.771  62.757  18.292  0.00  0.00    -0.624 OA
ATOM     16  O2A ATP d   1      38.028  62.787  20.593  0.00  0.00    -0.624 OA
BRANCH  14  17
ATOM     17  O3A ATP d   1      35.992  64.291  20.129  0.00  0.00    -0.180 OA
BRANCH  17  18
ATOM     18  PB  ATP d   1      34.540  63.796  20.583  0.00  0.00     0.428 P 
ATOM     19  O1B ATP d   1      34.414  62.227  20.498  0.00  0.00    -0.624 OA
ATOM     20  O2B ATP d   1      34.244  64.432  21.901  0.00  0.00    -0.624 OA
BRANCH  18  21
ATOM     21  O3B ATP d   1      33.578  64.498  19.495  0.00  0.00    -0.173 OA
BRANCH  21  22
ATOM     22  PG  ATP d   1      32.165  64.023  18.816  0.00  0.00     0.431 P 
ATOM     23  O1G ATP d   1      32.222  64.919  17.734  0.00  0.00    -0.616 OA
ATOM     24  O2G ATP d   1      32.224  62.488  18.580  0.00  0.00    -0.616 OA
ATOM     25  O3G ATP d   1      31.307  64.514  19.944  0.00  0.00    -0.616 OA
ENDBRANCH  21  22
ENDBRANCH  18  21
ENDBRANCH  17  18
ENDBRANCH  14  17
ENDBRANCH  13  14
ENDBRANCH  10  13
ENDBRANCH   1  10
BRANCH   3  26
ATOM     26  O3' ATP d   1      40.662  66.323  16.345  0.00  0.00    -0.390 OA
ATOM     27  H5  ATP d   1      40.315  66.549  15.490  0.00  0.00     0.210 HD
ENDBRANCH   3  26
BRANCH   5  28
ATOM     28  N9  ATP d   1      40.555  61.952  16.725  0.00  0.00    -0.294 N 
ATOM     29  C8  ATP d   1      39.394  61.307  16.993  0.00  0.00     0.071 A 
ATOM     30  N7  ATP d   1      39.575  59.991  16.918  0.00  0.00    -0.236 NA
ATOM     31  H9  ATP d   1      38.451  61.794  17.235  0.00  0.00     0.144 H 
ATOM     32  C5  ATP d   1      40.865  59.778  16.624  0.00  0.00     0.149 A 
ATOM     33  C6  ATP d   1      41.649  58.587  16.426  0.00  0.00     0.155 A 
ATOM     34  C4  ATP d   1      41.505  61.057  16.516  0.00  0.00     0.167 A 
ATOM     35  N1  ATP d   1      42.930  58.752  16.144  0.00  0.00    -0.222 NA
ATOM     36  C2  ATP d   1      43.484  59.975  16.042  0.00  0.00     0.091 A 
ATOM     37  N3  ATP d   1      42.819  61.126  16.204  0.00  0.00    -0.222 NA
ATOM     38  H12 ATP d   1      44.542  60.032  15.813  0.00  0.00     0.146 H 
BRANCH  33  39
ATOM     39  N6  ATP d   1      41.049  57.389  16.518  0.00  0.00    -0.382 N 
ATOM     40  H10 ATP d   1      41.596  56.527  16.379  0.00  0.00     0.157 HD
ATOM     41  H11 ATP d   1      40.042  57.332  16.727  0.00  0.00     0.157 HD
ENDBRANCH  33  39
ENDBRANCH   5  28
BRANCH   4  42
ATOM     42  O2' ATP d   1      39.809  64.391  14.806  0.00  0.00    -0.388 OA
ATOM     43  H7  ATP d   1      40.673  64.750  14.641  0.00  0.00     0.210 HD
ENDBRANCH   4  42
TORSDOF 11
