REMARK  4 active torsions:
REMARK  status: ('A' for Active; 'I' for Inactive)
REMARK    1  A    between atoms: C12_12  and  C7_7 
REMARK       I    between atoms: N27_27  and  C12_12 
REMARK    2  A    between atoms: C22_22  and  C20_20 
REMARK    3  A    between atoms: C22_22  and  C21_21 
REMARK    4  A    between atoms: C22_22  and  N26_26 
ROOT
ATOM      1  C5  3W7 d   1      10.302  -6.780 -22.256  0.00  0.00     0.030 A 
ATOM      2  C8  3W7 d   1      10.545  -8.079 -21.762  0.00  0.00    -0.006 A 
ATOM      3  C10 3W7 d   1      10.168  -8.928 -22.774  0.00  0.00     0.106 A 
ATOM      4  C11 3W7 d   1      10.234 -10.359 -22.674  0.00  0.00     0.178 C 
ATOM      5  C12 3W7 d   1       9.141 -10.260 -16.155  0.00  0.00     0.253 C 
ATOM      6  C13 3W7 d   1      11.059  -8.531 -20.456  0.00  0.00    -0.030 C 
ATOM      7  C14 3W7 d   1      10.805 -10.861 -21.364  0.00  0.00     0.004 C 
ATOM      8  C15 3W7 d   1      11.334 -10.526 -18.991  0.00  0.00    -0.042 C 
ATOM      9  C16 3W7 d   1       9.056 -10.005 -19.817  0.00  0.00    -0.042 C 
ATOM     10  C17 3W7 d   1      11.035  -9.831 -17.661  0.00  0.00    -0.001 C 
ATOM     11  C18 3W7 d   1       8.724  -9.396 -18.467  0.00  0.00    -0.001 C 
ATOM     12  C19 3W7 d   1      10.551  -9.954 -20.157  0.00  0.00    -0.026 C 
ATOM     13  N24 3W7 d   1       9.807  -6.801 -23.500  0.00  0.00    -0.183 NA
ATOM     14  N26 3W7 d   1       9.723  -8.116 -23.791  0.00  0.00    -0.262 N 
ATOM     15  N27 3W7 d   1       9.607  -9.830 -17.396  0.00  0.00    -0.348 N 
ATOM     16  O28 3W7 d   1       9.852 -11.142 -23.536  0.00  0.00    -0.291 OA
ATOM     17  O29 3W7 d   1       9.833 -10.690 -15.246  0.00  0.00    -0.267 OA
ATOM     18  H   3W7 d   1      10.494  -5.868 -21.692  0.00  0.00     0.118 H 
ATOM     19  H   3W7 d   1      10.709  -7.846 -19.669  0.00  0.00     0.041 H 
ATOM     20  H   3W7 d   1      12.159  -8.533 -20.478  0.00  0.00     0.041 H 
ATOM     21  H   3W7 d   1      11.893 -10.970 -21.486  0.00  0.00     0.046 H 
ATOM     22  H   3W7 d   1      10.359 -11.844 -21.152  0.00  0.00     0.046 H 
ATOM     23  H   3W7 d   1      11.083 -11.592 -18.892  0.00  0.00     0.036 H 
ATOM     24  H   3W7 d   1      12.408 -10.421 -19.206  0.00  0.00     0.036 H 
ATOM     25  H   3W7 d   1       8.503  -9.456 -20.593  0.00  0.00     0.036 H 
ATOM     26  H   3W7 d   1       8.735 -11.057 -19.813  0.00  0.00     0.036 H 
ATOM     27  H   3W7 d   1      11.395  -8.793 -17.706  0.00  0.00     0.064 H 
ATOM     28  H   3W7 d   1      11.553 -10.364 -16.850  0.00  0.00     0.064 H 
ATOM     29  H   3W7 d   1       7.694  -9.677 -18.203  0.00  0.00     0.064 H 
ATOM     30  H   3W7 d   1       8.795  -8.302 -18.553  0.00  0.00     0.064 H 
ENDROOT
BRANCH  14  31
ATOM     31  C22 3W7 d   1       9.202  -8.538 -25.090  0.00  0.00     0.028 C 
ATOM     32  H   3W7 d   1       9.303  -9.632 -25.135  0.00  0.00     0.074 H 
BRANCH  31  33
ATOM     33  C20 3W7 d   1       9.981  -7.973 -26.264  0.00  0.00    -0.056 C 
ATOM     34  H   3W7 d   1       9.536  -8.330 -27.205  0.00  0.00     0.030 H 
ATOM     35  H   3W7 d   1      11.028  -8.306 -26.204  0.00  0.00     0.030 H 
ATOM     36  H   3W7 d   1       9.944  -6.874 -26.234  0.00  0.00     0.030 H 
ENDBRANCH  31  33
BRANCH  31  37
ATOM     37  C21 3W7 d   1       7.730  -8.214 -25.214  0.00  0.00    -0.056 C 
ATOM     38  H   3W7 d   1       7.189  -8.633 -24.353  0.00  0.00     0.030 H 
ATOM     39  H   3W7 d   1       7.335  -8.651 -26.143  0.00  0.00     0.030 H 
ATOM     40  H   3W7 d   1       7.595  -7.122 -25.235  0.00  0.00     0.030 H 
ENDBRANCH  31  37
ENDBRANCH  14  31
BRANCH   5  41
ATOM     41  C7  3W7 d   1       7.691 -10.196 -15.898  0.00  0.00     0.033 A 
ATOM     42  C1  3W7 d   1       7.053 -11.400 -15.671  0.00  0.00    -0.065 A 
ATOM     43  C2  3W7 d   1       5.700 -11.461 -15.412  0.00  0.00    -0.052 A 
ATOM     44  H   3W7 d   1       7.629 -12.318 -15.697  0.00  0.00     0.085 H 
ATOM     45  C9  3W7 d   1       5.064 -10.239 -15.400  0.00  0.00     0.088 A 
ATOM     46  H   3W7 d   1       5.179 -12.395 -15.232  0.00  0.00     0.087 H 
ATOM     47  C6  3W7 d   1       5.687  -9.025 -15.617  0.00  0.00     0.012 A 
ATOM     48  N25 3W7 d   1       3.747  -9.940 -15.178  0.00  0.00    -0.175 NA
ATOM     49  C3  3W7 d   1       7.046  -8.970 -15.867  0.00  0.00    -0.054 A 
ATOM     50  C4  3W7 d   1       4.647  -8.068 -15.510  0.00  0.00     0.008 A 
ATOM     51  H   3W7 d   1       7.569  -8.034 -16.027  0.00  0.00     0.086 H 
ATOM     52  N23 3W7 d   1       3.467  -8.631 -15.241  0.00  0.00    -0.288 N 
ATOM     53  H   3W7 d   1       4.794  -6.996 -15.633  0.00  0.00     0.115 H 
ATOM     54  H   3W7 d   1       2.556  -8.168 -15.112  0.00  0.00     0.188 HD
ENDBRANCH   5  41
TORSDOF 4
