REMARK  15 active torsions:
REMARK  status: ('A' for Active; 'I' for Inactive)
REMARK    1  A    between atoms: S13_2  and  C28_4 
REMARK    2  A    between atoms: S13_2  and  N12_18 
REMARK    3  A    between atoms: C16_7  and  C21_8 
REMARK    4  A    between atoms: C24_11  and  O24_12 
REMARK    5  A    between atoms: O24_12  and  C61_13 
REMARK    6  A    between atoms: N12_18  and  O15_19 
REMARK    7  A    between atoms: N12_18  and  C31_23 
REMARK    8  A    between atoms: O15_19  and  C67_20 
REMARK    9  A    between atoms: C67_20  and  C69_21 
REMARK   10  A    between atoms: C67_20  and  C68_22 
REMARK   11  A    between atoms: C31_23  and  C11_24 
REMARK   12  A    between atoms: C31_23  and  C32_28 
REMARK       I    between atoms: C11_24  and  N2_26 
REMARK   13  A    between atoms: N2_26  and  O7_27 
REMARK   14  A    between atoms: C32_28  and  C33_29 
REMARK   15  A    between atoms: C33_29  and  N48_30 
ROOT
ATOM      1  N12 E40 d   1       3.494   8.825  25.142  0.00  0.00    -0.067 NA
ENDROOT
BRANCH   1   2
ATOM      2  S13 E40 d   1       5.176   8.677  24.926  0.00  0.00     0.266 S 
ATOM      3  O13 E40 d   1       5.734   7.815  25.971  0.00  0.00    -0.204 OA
ATOM      4  O14 E40 d   1       5.766  10.013  25.025  0.00  0.00    -0.204 OA
BRANCH   2   5
ATOM      5  C28 E40 d   1       5.642   7.846  23.397  0.00  0.00     0.076 A 
ATOM      6  C14 E40 d   1       5.633   6.458  23.348  0.00  0.00    -0.060 A 
ATOM      7  C17 E40 d   1       6.028   5.801  22.201  0.00  0.00    -0.071 A 
ATOM      8  H1  E40 d   1       5.314   5.889  24.214  0.00  0.00     0.085 H 
ATOM      9  C16 E40 d   1       6.427   6.527  21.091  0.00  0.00    -0.026 A 
ATOM     10  H2  E40 d   1       6.026   4.718  22.169  0.00  0.00     0.084 H 
ATOM     11  C15 E40 d   1       6.451   7.906  21.143  0.00  0.00    -0.071 A 
ATOM     12  C29 E40 d   1       6.063   8.565  22.290  0.00  0.00    -0.060 A 
ATOM     13  H10 E40 d   1       6.776   8.473  20.278  0.00  0.00     0.084 H 
ATOM     14  H11 E40 d   1       6.087   9.648  22.326  0.00  0.00     0.085 H 
BRANCH   9  15
ATOM     15  C21 E40 d   1       6.942   5.788  19.871  0.00  0.00    -0.026 A 
ATOM     16  C26 E40 d   1       6.243   4.523  19.395  0.00  0.00    -0.070 A 
ATOM     17  C25 E40 d   1       6.714   3.861  18.368  0.00  0.00    -0.050 A 
ATOM     18  H3  E40 d   1       5.355   4.170  19.906  0.00  0.00     0.085 H 
ATOM     19  C24 E40 d   1       7.994   4.343  17.694  0.00  0.00     0.068 A 
ATOM     20  H4  E40 d   1       6.200   2.980  18.001  0.00  0.00     0.087 H 
ATOM     21  C23 E40 d   1       8.622   5.417  18.121  0.00  0.00    -0.050 A 
ATOM     22  C30 E40 d   1       8.068   6.184  19.316  0.00  0.00    -0.070 A 
ATOM     23  H8  E40 d   1       9.526   5.754  17.627  0.00  0.00     0.087 H 
ATOM     24  H9  E40 d   1       8.596   7.047  19.705  0.00  0.00     0.085 H 
BRANCH  19  25
ATOM     25  O24 E40 d   1       8.500   3.629  16.611  0.00  0.00    -0.356 OA
BRANCH  25  26
ATOM     26  C61 E40 d   1       8.076   2.316  16.421  0.00  0.00     0.010 C 
ATOM     27  H5  E40 d   1       8.566   1.898  15.529  0.00  0.00     0.066 H 
ATOM     28  H6  E40 d   1       6.985   2.300  16.282  0.00  0.00     0.066 H 
ATOM     29  H7  E40 d   1       8.342   1.714  17.302  0.00  0.00     0.066 H 
ENDBRANCH  25  26
ENDBRANCH  19  25
ENDBRANCH   9  15
ENDBRANCH   2   5
ENDBRANCH   1   2
BRANCH   1  30
ATOM     30  O15 E40 d   1       2.837   7.618  24.904  0.00  0.00    -0.283 OA
BRANCH  30  31
ATOM     31  C67 E40 d   1       2.632   6.732  25.976  0.00  0.00     0.054 C 
ATOM     32  H12 E40 d   1       3.600   6.458  26.420  0.00  0.00     0.085 H 
BRANCH  31  33
ATOM     33  C69 E40 d   1       1.934   5.496  25.436  0.00  0.00    -0.051 C 
ATOM     34  H13 E40 d   1       1.761   4.784  26.257  0.00  0.00     0.030 H 
ATOM     35  H14 E40 d   1       2.565   5.024  24.669  0.00  0.00     0.030 H 
ATOM     36  H15 E40 d   1       0.970   5.784  24.991  0.00  0.00     0.030 H 
ENDBRANCH  31  33
BRANCH  31  37
ATOM     37  C68 E40 d   1       1.735   7.361  27.046  0.00  0.00    -0.051 C 
ATOM     38  H16 E40 d   1       1.592   6.647  27.871  0.00  0.00     0.030 H 
ATOM     39  H17 E40 d   1       0.759   7.612  26.605  0.00  0.00     0.030 H 
ATOM     40  H18 E40 d   1       2.210   8.276  27.431  0.00  0.00     0.030 H 
ENDBRANCH  31  37
ENDBRANCH  30  31
ENDBRANCH   1  30
BRANCH   1  41
ATOM     41  C31 E40 d   1       2.910   9.920  24.377  0.00  0.00     0.115 C 
ATOM     42  H19 E40 d   1       3.536  10.818  24.486  0.00  0.00     0.084 H 
BRANCH  41  43
ATOM     43  C11 E40 d   1       2.756   9.611  22.884  0.00  0.00     0.262 C 
ATOM     44  O2  E40 d   1       2.013   8.766  22.498  0.00  0.00    -0.269 OA
ATOM     45  N2  E40 d   1       3.399  10.459  21.901  0.00  0.00    -0.236 N 
ATOM     46  H20 E40 d   1       3.924  11.266  22.173  0.00  0.00     0.197 HD
BRANCH  45  47
ATOM     47  O7  E40 d   1       3.257  10.105  20.563  0.00  0.00    -0.287 OA
ATOM     48  H21 E40 d   1       3.719  10.732  20.020  0.00  0.00     0.244 HD
ENDBRANCH  45  47
ENDBRANCH  41  43
BRANCH  41  49
ATOM     49  C32 E40 d   1       1.549  10.153  24.995  0.00  0.00    -0.023 C 
ATOM     50  H22 E40 d   1       1.645  10.216  26.089  0.00  0.00     0.038 H 
ATOM     51  H23 E40 d   1       0.876   9.323  24.733  0.00  0.00     0.038 H 
BRANCH  49  52
ATOM     52  C33 E40 d   1       0.990  11.453  24.456  0.00  0.00     0.008 C 
ATOM     53  H24 E40 d   1       1.822  12.102  24.145  0.00  0.00     0.065 H 
ATOM     54  H25 E40 d   1       0.412  11.953  25.247  0.00  0.00     0.065 H 
BRANCH  52  55
ATOM     55  N48 E40 d   1       0.130  11.211  23.324  0.00  0.00    -0.280 N 
ATOM     56  C52 E40 d   1       0.113  11.978  22.103  0.00  0.00     0.261 A 
ATOM     57  O54 E40 d   1       0.872  12.849  21.800  0.00  0.00    -0.267 OA
ATOM     58  C51 E40 d   1      -1.048  11.469  21.264  0.00  0.00     0.048 A 
ATOM     59  C50 E40 d   1      -1.670  10.494  21.911  0.00  0.00     0.048 A 
ATOM     60  C58 E40 d   1      -1.547  11.886  19.895  0.00  0.00    -0.067 A 
ATOM     61  C49 E40 d   1      -0.985  10.285  23.239  0.00  0.00     0.261 A 
ATOM     62  C55 E40 d   1      -2.882   9.791  21.313  0.00  0.00    -0.067 A 
ATOM     63  O53 E40 d   1      -1.323   9.484  24.047  0.00  0.00    -0.267 OA
ATOM     64  C56 E40 d   1      -3.310  10.158  20.124  0.00  0.00    -0.082 A 
ATOM     65  H26 E40 d   1      -3.384   9.000  21.859  0.00  0.00     0.085 H 
ATOM     66  C57 E40 d   1      -2.587  11.279  19.386  0.00  0.00    -0.082 A 
ATOM     67  H27 E40 d   1      -4.167   9.669  19.675  0.00  0.00     0.083 H 
ATOM     68  H28 E40 d   1      -2.946  11.582  18.409  0.00  0.00     0.083 H 
ATOM     69  H29 E40 d   1      -1.049  12.676  19.346  0.00  0.00     0.085 H 
ENDBRANCH  52  55
ENDBRANCH  49  52
ENDBRANCH  41  49
ENDBRANCH   1  41
TORSDOF 15
