REMARK  5 active torsions:
REMARK  status: ('A' for Active; 'I' for Inactive)
REMARK    1  A    between atoms: C5_1  and  C3_7 
REMARK    2  A    between atoms: C7_3  and  O3_13 
REMARK    3  A    between atoms: C8_4  and  O2_19 
REMARK    4  A    between atoms: O3_13  and  C11_14 
REMARK    5  A    between atoms: O2_19  and  C16_20 
ROOT
ATOM      1  C5  ROL d   1     -53.489  49.503   9.299  0.00  0.00    -0.049 A 
ATOM      2  C6  ROL d   1     -53.197  49.400  10.656  0.00  0.00    -0.042 A 
ATOM      3  C7  ROL d   1     -53.617  50.372  11.552  0.00  0.00     0.103 A 
ATOM      4  C8  ROL d   1     -54.381  51.459  11.085  0.00  0.00     0.101 A 
ATOM      5  C9  ROL d   1     -54.701  51.543   9.738  0.00  0.00    -0.048 A 
ATOM      6  C10 ROL d   1     -54.251  50.574   8.860  0.00  0.00    -0.074 A 
ATOM      7  H1  ROL d   1     -52.633  48.548  11.018  0.00  0.00     0.088 H 
ATOM      8  H2  ROL d   1     -55.303  52.367   9.374  0.00  0.00     0.087 H 
ATOM      9  H3  ROL d   1     -54.499  50.654   7.808  0.00  0.00     0.084 H 
ENDROOT
BRANCH   3  10
ATOM     10  O3  ROL d   1     -53.298  50.354  12.896  0.00  0.00    -0.343 OA
BRANCH  10  11
ATOM     11  C11 ROL d   1     -52.477  49.256  13.472  0.00  0.00     0.045 C 
ATOM     12  C15 ROL d   1     -51.852  49.575  14.811  0.00  0.00    -0.040 C 
ATOM     13  C14 ROL d   1     -53.035  49.482  15.751  0.00  0.00    -0.063 C 
ATOM     14  H11 ROL d   1     -51.417  50.585  14.817  0.00  0.00     0.036 H 
ATOM     15  H12 ROL d   1     -51.076  48.841  15.073  0.00  0.00     0.036 H 
ATOM     16  C13 ROL d   1     -53.805  48.328  15.307  0.00  0.00    -0.063 C 
ATOM     17  H13 ROL d   1     -53.645  50.395  15.691  0.00  0.00     0.033 H 
ATOM     18  H14 ROL d   1     -52.691  49.338  16.786  0.00  0.00     0.033 H 
ATOM     19  C12 ROL d   1     -53.410  48.115  13.862  0.00  0.00    -0.040 C 
ATOM     20  H15 ROL d   1     -54.883  48.531  15.386  0.00  0.00     0.033 H 
ATOM     21  H16 ROL d   1     -53.554  47.443  15.909  0.00  0.00     0.033 H 
ATOM     22  H17 ROL d   1     -52.892  47.151  13.752  0.00  0.00     0.036 H 
ATOM     23  H18 ROL d   1     -54.305  48.125  13.222  0.00  0.00     0.036 H 
ATOM     24  H10 ROL d   1     -51.714  48.944  12.743  0.00  0.00     0.084 H 
ENDBRANCH  10  11
ENDBRANCH   3  10
BRANCH   4  25
ATOM     25  O2  ROL d   1     -54.737  52.384  12.029  0.00  0.00    -0.353 OA
BRANCH  25  26
ATOM     26  C16 ROL d   1     -55.559  53.483  11.617  0.00  0.00     0.010 C 
ATOM     27  H19 ROL d   1     -55.759  54.135  12.480  0.00  0.00     0.066 H 
ATOM     28  H20 ROL d   1     -56.510  53.100  11.219  0.00  0.00     0.066 H 
ATOM     29  H21 ROL d   1     -55.039  54.057  10.836  0.00  0.00     0.066 H 
ENDBRANCH  25  26
ENDBRANCH   4  25
BRANCH   1  30
ATOM     30  C3  ROL d   1     -52.945  48.494   8.305  0.00  0.00    -0.005 C 
ATOM     31  C2  ROL d   1     -51.798  47.599   8.808  0.00  0.00     0.018 C 
ATOM     32  C1  ROL d   1     -52.496  46.335   9.241  0.00  0.00     0.218 C 
ATOM     33  H5  ROL d   1     -51.276  48.069   9.655  0.00  0.00     0.048 H 
ATOM     34  H6  ROL d   1     -51.078  47.393   8.002  0.00  0.00     0.048 H 
ATOM     35  O1  ROL d   1     -52.042  45.469   9.980  0.00  0.00    -0.274 OA
ATOM     36  N1  ROL d   1     -53.705  46.323   8.707  0.00  0.00    -0.360 N 
ATOM     37  C4  ROL d   1     -54.029  47.482   7.887  0.00  0.00     0.003 C 
ATOM     38  H7  ROL d   1     -54.350  45.573   8.855  0.00  0.00     0.162 HD
ATOM     39  H8  ROL d   1     -53.959  47.244   6.815  0.00  0.00     0.065 H 
ATOM     40  H9  ROL d   1     -55.036  47.861   8.114  0.00  0.00     0.065 H 
ATOM     41  H4  ROL d   1     -52.598  49.055   7.425  0.00  0.00     0.050 H 
ENDBRANCH   1  30
TORSDOF 5
