REMARK WARNING: 32 MAX_TORS EXCEEDED!!!
REMARK  36 active torsions:
REMARK  status: ('A' for Active; 'I' for Inactive)
REMARK    1  A    between atoms: C2_2  and  C1_1 
REMARK    2  A    between atoms: O3_28  and  C2_2 
REMARK    3  A    between atoms: C4_4  and  O4_15 
REMARK    4  A    between atoms: C5_5  and  N5_12 
REMARK    5  A    between atoms: C6_6  and  C7_7 
REMARK    6  A    between atoms: C7_7  and  C8_8 
REMARK    7  A    between atoms: C7_7  and  O7_17 
REMARK    8  A    between atoms: C8_8  and  C9_9 
REMARK    9  A    between atoms: C8_8  and  O8_18 
REMARK   10  A    between atoms: C9_9  and  O9_19 
REMARK   11  A    between atoms: C10_10  and  C11_11 
REMARK       I    between atoms: N5_12  and  C10_10 
REMARK   12  A    between atoms: O4_66  and  C1_21 
REMARK   13  A    between atoms: C2_22  and  O2_27 
REMARK   14  A    between atoms: C3_23  and  O3_28 
REMARK   15  A    between atoms: C4_24  and  O4_29 
REMARK   16  A    between atoms: C5_25  and  C6_26 
REMARK   17  A    between atoms: C6_26  and  O6_31 
REMARK   18  A    between atoms: O4_29  and  C1_32 
REMARK   19  A    between atoms: C2_33  and  N2_40 
REMARK   20  A    between atoms: C3_34  and  O3_41 
REMARK   21  A    between atoms: C4_35  and  O4_42 
REMARK   22  A    between atoms: C5_36  and  C6_37 
REMARK   23  A    between atoms: C6_37  and  O6_44 
REMARK   24  A    between atoms: C7_38  and  C8_39 
REMARK       I    between atoms: N2_40  and  C7_38 
REMARK   25  A    between atoms: O3_41  and  C1_46 
REMARK   26  A    between atoms: C2_47  and  O2_52 
REMARK   27  A    between atoms: C3_48  and  O3_53 
REMARK   28  A    between atoms: C4_49  and  O4_54 
REMARK   29  A    between atoms: C5_50  and  C6_51 
REMARK   30  A    between atoms: C6_51  and  O6_56 
REMARK   31  A    between atoms: C2_57  and  O2_64 
REMARK   32  A    between atoms: C3_58  and  O3_65 
REMARK   33  A    between atoms: C4_59  and  O4_66 
REMARK   34  A    between atoms: C5_60  and  C6_61 
REMARK   35  A    between atoms: C6_61  and  O6_68 
REMARK   36  A    between atoms: C1_62  and  O1_63 
ROOT
ATOM      1  H18 SIA d   1      17.199 -27.523   8.089  0.00  0.00     0.133 H 
ATOM      2  H19 SIA d   1      16.450 -24.585   7.778  0.00  0.00     0.094 H 
ATOM      3  H20 SIA d   1      18.326 -25.676   9.947  0.00  0.00     0.091 H 
ATOM      4  H21 SIA d   1      16.512 -25.158  11.536  0.00  0.00     0.091 H 
ATOM      5  H22 SIA d   1      16.602 -27.453  10.542  0.00  0.00     0.090 H 
ATOM      6  C1  GAL d   1      16.448 -26.725   7.992  0.00  0.00     0.159 C 
ATOM      7  C2  GAL d   1      17.129 -25.365   8.154  0.00  0.00     0.110 C 
ATOM      8  C3  GAL d   1      17.479 -25.060   9.609  0.00  0.00     0.099 C 
ATOM      9  C4  GAL d   1      16.265 -25.331  10.478  0.00  0.00     0.096 C 
ATOM     10  C5  GAL d   1      15.784 -26.764  10.283  0.00  0.00     0.089 C 
ATOM     11  O5  GAL d   1      15.415 -26.956   8.929  0.00  0.00    -0.348 OA
ENDROOT
BRANCH   9  12
ATOM     12  O4  GAL d   1      15.235 -24.463  10.063  0.00  0.00    -0.348 OA
BRANCH  12  13
ATOM     13  C1  NGA d   1      14.994 -23.499  11.081  0.00  0.00     0.154 C 
ATOM     14  C2  NGA d   1      14.352 -22.277  10.465  0.00  0.00     0.087 C 
ATOM     15  C3  NGA d   1      13.884 -21.255  11.499  0.00  0.00     0.093 C 
ATOM     16  H28 SIA d   1      13.474 -22.595   9.883  0.00  0.00     0.084 H 
ATOM     17  C4  NGA d   1      13.133 -21.947  12.629  0.00  0.00     0.089 C 
ATOM     18  H29 SIA d   1      14.750 -20.718  11.913  0.00  0.00     0.091 H 
ATOM     19  C5  NGA d   1      13.972 -23.115  13.156  0.00  0.00     0.089 C 
ATOM     20  H30 SIA d   1      12.967 -21.230  13.446  0.00  0.00     0.091 H 
ATOM     21  O5  NGA d   1      14.195 -24.062  12.114  0.00  0.00    -0.349 OA
ATOM     22  H31 SIA d   1      14.937 -22.709  13.493  0.00  0.00     0.090 H 
ATOM     23  H27 SIA d   1      15.958 -23.200  11.519  0.00  0.00     0.132 H 
BRANCH  14  24
ATOM     24  N2  NGA d   1      15.338 -21.693   9.564  0.00  0.00    -0.349 N 
ATOM     25  C7  NGA d   1      15.305 -21.889   8.236  0.00  0.00     0.214 C 
ATOM     26  O7  NGA d   1      14.437 -22.565   7.699  0.00  0.00    -0.274 OA
ATOM     27  H37 SIA d   1      16.066 -21.125   9.949  0.00  0.00     0.163 HD
BRANCH  25  28
ATOM     28  C8  NGA d   1      16.397 -21.227   7.438  0.00  0.00    -0.003 C 
ATOM     29  H34 SIA d   1      16.264 -21.459   6.371  0.00  0.00     0.040 H 
ATOM     30  H35 SIA d   1      17.375 -21.600   7.775  0.00  0.00     0.040 H 
ATOM     31  H36 SIA d   1      16.350 -20.138   7.585  0.00  0.00     0.040 H 
ENDBRANCH  25  28
ENDBRANCH  14  24
BRANCH  15  32
ATOM     32  O3  NGA d   1      13.019 -20.342  10.827  0.00  0.00    -0.348 OA
BRANCH  32  33
ATOM     33  C1  GAL d   1      13.349 -18.949  10.983  0.00  0.00     0.159 C 
ATOM     34  C2  GAL d   1      12.474 -18.131  10.025  0.00  0.00     0.110 C 
ATOM     35  C3  GAL d   1      12.717 -16.624  10.184  0.00  0.00     0.092 C 
ATOM     36  H41 SIA d   1      11.424 -18.331  10.287  0.00  0.00     0.094 H 
ATOM     37  C4  GAL d   1      12.701 -16.165  11.645  0.00  0.00     0.090 C 
ATOM     38  H42 SIA d   1      13.712 -16.402   9.772  0.00  0.00     0.091 H 
ATOM     39  C5  GAL d   1      13.532 -17.140  12.460  0.00  0.00     0.089 C 
ATOM     40  H43 SIA d   1      13.149 -15.162  11.705  0.00  0.00     0.091 H 
ATOM     41  O5  GAL d   1      13.119 -18.487  12.298  0.00  0.00    -0.348 OA
ATOM     42  H44 SIA d   1      14.582 -17.055  12.143  0.00  0.00     0.090 H 
ATOM     43  H40 SIA d   1      14.410 -18.803  10.733  0.00  0.00     0.133 H 
BRANCH  34  44
ATOM     44  O2  GAL d   1      12.662 -18.518   8.671  0.00  0.00    -0.388 OA
ATOM     45  H47 SIA d   1      12.509 -19.452   8.585  0.00  0.00     0.210 HD
ENDBRANCH  34  44
BRANCH  35  46
ATOM     46  O3  GAL d   1      11.758 -15.889   9.451  0.00  0.00    -0.390 OA
ATOM     47  H48 SIA d   1      10.896 -16.038   9.822  0.00  0.00     0.210 HD
ENDBRANCH  35  46
BRANCH  37  48
ATOM     48  O4  GAL d   1      11.391 -16.109  12.188  0.00  0.00    -0.390 OA
ATOM     49  H49 SIA d   1      10.866 -15.500  11.682  0.00  0.00     0.210 HD
ENDBRANCH  37  48
BRANCH  39  50
ATOM     50  C6  GAL d   1      13.418 -16.775  13.917  0.00  0.00     0.043 C 
ATOM     51  H45 SIA d   1      12.695 -17.432  14.423  0.00  0.00     0.078 H 
ATOM     52  H46 SIA d   1      13.101 -15.727  14.027  0.00  0.00     0.078 H 
BRANCH  50  53
ATOM     53  O6  GAL d   1      14.707 -16.958  14.452  0.00  0.00    -0.398 OA
ATOM     54  H50 SIA d   1      15.320 -16.391  13.999  0.00  0.00     0.209 HD
ENDBRANCH  50  53
ENDBRANCH  39  50
ENDBRANCH  32  33
ENDBRANCH  15  32
BRANCH  17  55
ATOM     55  O4  NGA d   1      11.863 -22.405  12.147  0.00  0.00    -0.390 OA
ATOM     56  H38 SIA d   1      11.362 -21.665  11.826  0.00  0.00     0.210 HD
ENDBRANCH  17  55
BRANCH  19  57
ATOM     57  C6  NGA d   1      13.347 -23.884  14.309  0.00  0.00     0.043 C 
ATOM     58  H32 SIA d   1      13.804 -24.881  14.387  0.00  0.00     0.078 H 
ATOM     59  H33 SIA d   1      12.264 -23.989  14.147  0.00  0.00     0.078 H 
BRANCH  57  60
ATOM     60  O6  NGA d   1      13.591 -23.143  15.499  0.00  0.00    -0.398 OA
ATOM     61  H39 SIA d   1      14.528 -23.053  15.628  0.00  0.00     0.209 HD
ENDBRANCH  57  60
ENDBRANCH  19  57
ENDBRANCH  12  13
ENDBRANCH   9  12
BRANCH   8  62
ATOM     62  O3  GAL d   1      17.819 -23.696   9.634  0.00  0.00    -0.336 OA
BRANCH  62  63
ATOM     63  C2  SIA d   1      18.888 -23.340  10.547  0.00  0.00     0.259 C 
ATOM     64  C3  SIA d   1      20.257 -23.755   9.970  0.00  0.00     0.024 C 
ATOM     65  C4  SIA d   1      21.406 -23.494  10.971  0.00  0.00     0.063 C 
ATOM     66  H1  SIA d   1      20.446 -23.178   9.053  0.00  0.00     0.045 H 
ATOM     67  H2  SIA d   1      20.231 -24.828   9.730  0.00  0.00     0.045 H 
ATOM     68  C5  SIA d   1      21.108 -24.072  12.352  0.00  0.00     0.064 C 
ATOM     69  H3  SIA d   1      21.514 -22.404  11.076  0.00  0.00     0.086 H 
ATOM     70  C6  SIA d   1      19.739 -23.575  12.802  0.00  0.00     0.091 C 
ATOM     71  H4  SIA d   1      21.073 -25.169  12.280  0.00  0.00     0.080 H 
ATOM     72  O6  SIA d   1      18.765 -23.981  11.827  0.00  0.00    -0.336 OA
ATOM     73  H5  SIA d   1      19.773 -22.477  12.862  0.00  0.00     0.090 H 
BRANCH  63  74
ATOM     74  C1  SIA d   1      18.689 -21.831  10.611  0.00  0.00     0.239 C 
ATOM     75  O1A SIA d   1      19.326 -21.079   9.842  0.00  0.00    -0.644 OA
ATOM     76  O1B SIA d   1      17.834 -21.354  11.397  0.00  0.00    -0.644 OA
ENDBRANCH  63  74
BRANCH  65  77
ATOM     77  O4  SIA d   1      22.659 -24.024  10.486  0.00  0.00    -0.393 OA
ATOM     78  H14 SIA d   1      23.356 -23.786  11.086  0.00  0.00     0.210 HD
ENDBRANCH  65  77
BRANCH  68  79
ATOM     79  N5  SIA d   1      22.171 -23.713  13.285  0.00  0.00    -0.352 N 
ATOM     80  C10 SIA d   1      22.562 -24.497  14.266  0.00  0.00     0.214 C 
ATOM     81  O10 SIA d   1      22.024 -25.582  14.460  0.00  0.00    -0.274 OA
ATOM     82  H13 SIA d   1      22.624 -22.828  13.173  0.00  0.00     0.163 HD
BRANCH  80  83
ATOM     83  C11 SIA d   1      23.682 -23.985  15.131  0.00  0.00    -0.003 C 
ATOM     84  H10 SIA d   1      23.914 -24.728  15.909  0.00  0.00     0.040 H 
ATOM     85  H11 SIA d   1      23.377 -23.041  15.605  0.00  0.00     0.040 H 
ATOM     86  H12 SIA d   1      24.574 -23.812  14.511  0.00  0.00     0.040 H 
ENDBRANCH  80  83
ENDBRANCH  68  79
BRANCH  70  87
ATOM     87  C7  SIA d   1      19.273 -24.118  14.139  0.00  0.00     0.089 C 
ATOM     88  H6  SIA d   1      19.945 -23.738  14.923  0.00  0.00     0.091 H 
BRANCH  87  89
ATOM     89  C8  SIA d   1      17.839 -23.700  14.475  0.00  0.00     0.083 C 
ATOM     90  H7  SIA d   1      17.159 -24.397  13.964  0.00  0.00     0.090 H 
BRANCH  89  91
ATOM     91  C9  SIA d   1      17.597 -23.803  15.973  0.00  0.00     0.043 C 
ATOM     92  H8  SIA d   1      18.313 -23.155  16.500  0.00  0.00     0.078 H 
ATOM     93  H9  SIA d   1      17.743 -24.846  16.291  0.00  0.00     0.078 H 
BRANCH  91  94
ATOM     94  O9  SIA d   1      16.245 -23.388  16.306  0.00  0.00    -0.398 OA
ATOM     95  H17 SIA d   1      15.623 -23.947  15.855  0.00  0.00     0.209 HD
ENDBRANCH  91  94
ENDBRANCH  89  91
BRANCH  89  96
ATOM     96  O8  SIA d   1      17.527 -22.382  14.035  0.00  0.00    -0.391 OA
ATOM     97  H16 SIA d   1      17.678 -22.318  13.099  0.00  0.00     0.210 HD
ENDBRANCH  89  96
ENDBRANCH  87  89
BRANCH  87  98
ATOM     98  O7  SIA d   1      19.327 -25.556  14.121  0.00  0.00    -0.390 OA
ATOM     99  H15 SIA d   1      18.727 -25.886  13.463  0.00  0.00     0.210 HD
ENDBRANCH  87  98
ENDBRANCH  70  87
ENDBRANCH  62  63
ENDBRANCH   8  62
BRANCH  10 100
ATOM    100  C6  GAL d   1      14.572 -27.073  11.165  0.00  0.00     0.043 C 
ATOM    101  H23 SIA d   1      13.673 -26.581  10.765  0.00  0.00     0.078 H 
ATOM    102  H24 SIA d   1      14.751 -26.729  12.194  0.00  0.00     0.078 H 
BRANCH 100 103
ATOM    103  O6  GAL d   1      14.415 -28.479  11.137  0.00  0.00    -0.398 OA
ATOM    104  H26 SIA d   1      14.269 -28.762  10.242  0.00  0.00     0.209 HD
ENDBRANCH 100 103
ENDBRANCH  10 100
BRANCH   7 105
ATOM    105  O2  GAL d   1      18.326 -25.345   7.412  0.00  0.00    -0.388 OA
ATOM    106  H25 SIA d   1      18.135 -25.532   6.500  0.00  0.00     0.210 HD
ENDBRANCH   7 105
BRANCH   6 107
ATOM    107  O4  BGC d   1      15.891 -26.726   6.677  0.00  0.00    -0.348 OA
BRANCH 107 108
ATOM    108  C4  BGC d   1      15.558 -28.032   6.269  0.00  0.00     0.096 C 
ATOM    109  C3  BGC d   1      14.078 -28.031   5.896  0.00  0.00     0.092 C 
ATOM    110  C2  BGC d   1      13.745 -29.306   5.132  0.00  0.00     0.110 C 
ATOM    111  H52 SIA d   1      13.887 -27.164   5.246  0.00  0.00     0.091 H 
ATOM    112  C1  BGC d   1      14.733 -29.512   3.986  0.00  0.00     0.156 C 
ATOM    113  H51 SIA d   1      13.788 -30.170   5.812  0.00  0.00     0.094 H 
ATOM    114  O5  BGC d   1      16.060 -29.580   4.474  0.00  0.00    -0.349 OA
ATOM    115  H57 SIA d   1      14.649 -28.678   3.273  0.00  0.00     0.133 H 
ATOM    116  C5  BGC d   1      16.460 -28.364   5.077  0.00  0.00     0.089 C 
ATOM    117  H54 SIA d   1      16.350 -27.557   4.338  0.00  0.00     0.090 H 
ATOM    118  H53 SIA d   1      15.734 -28.752   7.082  0.00  0.00     0.091 H 
BRANCH 109 119
ATOM    119  O3  BGC d   1      13.226 -27.937   7.029  0.00  0.00    -0.390 OA
ATOM    120  H60 SIA d   1      13.409 -27.130   7.495  0.00  0.00     0.210 HD
ENDBRANCH 109 119
BRANCH 110 121
ATOM    121  O2  BGC d   1      12.437 -29.166   4.611  0.00  0.00    -0.388 OA
ATOM    122  H59 SIA d   1      11.825 -29.038   5.326  0.00  0.00     0.210 HD
ENDBRANCH 110 121
BRANCH 112 123
ATOM    123  O1  BGC d   1      14.416 -30.721   3.346  0.00  0.00    -0.369 OA
ATOM    124  H58 SIA d   1      13.526 -30.680   3.017  0.00  0.00     0.212 HD
ENDBRANCH 112 123
BRANCH 116 125
ATOM    125  C6  BGC d   1      17.940 -28.452   5.465  0.00  0.00     0.043 C 
ATOM    126  H55 SIA d   1      18.255 -27.494   5.905  0.00  0.00     0.078 H 
ATOM    127  H56 SIA d   1      18.537 -28.655   4.564  0.00  0.00     0.078 H 
BRANCH 125 128
ATOM    128  O6  BGC d   1      18.152 -29.484   6.403  0.00  0.00    -0.398 OA
ATOM    129  H61 SIA d   1      17.884 -30.314   6.025  0.00  0.00     0.209 HD
ENDBRANCH 125 128
ENDBRANCH 116 125
ENDBRANCH 107 108
ENDBRANCH   6 107
TORSDOF 36
