REMARK  11 active torsions:
REMARK  status: ('A' for Active; 'I' for Inactive)
REMARK    1  A    between atoms: C2_2  and  C1_1 
REMARK    2  A    between atoms: C2_2  and  O2_15 
REMARK    3  A    between atoms: C4_4  and  O4_16 
REMARK    4  A    between atoms: N5_12  and  C5_5 
REMARK    5  A    between atoms: C6_6  and  C7_7 
REMARK    6  A    between atoms: C7_7  and  C8_8 
REMARK    7  A    between atoms: C7_7  and  O7_18 
REMARK    8  A    between atoms: C8_8  and  C9_9 
REMARK    9  A    between atoms: C8_8  and  O8_19 
REMARK   10  A    between atoms: C9_9  and  O9_20 
REMARK   11  A    between atoms: C10_10  and  C11_11 
REMARK       I    between atoms: C10_10  and  N5_12 
ROOT
ATOM      1  C2  SIA d   1      17.906 -23.017   9.781  0.00  0.00     0.256 C 
ATOM      2  C3  SIA d   1      19.105 -23.600   9.013  0.00  0.00     0.023 C 
ATOM      3  C4  SIA d   1      20.415 -23.388   9.784  0.00  0.00     0.063 C 
ATOM      4  C5  SIA d   1      20.309 -23.957  11.189  0.00  0.00     0.064 C 
ATOM      5  C6  SIA d   1      19.109 -23.319  11.881  0.00  0.00     0.091 C 
ATOM      6  O6  SIA d   1      17.933 -23.554  11.108  0.00  0.00    -0.336 OA
ATOM      7  H1  SIA d   1      19.180 -23.103   8.035  0.00  0.00     0.045 H 
ATOM      8  H2  SIA d   1      18.946 -24.678   8.865  0.00  0.00     0.045 H 
ATOM      9  H3  SIA d   1      20.589 -22.304   9.856  0.00  0.00     0.086 H 
ATOM     10  H4  SIA d   1      20.190 -25.050  11.149  0.00  0.00     0.080 H 
ATOM     11  H5  SIA d   1      19.285 -22.234  11.923  0.00  0.00     0.090 H 
ENDROOT
BRANCH   5  12
ATOM     12  C7  SIA d   1      18.903 -23.811  13.317  0.00  0.00     0.089 C 
ATOM     13  H6  SIA d   1      19.694 -23.374  13.944  0.00  0.00     0.091 H 
BRANCH  12  14
ATOM     14  C8  SIA d   1      17.552 -23.373  13.899  0.00  0.00     0.083 C 
ATOM     15  H7  SIA d   1      16.759 -23.905  13.353  0.00  0.00     0.090 H 
BRANCH  14  16
ATOM     16  C9  SIA d   1      17.435 -23.725  15.381  0.00  0.00     0.043 C 
ATOM     17  H8  SIA d   1      18.346 -23.408  15.911  0.00  0.00     0.078 H 
ATOM     18  H9  SIA d   1      17.304 -24.811  15.495  0.00  0.00     0.078 H 
BRANCH  16  19
ATOM     19  O9  SIA d   1      16.290 -23.037  15.927  0.00  0.00    -0.398 OA
ATOM     20  H18 SIA d   1      16.407 -22.100  15.824  0.00  0.00     0.209 HD
ENDBRANCH  16  19
ENDBRANCH  14  16
BRANCH  14  21
ATOM     21  O8  SIA d   1      17.346 -21.949  13.734  0.00  0.00    -0.391 OA
ATOM     22  H17 SIA d   1      16.481 -21.716  14.052  0.00  0.00     0.210 HD
ENDBRANCH  14  21
ENDBRANCH  12  14
BRANCH  12  23
ATOM     23  O7  SIA d   1      19.039 -25.229  13.347  0.00  0.00    -0.390 OA
ATOM     24  H16 SIA d   1      19.882 -25.473  12.982  0.00  0.00     0.210 HD
ENDBRANCH  12  23
ENDBRANCH   5  12
BRANCH   4  25
ATOM     25  N5  SIA d   1      21.507 -23.611  11.926  0.00  0.00    -0.352 N 
ATOM     26  C10 SIA d   1      22.103 -24.438  12.781  0.00  0.00     0.214 C 
ATOM     27  O10 SIA d   1      21.694 -25.562  12.988  0.00  0.00    -0.274 OA
ATOM     28  H13 SIA d   1      21.906 -22.705  11.785  0.00  0.00     0.163 HD
BRANCH  26  29
ATOM     29  C11 SIA d   1      23.333 -23.917  13.477  0.00  0.00    -0.003 C 
ATOM     30  H10 SIA d   1      23.728 -24.691  14.152  0.00  0.00     0.040 H 
ATOM     31  H11 SIA d   1      23.073 -23.021  14.059  0.00  0.00     0.040 H 
ATOM     32  H12 SIA d   1      24.096 -23.659  12.728  0.00  0.00     0.040 H 
ENDBRANCH  26  29
ENDBRANCH   4  25
BRANCH   3  33
ATOM     33  O4  SIA d   1      21.548 -23.979   9.140  0.00  0.00    -0.393 OA
ATOM     34  H15 SIA d   1      21.627 -23.632   8.259  0.00  0.00     0.210 HD
ENDBRANCH   3  33
BRANCH   1  35
ATOM     35  C1  SIA d   1      17.952 -21.495   9.897  0.00  0.00     0.238 C 
ATOM     36  O1A SIA d   1      18.482 -20.787   9.000  0.00  0.00    -0.644 OA
ATOM     37  O1B SIA d   1      17.447 -20.975  10.922  0.00  0.00    -0.644 OA
ENDBRANCH   1  35
BRANCH   1  38
ATOM     38  O2  SIA d   1      16.665 -23.444   9.156  0.00  0.00    -0.357 OA
ATOM     39  H14 SIA d   1      16.635 -24.393   9.129  0.00  0.00     0.213 HD
ENDBRANCH   1  38
TORSDOF 11
