REMARK WARNING: 32 MAX_TORS EXCEEDED!!!
REMARK  36 active torsions:
REMARK  status: ('A' for Active; 'I' for Inactive)
REMARK    1  A    between atoms: C2_2  and  C1_1 
REMARK    2  A    between atoms: O6_31  and  C2_2 
REMARK    3  A    between atoms: C4_4  and  O4_15 
REMARK    4  A    between atoms: C5_5  and  N5_12 
REMARK    5  A    between atoms: C6_6  and  C7_7 
REMARK    6  A    between atoms: C7_7  and  C8_8 
REMARK    7  A    between atoms: C7_7  and  O7_17 
REMARK    8  A    between atoms: C8_8  and  C9_9 
REMARK    9  A    between atoms: C8_8  and  O8_18 
REMARK   10  A    between atoms: C9_9  and  O9_19 
REMARK   11  A    between atoms: C10_10  and  C11_11 
REMARK       I    between atoms: N5_12  and  C10_10 
REMARK   12  A    between atoms: O4_42  and  C1_21 
REMARK   13  A    between atoms: C2_22  and  O2_27 
REMARK   14  A    between atoms: C3_23  and  O3_28 
REMARK   15  A    between atoms: C4_24  and  O4_29 
REMARK   16  A    between atoms: C5_25  and  C6_26 
REMARK   17  A    between atoms: C6_26  and  O6_31 
REMARK   18  A    between atoms: O3_53  and  C1_32 
REMARK   19  A    between atoms: C2_33  and  N2_40 
REMARK   20  A    between atoms: C3_34  and  O3_41 
REMARK   21  A    between atoms: C4_35  and  O4_42 
REMARK   22  A    between atoms: C5_36  and  C6_37 
REMARK   23  A    between atoms: C6_37  and  O6_44 
REMARK   24  A    between atoms: C7_38  and  C8_39 
REMARK       I    between atoms: N2_40  and  C7_38 
REMARK   25  A    between atoms: O4_66  and  C1_46 
REMARK   26  A    between atoms: C2_47  and  O2_52 
REMARK   27  A    between atoms: C3_48  and  O3_53 
REMARK   28  A    between atoms: C4_49  and  O4_54 
REMARK   29  A    between atoms: C5_50  and  C6_51 
REMARK   30  A    between atoms: C6_51  and  O6_56 
REMARK   31  A    between atoms: C2_57  and  O2_64 
REMARK   32  A    between atoms: C3_58  and  O3_65 
REMARK   33  A    between atoms: C4_59  and  O4_66 
REMARK   34  A    between atoms: C5_60  and  C6_61 
REMARK   35  A    between atoms: C6_61  and  O6_68 
REMARK   36  A    between atoms: C1_62  and  O1_63 
ROOT
ATOM      1  H28 SIA d   1      13.607  22.524   5.766  0.00  0.00     0.132 H 
ATOM      2  H29 SIA d   1      15.536  21.828   8.016  0.00  0.00     0.084 H 
ATOM      3  H30 SIA d   1      15.227  24.453   6.535  0.00  0.00     0.090 H 
ATOM      4  H31 SIA d   1      17.585  22.522   6.387  0.00  0.00     0.091 H 
ATOM      5  H32 SIA d   1      15.376  23.079   4.347  0.00  0.00     0.090 H 
ATOM      6  C1  NAG d   1      14.262  21.833   6.317  0.00  0.00     0.154 C 
ATOM      7  C2  NAG d   1      14.918  22.558   7.473  0.00  0.00     0.087 C 
ATOM      8  C3  NAG d   1      15.842  23.661   6.986  0.00  0.00     0.087 C 
ATOM      9  C4  NAG d   1      16.806  23.146   5.925  0.00  0.00     0.095 C 
ATOM     10  C5  NAG d   1      16.050  22.379   4.863  0.00  0.00     0.089 C 
ATOM     11  O5  NAG d   1      15.272  21.361   5.459  0.00  0.00    -0.349 OA
ENDROOT
BRANCH   9  12
ATOM     12  O4  NAG d   1      17.363  24.243   5.246  0.00  0.00    -0.348 OA
BRANCH  12  13
ATOM     13  C1  GAL d   1      18.651  24.636   5.718  0.00  0.00     0.159 C 
ATOM     14  C2  GAL d   1      19.393  25.308   4.561  0.00  0.00     0.110 C 
ATOM     15  C3  GAL d   1      20.764  25.749   5.028  0.00  0.00     0.092 C 
ATOM     16  H19 SIA d   1      18.818  26.182   4.220  0.00  0.00     0.094 H 
ATOM     17  C4  GAL d   1      20.616  26.593   6.279  0.00  0.00     0.090 C 
ATOM     18  H20 SIA d   1      21.372  24.863   5.262  0.00  0.00     0.091 H 
ATOM     19  C5  GAL d   1      19.778  25.894   7.339  0.00  0.00     0.089 C 
ATOM     20  H21 SIA d   1      21.612  26.828   6.683  0.00  0.00     0.091 H 
ATOM     21  O5  GAL d   1      18.531  25.506   6.818  0.00  0.00    -0.348 OA
ATOM     22  H22 SIA d   1      20.324  24.994   7.658  0.00  0.00     0.090 H 
ATOM     23  H18 SIA d   1      19.209  23.743   6.035  0.00  0.00     0.133 H 
BRANCH  14  24
ATOM     24  O2  GAL d   1      19.560  24.402   3.484  0.00  0.00    -0.388 OA
ATOM     25  H25 SIA d   1      20.062  23.651   3.778  0.00  0.00     0.210 HD
ENDBRANCH  14  24
BRANCH  15  26
ATOM     26  O3  GAL d   1      21.397  26.483   4.001  0.00  0.00    -0.390 OA
ATOM     27  H26 SIA d   1      20.876  27.250   3.794  0.00  0.00     0.210 HD
ENDBRANCH  15  26
BRANCH  17  28
ATOM     28  O4  GAL d   1      19.933  27.761   5.948  0.00  0.00    -0.390 OA
ATOM     29  H27 SIA d   1      20.421  28.235   5.285  0.00  0.00     0.210 HD
ENDBRANCH  17  28
BRANCH  19  30
ATOM     30  C6  GAL d   1      19.522  26.758   8.566  0.00  0.00     0.050 C 
ATOM     31  H23 SIA d   1      19.200  27.761   8.249  0.00  0.00     0.078 H 
ATOM     32  H24 SIA d   1      20.446  26.840   9.157  0.00  0.00     0.078 H 
BRANCH  30  33
ATOM     33  O6  GAL d   1      18.500  26.158   9.359  0.00  0.00    -0.344 OA
BRANCH  33  34
ATOM     34  C2  SIA d   1      18.958  25.405  10.505  0.00  0.00     0.258 C 
ATOM     35  C3  SIA d   1      17.691  24.915  11.223  0.00  0.00     0.024 C 
ATOM     36  C4  SIA d   1      18.034  24.351  12.599  0.00  0.00     0.063 C 
ATOM     37  H1  SIA d   1      17.215  24.128  10.619  0.00  0.00     0.045 H 
ATOM     38  H2  SIA d   1      16.994  25.758  11.342  0.00  0.00     0.045 H 
ATOM     39  C5  SIA d   1      18.839  25.363  13.420  0.00  0.00     0.064 C 
ATOM     40  H3  SIA d   1      18.655  23.454  12.457  0.00  0.00     0.086 H 
ATOM     41  C6  SIA d   1      20.071  25.728  12.631  0.00  0.00     0.091 C 
ATOM     42  H4  SIA d   1      18.233  26.263  13.602  0.00  0.00     0.080 H 
ATOM     43  O6  SIA d   1      19.651  26.282  11.389  0.00  0.00    -0.336 OA
ATOM     44  H5  SIA d   1      20.648  24.810  12.445  0.00  0.00     0.090 H 
BRANCH  34  45
ATOM     45  C1  SIA d   1      19.868  24.249  10.054  0.00  0.00     0.239 C 
ATOM     46  O1A SIA d   1      19.389  23.135   9.720  0.00  0.00    -0.644 OA
ATOM     47  O1B SIA d   1      21.101  24.443   9.987  0.00  0.00    -0.644 OA
ENDBRANCH  34  45
BRANCH  36  48
ATOM     48  O4  SIA d   1      16.843  23.964  13.297  0.00  0.00    -0.393 OA
ATOM     49  H14 SIA d   1      17.079  23.568  14.128  0.00  0.00     0.210 HD
ENDBRANCH  36  48
BRANCH  39  50
ATOM     50  N5  SIA d   1      19.214  24.774  14.681  0.00  0.00    -0.352 N 
ATOM     51  C10 SIA d   1      19.266  25.416  15.840  0.00  0.00     0.214 C 
ATOM     52  O10 SIA d   1      19.021  26.596  15.945  0.00  0.00    -0.274 OA
ATOM     53  H13 SIA d   1      19.454  23.803  14.682  0.00  0.00     0.163 HD
BRANCH  51  54
ATOM     54  C11 SIA d   1      19.672  24.594  17.036  0.00  0.00    -0.003 C 
ATOM     55  H10 SIA d   1      19.679  25.231  17.933  0.00  0.00     0.040 H 
ATOM     56  H11 SIA d   1      20.678  24.180  16.872  0.00  0.00     0.040 H 
ATOM     57  H12 SIA d   1      18.955  23.771  17.176  0.00  0.00     0.040 H 
ENDBRANCH  51  54
ENDBRANCH  39  50
BRANCH  41  58
ATOM     58  C7  SIA d   1      20.977  26.725  13.334  0.00  0.00     0.089 C 
ATOM     59  H6  SIA d   1      21.407  26.231  14.217  0.00  0.00     0.091 H 
BRANCH  58  60
ATOM     60  C8  SIA d   1      22.111  27.236  12.464  0.00  0.00     0.083 C 
ATOM     61  H7  SIA d   1      21.706  28.000  11.784  0.00  0.00     0.090 H 
BRANCH  60  62
ATOM     62  C9  SIA d   1      23.193  27.891  13.320  0.00  0.00     0.043 C 
ATOM     63  H8  SIA d   1      23.515  27.197  14.110  0.00  0.00     0.078 H 
ATOM     64  H9  SIA d   1      22.801  28.811  13.778  0.00  0.00     0.078 H 
BRANCH  62  65
ATOM     65  O9  SIA d   1      24.299  28.205  12.469  0.00  0.00    -0.398 OA
ATOM     66  H17 SIA d   1      24.630  27.407  12.075  0.00  0.00     0.209 HD
ENDBRANCH  62  65
ENDBRANCH  60  62
BRANCH  60  67
ATOM     67  O8  SIA d   1      22.641  26.177  11.675  0.00  0.00    -0.391 OA
ATOM     68  H16 SIA d   1      21.945  25.791  11.156  0.00  0.00     0.210 HD
ENDBRANCH  60  67
ENDBRANCH  58  60
BRANCH  58  69
ATOM     69  O7  SIA d   1      20.225  27.860  13.748  0.00  0.00    -0.390 OA
ATOM     70  H15 SIA d   1      19.503  27.577  14.297  0.00  0.00     0.210 HD
ENDBRANCH  58  69
ENDBRANCH  41  58
ENDBRANCH  33  34
ENDBRANCH  30  33
ENDBRANCH  19  30
ENDBRANCH  12  13
ENDBRANCH   9  12
BRANCH   8  71
ATOM     71  O3  NAG d   1      16.548  24.210   8.075  0.00  0.00    -0.391 OA
ATOM     72  H39 SIA d   1      17.085  24.932   7.771  0.00  0.00     0.210 HD
ENDBRANCH   8  71
BRANCH  10  73
ATOM     73  C6  NAG d   1      16.993  21.773   3.830  0.00  0.00     0.043 C 
ATOM     74  H33 SIA d   1      17.679  22.553   3.468  0.00  0.00     0.078 H 
ATOM     75  H34 SIA d   1      16.402  21.385   2.987  0.00  0.00     0.078 H 
BRANCH  73  76
ATOM     76  O6  NAG d   1      17.744  20.722   4.387  0.00  0.00    -0.398 OA
ATOM     77  H40 SIA d   1      17.156  20.044   4.698  0.00  0.00     0.209 HD
ENDBRANCH  73  76
ENDBRANCH  10  73
BRANCH   7  78
ATOM     78  N2  NAG d   1      13.914  23.059   8.401  0.00  0.00    -0.349 N 
ATOM     79  C7  NAG d   1      13.878  22.698   9.692  0.00  0.00     0.214 C 
ATOM     80  O7  NAG d   1      14.680  21.916  10.230  0.00  0.00    -0.274 OA
ATOM     81  H38 SIA d   1      13.223  23.698   8.062  0.00  0.00     0.163 HD
BRANCH  79  82
ATOM     82  C8  NAG d   1      12.771  23.304  10.511  0.00  0.00    -0.003 C 
ATOM     83  H35 SIA d   1      12.839  22.939  11.547  0.00  0.00     0.040 H 
ATOM     84  H36 SIA d   1      11.799  23.016  10.084  0.00  0.00     0.040 H 
ATOM     85  H37 SIA d   1      12.865  24.400  10.501  0.00  0.00     0.040 H 
ENDBRANCH  79  82
ENDBRANCH   7  78
BRANCH   6  86
ATOM     86  O3  GAL d   1      13.473  20.742   6.840  0.00  0.00    -0.348 OA
BRANCH  86  87
ATOM     87  C3  GAL d   1      12.482  20.294   5.949  0.00  0.00     0.098 C 
ATOM     88  C2  GAL d   1      11.352  19.810   6.818  0.00  0.00     0.110 C 
ATOM     89  C1  GAL d   1      10.222  19.198   5.998  0.00  0.00     0.159 C 
ATOM     90  H42 SIA d   1      11.730  19.053   7.521  0.00  0.00     0.094 H 
ATOM     91  O5  GAL d   1      10.705  18.158   5.181  0.00  0.00    -0.348 OA
ATOM     92  H41 SIA d   1       9.767  19.964   5.352  0.00  0.00     0.133 H 
ATOM     93  C5  GAL d   1      11.749  18.554   4.313  0.00  0.00     0.089 C 
ATOM     94  C4  GAL d   1      12.941  19.128   5.096  0.00  0.00     0.090 C 
ATOM     95  H45 SIA d   1      11.374  19.325   3.623  0.00  0.00     0.090 H 
ATOM     96  H44 SIA d   1      13.695  19.486   4.380  0.00  0.00     0.091 H 
ATOM     97  H43 SIA d   1      12.157  21.120   5.300  0.00  0.00     0.091 H 
BRANCH  88  98
ATOM     98  O2  GAL d   1      10.880  20.919   7.526  0.00  0.00    -0.388 OA
ATOM     99  H48 SIA d   1      10.162  20.652   8.088  0.00  0.00     0.210 HD
ENDBRANCH  88  98
BRANCH  89 100
ATOM    100  O4  BGC d   1       9.262  18.757   6.968  0.00  0.00    -0.348 OA
BRANCH 100 101
ATOM    101  C4  BGC d   1       8.116  18.109   6.395  0.00  0.00     0.096 C 
ATOM    102  C3  BGC d   1       7.987  16.743   7.058  0.00  0.00     0.092 C 
ATOM    103  C2  BGC d   1       6.678  16.100   6.643  0.00  0.00     0.110 C 
ATOM    104  H52 SIA d   1       7.976  16.885   8.149  0.00  0.00     0.091 H 
ATOM    105  C1  BGC d   1       5.537  17.034   7.033  0.00  0.00     0.156 C 
ATOM    106  H51 SIA d   1       6.669  15.953   5.553  0.00  0.00     0.094 H 
ATOM    107  O5  BGC d   1       5.670  18.256   6.309  0.00  0.00    -0.349 OA
ATOM    108  H57 SIA d   1       5.588  17.238   8.113  0.00  0.00     0.133 H 
ATOM    109  C5  BGC d   1       6.865  18.961   6.641  0.00  0.00     0.089 C 
ATOM    110  H54 SIA d   1       6.835  19.222   7.709  0.00  0.00     0.090 H 
ATOM    111  H53 SIA d   1       8.260  17.982   5.312  0.00  0.00     0.091 H 
BRANCH 102 112
ATOM    112  O3  BGC d   1       9.098  15.899   6.727  0.00  0.00    -0.390 OA
ATOM    113  H60 SIA d   1       9.903  16.306   7.024  0.00  0.00     0.210 HD
ENDBRANCH 102 112
BRANCH 103 114
ATOM    114  O2  BGC d   1       6.547  14.828   7.287  0.00  0.00    -0.388 OA
ATOM    115  H59 SIA d   1       7.269  14.267   7.027  0.00  0.00     0.210 HD
ENDBRANCH 103 114
BRANCH 105 116
ATOM    116  O1  BGC d   1       4.272  16.440   6.726  0.00  0.00    -0.369 OA
ATOM    117  H58 SIA d   1       4.181  15.626   7.207  0.00  0.00     0.212 HD
ENDBRANCH 105 116
BRANCH 109 118
ATOM    118  C6  BGC d   1       6.897  20.241   5.827  0.00  0.00     0.043 C 
ATOM    119  H55 SIA d   1       5.891  20.475   5.450  0.00  0.00     0.078 H 
ATOM    120  H56 SIA d   1       7.590  20.133   4.980  0.00  0.00     0.078 H 
BRANCH 118 121
ATOM    121  O6  BGC d   1       7.346  21.274   6.699  0.00  0.00    -0.398 OA
ATOM    122  H61 SIA d   1       8.213  21.059   7.023  0.00  0.00     0.209 HD
ENDBRANCH 118 121
ENDBRANCH 109 118
ENDBRANCH 100 101
ENDBRANCH  89 100
BRANCH  93 123
ATOM    123  C6  GAL d   1      12.185  17.329   3.518  0.00  0.00     0.043 C 
ATOM    124  H46 SIA d   1      12.614  16.587   4.207  0.00  0.00     0.078 H 
ATOM    125  H47 SIA d   1      12.946  17.630   2.783  0.00  0.00     0.078 H 
BRANCH 123 126
ATOM    126  O6  GAL d   1      11.093  16.751   2.841  0.00  0.00    -0.398 OA
ATOM    127  H50 SIA d   1      10.434  16.486   3.473  0.00  0.00     0.209 HD
ENDBRANCH 123 126
ENDBRANCH  93 123
BRANCH  94 128
ATOM    128  O4  GAL d   1      13.529  18.127   5.914  0.00  0.00    -0.390 OA
ATOM    129  H49 SIA d   1      14.262  18.499   6.390  0.00  0.00     0.210 HD
ENDBRANCH  94 128
ENDBRANCH  86  87
ENDBRANCH   6  86
TORSDOF 36
