REMARK WARNING: 32 MAX_TORS EXCEEDED!!!
REMARK  36 active torsions:
REMARK  status: ('A' for Active; 'I' for Inactive)
REMARK    1  A    between atoms: C2_2  and  C1_1 
REMARK    2  A    between atoms: O3_28  and  C2_2 
REMARK    3  A    between atoms: C4_4  and  O4_15 
REMARK    4  A    between atoms: C5_5  and  N5_12 
REMARK    5  A    between atoms: C6_6  and  C7_7 
REMARK    6  A    between atoms: C7_7  and  C8_8 
REMARK    7  A    between atoms: C7_7  and  O7_17 
REMARK    8  A    between atoms: C8_8  and  C9_9 
REMARK    9  A    between atoms: C8_8  and  O8_18 
REMARK   10  A    between atoms: C9_9  and  O9_19 
REMARK   11  A    between atoms: C10_10  and  C11_11 
REMARK       I    between atoms: N5_12  and  C10_10 
REMARK   12  A    between atoms: O4_66  and  C1_21 
REMARK   13  A    between atoms: C2_22  and  O2_27 
REMARK   14  A    between atoms: C3_23  and  O3_28 
REMARK   15  A    between atoms: C4_24  and  O4_29 
REMARK   16  A    between atoms: C5_25  and  C6_26 
REMARK   17  A    between atoms: C6_26  and  O6_31 
REMARK   18  A    between atoms: O4_29  and  C1_32 
REMARK   19  A    between atoms: C2_33  and  N2_40 
REMARK   20  A    between atoms: C3_34  and  O3_41 
REMARK   21  A    between atoms: C4_35  and  O4_42 
REMARK   22  A    between atoms: C5_36  and  C6_37 
REMARK   23  A    between atoms: C6_37  and  O6_44 
REMARK   24  A    between atoms: C7_38  and  C8_39 
REMARK       I    between atoms: N2_40  and  C7_38 
REMARK   25  A    between atoms: O3_41  and  C1_46 
REMARK   26  A    between atoms: C2_47  and  O2_52 
REMARK   27  A    between atoms: C3_48  and  O3_53 
REMARK   28  A    between atoms: C4_49  and  O4_54 
REMARK   29  A    between atoms: C5_50  and  C6_51 
REMARK   30  A    between atoms: C6_51  and  O6_56 
REMARK   31  A    between atoms: C2_57  and  O2_64 
REMARK   32  A    between atoms: C3_58  and  O3_65 
REMARK   33  A    between atoms: C4_59  and  O4_66 
REMARK   34  A    between atoms: C5_60  and  C6_61 
REMARK   35  A    between atoms: C6_61  and  O6_68 
REMARK   36  A    between atoms: C1_62  and  O1_63 
ROOT
ATOM      1  H18 SIA d   1      -2.070  -0.129  17.844  0.00  0.00     0.133 H 
ATOM      2  H19 SIA d   1      -0.040   1.323  16.104  0.00  0.00     0.094 H 
ATOM      3  H20 SIA d   1       0.473   0.440  18.983  0.00  0.00     0.091 H 
ATOM      4  H21 SIA d   1       0.417   2.811  19.575  0.00  0.00     0.091 H 
ATOM      5  H22 SIA d   1      -1.733   1.581  19.648  0.00  0.00     0.090 H 
ATOM      6  C1  GAL d   1      -1.780   0.672  17.148  0.00  0.00     0.159 C 
ATOM      7  C2  GAL d   1      -0.271   0.657  16.948  0.00  0.00     0.110 C 
ATOM      8  C3  GAL d   1       0.508   1.176  18.166  0.00  0.00     0.099 C 
ATOM      9  C4  GAL d   1      -0.074   2.498  18.642  0.00  0.00     0.096 C 
ATOM     10  C5  GAL d   1      -1.571   2.334  18.863  0.00  0.00     0.089 C 
ATOM     11  O5  GAL d   1      -2.224   1.913  17.676  0.00  0.00    -0.348 OA
ENDROOT
BRANCH   9  12
ATOM     12  O4  GAL d   1       0.110   3.476  17.642  0.00  0.00    -0.348 OA
BRANCH  12  13
ATOM     13  C1  NGA d   1       1.097   4.427  17.994  0.00  0.00     0.154 C 
ATOM     14  C2  NGA d   1       1.702   5.058  16.740  0.00  0.00     0.087 C 
ATOM     15  C3  NGA d   1       2.723   6.121  17.168  0.00  0.00     0.093 C 
ATOM     16  H28 SIA d   1       0.910   5.529  16.140  0.00  0.00     0.084 H 
ATOM     17  C4  NGA d   1       2.028   7.092  18.125  0.00  0.00     0.089 C 
ATOM     18  H29 SIA d   1       3.521   5.606  17.723  0.00  0.00     0.091 H 
ATOM     19  C5  NGA d   1       1.508   6.320  19.335  0.00  0.00     0.089 C 
ATOM     20  H30 SIA d   1       2.759   7.840  18.466  0.00  0.00     0.091 H 
ATOM     21  O5  NGA d   1       0.524   5.384  18.870  0.00  0.00    -0.349 OA
ATOM     22  H31 SIA d   1       2.340   5.752  19.776  0.00  0.00     0.090 H 
ATOM     23  H27 SIA d   1       1.905   3.910  18.534  0.00  0.00     0.132 H 
BRANCH  14  24
ATOM     24  N2  NGA d   1       2.352   4.017  15.956  0.00  0.00    -0.349 N 
ATOM     25  C7  NGA d   1       1.786   3.371  14.922  0.00  0.00     0.214 C 
ATOM     26  O7  NGA d   1       0.656   3.601  14.536  0.00  0.00    -0.274 OA
ATOM     27  H37 SIA d   1       3.287   3.764  16.205  0.00  0.00     0.163 HD
BRANCH  25  28
ATOM     28  C8  NGA d   1       2.624   2.323  14.241  0.00  0.00    -0.003 C 
ATOM     29  H34 SIA d   1       2.050   1.872  13.418  0.00  0.00     0.040 H 
ATOM     30  H35 SIA d   1       2.897   1.543  14.967  0.00  0.00     0.040 H 
ATOM     31  H36 SIA d   1       3.537   2.787  13.840  0.00  0.00     0.040 H 
ENDBRANCH  25  28
ENDBRANCH  14  24
BRANCH  15  32
ATOM     32  O3  NGA d   1       3.363   6.827  16.071  0.00  0.00    -0.348 OA
BRANCH  32  33
ATOM     33  C1  GAL d   1       4.605   7.415  16.521  0.00  0.00     0.159 C 
ATOM     34  C2  GAL d   1       5.437   7.921  15.357  0.00  0.00     0.110 C 
ATOM     35  C3  GAL d   1       6.712   8.587  15.859  0.00  0.00     0.092 C 
ATOM     36  H41 SIA d   1       4.849   8.656  14.788  0.00  0.00     0.094 H 
ATOM     37  C4  GAL d   1       6.398   9.616  16.942  0.00  0.00     0.090 C 
ATOM     38  H42 SIA d   1       7.390   7.823  16.267  0.00  0.00     0.091 H 
ATOM     39  C5  GAL d   1       5.510   9.008  18.031  0.00  0.00     0.089 C 
ATOM     40  H43 SIA d   1       7.339   9.955  17.400  0.00  0.00     0.091 H 
ATOM     41  O5  GAL d   1       4.363   8.495  17.397  0.00  0.00    -0.348 OA
ATOM     42  H44 SIA d   1       6.061   8.191  18.519  0.00  0.00     0.090 H 
ATOM     43  H40 SIA d   1       5.178   6.643  17.056  0.00  0.00     0.133 H 
BRANCH  34  44
ATOM     44  O2  GAL d   1       5.769   6.843  14.518  0.00  0.00    -0.388 OA
ATOM     45  H47 SIA d   1       6.272   7.162  13.778  0.00  0.00     0.210 HD
ENDBRANCH  34  44
BRANCH  35  46
ATOM     46  O3  GAL d   1       7.323   9.240  14.772  0.00  0.00    -0.390 OA
ATOM     47  H48 SIA d   1       6.732   9.899  14.427  0.00  0.00     0.210 HD
ENDBRANCH  35  46
BRANCH  37  48
ATOM     48  O4  GAL d   1       5.747  10.722  16.340  0.00  0.00    -0.390 OA
ATOM     49  H49 SIA d   1       6.307  11.090  15.667  0.00  0.00     0.210 HD
ENDBRANCH  37  48
BRANCH  39  50
ATOM     50  C6  GAL d   1       5.069  10.009  19.111  0.00  0.00     0.043 C 
ATOM     51  H45 SIA d   1       4.624  10.881  18.610  0.00  0.00     0.078 H 
ATOM     52  H46 SIA d   1       5.961  10.324  19.673  0.00  0.00     0.078 H 
BRANCH  50  53
ATOM     53  O6  GAL d   1       4.125   9.498  20.031  0.00  0.00    -0.398 OA
ATOM     54  H50 SIA d   1       4.497   8.749  20.482  0.00  0.00     0.209 HD
ENDBRANCH  50  53
ENDBRANCH  39  50
ENDBRANCH  32  33
ENDBRANCH  15  32
BRANCH  17  55
ATOM     55  O4  NGA d   1       0.951   7.772  17.460  0.00  0.00    -0.390 OA
ATOM     56  H38 SIA d   1       0.309   7.136  17.168  0.00  0.00     0.210 HD
ENDBRANCH  17  55
BRANCH  19  57
ATOM     57  C6  NGA d   1       0.983   7.283  20.408  0.00  0.00     0.043 C 
ATOM     58  H32 SIA d   1       0.767   8.256  19.943  0.00  0.00     0.078 H 
ATOM     59  H33 SIA d   1       1.751   7.410  21.185  0.00  0.00     0.078 H 
BRANCH  57  60
ATOM     60  O6  NGA d   1      -0.212   6.776  21.010  0.00  0.00    -0.398 OA
ATOM     61  H39 SIA d   1      -0.880   6.668  20.343  0.00  0.00     0.209 HD
ENDBRANCH  57  60
ENDBRANCH  19  57
ENDBRANCH  12  13
ENDBRANCH   9  12
BRANCH   8  62
ATOM     62  O3  GAL d   1       1.838   1.372  17.736  0.00  0.00    -0.336 OA
BRANCH  62  63
ATOM     63  C2  SIA d   1       2.899   0.935  18.598  0.00  0.00     0.259 C 
ATOM     64  C3  SIA d   1       2.992  -0.599  18.666  0.00  0.00     0.024 C 
ATOM     65  C4  SIA d   1       4.004  -1.062  19.731  0.00  0.00     0.063 C 
ATOM     66  H1  SIA d   1       3.308  -0.981  17.684  0.00  0.00     0.045 H 
ATOM     67  H2  SIA d   1       2.001  -1.006  18.916  0.00  0.00     0.045 H 
ATOM     68  C5  SIA d   1       3.759  -0.362  21.078  0.00  0.00     0.064 C 
ATOM     69  H3  SIA d   1       5.013  -0.794  19.385  0.00  0.00     0.086 H 
ATOM     70  C6  SIA d   1       3.759   1.147  20.859  0.00  0.00     0.091 C 
ATOM     71  H4  SIA d   1       2.777  -0.667  21.468  0.00  0.00     0.080 H 
ATOM     72  O6  SIA d   1       2.743   1.474  19.918  0.00  0.00    -0.336 OA
ATOM     73  H5  SIA d   1       4.738   1.429  20.443  0.00  0.00     0.090 H 
BRANCH  63  74
ATOM     74  C1  SIA d   1       4.131   1.544  17.941  0.00  0.00     0.239 C 
ATOM     75  O1A SIA d   1       4.864   0.844  17.183  0.00  0.00    -0.644 OA
ATOM     76  O1B SIA d   1       4.364   2.760  18.169  0.00  0.00    -0.644 OA
ENDBRANCH  63  74
BRANCH  65  77
ATOM     77  O4  SIA d   1       3.944  -2.483  19.886  0.00  0.00    -0.393 OA
ATOM     78  H14 SIA d   1       3.086  -2.729  20.210  0.00  0.00     0.210 HD
ENDBRANCH  65  77
BRANCH  68  79
ATOM     79  N5  SIA d   1       4.783  -0.743  22.041  0.00  0.00    -0.352 N 
ATOM     80  C10 SIA d   1       4.524  -0.940  23.335  0.00  0.00     0.214 C 
ATOM     81  O10 SIA d   1       3.405  -0.791  23.816  0.00  0.00    -0.274 OA
ATOM     82  H13 SIA d   1       5.722  -0.862  21.718  0.00  0.00     0.163 HD
BRANCH  80  83
ATOM     83  C11 SIA d   1       5.701  -1.357  24.172  0.00  0.00    -0.003 C 
ATOM     84  H10 SIA d   1       5.380  -1.492  25.215  0.00  0.00     0.040 H 
ATOM     85  H11 SIA d   1       6.478  -0.580  24.125  0.00  0.00     0.040 H 
ATOM     86  H12 SIA d   1       6.107  -2.305  23.788  0.00  0.00     0.040 H 
ENDBRANCH  80  83
ENDBRANCH  68  79
BRANCH  70  87
ATOM     87  C7  SIA d   1       3.534   1.962  22.123  0.00  0.00     0.089 C 
ATOM     88  H6  SIA d   1       4.437   1.876  22.746  0.00  0.00     0.091 H 
BRANCH  87  89
ATOM     89  C8  SIA d   1       3.299   3.436  21.807  0.00  0.00     0.083 C 
ATOM     90  H7  SIA d   1       2.303   3.539  21.351  0.00  0.00     0.090 H 
BRANCH  89  91
ATOM     91  C9  SIA d   1       3.326   4.253  23.097  0.00  0.00     0.043 C 
ATOM     92  H8  SIA d   1       4.105   3.857  23.765  0.00  0.00     0.078 H 
ATOM     93  H9  SIA d   1       2.347   4.185  23.594  0.00  0.00     0.078 H 
BRANCH  91  94
ATOM     94  O9  SIA d   1       3.611   5.621  22.792  0.00  0.00    -0.398 OA
ATOM     95  H17 SIA d   1       4.457   5.679  22.363  0.00  0.00     0.209 HD
ENDBRANCH  91  94
ENDBRANCH  89  91
BRANCH  89  96
ATOM     96  O8  SIA d   1       4.283   3.926  20.861  0.00  0.00    -0.391 OA
ATOM     97  H16 SIA d   1       4.247   3.403  20.069  0.00  0.00     0.210 HD
ENDBRANCH  89  96
ENDBRANCH  87  89
BRANCH  87  98
ATOM     98  O7  SIA d   1       2.422   1.483  22.869  0.00  0.00    -0.390 OA
ATOM     99  H15 SIA d   1       2.552   0.565  23.075  0.00  0.00     0.210 HD
ENDBRANCH  87  98
ENDBRANCH  70  87
ENDBRANCH  62  63
ENDBRANCH   8  62
BRANCH  10 100
ATOM    100  C6  GAL d   1      -2.175   3.659  19.304  0.00  0.00     0.043 C 
ATOM    101  H23 SIA d   1      -2.348   4.300  18.427  0.00  0.00     0.078 H 
ATOM    102  H24 SIA d   1      -1.491   4.167  20.000  0.00  0.00     0.078 H 
BRANCH 100 103
ATOM    103  O6  GAL d   1      -3.395   3.392  19.946  0.00  0.00    -0.398 OA
ATOM    104  H26 SIA d   1      -3.788   4.209  20.229  0.00  0.00     0.209 HD
ENDBRANCH 100 103
ENDBRANCH  10 100
BRANCH   7 105
ATOM    105  O2  GAL d   1       0.139  -0.651  16.601  0.00  0.00    -0.388 OA
ATOM    106  H25 SIA d   1      -0.357  -0.948  15.847  0.00  0.00     0.210 HD
ENDBRANCH   7 105
BRANCH   6 107
ATOM    107  O4  BGC d   1      -2.352   0.420  15.851  0.00  0.00    -0.348 OA
BRANCH 107 108
ATOM    108  C4  BGC d   1      -3.770   0.180  15.913  0.00  0.00     0.096 C 
ATOM    109  C3  BGC d   1      -4.546   1.351  15.312  0.00  0.00     0.092 C 
ATOM    110  C2  BGC d   1      -6.021   1.002  15.235  0.00  0.00     0.110 C 
ATOM    111  H52 SIA d   1      -4.162   1.547  14.300  0.00  0.00     0.091 H 
ATOM    112  C1  BGC d   1      -6.216  -0.306  14.482  0.00  0.00     0.156 C 
ATOM    113  H51 SIA d   1      -6.415   0.886  16.255  0.00  0.00     0.094 H 
ATOM    114  O5  BGC d   1      -5.469  -1.351  15.102  0.00  0.00    -0.349 OA
ATOM    115  H57 SIA d   1      -5.893  -0.188  13.437  0.00  0.00     0.133 H 
ATOM    116  C5  BGC d   1      -4.063  -1.107  15.144  0.00  0.00     0.089 C 
ATOM    117  H54 SIA d   1      -3.684  -0.998  14.117  0.00  0.00     0.090 H 
ATOM    118  H53 SIA d   1      -4.073   0.055  16.963  0.00  0.00     0.091 H 
BRANCH 109 119
ATOM    119  O3  BGC d   1      -4.412   2.538  16.100  0.00  0.00    -0.390 OA
ATOM    120  H60 SIA d   1      -3.495   2.782  16.150  0.00  0.00     0.210 HD
ENDBRANCH 109 119
BRANCH 110 121
ATOM    121  O2  BGC d   1      -6.727   2.059  14.580  0.00  0.00    -0.388 OA
ATOM    122  H59 SIA d   1      -6.598   2.869  15.059  0.00  0.00     0.210 HD
ENDBRANCH 110 121
BRANCH 112 123
ATOM    123  O1  BGC d   1      -7.603  -0.641  14.534  0.00  0.00    -0.369 OA
ATOM    124  H58 SIA d   1      -8.110   0.049  14.123  0.00  0.00     0.212 HD
ENDBRANCH 112 123
BRANCH 116 125
ATOM    125  C6  BGC d   1      -3.385  -2.304  15.801  0.00  0.00     0.043 C 
ATOM    126  H55 SIA d   1      -2.293  -2.195  15.732  0.00  0.00     0.078 H 
ATOM    127  H56 SIA d   1      -3.694  -3.230  15.294  0.00  0.00     0.078 H 
BRANCH 125 128
ATOM    128  O6  BGC d   1      -3.779  -2.353  17.178  0.00  0.00    -0.398 OA
ATOM    129  H61 SIA d   1      -4.723  -2.445  17.233  0.00  0.00     0.209 HD
ENDBRANCH 125 128
ENDBRANCH 116 125
ENDBRANCH 107 108
ENDBRANCH   6 107
TORSDOF 36
