REMARK  4 active torsions:
REMARK  status: ('A' for Active; 'I' for Inactive)
REMARK    1  A    between atoms: CAB_1  and  CAV_2 
REMARK    2  A    between atoms: CAO_9  and  OAC_10 
REMARK    3  A    between atoms: CAU_19  and  OAD_20 
REMARK    4  A    between atoms: CAU_19  and  CAE_21 
ROOT
ATOM      1  CAE 3WF d   1      15.118  80.363   1.008  0.00  0.00    -0.078 C 
ATOM      2  CAA 3WF d   1      15.267  81.204   1.269  0.00  0.00    -0.151 C 
ATOM      3  H24 3WF d   1      15.443  82.198   1.578  0.00  0.00     0.166 H 
ENDROOT
BRANCH   1   4
ATOM      4  CAU 3WF d   1      14.858  79.030   0.578  0.00  0.00     0.128 C 
ATOM      5  CAV 3WF d   1      13.401  78.644   0.728  0.00  0.00     0.003 C 
ATOM      6  CAN 3WF d   1      12.742  79.024   2.016  0.00  0.00    -0.054 C 
ATOM      7  CAT 3WF d   1      12.785  79.468  -0.343  0.00  0.00    -0.039 C 
ATOM      8  CAK 3WF d   1      11.244  78.818   1.905  0.00  0.00    -0.057 C 
ATOM      9  H4  3WF d   1      12.950  80.082   2.235  0.00  0.00     0.034 H 
ATOM     10  H5  3WF d   1      13.138  78.397   2.828  0.00  0.00     0.034 H 
ATOM     11  CAR 3WF d   1      10.643  79.509   0.706  0.00  0.00    -0.024 C 
ATOM     12  H6  3WF d   1      10.767  79.214   2.814  0.00  0.00     0.034 H 
ATOM     13  H7  3WF d   1      11.043  77.739   1.826  0.00  0.00     0.034 H 
ATOM     14  CAQ 3WF d   1       9.273  79.285   0.608  0.00  0.00    -0.047 A 
ATOM     15  CAS 3WF d   1      11.342  79.125  -0.537  0.00  0.00    -0.042 C 
ATOM     16  H8  3WF d   1      10.788  80.591   0.845  0.00  0.00     0.048 H 
ATOM     17  CAG 3WF d   1       8.552  78.965   1.741  0.00  0.00    -0.073 A 
ATOM     18  CAP 3WF d   1       8.599  79.382  -0.577  0.00  0.00    -0.049 A 
ATOM     19  CAF 3WF d   1       7.204  78.735   1.744  0.00  0.00    -0.051 A 
ATOM     20  H9  3WF d   1       9.085  78.892   2.682  0.00  0.00     0.084 H 
ATOM     21  CAO 3WF d   1       6.526  78.835   0.560  0.00  0.00     0.066 A 
ATOM     22  H10 3WF d   1       6.686  78.480   2.661  0.00  0.00     0.087 H 
ATOM     23  CAH 3WF d   1       7.233  79.172  -0.596  0.00  0.00    -0.044 A 
ATOM     24  H12 3WF d   1       6.697  79.272  -1.533  0.00  0.00     0.088 H 
ATOM     25  CAI 3WF d   1       9.245  79.720  -1.742  0.00  0.00    -0.040 C 
ATOM     26  CAJ 3WF d   1      10.723  79.996  -1.596  0.00  0.00    -0.057 C 
ATOM     27  H13 3WF d   1       8.768  80.624  -2.147  0.00  0.00     0.040 H 
ATOM     28  H14 3WF d   1       9.122  78.890  -2.454  0.00  0.00     0.040 H 
ATOM     29  H15 3WF d   1      10.864  81.051  -1.319  0.00  0.00     0.034 H 
ATOM     30  H16 3WF d   1      11.220  79.799  -2.557  0.00  0.00     0.034 H 
ATOM     31  H17 3WF d   1      11.219  78.057  -0.772  0.00  0.00     0.041 H 
ATOM     32  CAL 3WF d   1      13.661  79.150  -1.494  0.00  0.00    -0.057 C 
ATOM     33  H18 3WF d   1      12.853  80.539  -0.101  0.00  0.00     0.042 H 
ATOM     34  CAM 3WF d   1      15.036  78.936  -0.892  0.00  0.00    -0.025 C 
ATOM     35  H19 3WF d   1      13.678  79.985  -2.210  0.00  0.00     0.033 H 
ATOM     36  H20 3WF d   1      13.315  78.238  -2.003  0.00  0.00     0.033 H 
ATOM     37  H21 3WF d   1      15.732  79.712  -1.243  0.00  0.00     0.038 H 
ATOM     38  H22 3WF d   1      15.424  77.944  -1.167  0.00  0.00     0.038 H 
BRANCH   5  39
ATOM     39  CAB 3WF d   1      13.269  77.161   0.473  0.00  0.00    -0.065 C 
ATOM     40  H1  3WF d   1      12.215  76.863   0.578  0.00  0.00     0.028 H 
ATOM     41  H2  3WF d   1      13.881  76.608   1.201  0.00  0.00     0.028 H 
ATOM     42  H3  3WF d   1      13.615  76.932  -0.546  0.00  0.00     0.028 H 
ENDBRANCH   5  39
BRANCH  21  43
ATOM     43  OAC 3WF d   1       5.211  78.628   0.572  0.00  0.00    -0.361 OA
ATOM     44  H11 3WF d   1       4.868  78.727  -0.308  0.00  0.00     0.217 HD
ENDBRANCH  21  43
BRANCH   4  45
ATOM     45  OAD 3WF d   1      15.659  78.106   1.219  0.00  0.00    -0.377 OA
ATOM     46  H23 3WF d   1      16.569  78.275   1.005  0.00  0.00     0.211 HD
ENDBRANCH   4  45
ENDBRANCH   1   4
TORSDOF 4
