REMARK  18 active torsions:
REMARK  status: ('A' for Active; 'I' for Inactive)
REMARK    1  A    between atoms: N_1  and  CA_2 
REMARK    2  A    between atoms: CA_15  and  CB_18 
REMARK    3  A    between atoms: CA_20  and  CB_23 
REMARK    4  A    between atoms: CB_23  and  CG_24 
REMARK    5  A    between atoms: CZ_29  and  OH_30 
REMARK    6  A    between atoms: CA_32  and  CB_35 
REMARK    7  A    between atoms: CB_35  and  OG_36 
REMARK    8  A    between atoms: CA_38  and  CB_41 
REMARK    9  A    between atoms: CA_43  and  CB_46 
REMARK   10  A    between atoms: CB_46  and  CG_47 
REMARK   11  A    between atoms: CZ_52  and  OH_53 
REMARK   12  A    between atoms: CA_55  and  CB_58 
REMARK   13  A    between atoms: CB_58  and  CG_59 
REMARK   14  A    between atoms: CG_59  and  CD1_60 
REMARK   15  A    between atoms: CG_59  and  CD2_61 
REMARK   16  A    between atoms: CA_63  and  CB_66 
REMARK   17  A    between atoms: CB_66  and  CG_67 
REMARK   18  A    between atoms: CA_71  and  C_72 
ROOT
ATOM      1  CA  CYS d   1      19.530  19.069 -15.069  0.00  0.00     0.184 C 
ATOM      2  C   CYS d   1      20.387  20.139 -15.742  0.00  0.00     0.252 C 
ATOM      3  O   CYS d   1      20.333  20.289 -16.967  0.00  0.00    -0.271 OA
ATOM      4  CB  CYS d   1      19.949  17.687 -15.581  0.00  0.00     0.021 C 
ATOM      5  SG  CYS d   1      19.268  16.302 -14.639  0.00  0.00    -0.095 SA
ATOM      6  N   CYS d   1      21.389  12.534 -13.629  0.00  0.00    -0.344 N 
ATOM      7  CA  CYS d   1      21.409  13.479 -14.757  0.00  0.00     0.105 C 
ATOM      8  CB  CYS d   1      21.924  14.852 -14.311  0.00  0.00     0.015 C 
ATOM      9  SG  CYS d   1      20.751  15.819 -13.327  0.00  0.00    -0.095 SA
ATOM     10  H4  CYS d   1      19.704  19.110 -13.984  0.00  0.00     0.100 H 
ATOM     11  H5  CYS d   1      21.046  17.624 -15.541  0.00  0.00     0.054 H 
ATOM     12  H6  CYS d   1      19.614  17.591 -16.624  0.00  0.00     0.054 H 
ATOM     13  H62 CYS d   1      22.236  12.360 -13.128  0.00  0.00     0.163 HD
ATOM     14  H63 CYS d   1      20.378  13.597 -15.122  0.00  0.00     0.090 H 
ATOM     15  H64 CYS d   1      22.176  15.432 -15.211  0.00  0.00     0.054 H 
ATOM     16  H65 CYS d   1      22.831  14.698 -13.708  0.00  0.00     0.054 H 
ATOM     17  N   PRO d   1      21.162  20.902 -14.947  0.00  0.00    -0.337 N 
ATOM     18  CA  PRO d   1      22.153  21.807 -15.525  0.00  0.00     0.091 C 
ATOM     19  C   PRO d   1      23.280  21.036 -16.197  0.00  0.00     0.241 C 
ATOM     20  O   PRO d   1      23.655  19.964 -15.722  0.00  0.00    -0.271 OA
ATOM     21  CB  PRO d   1      22.682  22.579 -14.312  0.00  0.00    -0.036 C 
ATOM     22  CG  PRO d   1      21.611  22.468 -13.297  0.00  0.00    -0.048 C 
ATOM     23  CD  PRO d   1      21.026  21.107 -13.496  0.00  0.00    -0.001 C 
ATOM     24  H7  PRO d   1      21.686  22.486 -16.254  0.00  0.00     0.087 H 
ATOM     25  H8  PRO d   1      22.862  23.633 -14.572  0.00  0.00     0.036 H 
ATOM     26  H9  PRO d   1      23.615  22.128 -13.942  0.00  0.00     0.036 H 
ATOM     27  H10 PRO d   1      20.847  23.244 -13.455  0.00  0.00     0.035 H 
ATOM     28  H11 PRO d   1      22.028  22.565 -12.284  0.00  0.00     0.035 H 
ATOM     29  H12 PRO d   1      21.590  20.348 -12.934  0.00  0.00     0.064 H 
ATOM     30  H13 PRO d   1      19.970  21.081 -13.190  0.00  0.00     0.064 H 
ATOM     31  N   ALA d   1      23.811  21.594 -17.283  0.00  0.00    -0.346 N 
ATOM     32  CA  ALA d   1      24.793  20.916 -18.132  0.00  0.00     0.086 C 
ATOM     33  C   ALA d   1      25.994  20.384 -17.360  0.00  0.00     0.240 C 
ATOM     34  O   ALA d   1      26.561  19.353 -17.724  0.00  0.00    -0.271 OA
ATOM     35  N   ALA d   1      26.831  17.271 -11.565  0.00  0.00    -0.346 N 
ATOM     36  CA  ALA d   1      27.404  15.931 -11.407  0.00  0.00     0.086 C 
ATOM     37  C   ALA d   1      26.349  14.997 -10.882  0.00  0.00     0.240 C 
ATOM     38  O   ALA d   1      26.595  14.191 -10.028  0.00  0.00    -0.271 OA
ATOM     39  H14 ALA d   1      23.526  22.520 -17.531  0.00  0.00     0.163 HD
ATOM     40  H15 ALA d   1      24.291  20.057 -18.601  0.00  0.00     0.086 H 
ATOM     41  H33 ALA d   1      26.699  17.959 -10.852  0.00  0.00     0.163 HD
ATOM     42  H34 ALA d   1      27.754  15.569 -12.385  0.00  0.00     0.086 H 
ATOM     43  N   TYR d   1      26.388  21.091 -16.303  0.00  0.00    -0.346 N 
ATOM     44  CA  TYR d   1      27.541  20.686 -15.512  0.00  0.00     0.093 C 
ATOM     45  C   TYR d   1      27.135  19.966 -14.231  0.00  0.00     0.241 C 
ATOM     46  O   TYR d   1      27.884  19.969 -13.247  0.00  0.00    -0.271 OA
ATOM     47  N   TYR d   1      25.071  14.953 -10.498  0.00  0.00    -0.346 N 
ATOM     48  CA  TYR d   1      24.011  14.204  -9.863  0.00  0.00     0.093 C 
ATOM     49  C   TYR d   1      23.849  12.910 -10.580  0.00  0.00     0.241 C 
ATOM     50  O   TYR d   1      23.776  12.876 -11.782  0.00  0.00    -0.271 OA
ATOM     51  H19 TYR d   1      25.883  21.915 -16.048  0.00  0.00     0.163 HD
ATOM     52  H20 TYR d   1      28.134  19.985 -16.118  0.00  0.00     0.088 H 
ATOM     53  H38 TYR d   1      24.669  15.827 -10.771  0.00  0.00     0.163 HD
ATOM     54  H39 TYR d   1      24.267  14.023  -8.809  0.00  0.00     0.088 H 
ATOM     55  N   SER d   1      25.989  19.309 -14.225  0.00  0.00    -0.344 N 
ATOM     56  CA  SER d   1      25.625  18.563 -13.043  0.00  0.00     0.109 C 
ATOM     57  C   SER d   1      26.525  17.380 -12.850  0.00  0.00     0.243 C 
ATOM     58  O   SER d   1      26.922  16.786 -13.807  0.00  0.00    -0.271 OA
ATOM     59  H28 SER d   1      25.386  19.328 -15.022  0.00  0.00     0.163 HD
ATOM     60  H29 SER d   1      25.734  19.229 -12.175  0.00  0.00     0.090 H 
ATOM     61  N   LEU d   1      23.793  11.830  -9.827  0.00  0.00    -0.346 N 
ATOM     62  CA  LEU d   1      23.842  10.506 -10.463  0.00  0.00     0.089 C 
ATOM     63  C   LEU d   1      22.637  10.218 -11.383  0.00  0.00     0.241 C 
ATOM     64  O   LEU d   1      22.677   9.277 -12.177  0.00  0.00    -0.271 OA
ATOM     65  H47 LEU d   1      23.718  11.911  -8.833  0.00  0.00     0.163 HD
ATOM     66  H48 LEU d   1      24.735  10.498 -11.106  0.00  0.00     0.087 H 
ATOM     67  N   ASP d   1      21.583  11.030 -11.283  0.00  0.00    -0.346 N 
ATOM     68  CA  ASP d   1      20.385  10.876 -12.116  0.00  0.00     0.098 C 
ATOM     69  C   ASP d   1      20.275  11.903 -13.255  0.00  0.00     0.241 C 
ATOM     70  O   ASP d   1      19.188  12.105 -13.797  0.00  0.00    -0.271 OA
ATOM     71  H58 ASP d   1      21.611  11.773 -10.614  0.00  0.00     0.163 HD
ATOM     72  H59 ASP d   1      20.432   9.879 -12.579  0.00  0.00     0.088 H 
ENDROOT
BRANCH  44  73
ATOM     73  CB  TYR d   1      28.420  21.896 -15.189  0.00  0.00    -0.014 C 
ATOM     74  H21 TYR d   1      29.331  21.533 -14.690  0.00  0.00     0.043 H 
ATOM     75  H22 TYR d   1      27.862  22.550 -14.503  0.00  0.00     0.043 H 
BRANCH  73  76
ATOM     76  CG  TYR d   1      28.838  22.720 -16.390  0.00  0.00    -0.056 A 
ATOM     77  CD1 TYR d   1      28.897  22.166 -17.671  0.00  0.00    -0.074 A 
ATOM     78  CE1 TYR d   1      29.287  22.928 -18.759  0.00  0.00    -0.051 A 
ATOM     79  H23 TYR d   1      28.634  21.124 -17.815  0.00  0.00     0.084 H 
ATOM     80  CZ  TYR d   1      29.650  24.249 -18.575  0.00  0.00     0.065 A 
ATOM     81  H25 TYR d   1      29.308  22.491 -19.751  0.00  0.00     0.087 H 
ATOM     82  CE2 TYR d   1      29.618  24.811 -17.316  0.00  0.00    -0.051 A 
ATOM     83  CD2 TYR d   1      29.214  24.048 -16.235  0.00  0.00    -0.074 A 
ATOM     84  H26 TYR d   1      29.908  25.846 -17.174  0.00  0.00     0.087 H 
ATOM     85  H24 TYR d   1      29.191  24.495 -15.248  0.00  0.00     0.084 H 
BRANCH  80  86
ATOM     86  OH  TYR d   1      30.048  25.019 -19.644  0.00  0.00    -0.361 OA
ATOM     87  H27 TYR d   1      30.018  24.497 -20.437  0.00  0.00     0.217 HD
ENDBRANCH  80  86
ENDBRANCH  73  76
ENDBRANCH  44  73
BRANCH  32  88
ATOM     88  CB  ALA d   1      25.265  21.853 -19.233  0.00  0.00    -0.049 C 
ATOM     89  H16 ALA d   1      26.002  21.335 -19.865  0.00  0.00     0.030 H 
ATOM     90  H17 ALA d   1      25.729  22.743 -18.783  0.00  0.00     0.030 H 
ATOM     91  H18 ALA d   1      24.406  22.159 -19.848  0.00  0.00     0.030 H 
ENDBRANCH  32  88
BRANCH  56  92
ATOM     92  CB  SER d   1      24.213  18.094 -13.100  0.00  0.00     0.044 C 
ATOM     93  H30 SER d   1      24.081  17.419 -13.958  0.00  0.00     0.077 H 
ATOM     94  H31 SER d   1      23.540  18.957 -13.206  0.00  0.00     0.077 H 
BRANCH  92  95
ATOM     95  OG  SER d   1      23.922  17.414 -11.919  0.00  0.00    -0.398 OA
ATOM     96  H32 SER d   1      24.039  18.000 -11.180  0.00  0.00     0.209 HD
ENDBRANCH  92  95
ENDBRANCH  56  92
BRANCH  36  97
ATOM     97  CB  ALA d   1      28.571  15.981 -10.454  0.00  0.00    -0.049 C 
ATOM     98  H35 ALA d   1      28.995  14.973 -10.341  0.00  0.00     0.030 H 
ATOM     99  H36 ALA d   1      28.229  16.347  -9.475  0.00  0.00     0.030 H 
ATOM    100  H37 ALA d   1      29.340  16.660 -10.851  0.00  0.00     0.030 H 
ENDBRANCH  36  97
BRANCH   1 101
ATOM    101  N   CYS d   1      18.077  19.312 -15.322  0.00  0.00    -0.066 N 
ATOM    102  H1  CYS d   1      17.533  18.595 -14.869  0.00  0.00     0.275 HD
ATOM    103  H2  CYS d   1      17.901  19.291 -16.314  0.00  0.00     0.275 HD
ATOM    104  H3  CYS d   1      17.818  20.214 -14.953  0.00  0.00     0.275 HD
ENDBRANCH   1 101
BRANCH  48 105
ATOM    105  CB  TYR d   1      22.720  14.947  -9.947  0.00  0.00    -0.014 C 
ATOM    106  H40 TYR d   1      22.444  15.031 -11.008  0.00  0.00     0.043 H 
ATOM    107  H41 TYR d   1      22.878  15.952  -9.528  0.00  0.00     0.043 H 
BRANCH 105 108
ATOM    108  CG  TYR d   1      21.579  14.318  -9.221  0.00  0.00    -0.056 A 
ATOM    109  CD1 TYR d   1      21.764  13.662  -8.035  0.00  0.00    -0.074 A 
ATOM    110  CE1 TYR d   1      20.699  13.110  -7.375  0.00  0.00    -0.051 A 
ATOM    111  H42 TYR d   1      22.760  13.579  -7.615  0.00  0.00     0.084 H 
ATOM    112  CZ  TYR d   1      19.438  13.222  -7.884  0.00  0.00     0.065 A 
ATOM    113  H44 TYR d   1      20.859  12.581  -6.442  0.00  0.00     0.087 H 
ATOM    114  CE2 TYR d   1      19.236  13.866  -9.059  0.00  0.00    -0.051 A 
ATOM    115  CD2 TYR d   1      20.302  14.419  -9.712  0.00  0.00    -0.074 A 
ATOM    116  H45 TYR d   1      18.239  13.942  -9.477  0.00  0.00     0.087 H 
ATOM    117  H43 TYR d   1      20.134  14.951 -10.642  0.00  0.00     0.084 H 
BRANCH 112 118
ATOM    118  OH  TYR d   1      18.367  12.691  -7.248  0.00  0.00    -0.361 OA
ATOM    119  H46 TYR d   1      18.653  12.273  -6.444  0.00  0.00     0.217 HD
ENDBRANCH 112 118
ENDBRANCH 105 108
ENDBRANCH  48 105
BRANCH  62 120
ATOM    120  CB  LEU d   1      24.034   9.394  -9.411  0.00  0.00    -0.035 C 
ATOM    121  H49 LEU d   1      24.762   9.788  -8.687  0.00  0.00     0.037 H 
ATOM    122  H50 LEU d   1      24.477   8.543  -9.950  0.00  0.00     0.037 H 
BRANCH 120 123
ATOM    123  CG  LEU d   1      22.884   8.809  -8.575  0.00  0.00    -0.059 C 
ATOM    124  H51 LEU d   1      23.324   8.431  -7.641  0.00  0.00     0.038 H 
BRANCH 123 125
ATOM    125  CD1 LEU d   1      21.842   9.854  -8.197  0.00  0.00    -0.073 C 
ATOM    126  H52 LEU d   1      21.047   9.380  -7.602  0.00  0.00     0.028 H 
ATOM    127  H53 LEU d   1      21.408  10.287  -9.111  0.00  0.00     0.028 H 
ATOM    128  H54 LEU d   1      22.318  10.649  -7.605  0.00  0.00     0.028 H 
ENDBRANCH 123 125
BRANCH 123 129
ATOM    129  CD2 LEU d   1      22.216   7.632  -9.279  0.00  0.00    -0.073 C 
ATOM    130  H55 LEU d   1      22.977   6.885  -9.547  0.00  0.00     0.028 H 
ATOM    131  H56 LEU d   1      21.714   7.987 -10.191  0.00  0.00     0.028 H 
ATOM    132  H57 LEU d   1      21.475   7.175  -8.607  0.00  0.00     0.028 H 
ENDBRANCH 123 129
ENDBRANCH 120 123
ENDBRANCH  62 120
BRANCH   7 133
ATOM    133  C   CYS d   1      22.268  12.952 -15.907  0.00  0.00     0.197 C 
ATOM    134  O   CYS d   1      22.982  11.958 -15.765  0.00  0.00    -0.646 OA
ATOM    135  OXT CYS d   1      22.270  13.507 -17.007  0.00  0.00    -0.646 OA
ENDBRANCH   7 133
BRANCH  68 136
ATOM    136  CB  ASP d   1      19.133  10.933 -11.229  0.00  0.00     0.043 C 
ATOM    137  H60 ASP d   1      18.248  11.040 -11.874  0.00  0.00     0.052 H 
ATOM    138  H61 ASP d   1      19.210  11.807 -10.565  0.00  0.00     0.052 H 
BRANCH 136 139
ATOM    139  CG  ASP d   1      18.967   9.689 -10.378  0.00  0.00     0.175 C 
ATOM    140  OD1 ASP d   1      18.967   8.578 -10.953  0.00  0.00    -0.648 OA
ATOM    141  OD2 ASP d   1      18.836   9.818  -9.139  0.00  0.00    -0.648 OA
ENDBRANCH 136 139
ENDBRANCH  68 136
TORSDOF 18
