REMARK  19 active torsions:
REMARK  status: ('A' for Active; 'I' for Inactive)
REMARK    1  A    between atoms: N_1  and  CA_2 
REMARK    2  A    between atoms: CA_15  and  CB_18 
REMARK    3  A    between atoms: CA_20  and  CB_23 
REMARK    4  A    between atoms: CB_23  and  CG_24 
REMARK    5  A    between atoms: CZ_29  and  OH_30 
REMARK    6  A    between atoms: CA_32  and  CB_35 
REMARK    7  A    between atoms: CB_35  and  OG_36 
REMARK    8  A    between atoms: CA_38  and  CB_39 
REMARK    9  A    between atoms: C_40  and  O_41 
REMARK   10  A    between atoms: CA_43  and  CB_46 
REMARK   11  A    between atoms: CB_46  and  CG_47 
REMARK   12  A    between atoms: CZ_52  and  OH_53 
REMARK   13  A    between atoms: CA_55  and  CB_58 
REMARK   14  A    between atoms: CB_58  and  CG_59 
REMARK   15  A    between atoms: CG_59  and  CD1_60 
REMARK   16  A    between atoms: CG_59  and  CD2_61 
REMARK   17  A    between atoms: CA_63  and  CB_66 
REMARK   18  A    between atoms: CB_66  and  CG_67 
REMARK   19  A    between atoms: CA_71  and  C_72 
ROOT
ATOM      1  CA  CYS d   1      27.256  21.184 -27.493  0.00  0.00     0.184 C 
ATOM      2  C   CYS d   1      26.435  21.052 -26.179  0.00  0.00     0.252 C 
ATOM      3  O   CYS d   1      26.063  19.927 -25.815  0.00  0.00    -0.271 OA
ATOM      4  CB  CYS d   1      28.653  21.823 -27.236  0.00  0.00     0.021 C 
ATOM      5  SG  CYS d   1      29.657  21.230 -25.804  0.00  0.00    -0.095 SA
ATOM      6  N   CYS d   1      30.437  17.970 -23.913  0.00  0.00    -0.344 N 
ATOM      7  CA  CYS d   1      29.252  18.132 -24.757  0.00  0.00     0.105 C 
ATOM      8  CB  CYS d   1      29.692  18.255 -26.221  0.00  0.00     0.015 C 
ATOM      9  SG  CYS d   1      30.788  19.677 -26.509  0.00  0.00    -0.095 SA
ATOM     10  H4  CYS d   1      27.448  20.150 -27.816  0.00  0.00     0.100 H 
ATOM     11  H5  CYS d   1      28.493  22.902 -27.093  0.00  0.00     0.054 H 
ATOM     12  H6  CYS d   1      29.255  21.658 -28.142  0.00  0.00     0.054 H 
ATOM     13  H65 CYS d   1      31.050  17.213 -24.140  0.00  0.00     0.163 HD
ATOM     14  H66 CYS d   1      28.681  19.020 -24.448  0.00  0.00     0.090 H 
ATOM     15  H67 CYS d   1      28.796  18.369 -26.849  0.00  0.00     0.054 H 
ATOM     16  H68 CYS d   1      30.226  17.336 -26.506  0.00  0.00     0.054 H 
ATOM     17  N   PRO d   1      26.146  22.190 -25.489  0.00  0.00    -0.337 N 
ATOM     18  CA  PRO d   1      25.774  22.272 -24.059  0.00  0.00     0.091 C 
ATOM     19  C   PRO d   1      25.320  20.955 -23.402  0.00  0.00     0.241 C 
ATOM     20  O   PRO d   1      24.539  20.235 -24.021  0.00  0.00    -0.271 OA
ATOM     21  CB  PRO d   1      24.647  23.321 -24.078  0.00  0.00    -0.036 C 
ATOM     22  CG  PRO d   1      25.107  24.295 -25.129  0.00  0.00    -0.048 C 
ATOM     23  CD  PRO d   1      25.920  23.503 -26.145  0.00  0.00    -0.001 C 
ATOM     24  H7  PRO d   1      26.632  22.648 -23.482  0.00  0.00     0.087 H 
ATOM     25  H8  PRO d   1      24.549  23.813 -23.099  0.00  0.00     0.036 H 
ATOM     26  H9  PRO d   1      23.686  22.864 -24.357  0.00  0.00     0.036 H 
ATOM     27  H10 PRO d   1      25.732  25.077 -24.672  0.00  0.00     0.035 H 
ATOM     28  H11 PRO d   1      24.239  24.759 -25.619  0.00  0.00     0.035 H 
ATOM     29  H12 PRO d   1      25.358  23.379 -27.082  0.00  0.00     0.064 H 
ATOM     30  H13 PRO d   1      26.877  24.004 -26.355  0.00  0.00     0.064 H 
ATOM     31  N   ALA d   1      25.725  20.615 -22.168  0.00  0.00    -0.346 N 
ATOM     32  CA  ALA d   1      26.333  21.418 -21.063  0.00  0.00     0.086 C 
ATOM     33  C   ALA d   1      25.554  20.986 -19.799  0.00  0.00     0.240 C 
ATOM     34  O   ALA d   1      24.492  21.546 -19.478  0.00  0.00    -0.271 OA
ATOM     35  H14 ALA d   1      25.597  19.648 -21.948  0.00  0.00     0.163 HD
ATOM     36  H15 ALA d   1      27.396  21.152 -20.962  0.00  0.00     0.086 H 
ATOM     37  N   TYR d   1      26.054  19.960 -19.113  0.00  0.00    -0.346 N 
ATOM     38  CA  TYR d   1      25.326  19.309 -17.995  0.00  0.00     0.093 C 
ATOM     39  C   TYR d   1      26.380  19.129 -16.922  0.00  0.00     0.241 C 
ATOM     40  O   TYR d   1      27.544  19.237 -17.222  0.00  0.00    -0.271 OA
ATOM     41  N   TYR d   1      28.832  15.311 -16.786  0.00  0.00    -0.034 N 
ATOM     42  CA  TYR d   1      28.914  14.071 -17.644  0.00  0.00     0.184 C 
ATOM     43  C   TYR d   1      30.066  14.204 -18.667  0.00  0.00     0.249 C 
ATOM     44  O   TYR d   1      31.268  13.935 -18.357  0.00  0.00    -0.271 OA
ATOM     45  H19 TYR d   1      26.958  19.613 -19.362  0.00  0.00     0.163 HD
ATOM     46  H20 TYR d   1      24.501  19.944 -17.641  0.00  0.00     0.088 H 
ATOM     47  H40 TYR d   1      29.435  16.051 -17.110  0.00  0.00     0.281 HD
ATOM     48  H41 TYR d   1      27.891  15.660 -16.692  0.00  0.00     0.281 HD
ATOM     49  H42 TYR d   1      29.158  13.216 -16.996  0.00  0.00     0.100 H 
ATOM     50  N   SER d   1      25.986  18.960 -15.666  0.00  0.00    -0.344 N 
ATOM     51  CA  SER d   1      27.015  18.691 -14.640  0.00  0.00     0.109 C 
ATOM     52  C   SER d   1      27.517  17.258 -14.645  0.00  0.00     0.243 C 
ATOM     53  O   SER d   1      26.707  16.304 -14.644  0.00  0.00    -0.271 OA
ATOM     54  H28 SER d   1      25.018  19.013 -15.420  0.00  0.00     0.163 HD
ATOM     55  H29 SER d   1      27.880  19.332 -14.867  0.00  0.00     0.090 H 
ATOM     56  N   DAL d   1      29.038  17.066 -14.671  0.00  0.00    -0.351 N 
ATOM     57  CA  DAL d   1      29.091  15.644 -14.378  0.00  0.00     0.058 C 
ATOM     58  C   DAL d   1      29.360  14.623 -15.478  0.00  0.00     0.210 C 
ATOM     59  H33 DAL d   1      29.773  17.723 -14.839  0.00  0.00     0.163 HD
ATOM     60  H34 DAL d   1      28.002  15.520 -14.467  0.00  0.00     0.078 H 
ATOM     61  H38 DAL d   1      30.441  14.674 -15.676  0.00  0.00     0.132 H 
ATOM     62  N   LEU d   1      29.729  14.626 -19.872  0.00  0.00    -0.346 N 
ATOM     63  CA  LEU d   1      30.749  14.980 -20.865  0.00  0.00     0.089 C 
ATOM     64  C   LEU d   1      30.939  16.505 -21.052  0.00  0.00     0.241 C 
ATOM     65  O   LEU d   1      30.163  17.341 -20.539  0.00  0.00    -0.271 OA
ATOM     66  H50 LEU d   1      28.761  14.706 -20.112  0.00  0.00     0.163 HD
ATOM     67  H51 LEU d   1      31.707  14.563 -20.520  0.00  0.00     0.087 H 
ATOM     68  N   ASP d   1      31.969  16.868 -21.809  0.00  0.00    -0.346 N 
ATOM     69  CA  ASP d   1      32.095  18.277 -22.168  0.00  0.00     0.098 C 
ATOM     70  C   ASP d   1      30.784  18.735 -22.865  0.00  0.00     0.241 C 
ATOM     71  O   ASP d   1      30.202  19.781 -22.486  0.00  0.00    -0.271 OA
ATOM     72  H61 ASP d   1      32.639  16.195 -22.124  0.00  0.00     0.163 HD
ATOM     73  H62 ASP d   1      32.245  18.869 -21.253  0.00  0.00     0.088 H 
ENDROOT
BRANCH  38  74
ATOM     74  CB  TYR d   1      24.782  17.931 -18.417  0.00  0.00    -0.014 C 
ATOM     75  H21 TYR d   1      24.475  17.386 -17.512  0.00  0.00     0.043 H 
ATOM     76  H22 TYR d   1      25.588  17.378 -18.922  0.00  0.00     0.043 H 
BRANCH  74  77
ATOM     77  CG  TYR d   1      23.610  18.010 -19.342  0.00  0.00    -0.056 A 
ATOM     78  CD1 TYR d   1      22.313  18.109 -18.830  0.00  0.00    -0.074 A 
ATOM     79  CE1 TYR d   1      21.215  18.229 -19.671  0.00  0.00    -0.051 A 
ATOM     80  H23 TYR d   1      22.162  18.092 -17.757  0.00  0.00     0.084 H 
ATOM     81  CZ  TYR d   1      21.415  18.231 -21.063  0.00  0.00     0.065 A 
ATOM     82  H25 TYR d   1      20.216  18.320 -19.260  0.00  0.00     0.087 H 
ATOM     83  CE2 TYR d   1      22.702  18.127 -21.608  0.00  0.00    -0.051 A 
ATOM     84  CD2 TYR d   1      23.791  18.020 -20.746  0.00  0.00    -0.074 A 
ATOM     85  H26 TYR d   1      22.848  18.130 -22.682  0.00  0.00     0.087 H 
ATOM     86  H24 TYR d   1      24.791  17.943 -21.156  0.00  0.00     0.084 H 
BRANCH  81  87
ATOM     87  OH  TYR d   1      20.315  18.335 -21.894  0.00  0.00    -0.361 OA
ATOM     88  H27 TYR d   1      19.527  18.396 -21.368  0.00  0.00     0.217 HD
ENDBRANCH  81  87
ENDBRANCH  74  77
ENDBRANCH  38  74
BRANCH  32  89
ATOM     89  CB  ALA d   1      26.238  22.917 -21.257  0.00  0.00    -0.049 C 
ATOM     90  H16 ALA d   1      26.707  23.428 -20.403  0.00  0.00     0.030 H 
ATOM     91  H17 ALA d   1      25.180  23.212 -21.325  0.00  0.00     0.030 H 
ATOM     92  H18 ALA d   1      26.758  23.200 -22.184  0.00  0.00     0.030 H 
ENDBRANCH  32  89
BRANCH  51  93
ATOM     93  CB  SER d   1      26.487  19.097 -13.285  0.00  0.00     0.044 C 
ATOM     94  H30 SER d   1      25.607  18.492 -13.021  0.00  0.00     0.077 H 
ATOM     95  H31 SER d   1      26.212  20.162 -13.286  0.00  0.00     0.077 H 
BRANCH  93  96
ATOM     96  OG  SER d   1      27.529  18.864 -12.375  0.00  0.00    -0.398 OA
ATOM     97  H32 SER d   1      27.245  19.105 -11.501  0.00  0.00     0.209 HD
ENDBRANCH  93  96
ENDBRANCH  51  93
BRANCH  57  98
ATOM     98  CB  DAL d   1      29.102  15.246 -12.885  0.00  0.00    -0.053 C 
ATOM     99  H35 DAL d   1      29.143  14.150 -12.798  0.00  0.00     0.030 H 
ATOM    100  H36 DAL d   1      28.188  15.618 -12.399  0.00  0.00     0.030 H 
ATOM    101  H37 DAL d   1      29.983  15.686 -12.395  0.00  0.00     0.030 H 
ENDBRANCH  57  98
BRANCH  58 102
ATOM    102  O   DAL d   1      29.310  13.363 -14.867  0.00  0.00    -0.368 OA
ATOM    103  H39 DAL d   1      29.705  12.718 -15.442  0.00  0.00     0.212 HD
ENDBRANCH  58 102
BRANCH   1 104
ATOM    104  N   CYS d   1      26.561  21.838 -28.656  0.00  0.00    -0.066 N 
ATOM    105  H1  CYS d   1      27.185  21.868 -29.447  0.00  0.00     0.275 HD
ATOM    106  H2  CYS d   1      26.294  22.776 -28.403  0.00  0.00     0.275 HD
ATOM    107  H3  CYS d   1      25.738  21.308 -28.897  0.00  0.00     0.275 HD
ENDBRANCH   1 104
BRANCH  42 108
ATOM    108  CB  TYR d   1      27.522  13.810 -18.242  0.00  0.00    -0.006 C 
ATOM    109  H43 TYR d   1      27.205  14.726 -18.763  0.00  0.00     0.043 H 
ATOM    110  H44 TYR d   1      26.834  13.606 -17.409  0.00  0.00     0.043 H 
BRANCH 108 111
ATOM    111  CG  TYR d   1      27.409  12.643 -19.238  0.00  0.00    -0.056 A 
ATOM    112  CD1 TYR d   1      28.106  11.419 -19.036  0.00  0.00    -0.074 A 
ATOM    113  CE1 TYR d   1      27.994  10.379 -19.957  0.00  0.00    -0.051 A 
ATOM    114  H45 TYR d   1      28.730  11.294 -18.158  0.00  0.00     0.084 H 
ATOM    115  CZ  TYR d   1      27.145  10.541 -21.062  0.00  0.00     0.065 A 
ATOM    116  H47 TYR d   1      28.553   9.460 -19.822  0.00  0.00     0.087 H 
ATOM    117  CE2 TYR d   1      26.454  11.742 -21.291  0.00  0.00    -0.051 A 
ATOM    118  CD2 TYR d   1      26.576  12.772 -20.382  0.00  0.00    -0.074 A 
ATOM    119  H48 TYR d   1      25.832  11.858 -22.171  0.00  0.00     0.087 H 
ATOM    120  H46 TYR d   1      26.028  13.694 -20.543  0.00  0.00     0.084 H 
BRANCH 115 121
ATOM    121  OH  TYR d   1      27.011   9.489 -21.981  0.00  0.00    -0.361 OA
ATOM    122  H49 TYR d   1      27.534   8.750 -21.693  0.00  0.00     0.217 HD
ENDBRANCH 115 121
ENDBRANCH 108 111
ENDBRANCH  42 108
BRANCH  63 123
ATOM    123  CB  LEU d   1      30.402  14.346 -22.219  0.00  0.00    -0.035 C 
ATOM    124  H52 LEU d   1      31.294  14.390 -22.861  0.00  0.00     0.037 H 
ATOM    125  H53 LEU d   1      29.591  14.930 -22.678  0.00  0.00     0.037 H 
BRANCH 123 126
ATOM    126  CG  LEU d   1      29.951  12.890 -22.121  0.00  0.00    -0.059 C 
ATOM    127  H54 LEU d   1      29.261  12.809 -21.268  0.00  0.00     0.038 H 
BRANCH 126 128
ATOM    128  CD1 LEU d   1      29.192  12.480 -23.394  0.00  0.00    -0.073 C 
ATOM    129  H55 LEU d   1      28.874  11.431 -23.309  0.00  0.00     0.028 H 
ATOM    130  H56 LEU d   1      29.852  12.594 -24.267  0.00  0.00     0.028 H 
ATOM    131  H57 LEU d   1      28.308  13.123 -23.517  0.00  0.00     0.028 H 
ENDBRANCH 126 128
BRANCH 126 132
ATOM    132  CD2 LEU d   1      31.127  11.923 -21.870  0.00  0.00    -0.073 C 
ATOM    133  H58 LEU d   1      31.662  12.226 -20.958  0.00  0.00     0.028 H 
ATOM    134  H59 LEU d   1      31.816  11.954 -22.727  0.00  0.00     0.028 H 
ATOM    135  H60 LEU d   1      30.741  10.900 -21.746  0.00  0.00     0.028 H 
ENDBRANCH 126 132
ENDBRANCH 123 126
ENDBRANCH  63 123
BRANCH   7 136
ATOM    136  C   CYS d   1      28.407  16.888 -24.644  0.00  0.00     0.197 C 
ATOM    137  O   CYS d   1      28.803  15.853 -25.154  0.00  0.00    -0.646 OA
ATOM    138  OXT CYS d   1      27.346  16.944 -24.045  0.00  0.00    -0.646 OA
ENDBRANCH   7 136
BRANCH  69 139
ATOM    139  CB  ASP d   1      33.303  18.496 -23.107  0.00  0.00     0.043 C 
ATOM    140  H63 ASP d   1      32.978  18.320 -24.143  0.00  0.00     0.052 H 
ATOM    141  H64 ASP d   1      34.089  17.774 -22.841  0.00  0.00     0.052 H 
BRANCH 139 142
ATOM    142  CG  ASP d   1      33.885  19.908 -23.012  0.00  0.00     0.175 C 
ATOM    143  OD1 ASP d   1      33.314  20.802 -22.337  0.00  0.00    -0.648 OA
ATOM    144  OD2 ASP d   1      34.976  20.116 -23.582  0.00  0.00    -0.648 OA
ENDBRANCH 139 142
ENDBRANCH  69 139
TORSDOF 19
