REMARK  22 active torsions:
REMARK  status: ('A' for Active; 'I' for Inactive)
REMARK    1  A    between atoms: N_1  and  CA_2 
REMARK    2  A    between atoms: CA_15  and  CB_18 
REMARK    3  A    between atoms: CA_20  and  CB_23 
REMARK    4  A    between atoms: CB_23  and  CG_24 
REMARK    5  A    between atoms: CZ_29  and  OH_30 
REMARK    6  A    between atoms: CA_32  and  CB_35 
REMARK    7  A    between atoms: CB_35  and  OG_36 
REMARK    8  A    between atoms: CA_38  and  CB_41 
REMARK    9  A    between atoms: CB_41  and  CG_42 
REMARK   10  A    between atoms: CG_42  and  CD_43 
REMARK   11  A    between atoms: CD_43  and  NE_44 
REMARK       I    between atoms: NE_44  and  CZ_45 
REMARK       I    between atoms: CZ_45  and  NH1_46 
REMARK   12  A    between atoms: CZ_45  and  NH2_47 
REMARK   13  A    between atoms: CA_49  and  CB_52 
REMARK   14  A    between atoms: CB_52  and  CG_53 
REMARK   15  A    between atoms: CZ_58  and  OH_59 
REMARK   16  A    between atoms: CA_61  and  CB_64 
REMARK   17  A    between atoms: CB_64  and  CG_65 
REMARK   18  A    between atoms: CG_65  and  CD1_66 
REMARK   19  A    between atoms: CG_65  and  CD2_67 
REMARK   20  A    between atoms: CA_69  and  CB_72 
REMARK   21  A    between atoms: CB_72  and  CG_73 
REMARK   22  A    between atoms: CA_77  and  C_78 
ROOT
ATOM      1  CA  CYS d   1       8.675 -26.098 -13.533  0.00  0.00     0.184 C 
ATOM      2  C   CYS d   1       9.286 -27.405 -14.040  0.00  0.00     0.252 C 
ATOM      3  O   CYS d   1       9.630 -27.503 -15.227  0.00  0.00    -0.271 OA
ATOM      4  CB  CYS d   1       7.175 -26.101 -13.862  0.00  0.00     0.021 C 
ATOM      5  SG  CYS d   1       6.118 -24.997 -12.838  0.00  0.00    -0.095 SA
ATOM      6  N   CYS d   1       1.946 -24.714 -12.142  0.00  0.00    -0.344 N 
ATOM      7  CA  CYS d   1       2.817 -25.214 -13.209  0.00  0.00     0.105 C 
ATOM      8  CB  CYS d   1       3.482 -26.533 -12.787  0.00  0.00     0.015 C 
ATOM      9  SG  CYS d   1       4.940 -26.267 -11.709  0.00  0.00    -0.095 SA
ATOM     10  H4  CYS d   1       8.798 -26.055 -12.441  0.00  0.00     0.100 H 
ATOM     11  H5  CYS d   1       6.806 -27.130 -13.737  0.00  0.00     0.054 H 
ATOM     12  H6  CYS d   1       7.061 -25.795 -14.912  0.00  0.00     0.054 H 
ATOM     13  H70 CYS d   1       1.461 -25.372 -11.567  0.00  0.00     0.163 HD
ATOM     14  H71 CYS d   1       3.615 -24.472 -13.358  0.00  0.00     0.090 H 
ATOM     15  H72 CYS d   1       3.804 -27.071 -13.691  0.00  0.00     0.054 H 
ATOM     16  H73 CYS d   1       2.745 -27.141 -12.241  0.00  0.00     0.054 H 
ATOM     17  N   PRO d   1       9.410 -28.420 -13.154  0.00  0.00    -0.337 N 
ATOM     18  CA  PRO d   1       9.695 -29.784 -13.645  0.00  0.00     0.091 C 
ATOM     19  C   PRO d   1       8.570 -30.261 -14.563  0.00  0.00     0.241 C 
ATOM     20  O   PRO d   1       7.415 -29.901 -14.340  0.00  0.00    -0.271 OA
ATOM     21  CB  PRO d   1       9.724 -30.622 -12.364  0.00  0.00    -0.036 C 
ATOM     22  CG  PRO d   1      10.102 -29.663 -11.319  0.00  0.00    -0.048 C 
ATOM     23  CD  PRO d   1       9.447 -28.355 -11.682  0.00  0.00    -0.001 C 
ATOM     24  H7  PRO d   1      10.658 -29.827 -14.175  0.00  0.00     0.087 H 
ATOM     25  H8  PRO d   1      10.468 -31.429 -12.441  0.00  0.00     0.036 H 
ATOM     26  H9  PRO d   1       8.734 -31.055 -12.158  0.00  0.00     0.036 H 
ATOM     27  H10 PRO d   1      11.195 -29.545 -11.289  0.00  0.00     0.035 H 
ATOM     28  H11 PRO d   1       9.743 -30.008 -10.338  0.00  0.00     0.035 H 
ATOM     29  H12 PRO d   1       8.433 -28.287 -11.261  0.00  0.00     0.064 H 
ATOM     30  H13 PRO d   1      10.046 -27.500 -11.336  0.00  0.00     0.064 H 
ATOM     31  N   ALA d   1       8.902 -31.050 -15.586  0.00  0.00    -0.346 N 
ATOM     32  CA  ALA d   1       7.935 -31.399 -16.635  0.00  0.00     0.086 C 
ATOM     33  C   ALA d   1       6.746 -32.237 -16.132  0.00  0.00     0.240 C 
ATOM     34  O   ALA d   1       5.687 -32.281 -16.765  0.00  0.00    -0.271 OA
ATOM     35  H14 ALA d   1       9.832 -31.413 -15.640  0.00  0.00     0.163 HD
ATOM     36  H15 ALA d   1       7.519 -30.453 -17.011  0.00  0.00     0.086 H 
ATOM     37  N   TYR d   1       6.937 -32.887 -14.984  0.00  0.00    -0.346 N 
ATOM     38  CA  TYR d   1       5.957 -33.817 -14.439  0.00  0.00     0.093 C 
ATOM     39  C   TYR d   1       5.253 -33.324 -13.157  0.00  0.00     0.241 C 
ATOM     40  O   TYR d   1       4.526 -34.088 -12.511  0.00  0.00    -0.271 OA
ATOM     41  N   TYR d   1       1.612 -29.569  -9.487  0.00  0.00    -0.346 N 
ATOM     42  CA  TYR d   1       1.389 -28.288  -8.832  0.00  0.00     0.093 C 
ATOM     43  C   TYR d   1       0.506 -27.381  -9.683  0.00  0.00     0.241 C 
ATOM     44  O   TYR d   1       0.716 -27.247 -10.904  0.00  0.00    -0.271 OA
ATOM     45  H19 TYR d   1       7.785 -32.730 -14.478  0.00  0.00     0.163 HD
ATOM     46  H20 TYR d   1       5.180 -33.959 -15.205  0.00  0.00     0.088 H 
ATOM     47  H46 TYR d   1       2.498 -29.725  -9.924  0.00  0.00     0.163 HD
ATOM     48  H47 TYR d   1       0.902 -28.457  -7.860  0.00  0.00     0.088 H 
ATOM     49  N   SER d   1       5.477 -32.063 -12.787  0.00  0.00    -0.344 N 
ATOM     50  CA  SER d   1       4.776 -31.439 -11.651  0.00  0.00     0.109 C 
ATOM     51  C   SER d   1       3.246 -31.569 -11.739  0.00  0.00     0.243 C 
ATOM     52  O   SER d   1       2.675 -31.540 -12.848  0.00  0.00    -0.271 OA
ATOM     53  H28 SER d   1       6.144 -31.521 -13.298  0.00  0.00     0.163 HD
ATOM     54  H29 SER d   1       5.107 -31.948 -10.734  0.00  0.00     0.090 H 
ATOM     55  N   ARG d   1       2.611 -31.728 -10.569  0.00  0.00    -0.346 N 
ATOM     56  CA  ARG d   1       1.141 -31.738 -10.428  0.00  0.00     0.089 C 
ATOM     57  C   ARG d   1       0.710 -30.545  -9.540  0.00  0.00     0.241 C 
ATOM     58  O   ARG d   1      -0.387 -30.504  -8.935  0.00  0.00    -0.271 OA
ATOM     59  H33 ARG d   1       3.164 -31.847  -9.745  0.00  0.00     0.163 HD
ATOM     60  H34 ARG d   1       0.701 -31.593 -11.426  0.00  0.00     0.087 H 
ATOM     61  N   LEU d   1      -0.465 -26.744  -9.036  0.00  0.00    -0.346 N 
ATOM     62  CA  LEU d   1      -1.459 -25.939  -9.755  0.00  0.00     0.089 C 
ATOM     63  C   LEU d   1      -0.876 -24.733 -10.530  0.00  0.00     0.241 C 
ATOM     64  O   LEU d   1      -1.424 -24.363 -11.570  0.00  0.00    -0.271 OA
ATOM     65  H55 LEU d   1      -0.519 -26.815  -8.040  0.00  0.00     0.163 HD
ATOM     66  H56 LEU d   1      -1.873 -26.605 -10.527  0.00  0.00     0.087 H 
ATOM     67  N   ASP d   1       0.232 -24.155 -10.041  0.00  0.00    -0.346 N 
ATOM     68  CA  ASP d   1       0.904 -23.020 -10.706  0.00  0.00     0.098 C 
ATOM     69  C   ASP d   1       1.778 -23.414 -11.912  0.00  0.00     0.241 C 
ATOM     70  O   ASP d   1       2.283 -22.543 -12.622  0.00  0.00    -0.271 OA
ATOM     71  H66 ASP d   1       0.620 -24.508  -9.189  0.00  0.00     0.163 HD
ATOM     72  H67 ASP d   1       0.109 -22.364 -11.090  0.00  0.00     0.088 H 
ENDROOT
BRANCH  56  73
ATOM     73  CB  ARG d   1       0.632 -33.089  -9.892  0.00  0.00    -0.036 C 
ATOM     74  H35 ARG d   1      -0.461 -33.031  -9.787  0.00  0.00     0.036 H 
ATOM     75  H36 ARG d   1       1.086 -33.264  -8.906  0.00  0.00     0.036 H 
BRANCH  73  76
ATOM     76  CG  ARG d   1       0.963 -34.259 -10.783  0.00  0.00    -0.048 C 
ATOM     77  H37 ARG d   1       2.031 -34.498 -10.676  0.00  0.00     0.035 H 
ATOM     78  H38 ARG d   1       0.751 -33.984 -11.827  0.00  0.00     0.035 H 
BRANCH  76  79
ATOM     79  CD  ARG d   1       0.150 -35.476 -10.422  0.00  0.00     0.009 C 
ATOM     80  H39 ARG d   1      -0.844 -35.147 -10.085  0.00  0.00     0.064 H 
ATOM     81  H40 ARG d   1       0.657 -36.007  -9.603  0.00  0.00     0.064 H 
BRANCH  79  82
ATOM     82  NE  ARG d   1      -0.020 -36.406 -11.550  0.00  0.00    -0.227 N 
ATOM     83  CZ  ARG d   1      -0.320 -37.706 -11.422  0.00  0.00     0.665 C 
ATOM     84  NH1 ARG d   1      -0.453 -38.239 -10.218  0.00  0.00    -0.235 N 
ATOM     85  H42 ARG d   1      -0.683 -39.238 -10.120  0.00  0.00     0.174 HD
ATOM     86  H43 ARG d   1      -0.326 -37.655  -9.379  0.00  0.00     0.174 HD
ATOM     87  H41 ARG d   1       0.100 -36.032 -12.502  0.00  0.00     0.177 HD
BRANCH  83  88
ATOM     88  NH2 ARG d   1      -0.464 -38.489 -12.488  0.00  0.00    -0.235 N 
ATOM     89  H44 ARG d   1      -0.364 -38.094 -13.434  0.00  0.00     0.174 HD
ATOM     90  H45 ARG d   1      -0.675 -39.490 -12.367  0.00  0.00     0.174 HD
ENDBRANCH  83  88
ENDBRANCH  79  82
ENDBRANCH  76  79
ENDBRANCH  73  76
ENDBRANCH  56  73
BRANCH  50  91
ATOM     91  CB  SER d   1       5.147 -29.959 -11.545  0.00  0.00     0.044 C 
ATOM     92  H30 SER d   1       4.655 -29.406 -12.359  0.00  0.00     0.077 H 
ATOM     93  H31 SER d   1       6.238 -29.855 -11.637  0.00  0.00     0.077 H 
BRANCH  91  94
ATOM     94  OG  SER d   1       4.731 -29.414 -10.294  0.00  0.00    -0.398 OA
ATOM     95  H32 SER d   1       5.156 -29.886  -9.587  0.00  0.00     0.209 HD
ENDBRANCH  91  94
ENDBRANCH  50  91
BRANCH  42  96
ATOM     96  CB  TYR d   1       2.732 -27.616  -8.620  0.00  0.00    -0.014 C 
ATOM     97  H48 TYR d   1       3.195 -27.464  -9.606  0.00  0.00     0.043 H 
ATOM     98  H49 TYR d   1       3.359 -28.292  -8.021  0.00  0.00     0.043 H 
BRANCH  96  99
ATOM     99  CG  TYR d   1       2.683 -26.286  -7.920  0.00  0.00    -0.056 A 
ATOM    100  CD1 TYR d   1       1.749 -26.039  -6.904  0.00  0.00    -0.074 A 
ATOM    101  CE1 TYR d   1       1.712 -24.830  -6.264  0.00  0.00    -0.051 A 
ATOM    102  H50 TYR d   1       1.047 -26.816  -6.622  0.00  0.00     0.084 H 
ATOM    103  CZ  TYR d   1       2.635 -23.836  -6.605  0.00  0.00     0.065 A 
ATOM    104  H52 TYR d   1       0.970 -24.643  -5.496  0.00  0.00     0.087 H 
ATOM    105  CE2 TYR d   1       3.590 -24.067  -7.603  0.00  0.00    -0.051 A 
ATOM    106  CD2 TYR d   1       3.606 -25.285  -8.249  0.00  0.00    -0.074 A 
ATOM    107  H53 TYR d   1       4.308 -23.298  -7.864  0.00  0.00     0.087 H 
ATOM    108  H51 TYR d   1       4.343 -25.471  -9.022  0.00  0.00     0.084 H 
BRANCH 103 109
ATOM    109  OH  TYR d   1       2.618 -22.617  -5.945  0.00  0.00    -0.361 OA
ATOM    110  H54 TYR d   1       3.451 -22.483  -5.508  0.00  0.00     0.217 HD
ENDBRANCH 103 109
ENDBRANCH  96  99
ENDBRANCH  42  96
BRANCH  38 111
ATOM    111  CB  TYR d   1       6.623 -35.173 -14.174  0.00  0.00    -0.014 C 
ATOM    112  H21 TYR d   1       5.868 -35.837 -13.728  0.00  0.00     0.043 H 
ATOM    113  H22 TYR d   1       7.440 -35.012 -13.455  0.00  0.00     0.043 H 
BRANCH 111 114
ATOM    114  CG  TYR d   1       7.202 -35.876 -15.382  0.00  0.00    -0.056 A 
ATOM    115  CD1 TYR d   1       6.896 -35.454 -16.685  0.00  0.00    -0.074 A 
ATOM    116  CE1 TYR d   1       7.422 -36.108 -17.794  0.00  0.00    -0.051 A 
ATOM    117  H23 TYR d   1       6.239 -34.604 -16.829  0.00  0.00     0.084 H 
ATOM    118  CZ  TYR d   1       8.230 -37.228 -17.609  0.00  0.00     0.065 A 
ATOM    119  H25 TYR d   1       7.205 -35.749 -18.794  0.00  0.00     0.087 H 
ATOM    120  CE2 TYR d   1       8.521 -37.692 -16.320  0.00  0.00    -0.051 A 
ATOM    121  CD2 TYR d   1       8.012 -37.011 -15.222  0.00  0.00    -0.074 A 
ATOM    122  H26 TYR d   1       9.137 -38.573 -16.181  0.00  0.00     0.087 H 
ATOM    123  H24 TYR d   1       8.245 -37.362 -14.223  0.00  0.00     0.084 H 
BRANCH 118 124
ATOM    124  OH  TYR d   1       8.731 -37.881 -18.715  0.00  0.00    -0.361 OA
ATOM    125  H27 TYR d   1       8.439 -37.437 -19.503  0.00  0.00     0.217 HD
ENDBRANCH 118 124
ENDBRANCH 111 114
ENDBRANCH  38 111
BRANCH  62 126
ATOM    126  CB  LEU d   1      -2.651 -25.558  -8.846  0.00  0.00    -0.035 C 
ATOM    127  H57 LEU d   1      -2.642 -26.313  -8.046  0.00  0.00     0.037 H 
ATOM    128  H58 LEU d   1      -3.539 -25.704  -9.478  0.00  0.00     0.037 H 
BRANCH 126 129
ATOM    129  CG  LEU d   1      -2.909 -24.226  -8.118  0.00  0.00    -0.059 C 
ATOM    130  H59 LEU d   1      -3.600 -24.442  -7.290  0.00  0.00     0.038 H 
BRANCH 129 131
ATOM    131  CD1 LEU d   1      -1.637 -23.630  -7.494  0.00  0.00    -0.073 C 
ATOM    132  H60 LEU d   1      -1.884 -22.684  -6.991  0.00  0.00     0.028 H 
ATOM    133  H61 LEU d   1      -0.895 -23.442  -8.284  0.00  0.00     0.028 H 
ATOM    134  H62 LEU d   1      -1.222 -24.337  -6.761  0.00  0.00     0.028 H 
ENDBRANCH 129 131
BRANCH 129 135
ATOM    135  CD2 LEU d   1      -3.611 -23.211  -9.047  0.00  0.00    -0.073 C 
ATOM    136  H63 LEU d   1      -4.515 -23.670  -9.475  0.00  0.00     0.028 H 
ATOM    137  H64 LEU d   1      -2.927 -22.922  -9.858  0.00  0.00     0.028 H 
ATOM    138  H65 LEU d   1      -3.892 -22.318  -8.469  0.00  0.00     0.028 H 
ENDBRANCH 129 135
ENDBRANCH 126 129
ENDBRANCH  62 126
BRANCH  32 139
ATOM    139  CB  ALA d   1       8.637 -32.090 -17.812  0.00  0.00    -0.049 C 
ATOM    140  H16 ALA d   1       7.896 -32.342 -18.584  0.00  0.00     0.030 H 
ATOM    141  H17 ALA d   1       9.126 -33.010 -17.459  0.00  0.00     0.030 H 
ATOM    142  H18 ALA d   1       9.393 -31.413 -18.237  0.00  0.00     0.030 H 
ENDBRANCH  32 139
BRANCH  68 143
ATOM    143  CB  ASP d   1       1.733 -22.203  -9.698  0.00  0.00     0.043 C 
ATOM    144  H68 ASP d   1       2.666 -21.885 -10.186  0.00  0.00     0.052 H 
ATOM    145  H69 ASP d   1       1.970 -22.844  -8.836  0.00  0.00     0.052 H 
BRANCH 143 146
ATOM    146  CG  ASP d   1       1.001 -20.965  -9.196  0.00  0.00     0.175 C 
ATOM    147  OD1 ASP d   1       0.628 -20.106 -10.019  0.00  0.00    -0.648 OA
ATOM    148  OD2 ASP d   1       0.785 -20.842  -7.975  0.00  0.00    -0.648 OA
ENDBRANCH 143 146
ENDBRANCH  68 143
BRANCH   7 149
ATOM    149  C   CYS d   1       2.081 -25.360 -14.535  0.00  0.00     0.197 C 
ATOM    150  O   CYS d   1       1.118 -24.627 -14.788  0.00  0.00    -0.646 OA
ATOM    151  OXT CYS d   1       2.450 -26.211 -15.353  0.00  0.00    -0.646 OA
ENDBRANCH   7 149
BRANCH   1 152
ATOM    152  N   CYS d   1       9.344 -24.896 -14.124  0.00  0.00    -0.066 N 
ATOM    153  H1  CYS d   1       8.912 -24.060 -13.764  0.00  0.00     0.275 HD
ATOM    154  H2  CYS d   1       9.249 -24.918 -15.127  0.00  0.00     0.275 HD
ATOM    155  H3  CYS d   1      10.322 -24.901 -13.879  0.00  0.00     0.275 HD
ENDBRANCH   1 152
TORSDOF 22
