REMARK  18 active torsions:
REMARK  status: ('A' for Active; 'I' for Inactive)
REMARK    1  A    between atoms: N_1  and  CA_2 
REMARK    2  A    between atoms: CA_15  and  CB_18 
REMARK    3  A    between atoms: CA_20  and  CB_23 
REMARK    4  A    between atoms: CB_23  and  CG_24 
REMARK    5  A    between atoms: CZ_29  and  OH_30 
REMARK    6  A    between atoms: CA_32  and  CB_35 
REMARK    7  A    between atoms: CB_35  and  OG_36 
REMARK    8  A    between atoms: CA_38  and  CB_41 
REMARK    9  A    between atoms: CA_43  and  CB_46 
REMARK   10  A    between atoms: CB_46  and  CG_47 
REMARK   11  A    between atoms: CZ_52  and  OH_53 
REMARK   12  A    between atoms: CA_55  and  CB_58 
REMARK   13  A    between atoms: CB_58  and  CG_59 
REMARK   14  A    between atoms: CG_59  and  CD1_60 
REMARK   15  A    between atoms: CG_59  and  CD2_61 
REMARK   16  A    between atoms: CA_63  and  CB_66 
REMARK   17  A    between atoms: CB_66  and  CG_67 
REMARK   18  A    between atoms: CA_71  and  C_72 
ROOT
ATOM      1  CA  CYS d   1     -42.357 -14.581 -13.397  0.00  0.00     0.184 C 
ATOM      2  C   CYS d   1     -41.454 -13.545 -14.051  0.00  0.00     0.252 C 
ATOM      3  O   CYS d   1     -41.495 -13.393 -15.272  0.00  0.00    -0.271 OA
ATOM      4  CB  CYS d   1     -41.918 -15.984 -13.823  0.00  0.00     0.021 C 
ATOM      5  SG  CYS d   1     -42.411 -17.282 -12.659  0.00  0.00    -0.095 SA
ATOM      6  N   CYS d   1     -40.614 -21.211 -12.391  0.00  0.00    -0.344 N 
ATOM      7  CA  CYS d   1     -40.802 -20.236 -13.460  0.00  0.00     0.105 C 
ATOM      8  CB  CYS d   1     -39.961 -18.990 -13.189  0.00  0.00     0.015 C 
ATOM      9  SG  CYS d   1     -40.648 -17.962 -11.870  0.00  0.00    -0.095 SA
ATOM     10  H4  CYS d   1     -42.263 -14.495 -12.304  0.00  0.00     0.100 H 
ATOM     11  H5  CYS d   1     -40.822 -15.994 -13.911  0.00  0.00     0.054 H 
ATOM     12  H6  CYS d   1     -42.367 -16.206 -14.803  0.00  0.00     0.054 H 
ATOM     13  H62 CYS d   1     -39.746 -21.225 -11.895  0.00  0.00     0.163 HD
ATOM     14  H63 CYS d   1     -41.863 -19.946 -13.481  0.00  0.00     0.090 H 
ATOM     15  H64 CYS d   1     -39.909 -18.392 -14.111  0.00  0.00     0.054 H 
ATOM     16  H65 CYS d   1     -38.948 -19.305 -12.899  0.00  0.00     0.054 H 
ATOM     17  N   PRO d   1     -40.629 -12.837 -13.247  0.00  0.00    -0.337 N 
ATOM     18  CA  PRO d   1     -39.586 -11.969 -13.810  0.00  0.00     0.091 C 
ATOM     19  C   PRO d   1     -38.666 -12.730 -14.745  0.00  0.00     0.241 C 
ATOM     20  O   PRO d   1     -38.401 -13.920 -14.522  0.00  0.00    -0.271 OA
ATOM     21  CB  PRO d   1     -38.811 -11.501 -12.579  0.00  0.00    -0.036 C 
ATOM     22  CG  PRO d   1     -39.808 -11.552 -11.482  0.00  0.00    -0.048 C 
ATOM     23  CD  PRO d   1     -40.679 -12.736 -11.777  0.00  0.00    -0.001 C 
ATOM     24  H7  PRO d   1     -40.032 -11.118 -14.346  0.00  0.00     0.087 H 
ATOM     25  H8  PRO d   1     -38.437 -10.476 -12.719  0.00  0.00     0.036 H 
ATOM     26  H9  PRO d   1     -37.966 -12.174 -12.370  0.00  0.00     0.036 H 
ATOM     27  H10 PRO d   1     -40.407 -10.630 -11.466  0.00  0.00     0.035 H 
ATOM     28  H11 PRO d   1     -39.304 -11.679 -10.512  0.00  0.00     0.035 H 
ATOM     29  H12 PRO d   1     -40.279 -13.646 -11.306  0.00  0.00     0.064 H 
ATOM     30  H13 PRO d   1     -41.708 -12.564 -11.429  0.00  0.00     0.064 H 
ATOM     31  N   ALA d   1     -38.185 -12.045 -15.780  0.00  0.00    -0.346 N 
ATOM     32  CA  ALA d   1     -37.410 -12.689 -16.846  0.00  0.00     0.086 C 
ATOM     33  C   ALA d   1     -36.091 -13.290 -16.347  0.00  0.00     0.240 C 
ATOM     34  O   ALA d   1     -35.587 -14.255 -16.934  0.00  0.00    -0.271 OA
ATOM     35  N   ALA d   1     -34.473 -16.877 -10.803  0.00  0.00    -0.346 N 
ATOM     36  CA  ALA d   1     -33.907 -18.188 -10.640  0.00  0.00     0.086 C 
ATOM     37  C   ALA d   1     -34.824 -18.980 -10.001  0.00  0.00     0.240 C 
ATOM     38  O   ALA d   1     -34.328 -20.103  -9.879  0.00  0.00    -0.271 OA
ATOM     39  H14 ALA d   1     -38.357 -11.061 -15.832  0.00  0.00     0.163 HD
ATOM     40  H15 ALA d   1     -38.019 -13.514 -17.244  0.00  0.00     0.086 H 
ATOM     41  H33 ALA d   1     -34.432 -16.246 -10.028  0.00  0.00     0.163 HD
ATOM     42  H34 ALA d   1     -33.679 -18.614 -11.628  0.00  0.00     0.086 H 
ATOM     43  N   TYR d   1     -35.592 -12.747 -15.260  0.00  0.00    -0.346 N 
ATOM     44  CA  TYR d   1     -34.346 -13.176 -14.690  0.00  0.00     0.093 C 
ATOM     45  C   TYR d   1     -34.477 -14.002 -13.395  0.00  0.00     0.241 C 
ATOM     46  O   TYR d   1     -33.506 -14.204 -12.707  0.00  0.00    -0.271 OA
ATOM     47  N   TYR d   1     -36.065 -19.061  -9.479  0.00  0.00    -0.346 N 
ATOM     48  CA  TYR d   1     -37.133 -19.864  -8.952  0.00  0.00     0.093 C 
ATOM     49  C   TYR d   1     -37.415 -21.007  -9.891  0.00  0.00     0.241 C 
ATOM     50  O   TYR d   1     -37.654 -20.828 -11.064  0.00  0.00    -0.271 OA
ATOM     51  H19 TYR d   1     -36.098 -12.009 -14.814  0.00  0.00     0.163 HD
ATOM     52  H20 TYR d   1     -33.841 -13.811 -15.433  0.00  0.00     0.088 H 
ATOM     53  H38 TYR d   1     -36.398 -18.119  -9.441  0.00  0.00     0.163 HD
ATOM     54  H39 TYR d   1     -36.829 -20.267  -7.975  0.00  0.00     0.088 H 
ATOM     55  N   SER d   1     -35.679 -14.447 -13.064  0.00  0.00    -0.344 N 
ATOM     56  CA  SER d   1     -35.909 -15.247 -11.880  0.00  0.00     0.109 C 
ATOM     57  C   SER d   1     -35.025 -16.473 -11.881  0.00  0.00     0.243 C 
ATOM     58  O   SER d   1     -34.854 -17.086 -12.914  0.00  0.00    -0.271 OA
ATOM     59  H28 SER d   1     -36.456 -14.223 -13.653  0.00  0.00     0.163 HD
ATOM     60  H29 SER d   1     -35.673 -14.639 -10.994  0.00  0.00     0.090 H 
ATOM     61  N   LEU d   1     -37.419 -22.200  -9.343  0.00  0.00    -0.346 N 
ATOM     62  CA  LEU d   1     -37.527 -23.397 -10.143  0.00  0.00     0.089 C 
ATOM     63  C   LEU d   1     -38.823 -23.501 -10.923  0.00  0.00     0.241 C 
ATOM     64  O   LEU d   1     -38.848 -24.076 -11.984  0.00  0.00    -0.271 OA
ATOM     65  H47 LEU d   1     -37.346 -22.282  -8.349  0.00  0.00     0.163 HD
ATOM     66  H48 LEU d   1     -36.730 -23.332 -10.898  0.00  0.00     0.087 H 
ATOM     67  N   ASP d   1     -39.895 -22.970 -10.359  0.00  0.00    -0.346 N 
ATOM     68  CA  ASP d   1     -41.262 -23.061 -10.912  0.00  0.00     0.098 C 
ATOM     69  C   ASP d   1     -41.563 -22.083 -12.056  0.00  0.00     0.241 C 
ATOM     70  O   ASP d   1     -42.659 -22.117 -12.610  0.00  0.00    -0.271 OA
ATOM     71  H58 ASP d   1     -39.772 -22.473  -9.500  0.00  0.00     0.163 HD
ATOM     72  H59 ASP d   1     -41.383 -24.080 -11.308  0.00  0.00     0.088 H 
ENDROOT
BRANCH  44  73
ATOM     73  CB  TYR d   1     -33.495 -11.959 -14.441  0.00  0.00    -0.014 C 
ATOM     74  H21 TYR d   1     -32.583 -12.287 -13.921  0.00  0.00     0.043 H 
ATOM     75  H22 TYR d   1     -34.063 -11.278 -13.791  0.00  0.00     0.043 H 
BRANCH  73  76
ATOM     76  CG  TYR d   1     -33.077 -11.188 -15.662  0.00  0.00    -0.056 A 
ATOM     77  CD1 TYR d   1     -33.055 -11.766 -16.912  0.00  0.00    -0.074 A 
ATOM     78  CE1 TYR d   1     -32.643 -11.055 -18.012  0.00  0.00    -0.051 A 
ATOM     79  H23 TYR d   1     -33.367 -12.797 -17.029  0.00  0.00     0.084 H 
ATOM     80  CZ  TYR d   1     -32.236  -9.754 -17.867  0.00  0.00     0.065 A 
ATOM     81  H25 TYR d   1     -32.640 -11.521 -18.991  0.00  0.00     0.087 H 
ATOM     82  CE2 TYR d   1     -32.234  -9.171 -16.634  0.00  0.00    -0.051 A 
ATOM     83  CD2 TYR d   1     -32.658  -9.882 -15.545  0.00  0.00    -0.074 A 
ATOM     84  H26 TYR d   1     -31.897  -8.147 -16.517  0.00  0.00     0.087 H 
ATOM     85  H24 TYR d   1     -32.664  -9.408 -14.570  0.00  0.00     0.084 H 
BRANCH  80  86
ATOM     86  OH  TYR d   1     -31.820  -9.023 -18.941  0.00  0.00    -0.361 OA
ATOM     87  H27 TYR d   1     -31.876  -9.556 -19.726  0.00  0.00     0.217 HD
ENDBRANCH  80  86
ENDBRANCH  73  76
ENDBRANCH  44  73
BRANCH  32  88
ATOM     88  CB  ALA d   1     -37.145 -11.706 -17.988  0.00  0.00    -0.049 C 
ATOM     89  H16 ALA d   1     -36.564 -12.207 -18.776  0.00  0.00     0.030 H 
ATOM     90  H17 ALA d   1     -36.578 -10.844 -17.606  0.00  0.00     0.030 H 
ATOM     91  H18 ALA d   1     -38.103 -11.360 -18.403  0.00  0.00     0.030 H 
ENDBRANCH  32  88
BRANCH  56  92
ATOM     92  CB  SER d   1     -37.362 -15.680 -11.806  0.00  0.00     0.044 C 
ATOM     93  H30 SER d   1     -37.569 -16.378 -12.631  0.00  0.00     0.077 H 
ATOM     94  H31 SER d   1     -38.004 -14.793 -11.907  0.00  0.00     0.077 H 
BRANCH  92  95
ATOM     95  OG  SER d   1     -37.653 -16.316 -10.587  0.00  0.00    -0.398 OA
ATOM     96  H32 SER d   1     -37.482 -15.717  -9.870  0.00  0.00     0.209 HD
ENDBRANCH  92  95
ENDBRANCH  56  92
BRANCH  36  97
ATOM     97  CB  ALA d   1     -32.628 -18.110  -9.824  0.00  0.00    -0.049 C 
ATOM     98  H35 ALA d   1     -32.206 -19.119  -9.707  0.00  0.00     0.030 H 
ATOM     99  H36 ALA d   1     -32.851 -17.688  -8.833  0.00  0.00     0.030 H 
ATOM    100  H37 ALA d   1     -31.901 -17.466 -10.341  0.00  0.00     0.030 H 
ENDBRANCH  36  97
BRANCH   1 101
ATOM    101  N   CYS d   1     -43.778 -14.349 -13.773  0.00  0.00    -0.066 N 
ATOM    102  H1  CYS d   1     -44.360 -15.043 -13.331  0.00  0.00     0.275 HD
ATOM    103  H2  CYS d   1     -43.876 -14.416 -14.774  0.00  0.00     0.275 HD
ATOM    104  H3  CYS d   1     -44.061 -13.431 -13.468  0.00  0.00     0.275 HD
ENDBRANCH   1 101
BRANCH  48 105
ATOM    105  CB  TYR d   1     -38.341 -19.058  -8.777  0.00  0.00    -0.014 C 
ATOM    106  H40 TYR d   1     -38.710 -18.761  -9.770  0.00  0.00     0.043 H 
ATOM    107  H41 TYR d   1     -38.081 -18.159  -8.199  0.00  0.00     0.043 H 
BRANCH 105 108
ATOM    108  CG  TYR d   1     -39.444 -19.789  -8.055  0.00  0.00    -0.056 A 
ATOM    109  CD1 TYR d   1     -39.179 -20.784  -7.158  0.00  0.00    -0.074 A 
ATOM    110  CE1 TYR d   1     -40.196 -21.423  -6.490  0.00  0.00    -0.051 A 
ATOM    111  H42 TYR d   1     -38.152 -21.074  -6.970  0.00  0.00     0.084 H 
ATOM    112  CZ  TYR d   1     -41.483 -21.071  -6.734  0.00  0.00     0.065 A 
ATOM    113  H44 TYR d   1     -39.971 -22.204  -5.772  0.00  0.00     0.087 H 
ATOM    114  CE2 TYR d   1     -41.759 -20.094  -7.627  0.00  0.00    -0.051 A 
ATOM    115  CD2 TYR d   1     -40.749 -19.465  -8.280  0.00  0.00    -0.074 A 
ATOM    116  H45 TYR d   1     -42.788 -19.813  -7.822  0.00  0.00     0.087 H 
ATOM    117  H43 TYR d   1     -40.985 -18.687  -8.997  0.00  0.00     0.084 H 
BRANCH 112 118
ATOM    118  OH  TYR d   1     -42.515 -21.675  -6.093  0.00  0.00    -0.361 OA
ATOM    119  H46 TYR d   1     -43.003 -21.026  -5.599  0.00  0.00     0.217 HD
ENDBRANCH 112 118
ENDBRANCH 105 108
ENDBRANCH  48 105
BRANCH  62 120
ATOM    120  CB  LEU d   1     -37.229 -24.644  -9.313  0.00  0.00    -0.035 C 
ATOM    121  H49 LEU d   1     -36.610 -24.294  -8.474  0.00  0.00     0.037 H 
ATOM    122  H50 LEU d   1     -36.628 -25.293  -9.967  0.00  0.00     0.037 H 
BRANCH 120 123
ATOM    123  CG  LEU d   1     -38.273 -25.557  -8.690  0.00  0.00    -0.059 C 
ATOM    124  H51 LEU d   1     -37.941 -25.797  -7.669  0.00  0.00     0.038 H 
BRANCH 123 125
ATOM    125  CD1 LEU d   1     -39.642 -24.928  -8.591  0.00  0.00    -0.073 C 
ATOM    126  H52 LEU d   1     -40.342 -25.643  -8.133  0.00  0.00     0.028 H 
ATOM    127  H53 LEU d   1     -39.997 -24.661  -9.598  0.00  0.00     0.028 H 
ATOM    128  H54 LEU d   1     -39.585 -24.022  -7.970  0.00  0.00     0.028 H 
ENDBRANCH 123 125
BRANCH 123 129
ATOM    129  CD2 LEU d   1     -38.358 -26.837  -9.478  0.00  0.00    -0.073 C 
ATOM    130  H55 LEU d   1     -37.359 -27.292  -9.548  0.00  0.00     0.028 H 
ATOM    131  H56 LEU d   1     -38.734 -26.621 -10.489  0.00  0.00     0.028 H 
ATOM    132  H57 LEU d   1     -39.043 -27.534  -8.973  0.00  0.00     0.028 H 
ENDBRANCH 123 129
ENDBRANCH 120 123
ENDBRANCH  62 120
BRANCH   7 133
ATOM    133  C   CYS d   1     -40.440 -20.821 -14.813  0.00  0.00     0.197 C 
ATOM    134  O   CYS d   1     -39.403 -21.462 -14.947  0.00  0.00    -0.646 OA
ATOM    135  OXT CYS d   1     -41.184 -20.653 -15.773  0.00  0.00    -0.646 OA
ENDBRANCH   7 133
BRANCH  68 136
ATOM    136  CB  ASP d   1     -42.307 -22.844  -9.799  0.00  0.00     0.043 C 
ATOM    137  H60 ASP d   1     -43.031 -22.090 -10.142  0.00  0.00     0.052 H 
ATOM    138  H61 ASP d   1     -41.790 -22.474  -8.901  0.00  0.00     0.052 H 
BRANCH 136 139
ATOM    139  CG  ASP d   1     -43.068 -24.117  -9.431  0.00  0.00     0.175 C 
ATOM    140  OD1 ASP d   1     -42.459 -25.219  -9.415  0.00  0.00    -0.648 OA
ATOM    141  OD2 ASP d   1     -44.284 -24.003  -9.143  0.00  0.00    -0.648 OA
ENDBRANCH 136 139
ENDBRANCH  68 136
TORSDOF 18
