REMARK  17 active torsions:
REMARK  status: ('A' for Active; 'I' for Inactive)
REMARK    1  A    between atoms: N_1  and  CA_2 
REMARK    2  A    between atoms: CA_15  and  CB_18 
REMARK    3  A    between atoms: CA_20  and  CB_23 
REMARK    4  A    between atoms: CB_23  and  CG_24 
REMARK    5  A    between atoms: CZ_29  and  OH_30 
REMARK    6  A    between atoms: CA_32  and  CB_35 
REMARK    7  A    between atoms: CB_35  and  OG_36 
REMARK    8  A    between atoms: CA_38  and  CB_41 
REMARK    9  A    between atoms: CA_43  and  CB_46 
REMARK   10  A    between atoms: CB_46  and  CG_47 
REMARK   11  A    between atoms: CZ_52  and  OH_53 
REMARK   12  A    between atoms: CA_55  and  CB_58 
REMARK   13  A    between atoms: CB_58  and  CG_59 
REMARK   14  A    between atoms: CG_59  and  CD1_60 
REMARK   15  A    between atoms: CG_59  and  CD2_61 
REMARK   16  A    between atoms: CA_63  and  CB_66 
REMARK   17  A    between atoms: CA_68  and  C_69 
ROOT
ATOM      1  CA  CYS d   1     -26.025  -7.432   0.619  0.00  0.00     0.184 C 
ATOM      2  C   CYS d   1     -27.399  -7.633   1.199  0.00  0.00     0.252 C 
ATOM      3  O   CYS d   1     -27.564  -7.575   2.402  0.00  0.00    -0.271 OA
ATOM      4  CB  CYS d   1     -25.137  -8.608   0.999  0.00  0.00     0.021 C 
ATOM      5  SG  CYS d   1     -23.512  -8.686   0.222  0.00  0.00    -0.095 SA
ATOM      6  N   CYS d   1     -21.214 -12.139  -1.156  0.00  0.00    -0.344 N 
ATOM      7  CA  CYS d   1     -21.980 -11.674  -0.024  0.00  0.00     0.105 C 
ATOM      8  CB  CYS d   1     -23.461 -11.586  -0.361  0.00  0.00     0.015 C 
ATOM      9  SG  CYS d   1     -23.986 -10.058  -1.130  0.00  0.00    -0.095 SA
ATOM     10  H4  CYS d   1     -26.095  -7.373  -0.477  0.00  0.00     0.100 H 
ATOM     11  H5  CYS d   1     -25.676  -9.530   0.736  0.00  0.00     0.054 H 
ATOM     12  H6  CYS d   1     -24.983  -8.571   2.088  0.00  0.00     0.054 H 
ATOM     13  H63 CYS d   1     -21.528 -12.956  -1.641  0.00  0.00     0.163 HD
ATOM     14  H64 CYS d   1     -21.622 -10.670   0.249  0.00  0.00     0.090 H 
ATOM     15  H65 CYS d   1     -24.029 -11.708   0.573  0.00  0.00     0.054 H 
ATOM     16  H66 CYS d   1     -23.702 -12.411  -1.047  0.00  0.00     0.054 H 
ATOM     17  N   PRO d   1     -28.425  -7.883   0.275  0.00  0.00    -0.337 N 
ATOM     18  CA  PRO d   1     -29.707  -8.243   0.904  0.00  0.00     0.091 C 
ATOM     19  C   PRO d   1     -29.643  -9.594   1.609  0.00  0.00     0.241 C 
ATOM     20  O   PRO d   1     -28.853 -10.422   1.242  0.00  0.00    -0.271 OA
ATOM     21  CB  PRO d   1     -30.671  -8.338  -0.266  0.00  0.00    -0.036 C 
ATOM     22  CG  PRO d   1     -30.102  -7.491  -1.305  0.00  0.00    -0.048 C 
ATOM     23  CD  PRO d   1     -28.688  -7.877  -1.243  0.00  0.00    -0.001 C 
ATOM     24  H7  PRO d   1     -30.020  -7.468   1.618  0.00  0.00     0.087 H 
ATOM     25  H8  PRO d   1     -31.667  -7.973   0.025  0.00  0.00     0.036 H 
ATOM     26  H9  PRO d   1     -30.749  -9.378  -0.617  0.00  0.00     0.036 H 
ATOM     27  H10 PRO d   1     -30.239  -6.424  -1.076  0.00  0.00     0.035 H 
ATOM     28  H11 PRO d   1     -30.538  -7.713  -2.290  0.00  0.00     0.035 H 
ATOM     29  H12 PRO d   1     -28.526  -8.873  -1.681  0.00  0.00     0.064 H 
ATOM     30  H13 PRO d   1     -28.050  -7.143  -1.756  0.00  0.00     0.064 H 
ATOM     31  N   ALA d   1     -30.469  -9.785   2.622  0.00  0.00    -0.346 N 
ATOM     32  CA  ALA d   1     -30.404 -10.959   3.466  0.00  0.00     0.086 C 
ATOM     33  C   ALA d   1     -30.562 -12.253   2.717  0.00  0.00     0.240 C 
ATOM     34  O   ALA d   1     -29.985 -13.263   3.087  0.00  0.00    -0.271 OA
ATOM     35  N   ALA d   1     -28.031 -14.824  -2.873  0.00  0.00    -0.346 N 
ATOM     36  CA  ALA d   1     -27.032 -15.795  -3.390  0.00  0.00     0.086 C 
ATOM     37  C   ALA d   1     -26.012 -15.397  -4.166  0.00  0.00     0.240 C 
ATOM     38  O   ALA d   1     -25.373 -16.148  -4.777  0.00  0.00    -0.271 OA
ATOM     39  N   ALA d   1     -20.244 -13.151  -3.441  0.00  0.00    -0.346 N 
ATOM     40  CA  ALA d   1     -19.420 -12.173  -2.756  0.00  0.00     0.086 C 
ATOM     41  C   ALA d   1     -20.118 -11.537  -1.582  0.00  0.00     0.240 C 
ATOM     42  O   ALA d   1     -19.661 -10.525  -1.081  0.00  0.00    -0.271 OA
ATOM     43  H14 ALA d   1     -31.165  -9.093   2.813  0.00  0.00     0.163 HD
ATOM     44  H15 ALA d   1     -29.418 -10.968   3.953  0.00  0.00     0.086 H 
ATOM     45  H33 ALA d   1     -28.698 -14.514  -3.550  0.00  0.00     0.163 HD
ATOM     46  H34 ALA d   1     -26.603 -16.298  -2.511  0.00  0.00     0.086 H 
ATOM     47  H58 ALA d   1     -20.873 -12.851  -4.158  0.00  0.00     0.163 HD
ATOM     48  H59 ALA d   1     -18.538 -12.703  -2.368  0.00  0.00     0.086 H 
ATOM     49  N   TYR d   1     -31.383 -12.234   1.689  0.00  0.00    -0.346 N 
ATOM     50  CA  TYR d   1     -31.614 -13.444   0.906  0.00  0.00     0.093 C 
ATOM     51  C   TYR d   1     -30.709 -13.534  -0.351  0.00  0.00     0.241 C 
ATOM     52  O   TYR d   1     -31.011 -14.221  -1.318  0.00  0.00    -0.271 OA
ATOM     53  N   TYR d   1     -25.414 -14.109  -4.124  0.00  0.00    -0.346 N 
ATOM     54  CA  TYR d   1     -24.245 -13.605  -4.723  0.00  0.00     0.093 C 
ATOM     55  C   TYR d   1     -23.096 -14.142  -3.930  0.00  0.00     0.241 C 
ATOM     56  O   TYR d   1     -23.077 -14.041  -2.717  0.00  0.00    -0.271 OA
ATOM     57  H19 TYR d   1     -31.852 -11.386   1.443  0.00  0.00     0.163 HD
ATOM     58  H20 TYR d   1     -31.348 -14.298   1.546  0.00  0.00     0.088 H 
ATOM     59  H38 TYR d   1     -25.913 -13.442  -3.570  0.00  0.00     0.163 HD
ATOM     60  H39 TYR d   1     -24.173 -13.933  -5.771  0.00  0.00     0.088 H 
ATOM     61  N   SER d   1     -29.630 -12.770  -0.382  0.00  0.00    -0.344 N 
ATOM     62  CA  SER d   1     -28.786 -12.878  -1.545  0.00  0.00     0.109 C 
ATOM     63  C   SER d   1     -28.197 -14.266  -1.589  0.00  0.00     0.243 C 
ATOM     64  O   SER d   1     -28.074 -14.893  -0.571  0.00  0.00    -0.271 OA
ATOM     65  H28 SER d   1     -29.410 -12.146   0.367  0.00  0.00     0.163 HD
ATOM     66  H29 SER d   1     -29.409 -12.720  -2.437  0.00  0.00     0.090 H 
ATOM     67  N   LEU d   1     -22.139 -14.738  -4.608  0.00  0.00    -0.346 N 
ATOM     68  CA  LEU d   1     -21.070 -15.385  -3.910  0.00  0.00     0.089 C 
ATOM     69  C   LEU d   1     -20.173 -14.440  -3.127  0.00  0.00     0.241 C 
ATOM     70  O   LEU d   1     -19.408 -14.879  -2.290  0.00  0.00    -0.271 OA
ATOM     71  H47 LEU d   1     -22.158 -14.739  -5.608  0.00  0.00     0.163 HD
ATOM     72  H48 LEU d   1     -21.535 -16.057  -3.174  0.00  0.00     0.087 H 
ENDROOT
BRANCH  50  73
ATOM     73  CB  TYR d   1     -33.103 -13.578   0.569  0.00  0.00    -0.014 C 
ATOM     74  H21 TYR d   1     -33.263 -14.549   0.077  0.00  0.00     0.043 H 
ATOM     75  H22 TYR d   1     -33.379 -12.767  -0.122  0.00  0.00     0.043 H 
BRANCH  73  76
ATOM     76  CG  TYR d   1     -34.012 -13.500   1.794  0.00  0.00    -0.056 A 
ATOM     77  CD1 TYR d   1     -33.522 -13.808   3.055  0.00  0.00    -0.074 A 
ATOM     78  CE1 TYR d   1     -34.326 -13.780   4.171  0.00  0.00    -0.051 A 
ATOM     79  H23 TYR d   1     -32.478 -14.078   3.164  0.00  0.00     0.084 H 
ATOM     80  CZ  TYR d   1     -35.647 -13.436   4.054  0.00  0.00     0.065 A 
ATOM     81  H25 TYR d   1     -33.915 -14.030   5.142  0.00  0.00     0.087 H 
ATOM     82  CE2 TYR d   1     -36.165 -13.139   2.795  0.00  0.00    -0.051 A 
ATOM     83  CD2 TYR d   1     -35.351 -13.169   1.684  0.00  0.00    -0.074 A 
ATOM     84  H26 TYR d   1     -37.213 -12.883   2.689  0.00  0.00     0.087 H 
ATOM     85  H24 TYR d   1     -35.765 -12.930   0.711  0.00  0.00     0.084 H 
BRANCH  80  86
ATOM     86  OH  TYR d   1     -36.433 -13.431   5.202  0.00  0.00    -0.361 OA
ATOM     87  H27 TYR d   1     -35.897 -13.658   5.953  0.00  0.00     0.217 HD
ENDBRANCH  80  86
ENDBRANCH  73  76
ENDBRANCH  50  73
BRANCH  32  88
ATOM     88  CB  ALA d   1     -31.463 -10.882   4.526  0.00  0.00    -0.049 C 
ATOM     89  H16 ALA d   1     -31.409 -11.776   5.164  0.00  0.00     0.030 H 
ATOM     90  H17 ALA d   1     -32.454 -10.830   4.051  0.00  0.00     0.030 H 
ATOM     91  H18 ALA d   1     -31.303  -9.983   5.140  0.00  0.00     0.030 H 
ENDBRANCH  32  88
BRANCH  62  92
ATOM     92  CB  SER d   1     -27.659 -11.880  -1.575  0.00  0.00     0.044 C 
ATOM     93  H30 SER d   1     -26.977 -12.065  -0.732  0.00  0.00     0.077 H 
ATOM     94  H31 SER d   1     -28.065 -10.860  -1.502  0.00  0.00     0.077 H 
BRANCH  92  95
ATOM     95  OG  SER d   1     -26.959 -12.029  -2.795  0.00  0.00    -0.398 OA
ATOM     96  H32 SER d   1     -27.552 -11.871  -3.520  0.00  0.00     0.209 HD
ENDBRANCH  92  95
ENDBRANCH  62  92
BRANCH  36  97
ATOM     97  CB  ALA d   1     -27.748 -16.807  -4.278  0.00  0.00    -0.049 C 
ATOM     98  H35 ALA d   1     -27.019 -17.533  -4.668  0.00  0.00     0.030 H 
ATOM     99  H36 ALA d   1     -28.229 -16.283  -5.117  0.00  0.00     0.030 H 
ATOM    100  H37 ALA d   1     -28.512 -17.335  -3.689  0.00  0.00     0.030 H 
ENDBRANCH  36  97
BRANCH   1 101
ATOM    101  N   CYS d   1     -25.480  -6.194   1.128  0.00  0.00    -0.066 N 
ATOM    102  H1  CYS d   1     -24.559  -6.050   0.745  0.00  0.00     0.275 HD
ATOM    103  H2  CYS d   1     -25.422  -6.240   2.133  0.00  0.00     0.275 HD
ATOM    104  H3  CYS d   1     -26.078  -5.428   0.861  0.00  0.00     0.275 HD
ENDBRANCH   1 101
BRANCH  54 105
ATOM    105  CB  TYR d   1     -24.271 -12.116  -4.659  0.00  0.00    -0.014 C 
ATOM    106  H40 TYR d   1     -24.239 -11.813  -3.602  0.00  0.00     0.043 H 
ATOM    107  H41 TYR d   1     -25.210 -11.765  -5.113  0.00  0.00     0.043 H 
BRANCH 105 108
ATOM    108  CG  TYR d   1     -23.155 -11.479  -5.356  0.00  0.00    -0.056 A 
ATOM    109  CD1 TYR d   1     -22.539 -12.085  -6.412  0.00  0.00    -0.074 A 
ATOM    110  CE1 TYR d   1     -21.511 -11.480  -7.040  0.00  0.00    -0.051 A 
ATOM    111  H42 TYR d   1     -22.878 -13.058  -6.748  0.00  0.00     0.084 H 
ATOM    112  CZ  TYR d   1     -21.099 -10.277  -6.611  0.00  0.00     0.065 A 
ATOM    113  H44 TYR d   1     -21.023 -11.959  -7.881  0.00  0.00     0.087 H 
ATOM    114  CE2 TYR d   1     -21.693  -9.658  -5.582  0.00  0.00    -0.051 A 
ATOM    115  CD2 TYR d   1     -22.720 -10.260  -4.958  0.00  0.00    -0.074 A 
ATOM    116  H45 TYR d   1     -21.349  -8.683  -5.256  0.00  0.00     0.087 H 
ATOM    117  H43 TYR d   1     -23.206  -9.764  -4.126  0.00  0.00     0.084 H 
BRANCH 112 118
ATOM    118  OH  TYR d   1     -20.088  -9.640  -7.209  0.00  0.00    -0.361 OA
ATOM    119  H46 TYR d   1     -20.398  -8.812  -7.556  0.00  0.00     0.217 HD
ENDBRANCH 112 118
ENDBRANCH 105 108
ENDBRANCH  54 105
BRANCH  68 120
ATOM    120  CB  LEU d   1     -20.273 -16.233  -4.843  0.00  0.00    -0.035 C 
ATOM    121  H49 LEU d   1     -20.960 -16.791  -5.496  0.00  0.00     0.037 H 
ATOM    122  H50 LEU d   1     -19.669 -16.941  -4.257  0.00  0.00     0.037 H 
BRANCH 120 123
ATOM    123  CG  LEU d   1     -19.376 -15.412  -5.678  0.00  0.00    -0.059 C 
ATOM    124  H51 LEU d   1     -19.724 -14.374  -5.787  0.00  0.00     0.038 H 
BRANCH 123 125
ATOM    125  CD1 LEU d   1     -17.990 -15.446  -5.061  0.00  0.00    -0.073 C 
ATOM    126  H52 LEU d   1     -17.303 -14.839  -5.669  0.00  0.00     0.028 H 
ATOM    127  H53 LEU d   1     -17.629 -16.485  -5.027  0.00  0.00     0.028 H 
ATOM    128  H54 LEU d   1     -18.033 -15.039  -4.040  0.00  0.00     0.028 H 
ENDBRANCH 123 125
BRANCH 123 129
ATOM    129  CD2 LEU d   1     -19.440 -16.161  -6.968  0.00  0.00    -0.073 C 
ATOM    130  H55 LEU d   1     -20.461 -16.107  -7.373  0.00  0.00     0.028 H 
ATOM    131  H56 LEU d   1     -19.170 -17.213  -6.795  0.00  0.00     0.028 H 
ATOM    132  H57 LEU d   1     -18.736 -15.715  -7.686  0.00  0.00     0.028 H 
ENDBRANCH 123 129
ENDBRANCH 120 123
ENDBRANCH  68 120
BRANCH   7 133
ATOM    133  C   CYS d   1     -21.783 -12.607   1.168  0.00  0.00     0.197 C 
ATOM    134  O   CYS d   1     -21.162 -13.652   1.065  0.00  0.00    -0.646 OA
ATOM    135  OXT CYS d   1     -22.239 -12.342   2.268  0.00  0.00    -0.646 OA
ENDBRANCH   7 133
BRANCH  40 136
ATOM    136  CB  ALA d   1     -18.940 -11.117  -3.711  0.00  0.00    -0.049 C 
ATOM    137  H60 ALA d   1     -18.319 -10.388  -3.170  0.00  0.00     0.030 H 
ATOM    138  H61 ALA d   1     -19.805 -10.603  -4.154  0.00  0.00     0.030 H 
ATOM    139  H62 ALA d   1     -18.345 -11.586  -4.508  0.00  0.00     0.030 H 
ENDBRANCH  40 136
TORSDOF 17
