REMARK  5 active torsions:
REMARK  status: ('A' for Active; 'I' for Inactive)
REMARK    1  A    between atoms: N12_13  and  C13_3 
REMARK    2  A    between atoms: C02_5  and  C01_4 
REMARK    3  A    between atoms: N03_6  and  C02_5 
REMARK       I    between atoms: C04_7  and  N03_6 
REMARK       I    between atoms: N06_9  and  C04_7 
REMARK    4  A    between atoms: C09_12  and  N12_13 
REMARK    5  A    between atoms: C15_15  and  C20_20 
ROOT
ATOM      1  C11 3WH d   1      16.173  29.554  72.530  0.00  0.00     0.001 C 
ATOM      2  C10 3WH d   1      15.230  30.466  71.805  0.00  0.00    -0.031 C 
ATOM      3  N03 3WH d   1      16.869  26.911  72.435  0.00  0.00    -0.343 N 
ATOM      4  C04 3WH d   1      15.903  27.296  73.394  0.00  0.00     0.318 C 
ATOM      5  O05 3WH d   1      15.408  26.463  74.150  0.00  0.00    -0.247 OA
ATOM      6  N06 3WH d   1      15.558  28.606  73.419  0.00  0.00    -0.334 N 
ATOM      7  C07 3WH d   1      14.587  29.229  74.316  0.00  0.00     0.001 C 
ATOM      8  C08 3WH d   1      13.586  30.094  73.609  0.00  0.00    -0.031 C 
ATOM      9  C09 3WH d   1      14.238  31.098  72.706  0.00  0.00     0.029 C 
ATOM     10  H1  3WH d   1      16.859  30.177  73.122  0.00  0.00     0.064 H 
ATOM     11  H2  3WH d   1      16.745  28.991  71.778  0.00  0.00     0.064 H 
ATOM     12  H3  3WH d   1      14.692  29.882  71.044  0.00  0.00     0.038 H 
ATOM     13  H4  3WH d   1      15.814  31.258  71.314  0.00  0.00     0.038 H 
ATOM     14  H10 3WH d   1      17.263  27.607  71.835  0.00  0.00     0.164 HD
ATOM     15  H11 3WH d   1      15.132  29.850  75.042  0.00  0.00     0.064 H 
ATOM     16  H12 3WH d   1      14.045  28.434  74.848  0.00  0.00     0.064 H 
ATOM     17  H13 3WH d   1      12.988  30.630  74.361  0.00  0.00     0.038 H 
ATOM     18  H14 3WH d   1      12.927  29.452  73.006  0.00  0.00     0.038 H 
ATOM     19  H15 3WH d   1      14.819  31.751  73.374  0.00  0.00     0.073 H 
ENDROOT
BRANCH   9  20
ATOM     20  N12 3WH d   1      13.329  31.987  72.011  0.00  0.00    -0.218 N 
ATOM     21  H16 3WH d   1      12.359  31.653  71.914  0.00  0.00     0.178 HD
BRANCH  20  22
ATOM     22  C13 3WH d   1      13.587  33.171  71.486  0.00  0.00     0.723 A 
ATOM     23  N14 3WH d   1      14.840  33.568  71.404  0.00  0.00    -0.061 NA
ATOM     24  C15 3WH d   1      15.054  34.754  70.857  0.00  0.00     0.106 A 
ATOM     25  C16 3WH d   1      14.000  35.531  70.407  0.00  0.00     0.054 A 
ATOM     26  I17 3WH d   1      14.198  37.432  69.568  0.00  0.00    -0.041 I 
ATOM     27  C18 3WH d   1      12.707  35.019  70.552  0.00  0.00     0.039 A 
ATOM     28  N19 3WH d   1      12.505  33.835  71.088  0.00  0.00    -0.074 NA
ATOM     29  H17 3WH d   1      11.859  35.606  70.218  0.00  0.00     0.117 H 
BRANCH  24  30
ATOM     30  C20 3WH d   1      16.431  35.183  70.757  0.00  0.00     0.022 A 
ATOM     31  C21 3WH d   1      16.955  36.162  70.011  0.00  0.00    -0.009 A 
ATOM     32  N22 3WH d   1      18.282  36.287  70.145  0.00  0.00    -0.364 N 
ATOM     33  H18 3WH d   1      16.359  36.797  69.357  0.00  0.00     0.112 H 
ATOM     34  C23 3WH d   1      18.705  35.331  70.988  0.00  0.00     0.043 A 
ATOM     35  H19 3WH d   1      18.874  36.992  69.683  0.00  0.00     0.165 HD
ATOM     36  C24 3WH d   1      17.577  34.605  71.416  0.00  0.00     0.004 A 
ATOM     37  C28 3WH d   1      19.967  35.027  71.432  0.00  0.00    -0.056 A 
ATOM     38  C25 3WH d   1      17.731  33.550  72.304  0.00  0.00    -0.070 A 
ATOM     39  C26 3WH d   1      19.017  33.271  72.733  0.00  0.00    -0.082 A 
ATOM     40  H20 3WH d   1      16.882  32.970  72.647  0.00  0.00     0.084 H 
ATOM     41  C27 3WH d   1      20.121  33.996  72.329  0.00  0.00    -0.081 A 
ATOM     42  H21 3WH d   1      19.165  32.444  73.418  0.00  0.00     0.083 H 
ATOM     43  H22 3WH d   1      21.104  33.754  72.717  0.00  0.00     0.083 H 
ATOM     44  H23 3WH d   1      20.826  35.589  71.083  0.00  0.00     0.086 H 
ENDBRANCH  24  30
ENDBRANCH  20  22
ENDBRANCH   9  20
BRANCH   3  45
ATOM     45  C02 3WH d   1      17.304  25.530  72.299  0.00  0.00    -0.006 C 
ATOM     46  H8  3WH d   1      17.097  25.013  73.248  0.00  0.00     0.063 H 
ATOM     47  H9  3WH d   1      16.716  25.066  71.493  0.00  0.00     0.063 H 
BRANCH  45  48
ATOM     48  C01 3WH d   1      18.800  25.340  71.969  0.00  0.00    -0.061 C 
ATOM     49  H5  3WH d   1      19.024  24.266  71.888  0.00  0.00     0.029 H 
ATOM     50  H6  3WH d   1      19.411  25.783  72.769  0.00  0.00     0.029 H 
ATOM     51  H7  3WH d   1      19.031  25.836  71.014  0.00  0.00     0.029 H 
ENDBRANCH  45  48
ENDBRANCH   3  45
TORSDOF 5
