REMARK  3 active torsions:
REMARK  status: ('A' for Active; 'I' for Inactive)
REMARK    1  A    between atoms: C1_1  and  C_21 
REMARK    2  A    between atoms: N_14  and  C3_3 
REMARK    3  A    between atoms: C15_22  and  C17_23 
ROOT
ATOM      1  C1  3X0 d   1     -13.871  -7.563   1.308  0.00  0.00     0.018 C 
ATOM      2  C2  3X0 d   1     -13.114  -7.448   2.641  0.00  0.00     0.010 C 
ATOM      3  N1  3X0 d   1     -12.758  -5.714   0.024  0.00  0.00    -0.282 N 
ATOM      4  N2  3X0 d   1     -14.448  -4.439  -0.406  0.00  0.00    -0.135 NA
ATOM      5  N3  3X0 d   1     -14.857  -5.507   0.349  0.00  0.00    -0.134 NA
ATOM      6  C10 3X0 d   1     -11.496  -6.317   0.130  0.00  0.00     0.069 A 
ATOM      7  N   3X0 d   1     -11.798  -6.818   2.523  0.00  0.00    -0.344 N 
ATOM      8  C9  3X0 d   1     -11.063  -6.892   1.320  0.00  0.00     0.062 A 
ATOM      9  C14 3X0 d   1      -9.844  -7.556   1.369  0.00  0.00    -0.055 A 
ATOM     10  C13 3X0 d   1      -9.010  -7.621   0.274  0.00  0.00    -0.081 A 
ATOM     11  C12 3X0 d   1      -9.385  -7.037  -0.921  0.00  0.00    -0.081 A 
ATOM     12  C11 3X0 d   1     -10.618  -6.402  -1.000  0.00  0.00    -0.054 A 
ATOM     13  C16 3X0 d   1     -13.807  -6.261   0.621  0.00  0.00     0.140 A 
ATOM     14  C15 3X0 d   1     -13.140  -4.568  -0.581  0.00  0.00     0.131 A 
ATOM     15  H1  3X0 d   1     -13.359  -8.300   0.672  0.00  0.00     0.054 H 
ATOM     16  H2  3X0 d   1     -12.978  -8.460   3.051  0.00  0.00     0.066 H 
ATOM     17  H3  3X0 d   1     -13.723  -6.850   3.335  0.00  0.00     0.066 H 
ATOM     18  H8  3X0 d   1      -9.541  -8.036   2.293  0.00  0.00     0.087 H 
ATOM     19  H9  3X0 d   1      -8.057  -8.132   0.350  0.00  0.00     0.083 H 
ATOM     20  H10 3X0 d   1      -8.728  -7.074  -1.782  0.00  0.00     0.083 H 
ATOM     21  H11 3X0 d   1     -10.924  -5.959  -1.941  0.00  0.00     0.087 H 
ENDROOT
BRANCH   7  22
ATOM     22  C3  3X0 d   1     -11.167  -6.479   3.727  0.00  0.00     0.035 A 
ATOM     23  C4  3X0 d   1      -9.970  -5.760   3.696  0.00  0.00    -0.055 A 
ATOM     24  C5  3X0 d   1      -9.364  -5.338   4.890  0.00  0.00    -0.060 A 
ATOM     25  H4  3X0 d   1      -9.506  -5.526   2.744  0.00  0.00     0.087 H 
ATOM     26  C6  3X0 d   1      -9.890  -5.721   6.124  0.00  0.00     0.034 A 
ATOM     27  H5  3X0 d   1      -8.481  -4.710   4.853  0.00  0.00     0.086 H 
ATOM     28  C7  3X0 d   1     -11.068  -6.475   6.161  0.00  0.00    -0.060 A 
ATOM     29 CL   3X0 d   1      -9.165  -5.248   7.601  0.00  0.00    -0.084 Cl
ATOM     30  C8  3X0 d   1     -11.669  -6.827   4.981  0.00  0.00    -0.055 A 
ATOM     31  H6  3X0 d   1     -11.499  -6.776   7.109  0.00  0.00     0.086 H 
ATOM     32  H7  3X0 d   1     -12.584  -7.407   5.024  0.00  0.00     0.087 H 
ENDBRANCH   7  22
BRANCH   1  33
ATOM     33  C   3X0 d   1     -15.271  -8.088   1.575  0.00  0.00    -0.065 C 
ATOM     34  H12 3X0 d   1     -15.818  -8.173   0.625  0.00  0.00     0.028 H 
ATOM     35  H13 3X0 d   1     -15.802  -7.394   2.243  0.00  0.00     0.028 H 
ATOM     36  H14 3X0 d   1     -15.207  -9.078   2.051  0.00  0.00     0.028 H 
ENDBRANCH   1  33
BRANCH  14  37
ATOM     37  C17 3X0 d   1     -12.254  -3.647  -1.377  0.00  0.00    -0.019 C 
ATOM     38  H15 3X0 d   1     -12.846  -2.797  -1.746  0.00  0.00     0.037 H 
ATOM     39  H16 3X0 d   1     -11.828  -4.195  -2.231  0.00  0.00     0.037 H 
ATOM     40  H17 3X0 d   1     -11.440  -3.277  -0.736  0.00  0.00     0.037 H 
ENDBRANCH  14  37
TORSDOF 3
