REMARK  3 active torsions:
REMARK  status: ('A' for Active; 'I' for Inactive)
REMARK    1  A    between atoms: C5_11  and  N2_2 
REMARK    2  A    between atoms: C2_8  and  C6_4 
REMARK    3  A    between atoms: C2_8  and  C1_7 
ROOT
ATOM      1  C4  3WP d   1      16.860 -42.107   9.376  0.00  0.00    -0.014 C 
ATOM      2  C2  3WP d   1      16.924 -39.640   8.717  0.00  0.00     0.059 C 
ATOM      3  C3  3WP d   1      16.690 -40.669   9.835  0.00  0.00    -0.029 C 
ATOM      4  S1  3WP d   1      15.687 -42.582   8.092  0.00  0.00    -0.095 SA
ATOM      5  C5  3WP d   1      15.440 -40.968   7.336  0.00  0.00     0.134 C 
ATOM      6  N1  3WP d   1      15.976 -39.837   7.616  0.00  0.00    -0.358 N 
ATOM      7  H1  3WP d   1      16.719 -42.770  10.242  0.00  0.00     0.049 H 
ATOM      8  H2  3WP d   1      17.880 -42.231   8.982  0.00  0.00     0.049 H 
ATOM      9  H10 3WP d   1      17.409 -40.474  10.645  0.00  0.00     0.038 H 
ATOM     10  H11 3WP d   1      15.666 -40.543  10.216  0.00  0.00     0.038 H 
ATOM     11  H12 3WP d   1      15.727 -39.023   7.036  0.00  0.00     0.162 HD
ENDROOT
BRANCH   2  12
ATOM     12  C6  3WP d   1      18.389 -39.750   8.215  0.00  0.00     0.008 A 
ATOM     13  C7  3WP d   1      18.726 -40.133   6.901  0.00  0.00    -0.069 A 
ATOM     14  C8  3WP d   1      20.044 -40.298   6.489  0.00  0.00    -0.045 A 
ATOM     15  H5  3WP d   1      17.930 -40.305   6.186  0.00  0.00     0.084 H 
ATOM     16  C9  3WP d   1      21.107 -40.067   7.387  0.00  0.00     0.119 A 
ATOM     17  H6  3WP d   1      20.256 -40.606   5.471  0.00  0.00     0.088 H 
ATOM     18  C10 3WP d   1      20.846 -39.654   8.703  0.00  0.00    -0.008 A 
ATOM     19  F2  3WP d   1      22.381 -40.312   7.009  0.00  0.00    -0.206 F 
ATOM     20  C11 3WP d   1      19.495 -39.518   9.098  0.00  0.00     0.128 A 
ATOM     21  H13 3WP d   1      21.654 -39.446   9.395  0.00  0.00     0.093 H 
ATOM     22  F1  3WP d   1      19.309 -39.199  10.380  0.00  0.00    -0.205 F 
ENDBRANCH   2  12
BRANCH   2  23
ATOM     23  C1  3WP d   1      16.589 -38.224   9.221  0.00  0.00    -0.049 C 
ATOM     24  H7  3WP d   1      15.545 -38.195   9.565  0.00  0.00     0.031 H 
ATOM     25  H8  3WP d   1      16.726 -37.502   8.403  0.00  0.00     0.031 H 
ATOM     26  H9  3WP d   1      17.257 -37.964  10.055  0.00  0.00     0.031 H 
ENDBRANCH   2  23
BRANCH   5  27
ATOM     27  N2  3WP d   1      14.574 -41.019   6.307  0.00  0.00    -0.380 N 
ATOM     28  H3  3WP d   1      14.343 -40.161   5.785  0.00  0.00     0.158 HD
ATOM     29  H4  3WP d   1      14.142 -41.916   6.041  0.00  0.00     0.158 HD
ENDBRANCH   5  27
TORSDOF 3
