REMARK  4 active torsions:
REMARK  status: ('A' for Active; 'I' for Inactive)
REMARK    1  A    between atoms: N_1  and  CA_2 
REMARK    2  A    between atoms: CA_2  and  C_3 
REMARK    3  A    between atoms: CA_2  and  CB_5 
REMARK    4  A    between atoms: CB_5  and  CG_6 
ROOT
ATOM      1  CA  ASP d   1      31.113 -75.363 -17.275  0.00  0.00     0.191 C 
ATOM      2  H4  ASP d   1      31.420 -76.144 -17.986  0.00  0.00     0.102 H 
ENDROOT
BRANCH   1   3
ATOM      3  N   ASP d   1      29.685 -75.125 -17.438  0.00  0.00    -0.065 N 
ATOM      4  H1  ASP d   1      29.503 -74.804 -18.376  0.00  0.00     0.275 HD
ATOM      5  H2  ASP d   1      29.384 -74.425 -16.779  0.00  0.00     0.275 HD
ATOM      6  H3  ASP d   1      29.180 -75.982 -17.272  0.00  0.00     0.275 HD
ENDBRANCH   1   3
BRANCH   1   7
ATOM      7  C   ASP d   1      31.424 -75.854 -15.855  0.00  0.00     0.205 C 
ATOM      8  O   ASP d   1      32.111 -76.859 -15.657  0.00  0.00    -0.646 OA
ATOM      9  OXT ASP d   1      30.986 -75.269 -14.863  0.00  0.00    -0.646 OA
ENDBRANCH   1   7
BRANCH   1  10
ATOM     10  CB  ASP d   1      31.894 -74.086 -17.591  0.00  0.00     0.051 C 
ATOM     11  H5  ASP d   1      32.933 -74.215 -17.255  0.00  0.00     0.053 H 
ATOM     12  H6  ASP d   1      31.434 -73.248 -17.047  0.00  0.00     0.053 H 
BRANCH  10  13
ATOM     13  CG  ASP d   1      31.899 -73.763 -19.064  0.00  0.00     0.175 C 
ATOM     14  OD1 ASP d   1      32.437 -74.576 -19.843  0.00  0.00    -0.648 OA
ATOM     15  OD2 ASP d   1      31.359 -72.702 -19.442  0.00  0.00    -0.648 OA
ENDBRANCH  10  13
ENDBRANCH   1  10
TORSDOF 4
