REMARK WARNING: 32 MAX_TORS EXCEEDED!!!
REMARK  59 active torsions:
REMARK  status: ('A' for Active; 'I' for Inactive)
REMARK    1  A    between atoms: CA_2  and  N_1 
REMARK    2  A    between atoms: C_3  and  CA_2 
REMARK    3  A    between atoms: CA_2  and  CB_5 
REMARK       I    between atoms: N_8  and  C_3 
REMARK    4  A    between atoms: CB_5  and  OG1_6 
REMARK    5  A    between atoms: CB_5  and  CG2_7 
REMARK    6  A    between atoms: CA_9  and  N_8 
REMARK    7  A    between atoms: C_10  and  CA_9 
REMARK    8  A    between atoms: CA_9  and  CB_12 
REMARK       I    between atoms: N_14  and  C_10 
REMARK    9  A    between atoms: CB_12  and  OG_13 
REMARK   10  A    between atoms: CA_15  and  N_14 
REMARK   11  A    between atoms: C_16  and  CA_15 
REMARK   12  A    between atoms: CA_15  and  CB_18 
REMARK       I    between atoms: N_25  and  C_16 
REMARK   13  A    between atoms: CB_18  and  CG_19 
REMARK   14  A    between atoms: CG_19  and  CD_20 
REMARK   15  A    between atoms: CD_20  and  NE_21 
REMARK       I    between atoms: NE_21  and  CZ_22 
REMARK       I    between atoms: CZ_22  and  NH1_23 
REMARK   16  A    between atoms: CA_26  and  N_25 
REMARK   17  A    between atoms: C_27  and  CA_26 
REMARK   18  A    between atoms: CA_26  and  CB_29 
REMARK       I    between atoms: N_44  and  C_27 
REMARK   19  A    between atoms: CB_29  and  CG_30 
REMARK   20  A    between atoms: CH_36  and  CH3_37 
REMARK       I    between atoms: NZ_38  and  CH_36 
REMARK   21  A    between atoms: CE_39  and  NZ_38 
REMARK   22  A    between atoms: CD_40  and  CE_39 
REMARK   23  A    between atoms: CG_41  and  CD_40 
REMARK   24  A    between atoms: CB_42  and  CG_41 
REMARK   25  A    between atoms: CA_43  and  CB_42 
REMARK   26  A    between atoms: CA_43  and  N_44 
REMARK   27  A    between atoms: CA_43  and  C_45 
REMARK       I    between atoms: C_45  and  N_47 
REMARK   28  A    between atoms: N_47  and  CA_48 
REMARK   29  A    between atoms: CA_48  and  CB_49 
REMARK   30  A    between atoms: CA_48  and  C_56 
REMARK   31  A    between atoms: CB_49  and  CG_50 
REMARK   32  A    between atoms: CG_50  and  CD_51 
REMARK   33  A    between atoms: CD_51  and  CE_52 
REMARK   34  A    between atoms: CE_52  and  NZ_53 
REMARK   35  A    between atoms: NZ_53  and  CH1_54 
REMARK   36  A    between atoms: NZ_53  and  CH2_55 
REMARK       I    between atoms: C_56  and  N_58 
REMARK   37  A    between atoms: N_58  and  CA_59 
REMARK   38  A    between atoms: CA_59  and  C_60 
REMARK   39  A    between atoms: CA_59  and  CB_62 
REMARK       I    between atoms: C_60  and  N_66 
REMARK   40  A    between atoms: CB_62  and  CG_63 
REMARK   41  A    between atoms: CG_63  and  CD1_64 
REMARK   42  A    between atoms: CG_63  and  CD2_65 
REMARK   43  A    between atoms: N_66  and  CA_67 
REMARK   44  A    between atoms: CA_67  and  C_68 
REMARK   45  A    between atoms: CA_67  and  CB_70 
REMARK       I    between atoms: C_68  and  N_74 
REMARK   46  A    between atoms: CB_70  and  CG_71 
REMARK   47  A    between atoms: CG_71  and  SD_72 
REMARK   48  A    between atoms: SD_72  and  CE_73 
REMARK   49  A    between atoms: N_74  and  CA_75 
REMARK   50  A    between atoms: CA_75  and  C_76 
REMARK   51  A    between atoms: CA_75  and  CB_78 
REMARK       I    between atoms: C_76  and  N_85 
REMARK   52  A    between atoms: CB_78  and  CG_79 
REMARK   53  A    between atoms: N_85  and  CA_86 
REMARK   54  A    between atoms: CA_86  and  C_87 
REMARK   55  A    between atoms: CA_86  and  CB_89 
REMARK   56  A    between atoms: CB_89  and  CG_90 
REMARK   57  A    between atoms: CG_90  and  CD_91 
REMARK   58  A    between atoms: CD_91  and  CE_92 
REMARK   59  A    between atoms: CE_92  and  NZ_93 
ROOT
ATOM      1  CA  MLY d   1       5.027   2.290  28.621  0.00  0.00     0.089 C 
ATOM      2  H50 MLY d   1       4.097   2.114  28.060  0.00  0.00     0.087 H 
ENDROOT
BRANCH   1   3
ATOM      3  N   MLY d   1       4.815   3.500  29.403  0.00  0.00    -0.346 N 
ATOM      4  C   ALY d   1       3.689   3.609  30.105  0.00  0.00     0.241 C 
ATOM      5  O   ALY d   1       2.852   2.678  30.146  0.00  0.00    -0.271 OA
ATOM      6  H49 MLY d   1       5.498   4.231  29.413  0.00  0.00     0.163 HD
BRANCH   4   7
ATOM      7  CA  ALY d   1       3.439   4.851  30.918  0.00  0.00     0.089 C 
ATOM      8  H47 ALY d   1       2.980   4.524  31.863  0.00  0.00     0.087 H 
BRANCH   7   9
ATOM      9  CB  ALY d   1       2.441   5.751  30.245  0.00  0.00    -0.038 C 
ATOM     10  H45 ALY d   1       1.476   5.222  30.234  0.00  0.00     0.036 H 
ATOM     11  H46 ALY d   1       2.354   6.661  30.857  0.00  0.00     0.036 H 
BRANCH   9  12
ATOM     12  CG  ALY d   1       2.732   6.184  28.835  0.00  0.00    -0.061 C 
ATOM     13  H43 ALY d   1       3.627   6.823  28.859  0.00  0.00     0.033 H 
ATOM     14  H44 ALY d   1       2.943   5.281  28.244  0.00  0.00     0.033 H 
BRANCH  12  15
ATOM     15  CD  ALY d   1       1.628   6.957  28.124  0.00  0.00    -0.050 C 
ATOM     16  H41 ALY d   1       0.663   6.543  28.452  0.00  0.00     0.035 H 
ATOM     17  H42 ALY d   1       1.701   8.009  28.436  0.00  0.00     0.035 H 
BRANCH  15  18
ATOM     18  CE  ALY d   1       1.655   6.921  26.621  0.00  0.00    -0.005 C 
ATOM     19  H39 ALY d   1       0.840   7.565  26.260  0.00  0.00     0.064 H 
ATOM     20  H40 ALY d   1       2.621   7.336  26.298  0.00  0.00     0.064 H 
BRANCH  18  21
ATOM     21  NZ  ALY d   1       1.502   5.630  25.987  0.00  0.00    -0.361 N 
ATOM     22  CH  ALY d   1       2.134   5.376  24.722  0.00  0.00     0.213 C 
ATOM     23  OH  ALY d   1       2.815   6.237  24.158  0.00  0.00    -0.274 OA
ATOM     24  H38 ALY d   1       0.958   4.916  26.428  0.00  0.00     0.162 HD
BRANCH  22  25
ATOM     25  CH3 ALY d   1       1.953   4.016  24.083  0.00  0.00    -0.003 C 
ATOM     26  H35 ALY d   1       1.320   3.389  24.728  0.00  0.00     0.040 H 
ATOM     27  H36 ALY d   1       2.935   3.537  23.956  0.00  0.00     0.040 H 
ATOM     28  H37 ALY d   1       1.472   4.133  23.101  0.00  0.00     0.040 H 
ENDBRANCH  22  25
ENDBRANCH  18  21
ENDBRANCH  15  18
ENDBRANCH  12  15
ENDBRANCH   9  12
ENDBRANCH   7   9
BRANCH   7  29
ATOM     29  N   ALY d   1       4.648   5.518  31.268  0.00  0.00    -0.346 N 
ATOM     30  C   HIS d   1       5.560   4.910  32.023  0.00  0.00     0.241 C 
ATOM     31  O   HIS d   1       5.459   3.737  32.377  0.00  0.00    -0.271 OA
ATOM     32  H48 ALY d   1       4.813   6.450  30.944  0.00  0.00     0.163 HD
BRANCH  30  33
ATOM     33  CA  HIS d   1       6.765   5.737  32.423  0.00  0.00     0.094 C 
ATOM     34  H29 HIS d   1       6.507   6.802  32.327  0.00  0.00     0.088 H 
BRANCH  33  35
ATOM     35  N   HIS d   1       7.129   5.481  33.812  0.00  0.00    -0.346 N 
ATOM     36  C   ARG d   1       6.326   5.887  34.785  0.00  0.00     0.241 C 
ATOM     37  O   ARG d   1       5.269   6.484  34.559  0.00  0.00    -0.271 OA
ATOM     38  H28 HIS d   1       7.980   5.002  34.029  0.00  0.00     0.163 HD
BRANCH  36  39
ATOM     39  CA  ARG d   1       6.763   5.572  36.220  0.00  0.00     0.089 C 
ATOM     40  H16 ARG d   1       7.861   5.613  36.280  0.00  0.00     0.087 H 
BRANCH  39  41
ATOM     41  N   ARG d   1       6.201   6.552  37.132  0.00  0.00    -0.346 N 
ATOM     42  C   SER d   1       6.941   7.186  38.032  0.00  0.00     0.243 C 
ATOM     43  O   SER d   1       8.149   6.978  38.170  0.00  0.00    -0.271 OA
ATOM     44  H15 ARG d   1       5.223   6.756  37.080  0.00  0.00     0.163 HD
BRANCH  42  45
ATOM     45  CA  SER d   1       6.198   8.204  38.899  0.00  0.00     0.109 C 
ATOM     46  H11 SER d   1       5.160   7.857  39.004  0.00  0.00     0.090 H 
BRANCH  45  47
ATOM     47  N   SER d   1       6.755   8.337  40.240  0.00  0.00    -0.344 N 
ATOM     48  C   THR d   1       6.199   7.712  41.272  0.00  0.00     0.251 C 
ATOM     49  O   THR d   1       5.255   6.925  41.149  0.00  0.00    -0.271 OA
ATOM     50  H10 SER d   1       7.565   8.905  40.385  0.00  0.00     0.163 HD
BRANCH  48  51
ATOM     51  CA  THR d   1       6.794   8.025  42.646  0.00  0.00     0.199 C 
ATOM     52  H4  THR d   1       7.655   8.691  42.492  0.00  0.00     0.103 H 
BRANCH  51  53
ATOM     53  N   THR d   1       5.845   8.732  43.507  0.00  0.00    -0.064 N 
ATOM     54  H1  THR d   1       5.528   9.568  43.042  0.00  0.00     0.275 HD
ATOM     55  H2  THR d   1       6.297   8.980  44.373  0.00  0.00     0.275 HD
ATOM     56  H3  THR d   1       5.056   8.135  43.699  0.00  0.00     0.275 HD
ENDBRANCH  51  53
BRANCH  51  57
ATOM     57  CB  THR d   1       7.317   6.727  43.312  0.00  0.00     0.068 C 
ATOM     58  H5  THR d   1       8.289   6.935  43.783  0.00  0.00     0.086 H 
BRANCH  57  59
ATOM     59  OG1 THR d   1       7.484   5.705  42.319  0.00  0.00    -0.393 OA
ATOM     60  H6  THR d   1       6.648   5.530  41.902  0.00  0.00     0.210 HD
ENDBRANCH  57  59
BRANCH  57  61
ATOM     61  CG2 THR d   1       6.347   6.238  44.374  0.00  0.00    -0.050 C 
ATOM     62  H7  THR d   1       6.738   5.318  44.832  0.00  0.00     0.031 H 
ATOM     63  H8  THR d   1       5.371   6.031  43.911  0.00  0.00     0.031 H 
ATOM     64  H9  THR d   1       6.230   7.011  45.148  0.00  0.00     0.031 H 
ENDBRANCH  57  61
ENDBRANCH  51  57
ENDBRANCH  48  51
ENDBRANCH  45  47
BRANCH  45  65
ATOM     65  CB  SER d   1       6.180   9.557  38.205  0.00  0.00     0.044 C 
ATOM     66  H12 SER d   1       5.630  10.277  38.828  0.00  0.00     0.077 H 
ATOM     67  H13 SER d   1       5.679   9.458  37.231  0.00  0.00     0.077 H 
BRANCH  65  68
ATOM     68  OG  SER d   1       7.496  10.025  38.006  0.00  0.00    -0.398 OA
ATOM     69  H14 SER d   1       7.930  10.114  38.846  0.00  0.00     0.209 HD
ENDBRANCH  65  68
ENDBRANCH  45  65
ENDBRANCH  42  45
ENDBRANCH  39  41
BRANCH  39  70
ATOM     70  CB  ARG d   1       6.293   4.168  36.605  0.00  0.00    -0.036 C 
ATOM     71  H17 ARG d   1       6.685   3.461  35.860  0.00  0.00     0.036 H 
ATOM     72  H18 ARG d   1       5.193   4.157  36.578  0.00  0.00     0.036 H 
BRANCH  70  73
ATOM     73  CG  ARG d   1       6.738   3.693  37.990  0.00  0.00    -0.048 C 
ATOM     74  H19 ARG d   1       6.338   4.378  38.752  0.00  0.00     0.035 H 
ATOM     75  H20 ARG d   1       7.837   3.694  38.036  0.00  0.00     0.035 H 
BRANCH  73  76
ATOM     76  CD  ARG d   1       6.227   2.283  38.268  0.00  0.00     0.009 C 
ATOM     77  H21 ARG d   1       6.963   1.759  38.895  0.00  0.00     0.064 H 
ATOM     78  H22 ARG d   1       6.117   1.753  37.311  0.00  0.00     0.064 H 
BRANCH  76  79
ATOM     79  NE  ARG d   1       4.936   2.279  38.957  0.00  0.00    -0.227 N 
ATOM     80  CZ  ARG d   1       4.073   1.266  38.924  0.00  0.00     0.665 C 
ATOM     81  NH1 ARG d   1       4.353   0.177  38.219  0.00  0.00    -0.235 N 
ATOM     82  NH2 ARG d   1       2.922   1.346  39.581  0.00  0.00    -0.235 N 
ATOM     83  H24 ARG d   1       3.685  -0.606  38.194  0.00  0.00     0.174 HD
ATOM     84  H25 ARG d   1       5.239   0.115  37.697  0.00  0.00     0.174 HD
ATOM     85  H26 ARG d   1       2.700   2.189  40.130  0.00  0.00     0.174 HD
ATOM     86  H27 ARG d   1       2.251   0.565  39.542  0.00  0.00     0.174 HD
ATOM     87  H23 ARG d   1       4.678   3.114  39.503  0.00  0.00     0.177 HD
ENDBRANCH  76  79
ENDBRANCH  73  76
ENDBRANCH  70  73
ENDBRANCH  39  70
ENDBRANCH  36  39
ENDBRANCH  33  35
BRANCH  33  88
ATOM     88  CB  HIS d   1       7.923   5.434  31.474  0.00  0.00     0.004 C 
ATOM     89  H30 HIS d   1       7.957   4.349  31.295  0.00  0.00     0.046 H 
ATOM     90  H31 HIS d   1       8.861   5.757  31.949  0.00  0.00     0.046 H 
BRANCH  88  91
ATOM     91  CG  HIS d   1       7.790   6.129  30.162  0.00  0.00     0.053 A 
ATOM     92  ND1 HIS d   1       6.940   5.685  29.171  0.00  0.00    -0.247 NA
ATOM     93  CE1 HIS d   1       6.991   6.518  28.147  0.00  0.00     0.064 A 
ATOM     94  NE2 HIS d   1       7.850   7.482  28.434  0.00  0.00    -0.359 N 
ATOM     95  H33 HIS d   1       6.422   6.426  27.223  0.00  0.00     0.143 H 
ATOM     96  CD2 HIS d   1       8.357   7.265  29.693  0.00  0.00     0.002 A 
ATOM     97  H34 HIS d   1       8.098   8.267  27.815  0.00  0.00     0.166 HD
ATOM     98  H32 HIS d   1       9.080   7.890  30.215  0.00  0.00     0.114 H 
ENDBRANCH  88  91
ENDBRANCH  33  88
ENDBRANCH  30  33
ENDBRANCH   7  29
ENDBRANCH   4   7
ENDBRANCH   1   3
BRANCH   1  99
ATOM     99  CB  MLY d   1       6.142   2.407  27.575  0.00  0.00    -0.038 C 
ATOM    100  H51 MLY d   1       6.027   1.574  26.866  0.00  0.00     0.036 H 
ATOM    101  H52 MLY d   1       7.105   2.313  28.098  0.00  0.00     0.036 H 
BRANCH  99 102
ATOM    102  CG  MLY d   1       6.174   3.711  26.765  0.00  0.00    -0.061 C 
ATOM    103  H53 MLY d   1       7.233   4.006  26.724  0.00  0.00     0.033 H 
ATOM    104  H54 MLY d   1       5.612   4.443  27.364  0.00  0.00     0.033 H 
BRANCH 102 105
ATOM    105  CD  MLY d   1       5.661   3.861  25.363  0.00  0.00    -0.042 C 
ATOM    106  H55 MLY d   1       5.319   4.901  25.256  0.00  0.00     0.035 H 
ATOM    107  H56 MLY d   1       4.803   3.180  25.260  0.00  0.00     0.035 H 
BRANCH 105 108
ATOM    108  CE  MLY d   1       6.594   3.578  24.197  0.00  0.00     0.083 C 
ATOM    109  H57 MLY d   1       5.986   3.048  23.449  0.00  0.00     0.075 H 
ATOM    110  H58 MLY d   1       7.366   2.900  24.589  0.00  0.00     0.075 H 
BRANCH 108 111
ATOM    111  NZ  MLY d   1       7.315   4.620  23.459  0.00  0.00    -0.079 N 
ATOM    112  H59 MLY d   1       7.423   5.456  24.012  0.00  0.00     0.278 HD
BRANCH 111 113
ATOM    113  CH1 MLY d   1       6.661   4.925  22.190  0.00  0.00     0.066 C 
ATOM    114  H60 MLY d   1       7.227   5.708  21.665  0.00  0.00     0.068 H 
ATOM    115  H61 MLY d   1       5.637   5.278  22.381  0.00  0.00     0.068 H 
ATOM    116  H62 MLY d   1       6.626   4.018  21.568  0.00  0.00     0.068 H 
ENDBRANCH 111 113
BRANCH 111 117
ATOM    117  CH2 MLY d   1       8.573   4.001  23.161  0.00  0.00     0.066 C 
ATOM    118  H63 MLY d   1       9.093   3.758  24.099  0.00  0.00     0.068 H 
ATOM    119  H64 MLY d   1       9.190   4.692  22.568  0.00  0.00     0.068 H 
ATOM    120  H65 MLY d   1       8.401   3.079  22.587  0.00  0.00     0.068 H 
ENDBRANCH 111 117
ENDBRANCH 108 111
ENDBRANCH 105 108
ENDBRANCH 102 105
ENDBRANCH  99 102
ENDBRANCH   1  99
BRANCH   1 121
ATOM    121  C   MLY d   1       5.223   1.110  29.518  0.00  0.00     0.241 C 
ATOM    122  O   MLY d   1       5.081  -0.027  29.080  0.00  0.00    -0.271 OA
ATOM    123  N   LEU d   1       5.520   1.347  30.789  0.00  0.00    -0.346 N 
ATOM    124  H66 LEU d   1       5.706   2.280  31.097  0.00  0.00     0.163 HD
BRANCH 123 125
ATOM    125  CA  LEU d   1       5.573   0.228  31.741  0.00  0.00     0.089 C 
ATOM    126  H67 LEU d   1       6.217  -0.545  31.295  0.00  0.00     0.087 H 
BRANCH 125 127
ATOM    127  C   LEU d   1       4.206  -0.403  31.984  0.00  0.00     0.241 C 
ATOM    128  O   LEU d   1       4.130  -1.538  32.467  0.00  0.00    -0.271 OA
ATOM    129  N   MET d   1       3.137   0.315  31.634  0.00  0.00    -0.346 N 
ATOM    130  H77 MET d   1       3.269   1.231  31.256  0.00  0.00     0.163 HD
BRANCH 129 131
ATOM    131  CA  MET d   1       1.773  -0.202  31.789  0.00  0.00     0.090 C 
ATOM    132  H78 MET d   1       1.667  -0.546  32.828  0.00  0.00     0.087 H 
BRANCH 131 133
ATOM    133  C   MET d   1       1.485  -1.396  30.873  0.00  0.00     0.241 C 
ATOM    134  O   MET d   1       0.533  -2.145  31.104  0.00  0.00    -0.271 OA
ATOM    135  N   PHE d   1       2.311  -1.586  29.845  0.00  0.00    -0.346 N 
ATOM    136  H86 PHE d   1       3.087  -0.967  29.725  0.00  0.00     0.163 HD
BRANCH 135 137
ATOM    137  CA  PHE d   1       2.114  -2.679  28.883  0.00  0.00     0.093 C 
ATOM    138  H87 PHE d   1       1.058  -2.981  28.945  0.00  0.00     0.088 H 
BRANCH 137 139
ATOM    139  C   PHE d   1       2.963  -3.915  29.184  0.00  0.00     0.241 C 
ATOM    140  O   PHE d   1       2.939  -4.892  28.432  0.00  0.00    -0.271 OA
ATOM    141  N   LYS d   1       3.714  -3.862  30.276  0.00  0.00    -0.345 N 
ATOM    142  H95 LYS d   1       3.708  -3.032  30.833  0.00  0.00     0.163 HD
BRANCH 141 143
ATOM    143  CA  LYS d   1       4.548  -4.985  30.683  0.00  0.00     0.096 C 
ATOM    144  H96 LYS d   1       4.633  -5.675  29.830  0.00  0.00     0.089 H 
BRANCH 143 145
ATOM    145  C   LYS d   1       3.909  -5.743  31.840  0.00  0.00     0.196 C 
ATOM    146  O   LYS d   1       2.961  -6.507  31.634  0.00  0.00    -0.646 OA
ATOM    147  OXT LYS d   1       4.336  -5.597  32.989  0.00  0.00    -0.646 OA
ENDBRANCH 143 145
BRANCH 143 148
ATOM    148  CB  LYS d   1       5.955  -4.506  31.047  0.00  0.00    -0.037 C 
ATOM    149  H97 LYS d   1       6.469  -5.312  31.591  0.00  0.00     0.036 H 
ATOM    150  H98 LYS d   1       5.867  -3.623  31.697  0.00  0.00     0.036 H 
BRANCH 148 151
ATOM    151  CG  LYS d   1       6.795  -4.130  29.831  0.00  0.00    -0.061 C 
ATOM    152  H99 LYS d   1       6.270  -3.347  29.264  0.00  0.00     0.033 H 
ATOM    153 0H10 LYS d   1       6.922  -5.020  29.197  0.00  0.00     0.033 H 
BRANCH 151 154
ATOM    154  CD  LYS d   1       8.170  -3.610  30.233  0.00  0.00    -0.043 C 
ATOM    155 1H10 LYS d   1       8.043  -2.692  30.826  0.00  0.00     0.035 H 
ATOM    156 2H10 LYS d   1       8.744  -3.382  29.323  0.00  0.00     0.035 H 
BRANCH 154 157
ATOM    157  CE  LYS d   1       8.943  -4.625  31.059  0.00  0.00     0.080 C 
ATOM    158 3H10 LYS d   1       9.531  -5.263  30.382  0.00  0.00     0.075 H 
ATOM    159 4H10 LYS d   1       8.229  -5.246  31.620  0.00  0.00     0.075 H 
BRANCH 157 160
ATOM    160  NZ  LYS d   1       9.869  -3.959  32.023  0.00  0.00    -0.079 N 
ATOM    161 5H10 LYS d   1      10.364  -4.660  32.552  0.00  0.00     0.274 HD
ATOM    162 6H10 LYS d   1       9.338  -3.376  32.651  0.00  0.00     0.274 HD
ATOM    163 7H10 LYS d   1      10.530  -3.392  31.516  0.00  0.00     0.274 HD
ENDBRANCH 157 160
ENDBRANCH 154 157
ENDBRANCH 151 154
ENDBRANCH 148 151
ENDBRANCH 143 148
ENDBRANCH 141 143
ENDBRANCH 137 139
BRANCH 137 164
ATOM    164  CB  PHE d   1       2.386  -2.201  27.452  0.00  0.00    -0.014 C 
ATOM    165  H88 PHE d   1       2.227  -3.047  26.767  0.00  0.00     0.043 H 
ATOM    166  H89 PHE d   1       3.433  -1.871  27.390  0.00  0.00     0.043 H 
BRANCH 164 167
ATOM    167  CG  PHE d   1       1.509  -1.071  27.017  0.00  0.00    -0.056 A 
ATOM    168  CD1 PHE d   1       0.330  -1.319  26.328  0.00  0.00    -0.077 A 
ATOM    169  CE1 PHE d   1      -0.480  -0.270  25.922  0.00  0.00    -0.082 A 
ATOM    170  H90 PHE d   1       0.041  -2.340  26.106  0.00  0.00     0.084 H 
ATOM    171  CZ  PHE d   1      -0.116   1.042  26.205  0.00  0.00    -0.083 A 
ATOM    172  H92 PHE d   1      -1.399  -0.473  25.383  0.00  0.00     0.083 H 
ATOM    173  CE2 PHE d   1       1.057   1.301  26.886  0.00  0.00    -0.082 A 
ATOM    174  H94 PHE d   1      -0.753   1.861  25.891  0.00  0.00     0.083 H 
ATOM    175  CD2 PHE d   1       1.870   0.247  27.278  0.00  0.00    -0.077 A 
ATOM    176  H93 PHE d   1       1.341   2.322  27.113  0.00  0.00     0.083 H 
ATOM    177  H91 PHE d   1       2.800   0.454  27.795  0.00  0.00     0.084 H 
ENDBRANCH 164 167
ENDBRANCH 137 164
ENDBRANCH 135 137
ENDBRANCH 131 133
BRANCH 131 178
ATOM    178  CB  MET d   1       0.731   0.910  31.545  0.00  0.00    -0.030 C 
ATOM    179  H79 MET d   1      -0.270   0.457  31.593  0.00  0.00     0.037 H 
ATOM    180  H80 MET d   1       0.899   1.321  30.539  0.00  0.00     0.037 H 
BRANCH 178 181
ATOM    181  CG  MET d   1       0.777   2.068  32.546  0.00  0.00    -0.021 C 
ATOM    182  H81 MET d   1       1.831   2.325  32.727  0.00  0.00     0.049 H 
ATOM    183  H82 MET d   1       0.316   1.729  33.486  0.00  0.00     0.049 H 
BRANCH 181 184
ATOM    184  SD  MET d   1      -0.091   3.574  31.995  0.00  0.00    -0.173 SA
BRANCH 184 185
ATOM    185  CE  MET d   1      -1.775   3.001  31.905  0.00  0.00    -0.035 C 
ATOM    186  H83 MET d   1      -2.426   3.825  31.577  0.00  0.00     0.041 H 
ATOM    187  H84 MET d   1      -2.097   2.652  32.897  0.00  0.00     0.041 H 
ATOM    188  H85 MET d   1      -1.842   2.172  31.185  0.00  0.00     0.041 H 
ENDBRANCH 184 185
ENDBRANCH 181 184
ENDBRANCH 178 181
ENDBRANCH 131 178
ENDBRANCH 129 131
ENDBRANCH 125 127
BRANCH 125 189
ATOM    189  CB  LEU d   1       6.205   0.645  33.070  0.00  0.00    -0.035 C 
ATOM    190  H68 LEU d   1       6.026  -0.157  33.801  0.00  0.00     0.037 H 
ATOM    191  H69 LEU d   1       5.712   1.568  33.409  0.00  0.00     0.037 H 
BRANCH 189 192
ATOM    192  CG  LEU d   1       7.712   0.905  33.008  0.00  0.00    -0.059 C 
ATOM    193  H70 LEU d   1       7.897   1.688  32.258  0.00  0.00     0.038 H 
BRANCH 192 194
ATOM    194  CD1 LEU d   1       8.238   1.397  34.345  0.00  0.00    -0.073 C 
ATOM    195  H71 LEU d   1       9.321   1.575  34.270  0.00  0.00     0.028 H 
ATOM    196  H72 LEU d   1       8.044   0.638  35.117  0.00  0.00     0.028 H 
ATOM    197  H73 LEU d   1       7.731   2.334  34.616  0.00  0.00     0.028 H 
ENDBRANCH 192 194
BRANCH 192 198
ATOM    198  CD2 LEU d   1       8.440  -0.360  32.570  0.00  0.00    -0.073 C 
ATOM    199  H74 LEU d   1       8.042  -0.695  31.601  0.00  0.00     0.028 H 
ATOM    200  H75 LEU d   1       8.289  -1.149  33.322  0.00  0.00     0.028 H 
ATOM    201  H76 LEU d   1       9.515  -0.149  32.471  0.00  0.00     0.028 H 
ENDBRANCH 192 198
ENDBRANCH 189 192
ENDBRANCH 125 189
ENDBRANCH 123 125
ENDBRANCH   1 121
TORSDOF 59
