REMARK WARNING: 32 MAX_TORS EXCEEDED!!!
REMARK  40 active torsions:
REMARK  status: ('A' for Active; 'I' for Inactive)
REMARK    1  A    between atoms: N_1  and  CA_2 
REMARK    2  A    between atoms: CA_2  and  C_3 
REMARK    3  A    between atoms: CA_2  and  CB_5 
REMARK       I    between atoms: C_3  and  N_6 
REMARK    4  A    between atoms: N_6  and  CA_7 
REMARK    5  A    between atoms: CA_7  and  C_8 
REMARK    6  A    between atoms: CA_7  and  CB_10 
REMARK       I    between atoms: C_8  and  N_15 
REMARK    7  A    between atoms: CB_10  and  CG_11 
REMARK    8  A    between atoms: CG_11  and  CD_12 
REMARK       I    between atoms: CD_12  and  NE2_14 
REMARK    9  A    between atoms: N_15  and  CA_16 
REMARK   10  A    between atoms: CA_16  and  C_17 
REMARK   11  A    between atoms: CA_16  and  CB_19 
REMARK       I    between atoms: C_17  and  N_26 
REMARK   12  A    between atoms: CB_19  and  CG_20 
REMARK   13  A    between atoms: CG_20  and  CD_21 
REMARK   14  A    between atoms: CD_21  and  NE_22 
REMARK       I    between atoms: NE_22  and  CZ_23 
REMARK       I    between atoms: CZ_23  and  NH1_24 
REMARK   15  A    between atoms: N_26  and  CA_27 
REMARK   16  A    between atoms: CA_27  and  CB_28 
REMARK   17  A    between atoms: CA_27  and  C_33 
REMARK   18  A    between atoms: CB_28  and  CG_29 
REMARK   19  A    between atoms: CG_29  and  CD_30 
REMARK   20  A    between atoms: CD_30  and  CE_31 
REMARK   21  A    between atoms: CE_31  and  NZ_32 
REMARK   22  A    between atoms: NZ_32  and  CM1_35 
REMARK   23  A    between atoms: NZ_32  and  CM2_36 
REMARK   24  A    between atoms: NZ_32  and  CM3_37 
REMARK       I    between atoms: C_33  and  N_38 
REMARK   25  A    between atoms: N_38  and  CA_39 
REMARK   26  A    between atoms: CA_39  and  C_40 
REMARK   27  A    between atoms: CA_39  and  CB_42 
REMARK       I    between atoms: C_40  and  N_49 
REMARK   28  A    between atoms: CB_42  and  CG_43 
REMARK   29  A    between atoms: N_49  and  CA_50 
REMARK   30  A    between atoms: CA_50  and  C_51 
REMARK   31  A    between atoms: CA_50  and  CB_53 
REMARK       I    between atoms: C_51  and  N_54 
REMARK   32  A    between atoms: N_54  and  CA_55 
REMARK   33  A    between atoms: CA_55  and  C_56 
REMARK   34  A    between atoms: CA_55  and  CB_58 
REMARK       I    between atoms: C_56  and  N_63 
REMARK   35  A    between atoms: CB_58  and  CG_59 
REMARK   36  A    between atoms: CG_59  and  CD_60 
REMARK       I    between atoms: CD_60  and  NE2_62 
REMARK   37  A    between atoms: N_63  and  CA_64 
REMARK   38  A    between atoms: CA_64  and  C_65 
REMARK   39  A    between atoms: CA_64  and  CB_67 
REMARK   40  A    between atoms: CB_67  and  OG_68 
ROOT
ATOM      1  CA  M3L d   1       9.317 -15.917  -5.507  0.00  0.00     0.089 C 
ATOM      2  H30 M3L d   1       9.853 -15.284  -6.230  0.00  0.00     0.087 H 
ENDROOT
BRANCH   1   3
ATOM      3  N   M3L d   1      10.160 -17.050  -5.174  0.00  0.00    -0.346 N 
ATOM      4  C   ARG d   1      11.482 -17.047  -5.330  0.00  0.00     0.241 C 
ATOM      5  O   ARG d   1      12.108 -16.101  -5.811  0.00  0.00    -0.271 OA
ATOM      6  H29 M3L d   1       9.726 -17.874  -4.809  0.00  0.00     0.163 HD
BRANCH   4   7
ATOM      7  CA  ARG d   1      12.207 -18.307  -4.869  0.00  0.00     0.089 C 
ATOM      8  H17 ARG d   1      11.495 -19.143  -4.933  0.00  0.00     0.087 H 
BRANCH   7   9
ATOM      9  N   ARG d   1      13.361 -18.657  -5.696  0.00  0.00    -0.346 N 
ATOM     10  C   GLN d   1      13.254 -19.286  -6.862  0.00  0.00     0.241 C 
ATOM     11  O   GLN d   1      12.172 -19.538  -7.385  0.00  0.00    -0.271 OA
ATOM     12  H16 ARG d   1      14.274 -18.412  -5.369  0.00  0.00     0.163 HD
BRANCH  10  13
ATOM     13  CA  GLN d   1      14.575 -19.689  -7.541  0.00  0.00     0.090 C 
ATOM     14  H9  GLN d   1      15.379 -19.513  -6.811  0.00  0.00     0.087 H 
BRANCH  13  15
ATOM     15  N   GLN d   1      14.617 -21.106  -7.905  0.00  0.00    -0.346 N 
ATOM     16  C   ALA d   1      15.781 -21.738  -8.046  0.00  0.00     0.248 C 
ATOM     17  O   ALA d   1      16.864 -21.174  -7.910  0.00  0.00    -0.271 OA
ATOM     18  H8  GLN d   1      13.763 -21.605  -8.049  0.00  0.00     0.163 HD
BRANCH  16  19
ATOM     19  CA  ALA d   1      15.728 -23.220  -8.396  0.00  0.00     0.172 C 
ATOM     20  H4  ALA d   1      16.415 -23.751  -7.720  0.00  0.00     0.098 H 
BRANCH  19  21
ATOM     21  N   ALA d   1      14.394 -23.777  -8.202  0.00  0.00    -0.067 N 
ATOM     22  H1  ALA d   1      14.400 -24.756  -8.443  0.00  0.00     0.275 HD
ATOM     23  H2  ALA d   1      13.737 -23.290  -8.791  0.00  0.00     0.275 HD
ATOM     24  H3  ALA d   1      14.123 -23.671  -7.237  0.00  0.00     0.275 HD
ENDBRANCH  19  21
BRANCH  19  25
ATOM     25  CB  ALA d   1      16.208 -23.444  -9.830  0.00  0.00    -0.042 C 
ATOM     26  H5  ALA d   1      17.214 -23.016  -9.951  0.00  0.00     0.030 H 
ATOM     27  H6  ALA d   1      15.515 -22.954 -10.530  0.00  0.00     0.030 H 
ATOM     28  H7  ALA d   1      16.241 -24.523 -10.041  0.00  0.00     0.030 H 
ENDBRANCH  19  25
ENDBRANCH  16  19
ENDBRANCH  13  15
BRANCH  13  29
ATOM     29  CB  GLN d   1      14.873 -18.826  -8.776  0.00  0.00    -0.030 C 
ATOM     30  H10 GLN d   1      14.174 -19.117  -9.574  0.00  0.00     0.037 H 
ATOM     31  H11 GLN d   1      15.904 -19.034  -9.098  0.00  0.00     0.037 H 
BRANCH  29  32
ATOM     32  CG  GLN d   1      14.740 -17.336  -8.555  0.00  0.00     0.011 C 
ATOM     33  H12 GLN d   1      13.699 -17.116  -8.275  0.00  0.00     0.047 H 
ATOM     34  H13 GLN d   1      14.984 -16.820  -9.496  0.00  0.00     0.047 H 
BRANCH  32  35
ATOM     35  CD  GLN d   1      15.657 -16.805  -7.461  0.00  0.00     0.215 C 
ATOM     36  OE1 GLN d   1      16.865 -17.065  -7.467  0.00  0.00    -0.274 OA
ATOM     37  NE2 GLN d   1      15.084 -16.052  -6.513  0.00  0.00    -0.370 N 
ATOM     38  H14 GLN d   1      15.638 -15.677  -5.770  0.00  0.00     0.159 HD
ATOM     39  H15 GLN d   1      14.102 -15.865  -6.548  0.00  0.00     0.159 HD
ENDBRANCH  32  35
ENDBRANCH  29  32
ENDBRANCH  13  29
ENDBRANCH  10  13
ENDBRANCH   7   9
BRANCH   7  40
ATOM     40  CB  ARG d   1      12.617 -18.139  -3.395  0.00  0.00    -0.036 C 
ATOM     41  H18 ARG d   1      12.926 -19.123  -3.013  0.00  0.00     0.036 H 
ATOM     42  H19 ARG d   1      11.738 -17.787  -2.835  0.00  0.00     0.036 H 
BRANCH  40  43
ATOM     43  CG  ARG d   1      13.770 -17.147  -3.146  0.00  0.00    -0.048 C 
ATOM     44  H20 ARG d   1      13.592 -16.235  -3.735  0.00  0.00     0.035 H 
ATOM     45  H21 ARG d   1      14.716 -17.610  -3.464  0.00  0.00     0.035 H 
BRANCH  43  46
ATOM     46  CD  ARG d   1      13.872 -16.770  -1.660  0.00  0.00     0.009 C 
ATOM     47  H22 ARG d   1      14.224 -17.646  -1.096  0.00  0.00     0.064 H 
ATOM     48  H23 ARG d   1      12.875 -16.478  -1.299  0.00  0.00     0.064 H 
BRANCH  46  49
ATOM     49  NE  ARG d   1      14.798 -15.661  -1.434  0.00  0.00    -0.227 N 
ATOM     50  CZ  ARG d   1      15.018 -15.077  -0.257  0.00  0.00     0.665 C 
ATOM     51  NH1 ARG d   1      14.374 -15.493   0.828  0.00  0.00    -0.235 N 
ATOM     52  NH2 ARG d   1      15.879 -14.061  -0.168  0.00  0.00    -0.235 N 
ATOM     53  H25 ARG d   1      14.547 -15.038   1.736  0.00  0.00     0.174 HD
ATOM     54  H26 ARG d   1      13.701 -16.270   0.761  0.00  0.00     0.174 HD
ATOM     55  H27 ARG d   1      16.380 -13.736  -1.007  0.00  0.00     0.174 HD
ATOM     56  H28 ARG d   1      16.042 -13.602   0.740  0.00  0.00     0.174 HD
ATOM     57  H24 ARG d   1      15.320 -15.304  -2.247  0.00  0.00     0.177 HD
ENDBRANCH  46  49
ENDBRANCH  43  46
ENDBRANCH  40  43
ENDBRANCH   7  40
ENDBRANCH   4   7
ENDBRANCH   1   3
BRANCH   1  58
ATOM     58  CB  M3L d   1       8.035 -16.399  -6.133  0.00  0.00    -0.038 C 
ATOM     59  H31 M3L d   1       7.456 -16.913  -5.351  0.00  0.00     0.036 H 
ATOM     60  H32 M3L d   1       8.300 -17.116  -6.924  0.00  0.00     0.036 H 
BRANCH  58  61
ATOM     61  CG  M3L d   1       7.104 -15.310  -6.774  0.00  0.00    -0.061 C 
ATOM     62  H33 M3L d   1       7.714 -14.745  -7.494  0.00  0.00     0.033 H 
ATOM     63  H34 M3L d   1       6.781 -14.641  -5.963  0.00  0.00     0.033 H 
BRANCH  61  64
ATOM     64  CD  M3L d   1       5.856 -15.762  -7.504  0.00  0.00    -0.042 C 
ATOM     65  H35 M3L d   1       5.300 -16.422  -6.822  0.00  0.00     0.035 H 
ATOM     66  H36 M3L d   1       6.183 -16.336  -8.384  0.00  0.00     0.035 H 
BRANCH  64  67
ATOM     67  CE  M3L d   1       4.869 -14.683  -8.002  0.00  0.00     0.084 C 
ATOM     68  H37 M3L d   1       5.414 -14.063  -8.729  0.00  0.00     0.076 H 
ATOM     69  H38 M3L d   1       4.598 -14.071  -7.129  0.00  0.00     0.076 H 
BRANCH  67  70
ATOM     70  NZ  M3L d   1       3.608 -15.091  -8.647  0.00  0.00    -0.079 N 
BRANCH  70  71
ATOM     71  CM1 M3L d   1       2.842 -13.924  -8.977  0.00  0.00     0.067 C 
ATOM     72  H39 M3L d   1       1.901 -14.227  -9.459  0.00  0.00     0.068 H 
ATOM     73  H40 M3L d   1       3.419 -13.290  -9.666  0.00  0.00     0.068 H 
ATOM     74  H41 M3L d   1       2.619 -13.360  -8.059  0.00  0.00     0.068 H 
ENDBRANCH  70  71
BRANCH  70  75
ATOM     75  CM2 M3L d   1       2.803 -15.942  -7.734  0.00  0.00     0.067 C 
ATOM     76  H42 M3L d   1       3.377 -16.843  -7.471  0.00  0.00     0.068 H 
ATOM     77  H43 M3L d   1       1.869 -16.236  -8.235  0.00  0.00     0.068 H 
ATOM     78  H44 M3L d   1       2.567 -15.378  -6.820  0.00  0.00     0.068 H 
ENDBRANCH  70  75
BRANCH  70  79
ATOM     79  CM3 M3L d   1       3.899 -15.867  -9.867  0.00  0.00     0.067 C 
ATOM     80  H45 M3L d   1       4.496 -15.254 -10.558  0.00  0.00     0.068 H 
ATOM     81  H46 M3L d   1       2.955 -16.154 -10.353  0.00  0.00     0.068 H 
ATOM     82  H47 M3L d   1       4.463 -16.773  -9.600  0.00  0.00     0.068 H 
ENDBRANCH  70  79
ENDBRANCH  67  70
ENDBRANCH  64  67
ENDBRANCH  61  64
ENDBRANCH  58  61
ENDBRANCH   1  58
BRANCH   1  83
ATOM     83  C   M3L d   1       8.989 -15.083  -4.282  0.00  0.00     0.241 C 
ATOM     84  O   M3L d   1       8.626 -13.881  -4.420  0.00  0.00    -0.271 OA
ATOM     85  N   PHE d   1       9.088 -15.684  -3.094  0.00  0.00    -0.346 N 
ATOM     86  H48 PHE d   1       9.393 -16.635  -3.053  0.00  0.00     0.163 HD
BRANCH  85  87
ATOM     87  CA  PHE d   1       8.761 -14.985  -1.851  0.00  0.00     0.093 C 
ATOM     88  H49 PHE d   1       8.509 -13.947  -2.113  0.00  0.00     0.088 H 
BRANCH  87  89
ATOM     89  C   PHE d   1       9.922 -14.940  -0.856  0.00  0.00     0.241 C 
ATOM     90  O   PHE d   1      10.739 -15.860  -0.790  0.00  0.00    -0.271 OA
ATOM     91  N   ALA d   1       9.979 -13.875  -0.066  0.00  0.00    -0.346 N 
ATOM     92  H57 ALA d   1       9.312 -13.139  -0.181  0.00  0.00     0.163 HD
BRANCH  91  93
ATOM     93  CA  ALA d   1      11.004 -13.765   0.969  0.00  0.00     0.086 C 
ATOM     94  H58 ALA d   1      11.709 -14.600   0.843  0.00  0.00     0.086 H 
BRANCH  93  95
ATOM     95  C   ALA d   1      10.387 -13.871   2.363  0.00  0.00     0.240 C 
ATOM     96  O   ALA d   1      11.106 -13.898   3.365  0.00  0.00    -0.271 OA
ATOM     97  N   GLN d   1       9.055 -13.942   2.400  0.00  0.00    -0.346 N 
ATOM     98  H62 GLN d   1       8.561 -13.972   1.531  0.00  0.00     0.163 HD
BRANCH  97  99
ATOM     99  CA  GLN d   1       8.275 -13.978   3.635  0.00  0.00     0.090 C 
ATOM    100  H63 GLN d   1       8.961 -13.894   4.490  0.00  0.00     0.087 H 
BRANCH  99 101
ATOM    101  C   GLN d   1       7.480 -15.263   3.752  0.00  0.00     0.241 C 
ATOM    102  O   GLN d   1       7.272 -15.963   2.762  0.00  0.00    -0.271 OA
ATOM    103  N   SER d   1       7.020 -15.562   4.966  0.00  0.00    -0.343 N 
ATOM    104  H70 SER d   1       7.273 -14.979   5.738  0.00  0.00     0.163 HD
BRANCH 103 105
ATOM    105  CA  SER d   1       6.156 -16.718   5.203  0.00  0.00     0.116 C 
ATOM    106  H71 SER d   1       6.592 -17.592   4.697  0.00  0.00     0.093 H 
BRANCH 105 107
ATOM    107  C   SER d   1       4.758 -16.476   4.640  0.00  0.00     0.198 C 
ATOM    108  O   SER d   1       4.177 -15.404   4.841  0.00  0.00    -0.646 OA
ATOM    109  OXT SER d   1       4.189 -17.349   3.976  0.00  0.00    -0.646 OA
ENDBRANCH 105 107
BRANCH 105 110
ATOM    110  CB  SER d   1       6.070 -17.010   6.704  0.00  0.00     0.045 C 
ATOM    111  H72 SER d   1       6.685 -17.891   6.939  0.00  0.00     0.077 H 
ATOM    112  H73 SER d   1       5.023 -17.210   6.977  0.00  0.00     0.077 H 
BRANCH 110 113
ATOM    113  OG  SER d   1       6.547 -15.888   7.450  0.00  0.00    -0.398 OA
ATOM    114  H74 SER d   1       6.489 -16.079   8.379  0.00  0.00     0.209 HD
ENDBRANCH 110 113
ENDBRANCH 105 110
ENDBRANCH 103 105
ENDBRANCH  99 101
BRANCH  99 115
ATOM    115  CB  GLN d   1       7.276 -12.826   3.664  0.00  0.00    -0.030 C 
ATOM    116  H64 GLN d   1       6.423 -13.132   4.287  0.00  0.00     0.037 H 
ATOM    117  H65 GLN d   1       6.933 -12.648   2.634  0.00  0.00     0.037 H 
BRANCH 115 118
ATOM    118  CG  GLN d   1       7.810 -11.520   4.211  0.00  0.00     0.011 C 
ATOM    119  H66 GLN d   1       8.534 -11.102   3.496  0.00  0.00     0.047 H 
ATOM    120  H67 GLN d   1       8.312 -11.713   5.170  0.00  0.00     0.047 H 
BRANCH 118 121
ATOM    121  CD  GLN d   1       6.700 -10.515   4.431  0.00  0.00     0.215 C 
ATOM    122  OE1 GLN d   1       5.528 -10.794   4.142  0.00  0.00    -0.274 OA
ATOM    123  NE2 GLN d   1       7.055  -9.340   4.952  0.00  0.00    -0.370 N 
ATOM    124  H68 GLN d   1       6.363  -8.638   5.119  0.00  0.00     0.159 HD
ATOM    125  H69 GLN d   1       8.013  -9.161   5.176  0.00  0.00     0.159 HD
ENDBRANCH 118 121
ENDBRANCH 115 118
ENDBRANCH  99 115
ENDBRANCH  97  99
ENDBRANCH  93  95
BRANCH  93 126
ATOM    126  CB  ALA d   1      11.780 -12.461   0.821  0.00  0.00    -0.049 C 
ATOM    127  H59 ALA d   1      12.545 -12.398   1.609  0.00  0.00     0.030 H 
ATOM    128  H60 ALA d   1      11.089 -11.610   0.913  0.00  0.00     0.030 H 
ATOM    129  H61 ALA d   1      12.266 -12.433  -0.165  0.00  0.00     0.030 H 
ENDBRANCH  93 126
ENDBRANCH  91  93
ENDBRANCH  87  89
BRANCH  87 130
ATOM    130  CB  PHE d   1       7.536 -15.621  -1.189  0.00  0.00    -0.014 C 
ATOM    131  H50 PHE d   1       7.237 -14.994  -0.336  0.00  0.00     0.043 H 
ATOM    132  H51 PHE d   1       7.816 -16.622  -0.828  0.00  0.00     0.043 H 
BRANCH 130 133
ATOM    133  CG  PHE d   1       6.370 -15.759  -2.104  0.00  0.00    -0.056 A 
ATOM    134  CD1 PHE d   1       5.446 -14.734  -2.224  0.00  0.00    -0.077 A 
ATOM    135  CE1 PHE d   1       4.371 -14.852  -3.072  0.00  0.00    -0.082 A 
ATOM    136  H52 PHE d   1       5.572 -13.828  -1.642  0.00  0.00     0.084 H 
ATOM    137  CZ  PHE d   1       4.207 -16.000  -3.825  0.00  0.00    -0.083 A 
ATOM    138  H54 PHE d   1       3.652 -14.045  -3.151  0.00  0.00     0.083 H 
ATOM    139  CE2 PHE d   1       5.123 -17.027  -3.723  0.00  0.00    -0.082 A 
ATOM    140  H56 PHE d   1       3.360 -16.093  -4.495  0.00  0.00     0.083 H 
ATOM    141  CD2 PHE d   1       6.201 -16.906  -2.866  0.00  0.00    -0.077 A 
ATOM    142  H55 PHE d   1       4.997 -17.927  -4.314  0.00  0.00     0.083 H 
ATOM    143  H53 PHE d   1       6.920 -17.714  -2.789  0.00  0.00     0.084 H 
ENDBRANCH 130 133
ENDBRANCH  87 130
ENDBRANCH  85  87
ENDBRANCH   1  83
TORSDOF 40
