REMARK  17 active torsions:
REMARK  status: ('A' for Active; 'I' for Inactive)
REMARK    1  A    between atoms: C29_6  and  N5_7 
REMARK    2  A    between atoms: N4_12  and  C24_13 
REMARK    3  A    between atoms: C20_18  and  C_19 
REMARK       I    between atoms: C_19  and  N_21 
REMARK    4  A    between atoms: N_21  and  C1_22 
REMARK    5  A    between atoms: N_21  and  C8_30 
REMARK    6  A    between atoms: C1_22  and  C2_23 
REMARK    7  A    between atoms: C8_30  and  C9_31 
REMARK    8  A    between atoms: C9_31  and  C10_32 
REMARK    9  A    between atoms: C10_32  and  C11_33 
REMARK   10  A    between atoms: C11_33  and  C12_34 
REMARK   11  A    between atoms: C12_34  and  C13_35 
REMARK   12  A    between atoms: C12_34  and  N1_38 
REMARK       I    between atoms: N1_38  and  C14_39 
REMARK       I    between atoms: C14_39  and  N2_41 
REMARK   13  A    between atoms: N2_41  and  C15_42 
REMARK   14  A    between atoms: C15_42  and  C19_43 
REMARK   15  A    between atoms: C15_42  and  C16_46 
REMARK   16  A    between atoms: C16_46  and  C17_47 
REMARK   17  A    between atoms: C17_47  and  C18_48 
ROOT
ATOM      1  C   686 d   1      23.764  16.961  36.100  0.00  0.00     0.255 C 
ATOM      2  O   686 d   1      22.551  17.020  35.840  0.00  0.00    -0.267 OA
ATOM      3  N   686 d   1      24.187  17.637  37.156  0.00  0.00    -0.344 N 
ENDROOT
BRANCH   3   4
ATOM      4  C1  686 d   1      25.566  17.655  37.607  0.00  0.00     0.022 C 
ATOM      5  H17 686 d   1      25.673  18.344  38.458  0.00  0.00     0.071 H 
ATOM      6  H18 686 d   1      26.224  17.980  36.787  0.00  0.00     0.071 H 
BRANCH   4   7
ATOM      7  C2  686 d   1      25.927  16.264  38.030  0.00  0.00    -0.040 A 
ATOM      8  C7  686 d   1      26.802  15.511  37.230  0.00  0.00    -0.074 A 
ATOM      9  C6  686 d   1      27.175  14.218  37.599  0.00  0.00    -0.066 A 
ATOM     10  H19 686 d   1      27.193  15.940  36.314  0.00  0.00     0.084 H 
ATOM     11  C5  686 d   1      26.655  13.676  38.776  0.00  0.00     0.011 A 
ATOM     12  H20 686 d   1      27.857  13.644  36.982  0.00  0.00     0.085 H 
ATOM     13 BR   686 d   1      27.161  11.915  39.287  0.00  0.00    -0.051 Br
ATOM     14  C4  686 d   1      25.781  14.428  39.574  0.00  0.00    -0.066 A 
ATOM     15  C3  686 d   1      25.425  15.736  39.211  0.00  0.00    -0.074 A 
ATOM     16  H21 686 d   1      25.376  13.994  40.481  0.00  0.00     0.085 H 
ATOM     17  H22 686 d   1      24.769  16.324  39.843  0.00  0.00     0.084 H 
ENDBRANCH   4   7
ENDBRANCH   3   4
BRANCH   3  18
ATOM     18  C8  686 d   1      23.217  18.387  37.949  0.00  0.00    -0.002 C 
ATOM     19  H23 686 d   1      23.533  18.403  39.003  0.00  0.00     0.064 H 
ATOM     20  H24 686 d   1      22.228  17.913  37.870  0.00  0.00     0.064 H 
BRANCH  18  21
ATOM     21  C9  686 d   1      23.148  19.811  37.413  0.00  0.00    -0.050 C 
ATOM     22  H25 686 d   1      24.172  20.145  37.191  0.00  0.00     0.035 H 
ATOM     23  H26 686 d   1      22.715  20.452  38.195  0.00  0.00     0.035 H 
BRANCH  21  24
ATOM     24  C10 686 d   1      22.298  19.972  36.130  0.00  0.00    -0.061 C 
ATOM     25  H27 686 d   1      22.715  19.320  35.348  0.00  0.00     0.033 H 
ATOM     26  H28 686 d   1      22.353  21.020  35.801  0.00  0.00     0.033 H 
BRANCH  24  27
ATOM     27  C11 686 d   1      20.840  19.605  36.341  0.00  0.00    -0.036 C 
ATOM     28  H29 686 d   1      20.524  19.985  37.324  0.00  0.00     0.036 H 
ATOM     29  H30 686 d   1      20.751  18.509  36.326  0.00  0.00     0.036 H 
BRANCH  27  30
ATOM     30  C12 686 d   1      19.898  20.186  35.267  0.00  0.00     0.098 C 
ATOM     31  H31 686 d   1      20.049  21.272  35.179  0.00  0.00     0.089 H 
BRANCH  30  32
ATOM     32  C13 686 d   1      20.157  19.535  33.934  0.00  0.00     0.196 C 
ATOM     33  O2  686 d   1      20.789  20.056  33.035  0.00  0.00    -0.646 OA
ATOM     34  O1  686 d   1      19.661  18.332  33.715  0.00  0.00    -0.646 OA
ENDBRANCH  30  32
BRANCH  30  35
ATOM     35  N1  686 d   1      18.556  19.906  35.703  0.00  0.00    -0.329 N 
ATOM     36  C14 686 d   1      17.866  20.655  36.570  0.00  0.00     0.317 C 
ATOM     37  O7  686 d   1      18.316  21.692  37.077  0.00  0.00    -0.247 OA
ATOM     38  N2  686 d   1      16.655  20.211  36.895  0.00  0.00    -0.329 N 
ATOM     39  H33 686 d   1      16.191  19.539  36.318  0.00  0.00     0.165 HD
ATOM     40  H32 686 d   1      18.107  19.093  35.331  0.00  0.00     0.165 HD
BRANCH  38  41
ATOM     41  C15 686 d   1      16.022  20.706  38.082  0.00  0.00     0.098 C 
ATOM     42  H34 686 d   1      15.810  21.775  37.932  0.00  0.00     0.089 H 
BRANCH  41  43
ATOM     43  C19 686 d   1      16.979  20.518  39.233  0.00  0.00     0.196 C 
ATOM     44  O6  686 d   1      17.859  19.620  39.293  0.00  0.00    -0.646 OA
ATOM     45  O5  686 d   1      16.821  21.364  40.225  0.00  0.00    -0.646 OA
ENDBRANCH  41  43
BRANCH  41  46
ATOM     46  C16 686 d   1      14.730  20.012  38.518  0.00  0.00    -0.028 C 
ATOM     47  H35 686 d   1      13.941  20.224  37.782  0.00  0.00     0.037 H 
ATOM     48  H36 686 d   1      14.427  20.399  39.502  0.00  0.00     0.037 H 
BRANCH  46  49
ATOM     49  C17 686 d   1      14.930  18.517  38.614  0.00  0.00     0.018 C 
ATOM     50  H37 686 d   1      15.842  18.329  39.200  0.00  0.00     0.049 H 
ATOM     51  H38 686 d   1      15.061  18.122  37.596  0.00  0.00     0.049 H 
BRANCH  49  52
ATOM     52  C18 686 d   1      13.781  17.769  39.270  0.00  0.00     0.172 C 
ATOM     53  O4  686 d   1      12.896  18.286  39.984  0.00  0.00    -0.648 OA
ATOM     54  O3  686 d   1      13.717  16.452  39.056  0.00  0.00    -0.648 OA
ENDBRANCH  49  52
ENDBRANCH  46  49
ENDBRANCH  41  46
ENDBRANCH  38  41
ENDBRANCH  30  35
ENDBRANCH  27  30
ENDBRANCH  24  27
ENDBRANCH  21  24
ENDBRANCH  18  21
ENDBRANCH   3  18
BRANCH   1  55
ATOM     55  C20 686 d   1      24.709  16.143  35.251  0.00  0.00     0.049 A 
ATOM     56  C21 686 d   1      24.579  14.748  35.225  0.00  0.00    -0.063 A 
ATOM     57  C22 686 d   1      25.418  13.984  34.423  0.00  0.00    -0.038 A 
ATOM     58  H15 686 d   1      23.822  14.264  35.832  0.00  0.00     0.085 H 
ATOM     59  C24 686 d   1      26.403  14.569  33.648  0.00  0.00     0.125 A 
ATOM     60  H14 686 d   1      25.298  12.907  34.404  0.00  0.00     0.089 H 
ATOM     61  N3  686 d   1      26.529  15.941  33.692  0.00  0.00    -0.242 NA
ATOM     62  C23 686 d   1      25.709  16.722  34.454  0.00  0.00     0.020 A 
ATOM     63  H16 686 d   1      25.831  17.799  34.444  0.00  0.00     0.116 H 
BRANCH  59  64
ATOM     64  N4  686 d   1      27.234  13.723  32.858  0.00  0.00    -0.363 N 
ATOM     65  C25 686 d   1      26.873  12.343  32.566  0.00  0.00     0.011 C 
ATOM     66  C26 686 d   1      27.947  11.395  33.130  0.00  0.00     0.010 C 
ATOM     67  H8  686 d   1      25.902  12.113  33.030  0.00  0.00     0.066 H 
ATOM     68  H9  686 d   1      26.800  12.207  31.477  0.00  0.00     0.066 H 
ATOM     69  N5  686 d   1      29.308  11.959  33.115  0.00  0.00    -0.378 N 
ATOM     70  H6  686 d   1      27.684  11.153  34.170  0.00  0.00     0.066 H 
ATOM     71  H7  686 d   1      27.947  10.474  32.528  0.00  0.00     0.066 H 
ATOM     72  C28 686 d   1      29.586  13.400  33.032  0.00  0.00     0.010 C 
ATOM     73  C27 686 d   1      28.496  14.170  32.291  0.00  0.00     0.011 C 
ATOM     74  H10 686 d   1      30.540  13.544  32.503  0.00  0.00     0.066 H 
ATOM     75  H11 686 d   1      29.668  13.802  34.053  0.00  0.00     0.066 H 
ATOM     76  H12 686 d   1      28.533  13.944  31.215  0.00  0.00     0.066 H 
ATOM     77  H13 686 d   1      28.622  15.252  32.443  0.00  0.00     0.066 H 
BRANCH  69  78
ATOM     78  C29 686 d   1      30.445  11.117  33.299  0.00  0.00     0.030 A 
ATOM     79  C30 686 d   1      30.355   9.914  34.005  0.00  0.00    -0.057 A 
ATOM     80  C31 686 d   1      31.492   9.114  34.210  0.00  0.00    -0.081 A 
ATOM     81  H3  686 d   1      29.397   9.594  34.399  0.00  0.00     0.086 H 
ATOM     82  C34 686 d   1      32.737   9.493  33.722  0.00  0.00    -0.083 A 
ATOM     83  H2  686 d   1      31.396   8.184  34.759  0.00  0.00     0.083 H 
ATOM     84  C33 686 d   1      32.836  10.695  33.028  0.00  0.00    -0.081 A 
ATOM     85  H1  686 d   1      33.609   8.868  33.878  0.00  0.00     0.083 H 
ATOM     86  C32 686 d   1      31.705  11.502  32.823  0.00  0.00    -0.057 A 
ATOM     87  H4  686 d   1      33.798  11.012  32.641  0.00  0.00     0.083 H 
ATOM     88  H5  686 d   1      31.809  12.439  32.287  0.00  0.00     0.086 H 
ENDBRANCH  69  78
ENDBRANCH  59  64
ENDBRANCH   1  55
TORSDOF 17
