REMARK  10 active torsions:
REMARK  status: ('A' for Active; 'I' for Inactive)
REMARK    1  A    between atoms: C2_2  and  C1_1 
REMARK    2  A    between atoms: C4_4  and  O4_15 
REMARK    3  A    between atoms: N5_12  and  C5_5 
REMARK    4  A    between atoms: C6_6  and  C7_7 
REMARK    5  A    between atoms: C7_7  and  C8_8 
REMARK    6  A    between atoms: C7_7  and  O7_17 
REMARK    7  A    between atoms: C8_8  and  C9_9 
REMARK    8  A    between atoms: C8_8  and  O8_18 
REMARK    9  A    between atoms: C9_9  and  O9_19 
REMARK   10  A    between atoms: C10_10  and  C11_11 
REMARK       I    between atoms: C10_10  and  N5_12 
ROOT
ATOM      1  C2  DAN d   1      -9.794  41.352 -16.862  0.00  0.00     0.144 C 
ATOM      2  C3  DAN d   1     -10.877  40.658 -16.514  0.00  0.00    -0.035 C 
ATOM      3  C4  DAN d   1     -11.422  40.757 -15.131  0.00  0.00     0.076 C 
ATOM      4  C5  DAN d   1     -11.024  42.064 -14.467  0.00  0.00     0.068 C 
ATOM      5  C6  DAN d   1      -9.517  42.358 -14.591  0.00  0.00     0.094 C 
ATOM      6  O6  DAN d   1      -9.154  42.245 -15.949  0.00  0.00    -0.335 OA
ATOM      7  H1  DAN d   1     -11.366  40.015 -17.244  0.00  0.00     0.085 H 
ATOM      8  H2  DAN d   1     -11.001  39.933 -14.537  0.00  0.00     0.092 H 
ATOM      9  H3  DAN d   1     -11.568  42.879 -14.967  0.00  0.00     0.081 H 
ATOM     10  H4  DAN d   1      -8.931  41.672 -13.962  0.00  0.00     0.091 H 
ENDROOT
BRANCH   5  11
ATOM     11  C7  DAN d   1      -9.266  43.838 -14.196  0.00  0.00     0.089 C 
ATOM     12  H5  DAN d   1      -9.552  43.949 -13.140  0.00  0.00     0.091 H 
BRANCH  11  13
ATOM     13  C8  DAN d   1      -7.997  44.610 -14.440  0.00  0.00     0.083 C 
ATOM     14  H6  DAN d   1      -8.302  45.627 -14.726  0.00  0.00     0.090 H 
BRANCH  13  15
ATOM     15  C9  DAN d   1      -7.123  44.799 -13.180  0.00  0.00     0.043 C 
ATOM     16  H7  DAN d   1      -6.121  45.103 -13.518  0.00  0.00     0.078 H 
ATOM     17  H8  DAN d   1      -7.059  43.824 -12.675  0.00  0.00     0.078 H 
BRANCH  15  18
ATOM     18  O9  DAN d   1      -7.565  45.781 -12.181  0.00  0.00    -0.398 OA
ATOM     19  H16 DAN d   1      -7.612  46.641 -12.583  0.00  0.00     0.209 HD
ENDBRANCH  15  18
ENDBRANCH  13  15
BRANCH  13  20
ATOM     20  O8  DAN d   1      -7.339  44.044 -15.613  0.00  0.00    -0.391 OA
ATOM     21  H15 DAN d   1      -7.966  43.973 -16.323  0.00  0.00     0.210 HD
ENDBRANCH  13  20
ENDBRANCH  11  13
BRANCH  11  22
ATOM     22  O7  DAN d   1     -10.079  44.596 -15.087  0.00  0.00    -0.390 OA
ATOM     23  H14 DAN d   1     -10.964  44.251 -15.078  0.00  0.00     0.210 HD
ENDBRANCH  11  22
ENDBRANCH   5  11
BRANCH   4  24
ATOM     24  N5  DAN d   1     -11.420  42.038 -13.067  0.00  0.00    -0.351 N 
ATOM     25  C10 DAN d   1     -12.016  43.037 -12.451  0.00  0.00     0.214 C 
ATOM     26  O10 DAN d   1     -12.279  44.066 -13.020  0.00  0.00    -0.274 OA
ATOM     27  H12 DAN d   1     -11.227  41.210 -12.540  0.00  0.00     0.163 HD
BRANCH  25  28
ATOM     28  C11 DAN d   1     -12.310  42.815 -11.008  0.00  0.00    -0.003 C 
ATOM     29  H9  DAN d   1     -12.805  43.706 -10.593  0.00  0.00     0.040 H 
ATOM     30  H10 DAN d   1     -11.370  42.632 -10.466  0.00  0.00     0.040 H 
ATOM     31  H11 DAN d   1     -12.972  41.943 -10.899  0.00  0.00     0.040 H 
ENDBRANCH  25  28
ENDBRANCH   4  24
BRANCH   3  32
ATOM     32  O4  DAN d   1     -12.844  40.611 -15.155  0.00  0.00    -0.389 OA
ATOM     33  H13 DAN d   1     -13.177  40.617 -14.265  0.00  0.00     0.210 HD
ENDBRANCH   3  32
BRANCH   1  34
ATOM     34  C1  DAN d   1      -9.215  41.328 -18.211  0.00  0.00     0.233 C 
ATOM     35  O1A DAN d   1      -9.905  40.869 -19.206  0.00  0.00    -0.642 OA
ATOM     36  O1B DAN d   1      -8.024  41.764 -18.266  0.00  0.00    -0.642 OA
ENDBRANCH   1  34
TORSDOF 10
