REMARK  10 active torsions:
REMARK  status: ('A' for Active; 'I' for Inactive)
REMARK    1  A    between atoms: C1_1  and  C2_4 
REMARK    2  A    between atoms: C4_6  and  N4_20 
REMARK    3  A    between atoms: C5_7  and  N5_8 
REMARK       I    between atoms: N5_8  and  C10_9 
REMARK    4  A    between atoms: C10_9  and  C11_11 
REMARK    5  A    between atoms: C6_12  and  O7_14 
REMARK    6  A    between atoms: O7_14  and  C8_15 
REMARK    7  A    between atoms: C8_15  and  C9_16 
REMARK    8  A    between atoms: C8_15  and  C81_17 
REMARK    9  A    between atoms: C9_16  and  C91_19 
REMARK   10  A    between atoms: C81_17  and  C82_18 
ROOT
ATOM      1  C2  G39 d   1     -31.463  87.178  18.168  0.00  0.00     0.019 C 
ATOM      2  C3  G39 d   1     -30.194  87.889  17.771  0.00  0.00    -0.006 C 
ATOM      3  C4  G39 d   1     -30.086  88.199  16.305  0.00  0.00     0.126 C 
ATOM      4  C5  G39 d   1     -31.440  88.662  15.777  0.00  0.00     0.068 C 
ATOM      5  C6  G39 d   1     -32.530  87.609  15.958  0.00  0.00     0.077 C 
ATOM      6  C7  G39 d   1     -32.507  87.094  17.352  0.00  0.00    -0.061 C 
ATOM      7  H1  G39 d   1     -29.342  87.253  18.051  0.00  0.00     0.043 H 
ATOM      8  H2  G39 d   1     -30.143  88.837  18.327  0.00  0.00     0.043 H 
ATOM      9  H3  G39 d   1     -29.759  87.309  15.748  0.00  0.00     0.087 H 
ATOM     10  H4  G39 d   1     -31.731  89.569  16.327  0.00  0.00     0.080 H 
ATOM     11  H9  G39 d   1     -32.391  86.784  15.244  0.00  0.00     0.093 H 
ATOM     12  H10 G39 d   1     -33.409  86.615  17.730  0.00  0.00     0.082 H 
ENDROOT
BRANCH   5  13
ATOM     13  O7  G39 d   1     -33.775  88.257  15.744  0.00  0.00    -0.375 OA
BRANCH  13  14
ATOM     14  C8  G39 d   1     -34.888  87.532  15.178  0.00  0.00     0.039 C 
ATOM     15  H11 G39 d   1     -34.679  86.460  15.308  0.00  0.00     0.083 H 
BRANCH  14  16
ATOM     16  C9  G39 d   1     -36.199  87.927  15.874  0.00  0.00    -0.044 C 
ATOM     17  H12 G39 d   1     -37.033  87.466  15.325  0.00  0.00     0.036 H 
ATOM     18  H13 G39 d   1     -36.294  89.022  15.833  0.00  0.00     0.036 H 
BRANCH  16  19
ATOM     19  C91 G39 d   1     -36.289  87.498  17.318  0.00  0.00    -0.074 C 
ATOM     20  H19 G39 d   1     -37.254  87.820  17.736  0.00  0.00     0.027 H 
ATOM     21  H20 G39 d   1     -35.470  87.959  17.889  0.00  0.00     0.027 H 
ATOM     22  H21 G39 d   1     -36.209  86.403  17.381  0.00  0.00     0.027 H 
ENDBRANCH  16  19
ENDBRANCH  14  16
BRANCH  14  23
ATOM     23  C81 G39 d   1     -35.281  87.798  13.720  0.00  0.00    -0.044 C 
ATOM     24  H14 G39 d   1     -35.977  88.650  13.697  0.00  0.00     0.036 H 
ATOM     25  H15 G39 d   1     -35.784  86.903  13.326  0.00  0.00     0.036 H 
BRANCH  23  26
ATOM     26  C82 G39 d   1     -34.129  88.110  12.846  0.00  0.00    -0.074 C 
ATOM     27  H16 G39 d   1     -34.485  88.288  11.820  0.00  0.00     0.027 H 
ATOM     28  H17 G39 d   1     -33.427  87.263  12.848  0.00  0.00     0.027 H 
ATOM     29  H18 G39 d   1     -33.619  89.010  13.219  0.00  0.00     0.027 H 
ENDBRANCH  23  26
ENDBRANCH  14  23
ENDBRANCH  13  14
ENDBRANCH   5  13
BRANCH   4  30
ATOM     30  N5  G39 d   1     -31.352  88.968  14.375  0.00  0.00    -0.352 N 
ATOM     31  C10 G39 d   1     -31.542  90.167  13.795  0.00  0.00     0.214 C 
ATOM     32  O10 G39 d   1     -31.838  91.171  14.417  0.00  0.00    -0.274 OA
ATOM     33  H5  G39 d   1     -31.125  88.208  13.766  0.00  0.00     0.163 HD
BRANCH  31  34
ATOM     34  C11 G39 d   1     -31.334  90.189  12.307  0.00  0.00    -0.003 C 
ATOM     35  H6  G39 d   1     -31.511  91.206  11.927  0.00  0.00     0.040 H 
ATOM     36  H7  G39 d   1     -32.037  89.491  11.828  0.00  0.00     0.040 H 
ATOM     37  H8  G39 d   1     -30.302  89.886  12.076  0.00  0.00     0.040 H 
ENDBRANCH  31  34
ENDBRANCH   4  30
BRANCH   3  38
ATOM     38  N4  G39 d   1     -29.090  89.265  16.183  0.00  0.00    -0.073 N 
ATOM     39  H22 G39 d   1     -28.204  88.939  16.537  0.00  0.00     0.274 HD
ATOM     40  H23 G39 d   1     -29.390  90.067  16.715  0.00  0.00     0.274 HD
ATOM     41  H24 G39 d   1     -28.990  89.522  15.214  0.00  0.00     0.274 HD
ENDBRANCH   3  38
BRANCH   1  42
ATOM     42  C1  G39 d   1     -31.546  86.628  19.519  0.00  0.00     0.205 C 
ATOM     43  O1A G39 d   1     -32.286  85.636  19.739  0.00  0.00    -0.644 OA
ATOM     44  O1B G39 d   1     -30.805  87.129  20.423  0.00  0.00    -0.644 OA
ENDBRANCH   1  42
TORSDOF 10
