REMARK  8 active torsions:
REMARK  status: ('A' for Active; 'I' for Inactive)
REMARK    1  A    between atoms: CAE_20  and  C4_2 
REMARK    2  A    between atoms: C6_4  and  NAJ_24 
REMARK    3  A    between atoms: CAR_15  and  NAS_14 
REMARK    4  A    between atoms: CAB_16  and  CAR_15 
REMARK    5  A    between atoms: CAB_16  and  OAA_17 
REMARK    6  A    between atoms: CAC_18  and  CAB_16 
REMARK    7  A    between atoms: NAD_19  and  CAC_18 
REMARK       I    between atoms: NAD_19  and  CAE_20 
REMARK    8  A    between atoms: NAJ_24  and  CAK_25 
ROOT
ATOM      1  CAB 3XV d   1      19.525 -46.489 -10.317  0.00  0.00     0.074 C 
ATOM      2  H16 3XV d   1      19.347 -46.541  -9.233  0.00  0.00     0.088 H 
ENDROOT
BRANCH   1   3
ATOM      3  CAR 3XV d   1      21.011 -46.203 -10.567  0.00  0.00     0.109 C 
ATOM      4  H14 3XV d   1      21.614 -46.978 -10.071  0.00  0.00     0.080 H 
ATOM      5  H15 3XV d   1      21.203 -46.226 -11.650  0.00  0.00     0.080 H 
BRANCH   3   6
ATOM      6  NAS 3XV d   1      21.395 -44.890 -10.042  0.00  0.00    -0.064 N 
ATOM      7  CAT 3XV d   1      22.694 -44.541 -10.649  0.00  0.00     0.087 C 
ATOM      8  CAU 3XV d   1      23.182 -43.214 -10.155  0.00  0.00    -0.018 C 
ATOM      9  H3  3XV d   1      23.431 -45.315 -10.388  0.00  0.00     0.076 H 
ATOM     10  H4  3XV d   1      22.579 -44.497 -11.742  0.00  0.00     0.076 H 
ATOM     11  CAV 3XV d   1      23.095 -43.137  -8.755  0.00  0.00    -0.049 A 
ATOM     12  H5  3XV d   1      22.567 -42.417 -10.598  0.00  0.00     0.042 H 
ATOM     13  H6  3XV d   1      24.231 -43.080 -10.458  0.00  0.00     0.042 H 
ATOM     14  CBB 3XV d   1      23.872 -42.172  -8.096  0.00  0.00    -0.076 A 
ATOM     15  CAW 3XV d   1      22.259 -43.985  -7.994  0.00  0.00    -0.026 A 
ATOM     16  CBA 3XV d   1      23.828 -42.055  -6.706  0.00  0.00    -0.082 A 
ATOM     17  H7  3XV d   1      24.512 -41.512  -8.671  0.00  0.00     0.084 H 
ATOM     18  CAZ 3XV d   1      23.006 -42.892  -5.957  0.00  0.00    -0.082 A 
ATOM     19  H8  3XV d   1      24.437 -41.309  -6.208  0.00  0.00     0.083 H 
ATOM     20  CAY 3XV d   1      22.224 -43.849  -6.596  0.00  0.00    -0.075 A 
ATOM     21  H9  3XV d   1      22.975 -42.798  -4.878  0.00  0.00     0.083 H 
ATOM     22  H10 3XV d   1      21.581 -44.496  -6.010  0.00  0.00     0.084 H 
ATOM     23  CAX 3XV d   1      21.454 -44.973  -8.573  0.00  0.00     0.108 C 
ATOM     24  H11 3XV d   1      20.433 -44.868  -8.176  0.00  0.00     0.083 H 
ATOM     25  H12 3XV d   1      21.856 -45.958  -8.295  0.00  0.00     0.083 H 
ATOM     26  H13 3XV d   1      20.710 -44.198 -10.304  0.00  0.00     0.280 HD
ENDBRANCH   3   6
ENDBRANCH   1   3
BRANCH   1  27
ATOM     27  OAA 3XV d   1      18.752 -45.413 -10.863  0.00  0.00    -0.392 OA
ATOM     28  H17 3XV d   1      17.829 -45.580 -10.713  0.00  0.00     0.210 HD
ENDBRANCH   1  27
BRANCH   1  29
ATOM     29  CAC 3XV d   1      19.122 -47.845 -10.948  0.00  0.00     0.021 C 
ATOM     30  H18 3XV d   1      19.028 -47.735 -12.039  0.00  0.00     0.068 H 
ATOM     31  H19 3XV d   1      18.162 -48.180 -10.529  0.00  0.00     0.068 H 
BRANCH  29  32
ATOM     32  NAD 3XV d   1      20.171 -48.826 -10.635  0.00  0.00    -0.353 N 
ATOM     33  CAE 3XV d   1      20.951 -49.382 -11.584  0.00  0.00     0.270 C 
ATOM     34  OAF 3XV d   1      20.813 -49.164 -12.795  0.00  0.00    -0.266 OA
ATOM     35  H20 3XV d   1      20.312 -49.091  -9.681  0.00  0.00     0.162 HD
BRANCH  33  36
ATOM     36  C4  3XV d   1      21.969 -50.219 -11.096  0.00  0.00     0.129 A 
ATOM     37  C5  3XV d   1      23.255 -50.178 -11.664  0.00  0.00    -0.006 A 
ATOM     38  C6  3XV d   1      24.258 -51.013 -11.141  0.00  0.00     0.127 A 
ATOM     39  H2  3XV d   1      23.470 -49.513 -12.492  0.00  0.00     0.093 H 
ATOM     40  N1  3XV d   1      23.976 -51.839 -10.105  0.00  0.00    -0.225 NA
ATOM     41  C2  3XV d   1      22.698 -51.880  -9.538  0.00  0.00     0.089 A 
ATOM     42  N3  3XV d   1      21.709 -51.045 -10.055  0.00  0.00    -0.236 NA
ATOM     43  H1  3XV d   1      22.481 -52.548  -8.713  0.00  0.00     0.146 H 
BRANCH  38  44
ATOM     44  NAJ 3XV d   1      25.503 -51.006 -11.655  0.00  0.00    -0.366 N 
ATOM     45  H21 3XV d   1      25.693 -50.440 -12.494  0.00  0.00     0.161 HD
BRANCH  44  46
ATOM     46  CAK 3XV d   1      26.607 -51.787 -11.051  0.00  0.00     0.052 C 
ATOM     47  CAL 3XV d   1      27.271 -51.039  -9.903  0.00  0.00     0.040 C 
ATOM     48  OAM 3XV d   1      28.557 -51.346 -10.525  0.00  0.00    -0.387 OA
ATOM     49  H23 3XV d   1      27.121 -51.494  -8.913  0.00  0.00     0.077 H 
ATOM     50  H24 3XV d   1      27.030 -49.967  -9.855  0.00  0.00     0.077 H 
ATOM     51  CAN 3XV d   1      27.909 -51.575 -11.811  0.00  0.00     0.040 C 
ATOM     52  H25 3XV d   1      27.909 -50.706 -12.485  0.00  0.00     0.077 H 
ATOM     53  H26 3XV d   1      28.271 -52.460 -12.354  0.00  0.00     0.077 H 
ATOM     54  H22 3XV d   1      26.311 -52.828 -10.855  0.00  0.00     0.079 H 
ENDBRANCH  44  46
ENDBRANCH  38  44
ENDBRANCH  33  36
ENDBRANCH  29  32
ENDBRANCH   1  29
TORSDOF 8
