REMARK  8 active torsions:
REMARK  status: ('A' for Active; 'I' for Inactive)
REMARK    1  A    between atoms: CAE_20  and  C4_2 
REMARK    2  A    between atoms: C6_4  and  NAJ_24 
REMARK    3  A    between atoms: CAR_15  and  NAS_14 
REMARK    4  A    between atoms: CAB_16  and  CAR_15 
REMARK    5  A    between atoms: CAB_16  and  OAA_17 
REMARK    6  A    between atoms: CAC_18  and  CAB_16 
REMARK    7  A    between atoms: NAD_19  and  CAC_18 
REMARK       I    between atoms: NAD_19  and  CAE_20 
REMARK    8  A    between atoms: NAJ_24  and  CAK_25 
ROOT
ATOM      1  CAB 3XV d   1      19.556 -46.418 -10.468  0.00  0.00     0.074 C 
ATOM      2  H16 3XV d   1      19.462 -46.502  -9.375  0.00  0.00     0.088 H 
ENDROOT
BRANCH   1   3
ATOM      3  CAR 3XV d   1      20.993 -46.027 -10.827  0.00  0.00     0.109 C 
ATOM      4  H14 3XV d   1      21.661 -46.856 -10.551  0.00  0.00     0.080 H 
ATOM      5  H15 3XV d   1      21.049 -45.857 -11.912  0.00  0.00     0.080 H 
BRANCH   3   6
ATOM      6  NAS 3XV d   1      21.448 -44.813 -10.140  0.00  0.00    -0.064 N 
ATOM      7  CAT 3XV d   1      22.752 -44.470 -10.719  0.00  0.00     0.087 C 
ATOM      8  CAU 3XV d   1      23.301 -43.185 -10.129  0.00  0.00    -0.018 C 
ATOM      9  H3  3XV d   1      23.459 -45.288 -10.516  0.00  0.00     0.076 H 
ATOM     10  H4  3XV d   1      22.639 -44.345 -11.806  0.00  0.00     0.076 H 
ATOM     11  CAV 3XV d   1      23.131 -43.145  -8.743  0.00  0.00    -0.049 A 
ATOM     12  H5  3XV d   1      22.773 -42.331 -10.579  0.00  0.00     0.042 H 
ATOM     13  H6  3XV d   1      24.374 -43.116 -10.360  0.00  0.00     0.042 H 
ATOM     14  CBB 3XV d   1      23.813 -42.152  -8.034  0.00  0.00    -0.076 A 
ATOM     15  CAW 3XV d   1      22.306 -44.054  -8.049  0.00  0.00    -0.026 A 
ATOM     16  CBA 3XV d   1      23.690 -42.055  -6.649  0.00  0.00    -0.082 A 
ATOM     17  H7  3XV d   1      24.444 -41.450  -8.567  0.00  0.00     0.084 H 
ATOM     18  CAZ 3XV d   1      22.875 -42.958  -5.965  0.00  0.00    -0.082 A 
ATOM     19  H8  3XV d   1      24.224 -41.283  -6.107  0.00  0.00     0.083 H 
ATOM     20  CAY 3XV d   1      22.187 -43.953  -6.660  0.00  0.00    -0.075 A 
ATOM     21  H9  3XV d   1      22.776 -42.886  -4.888  0.00  0.00     0.083 H 
ATOM     22  H10 3XV d   1      21.557 -44.651  -6.120  0.00  0.00     0.084 H 
ATOM     23  CAX 3XV d   1      21.599 -45.073  -8.697  0.00  0.00     0.108 C 
ATOM     24  H11 3XV d   1      20.599 -45.154  -8.245  0.00  0.00     0.083 H 
ATOM     25  H12 3XV d   1      22.140 -46.021  -8.562  0.00  0.00     0.083 H 
ATOM     26  H13 3XV d   1      20.791 -44.062 -10.283  0.00  0.00     0.280 HD
ENDBRANCH   3   6
ENDBRANCH   1   3
BRANCH   1  27
ATOM     27  OAA 3XV d   1      18.672 -45.403 -10.938  0.00  0.00    -0.392 OA
ATOM     28  H17 3XV d   1      17.778 -45.638 -10.720  0.00  0.00     0.210 HD
ENDBRANCH   1  27
BRANCH   1  29
ATOM     29  CAC 3XV d   1      19.215 -47.773 -11.107  0.00  0.00     0.021 C 
ATOM     30  H18 3XV d   1      19.161 -47.664 -12.200  0.00  0.00     0.068 H 
ATOM     31  H19 3XV d   1      18.247 -48.130 -10.725  0.00  0.00     0.068 H 
BRANCH  29  32
ATOM     32  NAD 3XV d   1      20.274 -48.736 -10.755  0.00  0.00    -0.353 N 
ATOM     33  CAE 3XV d   1      20.942 -49.486 -11.649  0.00  0.00     0.270 C 
ATOM     34  OAF 3XV d   1      20.728 -49.488 -12.861  0.00  0.00    -0.266 OA
ATOM     35  H20 3XV d   1      20.511 -48.838  -9.789  0.00  0.00     0.162 HD
BRANCH  33  36
ATOM     36  C4  3XV d   1      21.938 -50.284 -11.090  0.00  0.00     0.129 A 
ATOM     37  C5  3XV d   1      23.233 -50.262 -11.619  0.00  0.00    -0.006 A 
ATOM     38  C6  3XV d   1      24.232 -51.054 -11.056  0.00  0.00     0.127 A 
ATOM     39  H2  3XV d   1      23.460 -49.628 -12.468  0.00  0.00     0.093 H 
ATOM     40  N1  3XV d   1      23.948 -51.831  -9.994  0.00  0.00    -0.225 NA
ATOM     41  C2  3XV d   1      22.651 -51.858  -9.455  0.00  0.00     0.089 A 
ATOM     42  N3  3XV d   1      21.652 -51.061 -10.030  0.00  0.00    -0.236 NA
ATOM     43  H1  3XV d   1      22.425 -52.489  -8.603  0.00  0.00     0.146 H 
BRANCH  38  44
ATOM     44  NAJ 3XV d   1      25.466 -51.030 -11.568  0.00  0.00    -0.366 N 
ATOM     45  H21 3XV d   1      25.673 -50.357 -12.320  0.00  0.00     0.161 HD
BRANCH  44  46
ATOM     46  CAK 3XV d   1      26.547 -51.924 -11.106  0.00  0.00     0.052 A 
ATOM     47  CAL 3XV d   1      27.311 -51.286  -9.970  0.00  0.00     0.040 A 
ATOM     48  OAM 3XV d   1      28.449 -51.112 -10.843  0.00  0.00    -0.387 OA
ATOM     49  H23 3XV d   1      27.495 -51.957  -9.118  0.00  0.00     0.077 H 
ATOM     50  H24 3XV d   1      26.874 -50.344  -9.607  0.00  0.00     0.077 H 
ATOM     51  CAN 3XV d   1      27.767 -51.720 -11.964  0.00  0.00     0.040 A 
ATOM     52  H25 3XV d   1      27.609 -51.042 -12.816  0.00  0.00     0.077 H 
ATOM     53  H26 3XV d   1      28.229 -52.653 -12.319  0.00  0.00     0.077 H 
ATOM     54  H22 3XV d   1      26.206 -52.959 -10.957  0.00  0.00     0.079 H 
ENDBRANCH  44  46
ENDBRANCH  38  44
ENDBRANCH  33  36
ENDBRANCH  29  32
ENDBRANCH   1  29
TORSDOF 8
