REMARK  8 active torsions:
REMARK  status: ('A' for Active; 'I' for Inactive)
REMARK    1  A    between atoms: CAE_20  and  C4_2 
REMARK    2  A    between atoms: C6_4  and  NAJ_24 
REMARK    3  A    between atoms: CAR_15  and  NAS_14 
REMARK    4  A    between atoms: CAB_16  and  CAR_15 
REMARK    5  A    between atoms: CAB_16  and  OAA_17 
REMARK    6  A    between atoms: CAC_18  and  CAB_16 
REMARK    7  A    between atoms: NAD_19  and  CAC_18 
REMARK       I    between atoms: NAD_19  and  CAE_20 
REMARK    8  A    between atoms: NAJ_24  and  CAK_25 
ROOT
ATOM      1  CAB 3XV d   1      19.541 -46.496 -10.513  0.00  0.00     0.074 C 
ATOM      2  H16 3XV d   1      19.293 -46.573  -9.444  0.00  0.00     0.088 H 
ENDROOT
BRANCH   1   3
ATOM      3  CAR 3XV d   1      21.006 -46.068 -10.661  0.00  0.00     0.109 C 
ATOM      4  H14 3XV d   1      21.642 -46.815 -10.163  0.00  0.00     0.080 H 
ATOM      5  H15 3XV d   1      21.254 -46.031 -11.732  0.00  0.00     0.080 H 
BRANCH   3   6
ATOM      6  NAS 3XV d   1      21.279 -44.751 -10.070  0.00  0.00    -0.064 N 
ATOM      7  CAT 3XV d   1      22.537 -44.296 -10.680  0.00  0.00     0.087 C 
ATOM      8  CAU 3XV d   1      22.963 -42.950 -10.137  0.00  0.00    -0.018 C 
ATOM      9  H3  3XV d   1      23.325 -45.033 -10.466  0.00  0.00     0.076 H 
ATOM     10  H4  3XV d   1      22.397 -44.214 -11.768  0.00  0.00     0.076 H 
ATOM     11  CAV 3XV d   1      22.958 -42.963  -8.743  0.00  0.00    -0.049 A 
ATOM     12  H5  3XV d   1      22.266 -42.178 -10.494  0.00  0.00     0.042 H 
ATOM     13  H6  3XV d   1      23.978 -42.721 -10.493  0.00  0.00     0.042 H 
ATOM     14  CBB 3XV d   1      23.722 -42.005  -8.076  0.00  0.00    -0.076 A 
ATOM     15  CAW 3XV d   1      22.210 -43.897  -8.003  0.00  0.00    -0.026 A 
ATOM     16  CBA 3XV d   1      23.758 -41.971  -6.684  0.00  0.00    -0.082 A 
ATOM     17  H7  3XV d   1      24.293 -41.281  -8.646  0.00  0.00     0.084 H 
ATOM     18  CAZ 3XV d   1      23.021 -42.896  -5.950  0.00  0.00    -0.082 A 
ATOM     19  H8  3XV d   1      24.358 -41.226  -6.174  0.00  0.00     0.083 H 
ATOM     20  CAY 3XV d   1      22.252 -43.854  -6.608  0.00  0.00    -0.075 A 
ATOM     21  H9  3XV d   1      23.045 -42.871  -4.867  0.00  0.00     0.083 H 
ATOM     22  H10 3XV d   1      21.681 -44.573  -6.031  0.00  0.00     0.084 H 
ATOM     23  CAX 3XV d   1      21.422 -44.892  -8.605  0.00  0.00     0.108 C 
ATOM     24  H11 3XV d   1      20.419 -44.856  -8.156  0.00  0.00     0.083 H 
ATOM     25  H12 3XV d   1      21.882 -45.869  -8.396  0.00  0.00     0.083 H 
ATOM     26  H13 3XV d   1      20.534 -44.105 -10.278  0.00  0.00     0.280 HD
ENDBRANCH   3   6
ENDBRANCH   1   3
BRANCH   1  27
ATOM     27  OAA 3XV d   1      18.708 -45.508 -11.118  0.00  0.00    -0.392 OA
ATOM     28  H17 3XV d   1      17.798 -45.766 -11.030  0.00  0.00     0.210 HD
ENDBRANCH   1  27
BRANCH   1  29
ATOM     29  CAC 3XV d   1      19.314 -47.865 -11.177  0.00  0.00     0.021 C 
ATOM     30  H18 3XV d   1      19.346 -47.751 -12.271  0.00  0.00     0.068 H 
ATOM     31  H19 3XV d   1      18.331 -48.259 -10.878  0.00  0.00     0.068 H 
BRANCH  29  32
ATOM     32  NAD 3XV d   1      20.371 -48.804 -10.749  0.00  0.00    -0.353 N 
ATOM     33  CAE 3XV d   1      21.123 -49.515 -11.611  0.00  0.00     0.270 C 
ATOM     34  OAF 3XV d   1      21.008 -49.464 -12.836  0.00  0.00    -0.266 OA
ATOM     35  H20 3XV d   1      20.537 -48.918  -9.769  0.00  0.00     0.162 HD
BRANCH  33  36
ATOM     36  C4  3XV d   1      22.097 -50.320 -11.020  0.00  0.00     0.129 A 
ATOM     37  C5  3XV d   1      23.389 -50.322 -11.549  0.00  0.00    -0.006 A 
ATOM     38  C6  3XV d   1      24.394 -51.107 -10.983  0.00  0.00     0.127 A 
ATOM     39  H2  3XV d   1      23.614 -49.705 -12.411  0.00  0.00     0.093 H 
ATOM     40  N1  3XV d   1      24.113 -51.873  -9.912  0.00  0.00    -0.225 NA
ATOM     41  C2  3XV d   1      22.813 -51.877  -9.369  0.00  0.00     0.089 A 
ATOM     42  N3  3XV d   1      21.808 -51.082  -9.949  0.00  0.00    -0.236 NA
ATOM     43  H1  3XV d   1      22.588 -52.492  -8.505  0.00  0.00     0.146 H 
BRANCH  38  44
ATOM     44  NAJ 3XV d   1      25.617 -51.072 -11.526  0.00  0.00    -0.366 N 
ATOM     45  H21 3XV d   1      25.772 -50.435 -12.320  0.00  0.00     0.161 HD
BRANCH  44  46
ATOM     46  CAK 3XV d   1      26.757 -51.885 -11.062  0.00  0.00     0.052 C 
ATOM     47  CAL 3XV d   1      27.557 -51.129 -10.028  0.00  0.00     0.040 C 
ATOM     48  OAM 3XV d   1      28.700 -51.122 -10.921  0.00  0.00    -0.387 OA
ATOM     49  H23 3XV d   1      27.721 -51.684  -9.093  0.00  0.00     0.077 H 
ATOM     50  H24 3XV d   1      27.161 -50.129  -9.797  0.00  0.00     0.077 H 
ATOM     51  CAN 3XV d   1      27.924 -51.681 -12.005  0.00  0.00     0.040 C 
ATOM     52  H25 3XV d   1      27.722 -50.975 -12.824  0.00  0.00     0.077 H 
ATOM     53  H26 3XV d   1      28.336 -52.613 -12.418  0.00  0.00     0.077 H 
ATOM     54  H22 3XV d   1      26.474 -52.920 -10.820  0.00  0.00     0.079 H 
ENDBRANCH  44  46
ENDBRANCH  38  44
ENDBRANCH  33  36
ENDBRANCH  29  32
ENDBRANCH   1  29
TORSDOF 8
