REMARK  8 active torsions:
REMARK  status: ('A' for Active; 'I' for Inactive)
REMARK       I    between atoms: N14_3  and  C1_1 
REMARK    1  A    between atoms: C3_5  and  C2_4 
REMARK       I    between atoms: N15_6  and  C3_5 
REMARK    2  A    between atoms: O24_21  and  N15_6 
REMARK    3  A    between atoms: C6_9  and  N16_12 
REMARK    4  A    between atoms: N16_12  and  O10_14 
REMARK    5  A    between atoms: O10_14  and  S17_13 
REMARK    6  A    between atoms: C22_19  and  N21_18 
REMARK    7  A    between atoms: C23_20  and  C22_19 
REMARK    8  A    between atoms: C23_20  and  O24_21 
ROOT
ATOM      1  C1  OP0 d   1     -13.109   0.880  16.514  0.00  0.00     0.171 C 
ATOM      2  O8  OP0 d   1     -12.700   0.095  15.628  0.00  0.00    -0.284 OA
ATOM      3  N14 OP0 d   1     -14.420   1.249  16.599  0.00  0.00    -0.344 N 
ATOM      4  C2  OP0 d   1     -15.240   1.157  15.350  0.00  0.00     0.093 C 
ATOM      5  C7  OP0 d   1     -15.079   1.560  17.887  0.00  0.00     0.027 C 
ATOM      6  C6  OP0 d   1     -16.469   0.903  18.107  0.00  0.00     0.147 C 
ATOM      7  C5  OP0 d   1     -17.367   1.211  16.883  0.00  0.00    -0.032 C 
ATOM      8  C4  OP0 d   1     -16.719   0.774  15.547  0.00  0.00    -0.036 C 
ATOM      9  H1  OP0 d   1     -12.399   1.279  17.237  0.00  0.00     0.180 H 
ATOM     10  H2  OP0 d   1     -14.804   0.350  14.743  0.00  0.00     0.087 H 
ATOM     11  H4  OP0 d   1     -15.207   2.651  17.947  0.00  0.00     0.067 H 
ATOM     12  H5  OP0 d   1     -14.414   1.224  18.697  0.00  0.00     0.067 H 
ATOM     13  H6  OP0 d   1     -16.923   1.368  18.995  0.00  0.00     0.091 H 
ATOM     14  H7  OP0 d   1     -17.554   2.294  16.846  0.00  0.00     0.036 H 
ATOM     15  H8  OP0 d   1     -18.322   0.678  17.003  0.00  0.00     0.036 H 
ATOM     16  H9  OP0 d   1     -16.794  -0.322  15.481  0.00  0.00     0.036 H 
ATOM     17  H10 OP0 d   1     -17.296   1.231  14.729  0.00  0.00     0.036 H 
ENDROOT
BRANCH   4  18
ATOM     18  C3  OP0 d   1     -15.047   2.453  14.581  0.00  0.00     0.264 C 
ATOM     19  N15 OP0 d   1     -14.426   2.317  13.390  0.00  0.00    -0.233 N 
ATOM     20  H3  OP0 d   1     -14.141   1.410  13.081  0.00  0.00     0.197 HD
ATOM     21  O9  OP0 d   1     -15.424   3.538  15.033  0.00  0.00    -0.269 OA
BRANCH  19  22
ATOM     22  O24 OP0 d   1     -14.178   3.435  12.584  0.00  0.00    -0.276 OA
BRANCH  22  23
ATOM     23  C23 OP0 d   1     -15.119   3.603  11.478  0.00  0.00     0.068 C 
ATOM     24  H18 OP0 d   1     -14.652   4.206  10.685  0.00  0.00     0.080 H 
ATOM     25  H19 OP0 d   1     -15.394   2.617  11.075  0.00  0.00     0.080 H 
BRANCH  23  26
ATOM     26  C22 OP0 d   1     -16.388   4.323  12.000  0.00  0.00     0.101 C 
ATOM     27  H16 OP0 d   1     -17.032   4.569  11.143  0.00  0.00     0.078 H 
ATOM     28  H17 OP0 d   1     -16.925   3.644  12.679  0.00  0.00     0.078 H 
BRANCH  26  29
ATOM     29  N21 OP0 d   1     -16.078   5.553  12.719  0.00  0.00    -0.077 N 
ATOM     30  H13 OP0 d   1     -16.933   5.981  13.037  0.00  0.00     0.274 HD
ATOM     31  H14 OP0 d   1     -15.592   6.188  12.105  0.00  0.00     0.274 HD
ATOM     32  H15 OP0 d   1     -15.494   5.340  13.513  0.00  0.00     0.274 HD
ENDBRANCH  26  29
ENDBRANCH  23  26
ENDBRANCH  22  23
ENDBRANCH  19  22
ENDBRANCH   4  18
BRANCH   6  33
ATOM     33  N16 OP0 d   1     -16.406  -0.541  18.354  0.00  0.00     0.061 N 
ATOM     34  H11 OP0 d   1     -16.114  -1.005  17.508  0.00  0.00     0.316 HD
ATOM     35  H12 OP0 d   1     -17.323  -0.868  18.617  0.00  0.00     0.316 HD
BRANCH  33  36
ATOM     36  O10 OP0 d   1     -15.502  -0.853  19.377  0.00  0.00    -0.054 OA
BRANCH  36  37
ATOM     37  S17 OP0 d   1     -14.501  -2.029  19.230  0.00  0.00     0.279 S 
ATOM     38  O13 OP0 d   1     -13.704  -1.905  20.418  0.00  0.00    -0.571 OA
ATOM     39  O12 OP0 d   1     -13.786  -1.770  18.028  0.00  0.00    -0.571 OA
ATOM     40  O11 OP0 d   1     -15.361  -3.172  19.200  0.00  0.00    -0.571 OA
ENDBRANCH  36  37
ENDBRANCH  33  36
ENDBRANCH   6  33
TORSDOF 8
