REMARK  7 active torsions:
REMARK  status: ('A' for Active; 'I' for Inactive)
REMARK       I    between atoms: N14_3  and  C1_1 
REMARK    1  A    between atoms: C3_5  and  C2_4 
REMARK       I    between atoms: N15_6  and  C3_5 
REMARK    2  A    between atoms: O24_20  and  N15_6 
REMARK    3  A    between atoms: C6_9  and  N16_12 
REMARK    4  A    between atoms: N16_12  and  O10_14 
REMARK    5  A    between atoms: O10_14  and  S17_13 
REMARK    6  A    between atoms: C23_19  and  C22_18 
REMARK    7  A    between atoms: C23_19  and  O24_20 
ROOT
ATOM      1  C1  OP0 d   1      13.130   5.896   4.628  0.00  0.00     0.171 C 
ATOM      2  O8  OP0 d   1      11.984   6.331   4.849  0.00  0.00    -0.284 OA
ATOM      3  N14 OP0 d   1      14.244   6.500   5.125  0.00  0.00    -0.344 N 
ATOM      4  C2  OP0 d   1      14.050   7.725   5.937  0.00  0.00     0.093 C 
ATOM      5  C7  OP0 d   1      15.459   5.701   5.407  0.00  0.00     0.027 C 
ATOM      6  C6  OP0 d   1      15.341   5.210   6.875  0.00  0.00     0.147 C 
ATOM      7  C5  OP0 d   1      15.284   6.445   7.816  0.00  0.00    -0.032 C 
ATOM      8  C4  OP0 d   1      14.083   7.335   7.425  0.00  0.00    -0.036 C 
ATOM      9  H1  OP0 d   1      13.245   5.002   4.016  0.00  0.00     0.180 H 
ATOM     10  H2  OP0 d   1      13.051   8.124   5.707  0.00  0.00     0.087 H 
ATOM     11  H4  OP0 d   1      16.358   6.323   5.287  0.00  0.00     0.067 H 
ATOM     12  H5  OP0 d   1      15.514   4.841   4.723  0.00  0.00     0.067 H 
ATOM     13  H6  OP0 d   1      16.210   4.588   7.135  0.00  0.00     0.091 H 
ATOM     14  H7  OP0 d   1      16.215   7.023   7.720  0.00  0.00     0.036 H 
ATOM     15  H8  OP0 d   1      15.167   6.108   8.857  0.00  0.00     0.036 H 
ATOM     16  H9  OP0 d   1      13.157   6.789   7.660  0.00  0.00     0.036 H 
ATOM     17  H10 OP0 d   1      14.127   8.257   8.023  0.00  0.00     0.036 H 
ENDROOT
BRANCH   4  18
ATOM     18  C3  OP0 d   1      15.051   8.825   5.639  0.00  0.00     0.264 C 
ATOM     19  N15 OP0 d   1      14.799   9.985   6.278  0.00  0.00    -0.233 N 
ATOM     20  H3  OP0 d   1      13.992  10.076   6.862  0.00  0.00     0.197 HD
ATOM     21  O9  OP0 d   1      16.013   8.668   4.883  0.00  0.00    -0.269 OA
BRANCH  19  22
ATOM     22  O24 OP0 d   1      15.680  11.059   6.114  0.00  0.00    -0.278 OA
BRANCH  22  23
ATOM     23  C23 OP0 d   1      15.268  12.030   5.113  0.00  0.00     0.042 C 
ATOM     24  H16 OP0 d   1      16.150  12.456   4.613  0.00  0.00     0.077 H 
ATOM     25  H17 OP0 d   1      14.618  11.551   4.366  0.00  0.00     0.077 H 
BRANCH  23  26
ATOM     26  C22 OP0 d   1      14.494  13.137   5.858  0.00  0.00    -0.054 C 
ATOM     27  H13 OP0 d   1      14.160  13.899   5.138  0.00  0.00     0.030 H 
ATOM     28  H14 OP0 d   1      15.151  13.603   6.607  0.00  0.00     0.030 H 
ATOM     29  H15 OP0 d   1      13.619  12.698   6.360  0.00  0.00     0.030 H 
ENDBRANCH  23  26
ENDBRANCH  22  23
ENDBRANCH  19  22
ENDBRANCH   4  18
BRANCH   6  30
ATOM     30  N16 OP0 d   1      14.115   4.422   6.999  0.00  0.00     0.061 N 
ATOM     31  H11 OP0 d   1      14.129   3.688   6.309  0.00  0.00     0.316 HD
ATOM     32  H12 OP0 d   1      13.323   5.024   6.833  0.00  0.00     0.316 HD
BRANCH  30  33
ATOM     33  O10 OP0 d   1      13.986   3.844   8.272  0.00  0.00    -0.054 OA
BRANCH  33  34
ATOM     34  S17 OP0 d   1      12.530   3.613   8.718  0.00  0.00     0.279 S 
ATOM     35  O13 OP0 d   1      12.705   2.786   9.875  0.00  0.00    -0.571 OA
ATOM     36  O12 OP0 d   1      11.983   4.886   9.014  0.00  0.00    -0.571 OA
ATOM     37  O11 OP0 d   1      11.959   2.885   7.642  0.00  0.00    -0.571 OA
ENDBRANCH  33  34
ENDBRANCH  30  33
ENDBRANCH   6  30
TORSDOF 7
