REMARK  9 active torsions:
REMARK  status: ('A' for Active; 'I' for Inactive)
REMARK    1  A    between atoms: C2_6  and  C1_5 
REMARK    2  A    between atoms: N3_20  and  C2_6 
REMARK    3  A    between atoms: C6_11  and  C4_10 
REMARK       I    between atoms: C4_10  and  N3_20 
REMARK    4  A    between atoms: N12_21  and  C6_11 
REMARK    5  A    between atoms: C15_13  and  C13_12 
REMARK       I    between atoms: C13_12  and  N12_21 
REMARK    6  A    between atoms: C18_16  and  N21_22 
REMARK    7  A    between atoms: N12_30  and  C6_24 
REMARK       I    between atoms: C13_31  and  N12_30 
REMARK    8  A    between atoms: C15_33  and  C13_31 
REMARK    9  A    between atoms: C18_36  and  N21_39 
ROOT
ATOM      1  C11 Q3X A   1      15.537   6.013 -20.617  0.00  0.00    -0.033 C 
ATOM      2  C10 Q3X A   1      16.538   4.945 -21.135  0.00  0.00    -0.062 C 
ATOM      3  C9  Q3X A   1      16.536   3.734 -20.256  0.00  0.00    -0.065 C 
ATOM      4  C8  Q3X A   1      16.866   4.132 -18.782  0.00  0.00    -0.062 C 
ATOM      5  C7  Q3X A   1      15.971   5.223 -18.286  0.00  0.00    -0.033 C 
ATOM      6  C6  Q3X A   1      15.932   6.444 -19.196  0.00  0.00     0.114 C 
ATOM      7  H1  Q3X A   1      14.523   5.587 -20.602  0.00  0.00     0.037 H 
ATOM      8  H2  Q3X A   1      15.557   6.888 -21.284  0.00  0.00     0.037 H 
ATOM      9  H3  Q3X A   1      17.549   5.377 -21.149  0.00  0.00     0.033 H 
ATOM     10  H4  Q3X A   1      16.252   4.649 -22.155  0.00  0.00     0.033 H 
ATOM     11  H5  Q3X A   1      17.293   3.022 -20.617  0.00  0.00     0.033 H 
ATOM     12  H6  Q3X A   1      15.543   3.262 -20.291  0.00  0.00     0.033 H 
ATOM     13  H7  Q3X A   1      17.909   4.477 -18.732  0.00  0.00     0.033 H 
ATOM     14  H8  Q3X A   1      16.741   3.249 -18.138  0.00  0.00     0.033 H 
ATOM     15  H11 Q3X A   1      16.326   5.540 -17.294  0.00  0.00     0.037 H 
ATOM     16  H12 Q3X A   1      14.950   4.822 -18.199  0.00  0.00     0.037 H 
ENDROOT
BRANCH   6  17
ATOM     17  C4  Q3X A   1      14.962   7.426 -18.549  0.00  0.00     0.246 C 
ATOM     18  O5  Q3X A   1      15.328   8.061 -17.549  0.00  0.00    -0.271 OA
ATOM     19  N3  Q3X A   1      13.755   7.597 -19.084  0.00  0.00    -0.354 N 
ATOM     20  H16 Q3X A   1      13.481   7.052 -19.876  0.00  0.00     0.162 HD
BRANCH  19  21
ATOM     21  C2  Q3X A   1      12.797   8.608 -18.503  0.00  0.00     0.025 C 
ATOM     22  H9  Q3X A   1      13.391   9.434 -18.084  0.00  0.00     0.072 H 
ATOM     23  H10 Q3X A   1      12.168   8.987 -19.322  0.00  0.00     0.072 H 
BRANCH  21  24
ATOM     24  C1  Q3X A   1      11.890   8.101 -17.424  0.00  0.00    -0.010 C 
ATOM     25  N1  Q3X A   1      10.889   8.789 -16.840  0.00  0.00    -0.315 NA
ATOM     26  H38 Q3X A   1      10.333   8.356 -16.119  0.00  0.00     0.185 HD
ATOM     27  H37 Q3X A   1      12.055   7.081 -17.079  0.00  0.00     0.109 H 
ENDBRANCH  21  24
ENDBRANCH  19  21
ENDBRANCH   6  17
BRANCH   6  28
ATOM     28  N12 Q3X A   1      17.264   7.069 -19.188  0.00  0.00    -0.339 N 
ATOM     29  C13 Q3X A   1      17.497   8.254 -19.802  0.00  0.00     0.252 C 
ATOM     30  O14 Q3X A   1      16.613   8.821 -20.458  0.00  0.00    -0.268 OA
ATOM     31  H17 Q3X A   1      18.016   6.607 -18.718  0.00  0.00     0.164 HD
BRANCH  29  32
ATOM     32  C15 Q3X A   1      18.777   8.941 -19.500  0.00  0.00     0.035 A 
ATOM     33  C16 Q3X A   1      18.860  10.296 -19.764  0.00  0.00    -0.028 A 
ATOM     34  C17 Q3X A   1      19.996  10.957 -19.412  0.00  0.00     0.143 A 
ATOM     35  H13 Q3X A   1      18.039  10.819 -20.240  0.00  0.00     0.089 H 
ATOM     36  C18 Q3X A   1      21.087  10.355 -18.821  0.00  0.00     0.064 A 
ATOM     37  F22 Q3X A   1      20.073  12.309 -19.657  0.00  0.00    -0.204 F 
ATOM     38  C19 Q3X A   1      21.038   8.978 -18.606  0.00  0.00    -0.054 A 
ATOM     39  C20 Q3X A   1      19.883   8.276 -18.938  0.00  0.00    -0.065 A 
ATOM     40  H14 Q3X A   1      21.891   8.459 -18.184  0.00  0.00     0.087 H 
ATOM     41  H15 Q3X A   1      19.835   7.207 -18.762  0.00  0.00     0.085 H 
BRANCH  36  42
ATOM     42  N21 Q3X A   1      22.228  11.117 -18.442  0.00  0.00    -0.397 N 
ATOM     43  H18 Q3X A   1      22.247  12.133 -18.608  0.00  0.00     0.156 HD
ATOM     44  H19 Q3X A   1      23.035  10.652 -18.001  0.00  0.00     0.156 HD
ENDBRANCH  36  42
ENDBRANCH  29  32
ENDBRANCH   6  28
TORSDOF 9
