REMARK  5 active torsions:
REMARK  status: ('A' for Active; 'I' for Inactive)
REMARK    1  A    between atoms: N3_14  and  C2_2 
REMARK    2  A    between atoms: C6_4  and  C4_3 
REMARK       I    between atoms: C4_3  and  N3_14 
REMARK    3  A    between atoms: N12_17  and  C6_4 
REMARK    4  A    between atoms: C13_9  and  C15_10 
REMARK       I    between atoms: C13_9  and  N12_17 
REMARK    5  A    between atoms: C16_11  and  N21_22 
ROOT
ATOM      1  C1  3Y1 d   1      13.341  10.150 -19.133  0.00  0.00     0.078 C 
ATOM      2  C2  3Y1 d   1      13.086   8.735 -18.981  0.00  0.00     0.074 C 
ATOM      3  N1  3Y1 d   1      13.573  11.269 -19.218  0.00  0.00    -0.196 NA
ATOM      4  H1  3Y1 d   1      12.138   8.500 -19.487  0.00  0.00     0.086 H 
ATOM      5  H2  3Y1 d   1      12.993   8.516 -17.907  0.00  0.00     0.086 H 
ENDROOT
BRANCH   2   6
ATOM      6  N3  3Y1 d   1      14.111   7.883 -19.527  0.00  0.00    -0.347 N 
ATOM      7  C4  3Y1 d   1      15.285   7.642 -18.935  0.00  0.00     0.246 C 
ATOM      8  O5  3Y1 d   1      15.576   8.217 -17.878  0.00  0.00    -0.271 OA
ATOM      9  H12 3Y1 d   1      13.933   7.443 -20.407  0.00  0.00     0.163 HD
BRANCH   7  10
ATOM     10  C6  3Y1 d   1      16.208   6.571 -19.551  0.00  0.00     0.114 C 
ATOM     11  C11 3Y1 d   1      15.836   6.135 -20.989  0.00  0.00    -0.033 C 
ATOM     12  C10 3Y1 d   1      16.743   4.976 -21.478  0.00  0.00    -0.062 C 
ATOM     13  H9  3Y1 d   1      15.955   6.994 -21.666  0.00  0.00     0.037 H 
ATOM     14  H10 3Y1 d   1      14.788   5.800 -21.002  0.00  0.00     0.037 H 
ATOM     15  C9  3Y1 d   1      16.532   3.767 -20.563  0.00  0.00    -0.065 C 
ATOM     16  H7  3Y1 d   1      16.477   4.709 -22.511  0.00  0.00     0.033 H 
ATOM     17  H8  3Y1 d   1      17.797   5.290 -21.440  0.00  0.00     0.033 H 
ATOM     18  C8  3Y1 d   1      16.833   4.099 -19.103  0.00  0.00    -0.062 C 
ATOM     19  H5  3Y1 d   1      15.486   3.438 -20.645  0.00  0.00     0.033 H 
ATOM     20  H6  3Y1 d   1      17.199   2.954 -20.888  0.00  0.00     0.033 H 
ATOM     21  C7  3Y1 d   1      16.052   5.351 -18.637  0.00  0.00    -0.033 C 
ATOM     22  H3  3Y1 d   1      17.911   4.288 -18.994  0.00  0.00     0.033 H 
ATOM     23  H4  3Y1 d   1      16.545   3.243 -18.475  0.00  0.00     0.033 H 
ATOM     24  H13 3Y1 d   1      14.984   5.092 -18.588  0.00  0.00     0.037 H 
ATOM     25  H14 3Y1 d   1      16.409   5.625 -17.633  0.00  0.00     0.037 H 
BRANCH  10  26
ATOM     26  N12 3Y1 d   1      17.602   7.035 -19.568  0.00  0.00    -0.339 N 
ATOM     27  C13 3Y1 d   1      17.983   8.222 -20.133  0.00  0.00     0.254 C 
ATOM     28  O14 3Y1 d   1      17.190   8.950 -20.788  0.00  0.00    -0.268 OA
ATOM     29  H15 3Y1 d   1      18.303   6.458 -19.148  0.00  0.00     0.164 HD
BRANCH  27  30
ATOM     30  C15 3Y1 d   1      19.279   8.730 -19.576  0.00  0.00     0.058 A 
ATOM     31  C16 3Y1 d   1      19.530  10.091 -19.498  0.00  0.00     0.042 A 
ATOM     32  C17 3Y1 d   1      20.658  10.542 -18.850  0.00  0.00    -0.040 A 
ATOM     33  C18 3Y1 d   1      21.528   9.641 -18.246  0.00  0.00     0.013 A 
ATOM     34  H16 3Y1 d   1      20.869  11.605 -18.811  0.00  0.00     0.089 H 
ATOM     35  C19 3Y1 d   1      21.319   8.269 -18.302  0.00  0.00    -0.065 A 
ATOM     36 BR2  3Y1 d   1      23.014  10.388 -17.323  0.00  0.00    -0.051 Br
ATOM     37  C20 3Y1 d   1      20.180   7.817 -18.973  0.00  0.00    -0.064 A 
ATOM     38  H17 3Y1 d   1      22.014   7.575 -17.842  0.00  0.00     0.085 H 
ATOM     39  H11 3Y1 d   1      19.983   6.753 -19.033  0.00  0.00     0.085 H 
BRANCH  31  40
ATOM     40  N21 3Y1 d   1      18.704  11.138 -20.075  0.00  0.00    -0.398 N 
ATOM     41  H18 3Y1 d   1      17.840  10.893 -20.579  0.00  0.00     0.156 HD
ATOM     42  H19 3Y1 d   1      18.983  12.125 -19.980  0.00  0.00     0.156 HD
ENDBRANCH  31  40
ENDBRANCH  27  30
ENDBRANCH  10  26
ENDBRANCH   7  10
ENDBRANCH   2   6
TORSDOF 5
