REMARK  6 active torsions:
REMARK  status: ('A' for Active; 'I' for Inactive)
REMARK    1  A    between atoms: C2_2  and  C1_1 
REMARK    2  A    between atoms: N3_11  and  C2_2 
REMARK    3  A    between atoms: C4_3  and  C6_4 
REMARK       I    between atoms: C4_3  and  N3_11 
REMARK    4  A    between atoms: C6_4  and  N12_14 
REMARK       I    between atoms: N12_14  and  C13_10 
REMARK    5  A    between atoms: C13_10  and  C15_16 
REMARK    6  A    between atoms: C16_17  and  N21_22 
ROOT
ATOM      1  C6  3Y2 d   1      51.226  20.025  14.778  0.00  0.00     0.114 C 
ATOM      2  C7  3Y2 d   1      51.415  18.497  14.960  0.00  0.00    -0.033 C 
ATOM      3  C8  3Y2 d   1      52.653  18.078  15.796  0.00  0.00    -0.062 C 
ATOM      4  C9  3Y2 d   1      53.838  18.969  15.445  0.00  0.00    -0.065 C 
ATOM      5  C10 3Y2 d   1      53.541  20.483  15.464  0.00  0.00    -0.062 C 
ATOM      6  C11 3Y2 d   1      52.547  20.657  14.354  0.00  0.00    -0.033 C 
ATOM      7  H4  3Y2 d   1      51.510  18.045  13.962  0.00  0.00     0.037 H 
ATOM      8  H5  3Y2 d   1      50.518  18.100  15.458  0.00  0.00     0.037 H 
ATOM      9  H6  3Y2 d   1      52.906  17.030  15.575  0.00  0.00     0.033 H 
ATOM     10  H7  3Y2 d   1      52.423  18.181  16.867  0.00  0.00     0.033 H 
ATOM     11  H8  3Y2 d   1      54.180  18.701  14.434  0.00  0.00     0.033 H 
ATOM     12  H9  3Y2 d   1      54.642  18.770  16.169  0.00  0.00     0.033 H 
ATOM     13  H10 3Y2 d   1      54.454  21.066  15.270  0.00  0.00     0.033 H 
ATOM     14  H11 3Y2 d   1      53.110  20.787  16.429  0.00  0.00     0.033 H 
ATOM     15  H12 3Y2 d   1      52.398  21.729  14.155  0.00  0.00     0.037 H 
ATOM     16  H13 3Y2 d   1      52.918  20.163  13.444  0.00  0.00     0.037 H 
ENDROOT
BRANCH   1  17
ATOM     17  C4  3Y2 d   1      50.111  20.286  13.804  0.00  0.00     0.246 C 
ATOM     18  N3  3Y2 d   1      50.376  20.558  12.484  0.00  0.00    -0.354 N 
ATOM     19  H14 3Y2 d   1      51.324  20.649  12.180  0.00  0.00     0.162 HD
ATOM     20  O5  3Y2 d   1      48.952  20.248  14.177  0.00  0.00    -0.271 OA
BRANCH  18  21
ATOM     21  C2  3Y2 d   1      49.291  20.717  11.517  0.00  0.00     0.025 C 
ATOM     22  H2  3Y2 d   1      48.445  21.175  12.050  0.00  0.00     0.072 H 
ATOM     23  H3  3Y2 d   1      49.649  21.405  10.737  0.00  0.00     0.072 H 
BRANCH  21  24
ATOM     24  C1  3Y2 d   1      48.758  19.474  10.811  0.00  0.00    -0.010 C 
ATOM     25  N1  3Y2 d   1      48.032  19.691   9.779  0.00  0.00    -0.315 NA
ATOM     26  H15 3Y2 d   1      47.646  18.916   9.263  0.00  0.00     0.185 HD
ATOM     27  H1  3Y2 d   1      48.981  18.468  11.162  0.00  0.00     0.109 H 
ENDBRANCH  21  24
ENDBRANCH  18  21
ENDBRANCH   1  17
BRANCH   1  28
ATOM     28  N12 3Y2 d   1      50.803  20.592  16.030  0.00  0.00    -0.339 N 
ATOM     29  C13 3Y2 d   1      50.507  21.912  16.164  0.00  0.00     0.254 C 
ATOM     30  O14 3Y2 d   1      50.613  22.760  15.236  0.00  0.00    -0.268 OA
ATOM     31  H16 3Y2 d   1      50.724  19.995  16.829  0.00  0.00     0.164 HD
BRANCH  29  32
ATOM     32  C15 3Y2 d   1      49.790  22.280  17.400  0.00  0.00     0.058 A 
ATOM     33  C16 3Y2 d   1      48.887  23.331  17.478  0.00  0.00     0.043 A 
ATOM     34  C17 3Y2 d   1      48.128  23.550  18.623  0.00  0.00    -0.036 A 
ATOM     35  C18 3Y2 d   1      48.263  22.685  19.676  0.00  0.00     0.036 A 
ATOM     36  H17 3Y2 d   1      47.443  24.389  18.681  0.00  0.00     0.089 H 
ATOM     37  C19 3Y2 d   1      49.151  21.644  19.622  0.00  0.00    -0.061 A 
ATOM     38 CL2  3Y2 d   1      47.301  22.874  21.171  0.00  0.00    -0.084 Cl
ATOM     39  C20 3Y2 d   1      49.879  21.427  18.464  0.00  0.00    -0.064 A 
ATOM     40  H18 3Y2 d   1      49.283  20.994  20.480  0.00  0.00     0.086 H 
ATOM     41  H19 3Y2 d   1      50.532  20.564  18.400  0.00  0.00     0.085 H 
BRANCH  33  42
ATOM     42  N21 3Y2 d   1      48.687  24.294  16.427  0.00  0.00    -0.398 N 
ATOM     43  H20 3Y2 d   1      49.209  24.208  15.543  0.00  0.00     0.156 HD
ATOM     44  H21 3Y2 d   1      48.022  25.069  16.559  0.00  0.00     0.156 HD
ENDBRANCH  33  42
ENDBRANCH  29  32
ENDBRANCH   1  28
TORSDOF 6
