REMARK  5 active torsions:
REMARK  status: ('A' for Active; 'I' for Inactive)
REMARK    1  A    between atoms: CAA_1  and  CAJ_2 
REMARK       I    between atoms: CAJ_2  and  NAH_4 
REMARK    2  A    between atoms: NAH_4  and  CAO_5 
REMARK    3  A    between atoms: CAN_8  and  CAK_9 
REMARK    4  A    between atoms: CAL_12  and  OAE_13 
REMARK    5  A    between atoms: CAM_14  and  OAF_15 
ROOT
ATOM      1  CAO 3XR d   1      38.989  13.148 -14.967  0.00  0.00     0.195 C 
ATOM      2  NAI 3XR d   1      40.478  13.323 -14.911  0.00  0.00    -0.051 N 
ATOM      3  CAG 3XR d   1      40.871  13.423 -16.327  0.00  0.00     0.099 C 
ATOM      4  CAN 3XR d   1      40.641  12.060 -17.022  0.00  0.00     0.081 C 
ATOM      5  CAL 3XR d   1      39.106  11.892 -17.097  0.00  0.00     0.078 C 
ATOM      6  CAM 3XR d   1      38.623  11.869 -15.652  0.00  0.00     0.105 C 
ATOM      7  H5  3XR d   1      38.498  14.004 -15.453  0.00  0.00     0.122 H 
ATOM      8  H6  3XR d   1      40.917  12.529 -14.471  0.00  0.00     0.279 HD
ATOM      9  H7  3XR d   1      40.723  14.163 -14.410  0.00  0.00     0.279 HD
ATOM     10  H8  3XR d   1      41.935  13.694 -16.394  0.00  0.00     0.077 H 
ATOM     11  H9  3XR d   1      40.264  14.195 -16.823  0.00  0.00     0.077 H 
ATOM     12  H10 3XR d   1      41.041  11.277 -16.361  0.00  0.00     0.063 H 
ATOM     13  H11 3XR d   1      38.846  10.951 -17.603  0.00  0.00     0.088 H 
ATOM     14  H13 3XR d   1      39.142  11.050 -15.132  0.00  0.00     0.092 H 
ENDROOT
BRANCH   1  15
ATOM     15  NAH 3XR d   1      38.632  13.024 -13.618  0.00  0.00    -0.332 N 
ATOM     16  CAJ 3XR d   1      38.034  13.987 -13.003  0.00  0.00     0.215 C 
ATOM     17  OAB 3XR d   1      37.887  15.102 -13.498  0.00  0.00    -0.274 OA
ATOM     18  H4  3XR d   1      38.843  12.179 -13.126  0.00  0.00     0.164 HD
BRANCH  16  19
ATOM     19  CAA 3XR d   1      37.658  13.658 -11.591  0.00  0.00    -0.003 C 
ATOM     20  H1  3XR d   1      37.885  12.601 -11.388  0.00  0.00     0.040 H 
ATOM     21  H2  3XR d   1      36.582  13.836 -11.447  0.00  0.00     0.040 H 
ATOM     22  H3  3XR d   1      38.230  14.295 -10.901  0.00  0.00     0.040 H 
ENDBRANCH  16  19
ENDBRANCH   1  15
BRANCH   6  23
ATOM     23  OAF 3XR d   1      37.222  11.600 -15.590  0.00  0.00    -0.389 OA
ATOM     24  H14 3XR d   1      36.943  11.590 -14.682  0.00  0.00     0.210 HD
ENDBRANCH   6  23
BRANCH   5  25
ATOM     25  OAE 3XR d   1      38.540  12.964 -17.787  0.00  0.00    -0.392 OA
ATOM     26  H12 3XR d   1      37.598  12.851 -17.827  0.00  0.00     0.210 HD
ENDBRANCH   5  25
BRANCH   4  27
ATOM     27  CAK 3XR d   1      41.333  11.868 -18.378  0.00  0.00     0.181 C 
ATOM     28  OAD 3XR d   1      40.660  11.341 -19.319  0.00  0.00    -0.648 OA
ATOM     29  OAC 3XR d   1      42.591  12.180 -18.456  0.00  0.00    -0.648 OA
ENDBRANCH   4  27
TORSDOF 5
