REMARK  9 active torsions:
REMARK  status: ('A' for Active; 'I' for Inactive)
REMARK    1  A    between atoms: C13_2  and  C15_6 
REMARK    2  A    between atoms: N1_15  and  C2_16 
REMARK       I    between atoms: C31_32  and  N1_15 
REMARK    3  A    between atoms: C2_16  and  C3_17 
REMARK    4  A    between atoms: C2_16  and  C4_18 
REMARK    5  A    between atoms: C4_18  and  C5_19 
REMARK    6  A    between atoms: C29_30  and  C25_26 
REMARK    7  A    between atoms: C26_27  and  N27_28 
REMARK    8  A    between atoms: C30_31  and  C31_32 
REMARK    9  A    between atoms: C39_39  and  N40_40 
ROOT
ATOM      1  C2  3YU d   1      12.348  19.915 -39.376  0.00  0.00     0.073 C 
ATOM      2  H10 3YU d   1      12.230  20.145 -38.307  0.00  0.00     0.085 H 
ENDROOT
BRANCH   1   3
ATOM      3  N1  3YU d   1      13.724  19.449 -39.549  0.00  0.00    -0.346 N 
ATOM      4  C31 3YU d   1      14.251  18.612 -38.631  0.00  0.00     0.241 C 
ATOM      5  O32 3YU d   1      13.570  18.155 -37.711  0.00  0.00    -0.269 OA
ATOM      6  H9  3YU d   1      14.266  19.746 -40.335  0.00  0.00     0.163 HD
BRANCH   4   7
ATOM      7  C30 3YU d   1      15.665  18.219 -38.835  0.00  0.00    -0.017 C 
ATOM      8  C29 3YU d   1      16.473  18.475 -39.862  0.00  0.00    -0.066 C 
ATOM      9  H19 3YU d   1      16.071  19.042 -40.700  0.00  0.00     0.085 H 
ATOM     10  H20 3YU d   1      16.108  17.637 -38.028  0.00  0.00     0.092 H 
BRANCH   8  11
ATOM     11  C25 3YU d   1      17.877  18.038 -39.934  0.00  0.00    -0.005 A 
ATOM     12  C24 3YU d   1      18.734  18.505 -38.930  0.00  0.00    -0.050 A 
ATOM     13  C23 3YU d   1      20.063  18.134 -38.933  0.00  0.00     0.035 A 
ATOM     14  H6  3YU d   1      18.354  19.157 -38.152  0.00  0.00     0.087 H 
ATOM     15  C22 3YU d   1      20.577  17.309 -39.913  0.00  0.00    -0.060 A 
ATOM     16 CL1  3YU d   1      21.117  18.752 -37.690  0.00  0.00    -0.084 Cl
ATOM     17  C21 3YU d   1      19.743  16.860 -40.928  0.00  0.00    -0.053 A 
ATOM     18  H5  3YU d   1      21.620  17.015 -39.890  0.00  0.00     0.086 H 
ATOM     19  C26 3YU d   1      18.390  17.194 -40.940  0.00  0.00     0.071 A 
ATOM     20  H4  3YU d   1      20.149  16.242 -41.721  0.00  0.00     0.087 H 
BRANCH  19  21
ATOM     21  N27 3YU d   1      17.599  16.856 -42.078  0.00  0.00    -0.205 N 
ATOM     22  C33 3YU d   1      17.847  16.860 -43.398  0.00  0.00     0.113 A 
ATOM     23  N34 3YU d   1      16.829  16.369 -44.048  0.00  0.00    -0.122 NA
ATOM     24  H8  3YU d   1      18.765  17.221 -43.859  0.00  0.00     0.149 H 
ATOM     25  N35 3YU d   1      15.928  16.019 -43.095  0.00  0.00    -0.023 NA
ATOM     26  N36 3YU d   1      16.377  16.291 -41.908  0.00  0.00    -0.040 NA
ENDBRANCH  19  21
ENDBRANCH   8  11
ENDBRANCH   4   7
ENDBRANCH   1   3
BRANCH   1  27
ATOM     27  C3  3YU d   1      11.314  18.876 -39.703  0.00  0.00     0.128 A 
ATOM     28  N14 3YU d   1      10.464  18.392 -38.812  0.00  0.00    -0.231 NA
ATOM     29  C13 3YU d   1       9.658  17.495 -39.492  0.00  0.00     0.084 A 
ATOM     30  C12 3YU d   1      10.051  17.442 -40.795  0.00  0.00     0.007 A 
ATOM     31  N11 3YU d   1      11.085  18.328 -40.918  0.00  0.00    -0.350 N 
ATOM     32  H7  3YU d   1       9.627  16.819 -41.581  0.00  0.00     0.115 H 
ATOM     33  H18 3YU d   1      11.600  18.541 -41.785  0.00  0.00     0.166 HD
BRANCH  29  34
ATOM     34  C15 3YU d   1       8.623  16.733 -38.768  0.00  0.00    -0.004 A 
ATOM     35  C16 3YU d   1       8.067  15.587 -39.337  0.00  0.00    -0.043 A 
ATOM     36  C17 3YU d   1       6.977  14.982 -38.717  0.00  0.00     0.065 A 
ATOM     37  H1  3YU d   1       8.478  15.173 -40.250  0.00  0.00     0.088 H 
ATOM     38  C18 3YU d   1       6.405  15.514 -37.545  0.00  0.00     0.039 A 
ATOM     39  N37 3YU d   1       6.256  13.879 -39.036  0.00  0.00    -0.275 N 
ATOM     40  C19 3YU d   1       6.997  16.638 -36.970  0.00  0.00    -0.066 A 
ATOM     41  C39 3YU d   1       5.259  14.641 -37.241  0.00  0.00     0.153 A 
ATOM     42  C20 3YU d   1       8.089  17.233 -37.575  0.00  0.00    -0.070 A 
ATOM     43  H2  3YU d   1       6.601  17.046 -36.047  0.00  0.00     0.085 H 
ATOM     44  H3  3YU d   1       8.541  18.105 -37.116  0.00  0.00     0.084 H 
ATOM     45  N38 3YU d   1       5.225  13.676 -38.161  0.00  0.00    -0.156 NA
ATOM     46  H21 3YU d   1       6.460  13.268 -39.840  0.00  0.00     0.189 HD
BRANCH  41  47
ATOM     47  N40 3YU d   1       4.345  14.723 -36.255  0.00  0.00    -0.382 N 
ATOM     48  H22 3YU d   1       3.597  14.018 -36.186  0.00  0.00     0.157 HD
ATOM     49  H23 3YU d   1       4.394  15.491 -35.570  0.00  0.00     0.157 HD
ENDBRANCH  41  47
ENDBRANCH  29  34
ENDBRANCH   1  27
BRANCH   1  50
ATOM     50  C4  3YU d   1      12.095  21.227 -40.144  0.00  0.00    -0.015 C 
ATOM     51  H11 3YU d   1      12.136  21.012 -41.222  0.00  0.00     0.043 H 
ATOM     52  H12 3YU d   1      12.889  21.942 -39.882  0.00  0.00     0.043 H 
BRANCH  50  53
ATOM     53  C5  3YU d   1      10.759  21.864 -39.835  0.00  0.00    -0.056 A 
ATOM     54  C6  3YU d   1      10.038  22.501 -40.837  0.00  0.00    -0.077 A 
ATOM     55  C7  3YU d   1       8.817  23.092 -40.559  0.00  0.00    -0.082 A 
ATOM     56  H13 3YU d   1      10.435  22.536 -41.845  0.00  0.00     0.084 H 
ATOM     57  C8  3YU d   1       8.302  23.067 -39.277  0.00  0.00    -0.083 A 
ATOM     58  H14 3YU d   1       8.261  23.578 -41.353  0.00  0.00     0.083 H 
ATOM     59  C9  3YU d   1       9.004  22.440 -38.272  0.00  0.00    -0.082 A 
ATOM     60  H15 3YU d   1       7.350  23.539 -39.063  0.00  0.00     0.083 H 
ATOM     61  C10 3YU d   1      10.224  21.843 -38.547  0.00  0.00    -0.077 A 
ATOM     62  H16 3YU d   1       8.602  22.413 -37.266  0.00  0.00     0.083 H 
ATOM     63  H17 3YU d   1      10.771  21.353 -37.750  0.00  0.00     0.084 H 
ENDBRANCH  50  53
ENDBRANCH   1  50
TORSDOF 9
