REMARK  8 active torsions:
REMARK  status: ('A' for Active; 'I' for Inactive)
REMARK    1  A    between atoms: C21_25  and  C23_15 
REMARK    2  A    between atoms: C22_26  and  C29_16 
REMARK    3  A    between atoms: C16_29  and  C13_17 
REMARK    4  A    between atoms: C10_18  and  O9_36 
REMARK    5  A    between atoms: C17_30  and  C18_19 
REMARK       I    between atoms: N5_31  and  C3_20 
REMARK       I    between atoms: C3_20  and  N2_32 
REMARK    6  A    between atoms: N2_32  and  C20_27 
REMARK    7  A    between atoms: O9_36  and  C4_28 
REMARK    8  A    between atoms: C16_29  and  C17_30 
ROOT
ATOM      1  C3  S74 d   1      -3.604   4.209  31.823  0.00  0.00     0.318 C 
ATOM      2  C1  S74 d   1      -3.526   1.329  34.089  0.00  0.00    -0.025 C 
ATOM      3  C19 S74 d   1      -1.318   1.413  33.025  0.00  0.00    -0.025 C 
ATOM      4  C6  S74 d   1      -3.768   2.770  33.752  0.00  0.00     0.002 C 
ATOM      5  C8  S74 d   1      -1.680   2.773  32.467  0.00  0.00     0.002 C 
ATOM      6  C4  S74 d   1      -2.053   1.061  34.299  0.00  0.00     0.048 C 
ATOM      7  N5  S74 d   1      -3.072   3.152  32.551  0.00  0.00    -0.334 N 
ATOM      8  N2  S74 d   1      -2.734   4.991  31.090  0.00  0.00    -0.337 N 
ATOM      9  O7  S74 d   1      -4.804   4.444  31.838  0.00  0.00    -0.247 OA
ATOM     10  H15 S74 d   1      -3.892   0.700  33.264  0.00  0.00     0.039 H 
ATOM     11  H16 S74 d   1      -4.072   1.079  35.011  0.00  0.00     0.039 H 
ATOM     12  H17 S74 d   1      -0.238   1.400  33.233  0.00  0.00     0.039 H 
ATOM     13  H18 S74 d   1      -1.555   0.652  32.266  0.00  0.00     0.039 H 
ATOM     14  H19 S74 d   1      -3.416   3.397  34.585  0.00  0.00     0.064 H 
ATOM     15  H20 S74 d   1      -4.847   2.927  33.606  0.00  0.00     0.064 H 
ATOM     16  H21 S74 d   1      -1.393   2.786  31.405  0.00  0.00     0.064 H 
ATOM     17  H22 S74 d   1      -1.095   3.526  33.015  0.00  0.00     0.064 H 
ATOM     18  H26 S74 d   1      -1.907  -0.002  34.542  0.00  0.00     0.084 H 
ATOM     19  H31 S74 d   1      -1.774   4.722  31.014  0.00  0.00     0.164 HD
ENDROOT
BRANCH   8  20
ATOM     20  C20 S74 d   1      -3.185   6.175  30.441  0.00  0.00     0.030 A 
ATOM     21  C21 S74 d   1      -3.399   6.221  28.955  0.00  0.00     0.001 A 
ATOM     22  C22 S74 d   1      -2.224   6.917  29.574  0.00  0.00     0.001 A 
ATOM     23  H23 S74 d   1      -3.243   5.309  28.360  0.00  0.00     0.051 H 
ATOM     24  H24 S74 d   1      -1.222   6.505  29.384  0.00  0.00     0.051 H 
ATOM     25  H25 S74 d   1      -3.873   6.719  31.105  0.00  0.00     0.074 H 
BRANCH  21  26
ATOM     26  C23 S74 d   1      -4.489   7.002  28.352  0.00  0.00    -0.051 A 
ATOM     27  C24 S74 d   1      -5.595   7.427  29.052  0.00  0.00    -0.076 A 
ATOM     28  C25 S74 d   1      -6.589   8.158  28.439  0.00  0.00    -0.082 A 
ATOM     29  H7  S74 d   1      -5.686   7.182  30.104  0.00  0.00     0.084 H 
ATOM     30  C26 S74 d   1      -6.497   8.476  27.106  0.00  0.00    -0.083 A 
ATOM     31  H3  S74 d   1      -7.449   8.484  29.012  0.00  0.00     0.083 H 
ATOM     32  C27 S74 d   1      -5.401   8.058  26.391  0.00  0.00    -0.082 A 
ATOM     33  H1  S74 d   1      -7.280   9.050  26.624  0.00  0.00     0.083 H 
ATOM     34  C28 S74 d   1      -4.414   7.329  27.015  0.00  0.00    -0.076 A 
ATOM     35  H4  S74 d   1      -5.314   8.302  25.338  0.00  0.00     0.083 H 
ATOM     36  H8  S74 d   1      -3.555   7.003  26.440  0.00  0.00     0.084 H 
ENDBRANCH  21  26
BRANCH  22  37
ATOM     37  C29 S74 d   1      -2.100   8.375  29.752  0.00  0.00    -0.051 A 
ATOM     38  C30 S74 d   1      -2.169   9.243  28.683  0.00  0.00    -0.076 A 
ATOM     39  C31 S74 d   1      -2.041  10.603  28.848  0.00  0.00    -0.082 A 
ATOM     40  H9  S74 d   1      -2.328   8.844  27.688  0.00  0.00     0.084 H 
ATOM     41  C32 S74 d   1      -1.831  11.125  30.102  0.00  0.00    -0.083 A 
ATOM     42  H5  S74 d   1      -2.106  11.262  27.990  0.00  0.00     0.083 H 
ATOM     43  C33 S74 d   1      -1.747  10.272  31.178  0.00  0.00    -0.082 A 
ATOM     44  H2  S74 d   1      -1.733  12.195  30.241  0.00  0.00     0.083 H 
ATOM     45  C34 S74 d   1      -1.884   8.912  31.003  0.00  0.00    -0.076 A 
ATOM     46  H6  S74 d   1      -1.572  10.672  32.170  0.00  0.00     0.083 H 
ATOM     47  H10 S74 d   1      -1.821   8.254  31.862  0.00  0.00     0.084 H 
ENDBRANCH  22  37
ENDBRANCH   8  20
BRANCH   6  48
ATOM     48  O9  S74 d   1      -1.511   1.868  35.341  0.00  0.00    -0.346 OA
BRANCH  48  49
ATOM     49  C10 S74 d   1      -1.684   1.350  36.630  0.00  0.00     0.069 A 
ATOM     50  C11 S74 d   1      -2.497   0.287  36.979  0.00  0.00    -0.050 A 
ATOM     51  C12 S74 d   1      -2.576  -0.118  38.294  0.00  0.00    -0.074 A 
ATOM     52  H13 S74 d   1      -3.072  -0.228  36.218  0.00  0.00     0.087 H 
ATOM     53  C13 S74 d   1      -1.855   0.530  39.273  0.00  0.00    -0.058 A 
ATOM     54  H11 S74 d   1      -3.212  -0.955  38.561  0.00  0.00     0.084 H 
ATOM     55  C14 S74 d   1      -1.052   1.587  38.926  0.00  0.00    -0.074 A 
ATOM     56  C15 S74 d   1      -0.969   1.992  37.613  0.00  0.00    -0.050 A 
ATOM     57  H12 S74 d   1      -0.481   2.105  39.688  0.00  0.00     0.084 H 
ATOM     58  H14 S74 d   1      -0.331   2.828  37.351  0.00  0.00     0.087 H 
BRANCH  53  59
ATOM     59  C16 S74 d   1      -1.935   0.094  40.698  0.00  0.00    -0.032 C 
ATOM     60  H27 S74 d   1      -1.292   0.739  41.315  0.00  0.00     0.040 H 
ATOM     61  H28 S74 d   1      -1.597  -0.949  40.782  0.00  0.00     0.040 H 
BRANCH  59  62
ATOM     62  C17 S74 d   1      -3.365   0.200  41.179  0.00  0.00     0.019 C 
ATOM     63  H29 S74 d   1      -3.786   1.191  40.953  0.00  0.00     0.049 H 
ATOM     64  H30 S74 d   1      -3.994  -0.578  40.723  0.00  0.00     0.049 H 
BRANCH  62  65
ATOM     65  C18 S74 d   1      -3.236  -0.010  42.677  0.00  0.00     0.172 C 
ATOM     66  O36 S74 d   1      -2.736  -1.110  43.045  0.00  0.00    -0.648 OA
ATOM     67  O35 S74 d   1      -3.666   0.946  43.375  0.00  0.00    -0.648 OA
ENDBRANCH  62  65
ENDBRANCH  59  62
ENDBRANCH  53  59
ENDBRANCH  48  49
ENDBRANCH   6  48
TORSDOF 8
