REMARK  4 active torsions:
REMARK  status: ('A' for Active; 'I' for Inactive)
REMARK    1  A    between atoms: C2_19  and  C10_11 
REMARK    2  A    between atoms: O19_25  and  C20_12 
REMARK       I    between atoms: N8_22  and  C6_13 
REMARK       I    between atoms: C6_13  and  N5_23 
REMARK    3  A    between atoms: N5_23  and  C1_20 
REMARK    4  A    between atoms: C7_21  and  O19_25 
ROOT
ATOM      1  C6  S94 d   1      -3.581   4.779  31.081  0.00  0.00     0.318 C 
ATOM      2  C4  S94 d   1      -4.053   2.208  33.477  0.00  0.00    -0.025 C 
ATOM      3  C12 S94 d   1      -1.834   1.901  32.531  0.00  0.00    -0.025 C 
ATOM      4  C9  S94 d   1      -3.951   3.701  33.258  0.00  0.00     0.002 C 
ATOM      5  C13 S94 d   1      -1.801   3.371  32.167  0.00  0.00     0.002 C 
ATOM      6  C7  S94 d   1      -2.697   1.596  33.730  0.00  0.00     0.048 C 
ATOM      7  N8  S94 d   1      -3.106   3.997  32.132  0.00  0.00    -0.334 N 
ATOM      8  N5  S94 d   1      -2.672   5.393  30.267  0.00  0.00    -0.338 N 
ATOM      9  O11 S94 d   1      -4.765   4.955  30.849  0.00  0.00    -0.247 OA
ATOM     10  H11 S94 d   1      -4.494   1.744  32.582  0.00  0.00     0.039 H 
ATOM     11  H12 S94 d   1      -4.700   2.017  34.346  0.00  0.00     0.039 H 
ATOM     12  H13 S94 d   1      -0.807   1.573  32.749  0.00  0.00     0.039 H 
ATOM     13  H14 S94 d   1      -2.223   1.338  31.670  0.00  0.00     0.039 H 
ATOM     14  H17 S94 d   1      -3.528   4.169  34.159  0.00  0.00     0.064 H 
ATOM     15  H18 S94 d   1      -4.956   4.107  33.071  0.00  0.00     0.064 H 
ATOM     16  H19 S94 d   1      -1.342   3.471  31.172  0.00  0.00     0.064 H 
ATOM     17  H20 S94 d   1      -1.184   3.898  32.910  0.00  0.00     0.064 H 
ATOM     18  H23 S94 d   1      -2.789   0.511  33.883  0.00  0.00     0.084 H 
ATOM     19  H24 S94 d   1      -1.765   5.011  30.092  0.00  0.00     0.164 HD
ENDROOT
BRANCH   8  20
ATOM     20  C1  S94 d   1      -3.110   6.618  29.685  0.00  0.00     0.022 A 
ATOM     21  C3  S94 d   1      -2.212   7.500  28.883  0.00  0.00    -0.036 A 
ATOM     22  C2  S94 d   1      -3.281   6.726  28.198  0.00  0.00    -0.007 A 
ATOM     23  H15 S94 d   1      -2.296   8.593  28.970  0.00  0.00     0.037 H 
ATOM     24  H16 S94 d   1      -1.157   7.224  28.740  0.00  0.00     0.037 H 
ATOM     25  H21 S94 d   1      -3.033   5.872  27.550  0.00  0.00     0.050 H 
ATOM     26  H22 S94 d   1      -3.850   7.080  30.355  0.00  0.00     0.073 H 
BRANCH  22  27
ATOM     27  C10 S94 d   1      -4.415   7.471  27.637  0.00  0.00    -0.052 A 
ATOM     28  C15 S94 d   1      -5.405   8.061  28.392  0.00  0.00    -0.076 A 
ATOM     29  C16 S94 d   1      -6.446   8.739  27.795  0.00  0.00    -0.082 A 
ATOM     30  H7  S94 d   1      -5.365   7.991  29.473  0.00  0.00     0.084 H 
ATOM     31  C18 S94 d   1      -6.516   8.835  26.423  0.00  0.00    -0.083 A 
ATOM     32  H3  S94 d   1      -7.213   9.199  28.408  0.00  0.00     0.083 H 
ATOM     33  C17 S94 d   1      -5.538   8.248  25.655  0.00  0.00    -0.082 A 
ATOM     34  H1  S94 d   1      -7.334   9.368  25.953  0.00  0.00     0.083 H 
ATOM     35  C14 S94 d   1      -4.501   7.578  26.266  0.00  0.00    -0.076 A 
ATOM     36  H4  S94 d   1      -5.583   8.312  24.574  0.00  0.00     0.083 H 
ATOM     37  H8  S94 d   1      -3.732   7.123  25.652  0.00  0.00     0.084 H 
ENDBRANCH  22  27
ENDBRANCH   8  20
BRANCH   6  38
ATOM     38  O19 S94 d   1      -2.083   2.205  34.858  0.00  0.00    -0.346 OA
BRANCH  38  39
ATOM     39  C20 S94 d   1      -2.267   1.581  36.093  0.00  0.00     0.069 A 
ATOM     40  C21 S94 d   1      -3.230   0.632  36.375  0.00  0.00    -0.051 A 
ATOM     41  C22 S94 d   1      -3.301   0.096  37.643  0.00  0.00    -0.080 A 
ATOM     42  H9  S94 d   1      -3.924   0.312  35.606  0.00  0.00     0.087 H 
ATOM     43  C23 S94 d   1      -2.424   0.499  38.628  0.00  0.00    -0.083 A 
ATOM     44  H5  S94 d   1      -4.054  -0.650  37.868  0.00  0.00     0.083 H 
ATOM     45  C24 S94 d   1      -1.469   1.448  38.346  0.00  0.00    -0.080 A 
ATOM     46  H2  S94 d   1      -2.487   0.069  39.621  0.00  0.00     0.083 H 
ATOM     47  C25 S94 d   1      -1.395   1.988  37.082  0.00  0.00    -0.051 A 
ATOM     48  H6  S94 d   1      -0.777   1.769  39.116  0.00  0.00     0.083 H 
ATOM     49  H10 S94 d   1      -0.645   2.739  36.862  0.00  0.00     0.087 H 
ENDBRANCH  38  39
ENDBRANCH   6  38
TORSDOF 4
