REMARK  11 active torsions:
REMARK  status: ('A' for Active; 'I' for Inactive)
REMARK    1  A    between atoms: N3_2  and  C15_10 
REMARK       I    between atoms: C17_11  and  N3_2 
REMARK    2  A    between atoms: O2_18  and  C10_8 
REMARK    3  A    between atoms: C18_31  and  C17_11 
REMARK    4  A    between atoms: N4_37  and  C21_13 
REMARK    5  A    between atoms: N5_33  and  C22_14 
REMARK    6  A    between atoms: C19_38  and  C28_17 
REMARK    7  A    between atoms: C2_19  and  O2_18 
REMARK    8  A    between atoms: C1_21  and  O1_22 
REMARK    9  A    between atoms: O1_22  and  C11_23 
REMARK   10  A    between atoms: O3_25  and  C9_24 
REMARK   11  A    between atoms: C12_26  and  O3_25 
ROOT
ATOM      1  N3  3Z2 d   1     -13.475  31.595  27.084  0.00  0.00    -0.307 N 
ATOM      2  C17 3Z2 d   1     -13.013  30.671  26.234  0.00  0.00     0.265 C 
ATOM      3  O4  3Z2 d   1     -12.111  29.874  26.481  0.00  0.00    -0.267 OA
ATOM      4  H1  3Z2 d   1     -14.274  32.113  26.779  0.00  0.00     0.170 HD
ENDROOT
BRANCH   1   5
ATOM      5  C15 3Z2 d   1     -12.996  31.909  28.292  0.00  0.00     0.130 A 
ATOM      6  C14 3Z2 d   1     -11.933  31.233  28.901  0.00  0.00    -0.036 A 
ATOM      7  C13 3Z2 d   1     -11.484  31.660  30.148  0.00  0.00    -0.045 A 
ATOM      8  H18 3Z2 d   1     -11.465  30.388  28.409  0.00  0.00     0.089 H 
ATOM      9  C12 3Z2 d   1     -12.106  32.750  30.759  0.00  0.00     0.093 A 
ATOM     10  H8  3Z2 d   1     -10.661  31.152  30.638  0.00  0.00     0.088 H 
ATOM     11  C16 3Z2 d   1     -13.148  33.390  30.099  0.00  0.00     0.037 A 
ATOM     12  N2  3Z2 d   1     -13.551  32.967  28.909  0.00  0.00    -0.240 NA
ATOM     13  H19 3Z2 d   1     -13.635  34.241  30.561  0.00  0.00     0.119 H 
BRANCH   9  14
ATOM     14  O3  3Z2 d   1     -11.704  33.226  31.976  0.00  0.00    -0.308 OA
BRANCH  14  15
ATOM     15  C9  3Z2 d   1     -11.902  32.488  33.112  0.00  0.00     0.090 A 
ATOM     16  C5  3Z2 d   1     -11.362  32.937  34.318  0.00  0.00     0.029 A 
ATOM     17  C4  3Z2 d   1     -11.563  32.185  35.477  0.00  0.00     0.072 A 
ATOM     18  C6  3Z2 d   1     -10.624  34.128  34.382  0.00  0.00    -0.033 A 
ATOM     19  N1  3Z2 d   1     -12.267  31.035  35.425  0.00  0.00    -0.260 NA
ATOM     20  C3  3Z2 d   1     -11.030  32.619  36.693  0.00  0.00    -0.019 A 
ATOM     21  C7  3Z2 d   1     -12.785  30.586  34.291  0.00  0.00     0.005 A 
ATOM     22  C8  3Z2 d   1     -12.627  31.295  33.102  0.00  0.00    -0.032 A 
ATOM     23  H3  3Z2 d   1     -13.339  29.654  34.288  0.00  0.00     0.114 H 
ATOM     24  H4  3Z2 d   1     -13.062  30.925  32.181  0.00  0.00     0.090 H 
ATOM     25  C2  3Z2 d   1     -10.301  33.811  36.759  0.00  0.00     0.103 A 
ATOM     26  H14 3Z2 d   1     -11.182  32.029  37.590  0.00  0.00     0.091 H 
ATOM     27  C1  3Z2 d   1     -10.098  34.568  35.603  0.00  0.00     0.102 A 
ATOM     28  H2  3Z2 d   1     -10.460  34.710  33.483  0.00  0.00     0.089 H 
BRANCH  25  29
ATOM     29  O2  3Z2 d   1      -9.759  34.268  37.933  0.00  0.00    -0.353 OA
BRANCH  29  30
ATOM     30  C10 3Z2 d   1     -10.221  33.614  39.137  0.00  0.00     0.010 C 
ATOM     31  H5  3Z2 d   1      -9.722  34.059  40.011  0.00  0.00     0.066 H 
ATOM     32  H6  3Z2 d   1      -9.983  32.541  39.086  0.00  0.00     0.066 H 
ATOM     33  H7  3Z2 d   1     -11.309  33.744  39.230  0.00  0.00     0.066 H 
ENDBRANCH  29  30
ENDBRANCH  25  29
BRANCH  27  34
ATOM     34  O1  3Z2 d   1      -9.367  35.721  35.719  0.00  0.00    -0.353 OA
BRANCH  34  35
ATOM     35  C11 3Z2 d   1      -9.423  36.650  34.623  0.00  0.00     0.010 C 
ATOM     36  H15 3Z2 d   1      -8.794  37.523  34.850  0.00  0.00     0.066 H 
ATOM     37  H16 3Z2 d   1     -10.463  36.976  34.472  0.00  0.00     0.066 H 
ATOM     38  H17 3Z2 d   1      -9.055  36.161  33.709  0.00  0.00     0.066 H 
ENDBRANCH  34  35
ENDBRANCH  27  34
ENDBRANCH  14  15
ENDBRANCH   9  14
ENDBRANCH   1   5
BRANCH   2  39
ATOM     39  C18 3Z2 d   1     -13.729  30.662  24.879  0.00  0.00     0.131 C 
ATOM     40  C20 3Z2 d   1     -14.754  31.529  24.530  0.00  0.00     0.285 C 
ATOM     41  O5  3Z2 d   1     -15.203  32.419  25.251  0.00  0.00    -0.265 OA
ATOM     42  N5  3Z2 d   1     -15.186  31.236  23.302  0.00  0.00    -0.217 N 
ATOM     43  N4  3Z2 d   1     -14.281  30.314  22.798  0.00  0.00    -0.285 N 
ATOM     44  C19 3Z2 d   1     -13.566  29.777  23.814  0.00  0.00     0.082 C 
BRANCH  42  45
ATOM     45  C22 3Z2 d   1     -15.718  32.206  22.537  0.00  0.00     0.060 A 
ATOM     46  C23 3Z2 d   1     -17.105  32.363  22.487  0.00  0.00    -0.055 A 
ATOM     47  C24 3Z2 d   1     -17.680  33.415  21.763  0.00  0.00    -0.081 A 
ATOM     48  H20 3Z2 d   1     -17.743  31.663  23.014  0.00  0.00     0.087 H 
ATOM     49  C25 3Z2 d   1     -16.861  34.319  21.084  0.00  0.00    -0.083 A 
ATOM     50  H12 3Z2 d   1     -18.758  33.527  21.730  0.00  0.00     0.083 H 
ATOM     51  C26 3Z2 d   1     -15.474  34.170  21.128  0.00  0.00    -0.081 A 
ATOM     52  H21 3Z2 d   1     -17.302  35.136  20.523  0.00  0.00     0.083 H 
ATOM     53  C27 3Z2 d   1     -14.904  33.118  21.852  0.00  0.00    -0.055 A 
ATOM     54  H13 3Z2 d   1     -14.838  34.871  20.600  0.00  0.00     0.083 H 
ATOM     55  H22 3Z2 d   1     -13.826  33.007  21.884  0.00  0.00     0.087 H 
ENDBRANCH  42  45
BRANCH  43  56
ATOM     56  C21 3Z2 d   1     -14.583  29.558  21.558  0.00  0.00     0.002 C 
ATOM     57  H9  3Z2 d   1     -13.746  28.883  21.327  0.00  0.00     0.059 H 
ATOM     58  H10 3Z2 d   1     -14.727  30.262  20.725  0.00  0.00     0.059 H 
ATOM     59  H11 3Z2 d   1     -15.500  28.968  21.702  0.00  0.00     0.059 H 
ENDBRANCH  43  56
BRANCH  44  60
ATOM     60  C28 3Z2 d   1     -12.566  28.798  23.704  0.00  0.00    -0.004 A 
ATOM     61  C29 3Z2 d   1     -12.601  27.634  24.474  0.00  0.00    -0.054 A 
ATOM     62  C30 3Z2 d   1     -11.582  26.686  24.334  0.00  0.00     0.003 A 
ATOM     63  H23 3Z2 d   1     -13.411  27.466  25.174  0.00  0.00     0.087 H 
ATOM     64  N6  3Z2 d   1     -10.581  26.878  23.478  0.00  0.00    -0.273 NA
ATOM     65  H24 3Z2 d   1     -11.608  25.782  24.931  0.00  0.00     0.114 H 
ATOM     66  C31 3Z2 d   1     -10.511  27.974  22.728  0.00  0.00     0.003 A 
ATOM     67  C32 3Z2 d   1     -11.496  28.960  22.819  0.00  0.00    -0.054 A 
ATOM     68  H25 3Z2 d   1      -9.683  28.103  22.041  0.00  0.00     0.114 H 
ATOM     69  H26 3Z2 d   1     -11.431  29.850  22.204  0.00  0.00     0.087 H 
ENDBRANCH  44  60
ENDBRANCH   2  39
TORSDOF 11
