REMARK  4 active torsions:
REMARK  status: ('A' for Active; 'I' for Inactive)
REMARK    1  A    between atoms: C5_6  and  C6_3 
REMARK    2  A    between atoms: C_27  and  N1_5 
REMARK    3  A    between atoms: C12_17  and  C13_16 
REMARK       I    between atoms: N2_18  and  C12_17 
REMARK    4  A    between atoms: C8_19  and  N2_18 
ROOT
ATOM      1  C7  3YS d   1      23.681  55.045  86.730  0.00  0.00    -0.046 A 
ATOM      2  C6  3YS d   1      22.389  55.335  86.288  0.00  0.00     0.013 A 
ATOM      3  C8  3YS d   1      24.793  55.268  85.922  0.00  0.00     0.035 A 
ATOM      4  C9  3YS d   1      24.622  55.760  84.629  0.00  0.00    -0.054 A 
ATOM      5  C10 3YS d   1      23.355  56.057  84.168  0.00  0.00    -0.043 A 
ATOM      6  C11 3YS d   1      22.287  55.850  85.001  0.00  0.00     0.125 A 
ATOM      7  F   3YS d   1      21.047  56.134  84.520  0.00  0.00    -0.205 F 
ATOM      8  H   3YS d   1      23.822  54.637  87.724  0.00  0.00     0.088 H 
ATOM      9  H   3YS d   1      25.482  55.909  83.987  0.00  0.00     0.087 H 
ATOM     10  H   3YS d   1      23.208  56.446  83.167  0.00  0.00     0.088 H 
ENDROOT
BRANCH   2  11
ATOM     11  C5  3YS d   1      21.243  55.103  87.268  0.00  0.00     0.090 C 
ATOM     12  C4  3YS d   1      20.053  54.422  86.572  0.00  0.00     0.047 C 
ATOM     13  O   3YS d   1      18.895  54.713  87.342  0.00  0.00    -0.388 OA
ATOM     14  H   3YS d   1      20.213  53.335  86.528  0.00  0.00     0.078 H 
ATOM     15  H   3YS d   1      19.936  54.817  85.552  0.00  0.00     0.078 H 
ATOM     16  C3  3YS d   1      19.138  55.992  88.008  0.00  0.00     0.026 C 
ATOM     17  C2  3YS d   1      20.522  56.429  87.576  0.00  0.00     0.006 C 
ATOM     18  H   3YS d   1      18.388  56.734  87.697  0.00  0.00     0.075 H 
ATOM     19  H   3YS d   1      19.100  55.868  89.100  0.00  0.00     0.075 H 
ATOM     20  C1  3YS d   1      21.276  57.306  88.572  0.00  0.00    -0.008 C 
ATOM     21  H   3YS d   1      20.431  57.012  86.647  0.00  0.00     0.048 H 
ATOM     22  S   3YS d   1      21.877  56.437  90.041  0.00  0.00    -0.094 SA
ATOM     23  H   3YS d   1      20.600  58.109  88.901  0.00  0.00     0.050 H 
ATOM     24  H   3YS d   1      22.142  57.745  88.055  0.00  0.00     0.050 H 
ATOM     25  C   3YS d   1      21.993  54.752  89.567  0.00  0.00     0.134 C 
ATOM     26  N   3YS d   1      21.667  54.317  88.414  0.00  0.00    -0.355 N 
ATOM     27  H   3YS d   1      21.709  53.297  88.280  0.00  0.00     0.162 HD
BRANCH  25  28
ATOM     28  N1  3YS d   1      22.426  53.919  90.520  0.00  0.00    -0.380 N 
ATOM     29  H   3YS d   1      22.522  52.913  90.320  0.00  0.00     0.158 HD
ATOM     30  H   3YS d   1      22.664  54.283  91.454  0.00  0.00     0.158 HD
ENDBRANCH  25  28
ENDBRANCH   2  11
BRANCH   3  31
ATOM     31  N2  3YS d   1      26.078  54.932  86.410  0.00  0.00    -0.322 N 
ATOM     32  C12 3YS d   1      27.293  55.376  86.005  0.00  0.00     0.274 C 
ATOM     33  O1  3YS d   1      27.495  56.089  85.020  0.00  0.00    -0.266 OA
ATOM     34  H   3YS d   1      26.092  54.272  87.162  0.00  0.00     0.169 HD
BRANCH  32  35
ATOM     35  C13 3YS d   1      28.421  54.942  86.893  0.00  0.00     0.124 C 
ATOM     36  N3  3YS d   1      28.107  54.095  87.885  0.00  0.00    -0.252 NA
ATOM     37  C14 3YS d   1      29.088  53.683  88.690  0.00  0.00     0.040 C 
ATOM     38  C15 3YS d   1      30.390  54.152  88.551  0.00  0.00     0.133 C 
ATOM     39  H   3YS d   1      28.865  52.965  89.471  0.00  0.00     0.119 H 
ATOM     40  F1  3YS d   1      31.357  53.692  89.393  0.00  0.00    -0.205 F 
ATOM     41  C16 3YS d   1      30.717  55.019  87.538  0.00  0.00    -0.042 C 
ATOM     42  C17 3YS d   1      29.726  55.362  86.631  0.00  0.00    -0.047 C 
ATOM     43  H   3YS d   1      31.719  55.423  87.450  0.00  0.00     0.088 H 
ATOM     44  H   3YS d   1      29.958  55.940  85.744  0.00  0.00     0.087 H 
ENDBRANCH  32  35
ENDBRANCH   3  31
TORSDOF 4
