REMARK  10 active torsions:
REMARK  status: ('A' for Active; 'I' for Inactive)
REMARK    1  A    between atoms: C19_1  and  N18_2 
REMARK    2  A    between atoms: N18_2  and  C16_3 
REMARK    3  A    between atoms: C8_12  and  C1_13 
REMARK    4  A    between atoms: C2_14  and  N20_15 
REMARK    5  A    between atoms: C6_16  and  C7_17 
REMARK    6  A    between atoms: C3_20  and  C21_21 
REMARK       I    between atoms: C21_21  and  N23_23 
REMARK    7  A    between atoms: N23_23  and  C24_24 
REMARK    8  A    between atoms: C27_28  and  O30_29 
REMARK    9  A    between atoms: O30_29  and  C31_30 
REMARK   10  A    between atoms: C28_31  and  C32_32 
ROOT
ATOM      1  C1  3Z1 d   1      26.595   8.713   2.455  0.00  0.00     0.007 A 
ATOM      2  C2  3Z1 d   1      27.201   9.467   3.478  0.00  0.00     0.053 A 
ATOM      3  C6  3Z1 d   1      25.288   8.231   2.642  0.00  0.00    -0.049 A 
ATOM      4  C5  3Z1 d   1      24.594   8.496   3.827  0.00  0.00    -0.075 A 
ATOM      5  C4  3Z1 d   1      25.194   9.246   4.834  0.00  0.00    -0.065 A 
ATOM      6  C3  3Z1 d   1      26.501   9.721   4.674  0.00  0.00     0.059 A 
ATOM      7  H14 3Z1 d   1      23.587   8.117   3.961  0.00  0.00     0.084 H 
ATOM      8  H15 3Z1 d   1      24.648   9.463   5.745  0.00  0.00     0.085 H 
ENDROOT
BRANCH   6   9
ATOM      9  C21 3Z1 d   1      27.112  10.561   5.815  0.00  0.00     0.258 C 
ATOM     10  O22 3Z1 d   1      28.092  11.276   5.618  0.00  0.00    -0.267 OA
ATOM     11  N23 3Z1 d   1      26.473  10.458   6.986  0.00  0.00    -0.323 N 
ATOM     12  H16 3Z1 d   1      25.752   9.768   7.040  0.00  0.00     0.169 HD
BRANCH  11  13
ATOM     13  C24 3Z1 d   1      26.694  11.180   8.096  0.00  0.00     0.035 A 
ATOM     14  C29 3Z1 d   1      27.583  12.261   8.139  0.00  0.00    -0.040 A 
ATOM     15  C28 3Z1 d   1      27.744  13.008   9.308  0.00  0.00     0.083 A 
ATOM     16  H17 3Z1 d   1      28.153  12.521   7.254  0.00  0.00     0.088 H 
ATOM     17  C27 3Z1 d   1      26.990  12.690  10.441  0.00  0.00     0.083 A 
ATOM     18  C26 3Z1 d   1      26.090  11.618  10.396  0.00  0.00    -0.048 A 
ATOM     19  C25 3Z1 d   1      25.936  10.878   9.226  0.00  0.00    -0.054 A 
ATOM     20  H19 3Z1 d   1      25.511  11.363  11.276  0.00  0.00     0.087 H 
ATOM     21  H18 3Z1 d   1      25.223  10.062   9.194  0.00  0.00     0.087 H 
BRANCH  15  22
ATOM     22  C32 3Z1 d   1      28.733  14.182   9.359  0.00  0.00     0.420 C 
ATOM     23  F34 3Z1 d   1      28.061  15.294   9.601  0.00  0.00    -0.166 F 
ATOM     24  F35 3Z1 d   1      29.377  14.323   8.204  0.00  0.00    -0.166 F 
ATOM     25  F33 3Z1 d   1      29.604  13.987  10.340  0.00  0.00    -0.166 F 
ENDBRANCH  15  22
BRANCH  17  26
ATOM     26  O30 3Z1 d   1      27.149  13.413  11.591  0.00  0.00    -0.355 OA
BRANCH  26  27
ATOM     27  C31 3Z1 d   1      25.949  14.039  12.071  0.00  0.00     0.010 C 
ATOM     28  H20 3Z1 d   1      26.170  14.595  12.994  0.00  0.00     0.066 H 
ATOM     29  H21 3Z1 d   1      25.192  13.269  12.279  0.00  0.00     0.066 H 
ATOM     30  H22 3Z1 d   1      25.566  14.732  11.307  0.00  0.00     0.066 H 
ENDBRANCH  26  27
ENDBRANCH  17  26
ENDBRANCH  11  13
ENDBRANCH   6   9
BRANCH   2  31
ATOM     31  N20 3Z1 d   1      28.445   9.933   3.333  0.00  0.00    -0.398 N 
ATOM     32  H9  3Z1 d   1      28.964   9.752   2.462  0.00  0.00     0.156 HD
ATOM     33  H10 3Z1 d   1      28.884  10.473   4.092  0.00  0.00     0.156 HD
ENDBRANCH   2  31
BRANCH   1  34
ATOM     34  C8  3Z1 d   1      27.259   8.411   1.249  0.00  0.00    -0.022 A 
ATOM     35  C9  3Z1 d   1      27.332   9.329   0.196  0.00  0.00    -0.059 A 
ATOM     36  C13 3Z1 d   1      27.988   8.977  -0.990  0.00  0.00     0.012 A 
ATOM     37  H6  3Z1 d   1      26.882  10.310   0.298  0.00  0.00     0.086 H 
ATOM     38  C14 3Z1 d   1      28.080   9.871  -2.055  0.00  0.00     0.033 A 
ATOM     39  C12 3Z1 d   1      28.572   7.721  -1.136  0.00  0.00     0.087 A 
ATOM     40  N15 3Z1 d   1      28.707   9.508  -3.168  0.00  0.00    -0.074 NA
ATOM     41  H5  3Z1 d   1      27.641  10.859  -1.975  0.00  0.00     0.117 H 
ATOM     42  C16 3Z1 d   1      29.271   8.291  -3.302  0.00  0.00     0.722 A 
ATOM     43  N17 3Z1 d   1      29.200   7.401  -2.287  0.00  0.00    -0.062 NA
ATOM     44  C10 3Z1 d   1      28.499   6.805  -0.090  0.00  0.00    -0.053 A 
ATOM     45  C11 3Z1 d   1      27.845   7.152   1.093  0.00  0.00    -0.070 A 
ATOM     46  H7  3Z1 d   1      28.949   5.824  -0.194  0.00  0.00     0.087 H 
ATOM     47  H8  3Z1 d   1      27.791   6.434   1.903  0.00  0.00     0.084 H 
BRANCH  42  48
ATOM     48  N18 3Z1 d   1      29.894   7.996  -4.454  0.00  0.00    -0.227 N 
ATOM     49  H4  3Z1 d   1      29.795   8.646  -5.247  0.00  0.00     0.177 HD
BRANCH  48  50
ATOM     50  C19 3Z1 d   1      30.714   6.782  -4.636  0.00  0.00    -0.005 C 
ATOM     51  H1  3Z1 d   1      31.118   6.762  -5.659  0.00  0.00     0.057 H 
ATOM     52  H2  3Z1 d   1      30.091   5.891  -4.470  0.00  0.00     0.057 H 
ATOM     53  H3  3Z1 d   1      31.544   6.789  -3.914  0.00  0.00     0.057 H 
ENDBRANCH  48  50
ENDBRANCH  42  48
ENDBRANCH   1  34
BRANCH   3  54
ATOM     54  C7  3Z1 d   1      24.575   7.411   1.552  0.00  0.00    -0.050 C 
ATOM     55  H11 3Z1 d   1      23.569   7.135   1.900  0.00  0.00     0.033 H 
ATOM     56  H12 3Z1 d   1      25.153   6.499   1.342  0.00  0.00     0.033 H 
ATOM     57  H13 3Z1 d   1      24.494   8.013   0.635  0.00  0.00     0.033 H 
ENDBRANCH   3  54
TORSDOF 10
