REMARK  10 active torsions:
REMARK  status: ('A' for Active; 'I' for Inactive)
REMARK    1  A    between atoms: C5_6  and  C2_7 
REMARK    2  A    between atoms: N1_8  and  C24_9 
REMARK    3  A    between atoms: N2_10  and  C4_11 
REMARK    4  A    between atoms: C1_19  and  C16_20 
REMARK    5  A    between atoms: C16_20  and  C17_22 
REMARK    6  A    between atoms: C22_23  and  N3_24 
REMARK    7  A    between atoms: C20_27  and  C33_28 
REMARK    8  A    between atoms: C21_29  and  C23_30 
REMARK    9  A    between atoms: C31_35  and  N6_36 
REMARK   10  A    between atoms: N6_36  and  C32_37 
ROOT
ATOM      1  C17 3Z3 d   1      26.640   9.584   4.477  0.00  0.00     0.038 A 
ATOM      2  C22 3Z3 d   1      27.389   9.369   3.302  0.00  0.00     0.051 A 
ATOM      3  C18 3Z3 d   1      25.289   9.208   4.534  0.00  0.00    -0.067 A 
ATOM      4  C19 3Z3 d   1      24.698   8.601   3.426  0.00  0.00    -0.075 A 
ATOM      5  C20 3Z3 d   1      25.441   8.385   2.260  0.00  0.00    -0.049 A 
ATOM      6  C21 3Z3 d   1      26.795   8.765   2.184  0.00  0.00     0.010 A 
ATOM      7  H17 3Z3 d   1      24.709   9.388   5.432  0.00  0.00     0.085 H 
ATOM      8  H18 3Z3 d   1      23.659   8.295   3.468  0.00  0.00     0.084 H 
ENDROOT
BRANCH   1   9
ATOM      9  C16 3Z3 d   1      27.306  10.250   5.706  0.00  0.00     0.180 C 
ATOM     10  O2  3Z3 d   1      28.265  11.011   5.546  0.00  0.00    -0.291 OA
BRANCH   9  11
ATOM     11  C1  3Z3 d   1      26.862   9.947   7.145  0.00  0.00     0.130 A 
ATOM     12  C2  3Z3 d   1      27.071  10.777   8.247  0.00  0.00     0.059 A 
ATOM     13  N1  3Z3 d   1      26.562  10.115   9.299  0.00  0.00    -0.289 N 
ATOM     14  N2  3Z3 d   1      26.057   9.018   8.975  0.00  0.00    -0.221 N 
ATOM     15  C3  3Z3 d   1      26.222   8.814   7.666  0.00  0.00     0.261 A 
ATOM     16  O1  3Z3 d   1      25.846   7.807   7.058  0.00  0.00    -0.270 OA
ATOM     17  H14 3Z3 d   1      25.900  10.422   6.904  0.00  0.00     0.077 H 
BRANCH  12  18
ATOM     18  C5  3Z3 d   1      27.697  12.037   8.261  0.00  0.00    -0.011 A 
ATOM     19  C11 3Z3 d   1      28.804  12.218   9.105  0.00  0.00    -0.071 A 
ATOM     20  C12 3Z3 d   1      29.462  13.451   9.184  0.00  0.00    -0.082 A 
ATOM     21  H1  3Z3 d   1      29.156  11.388   9.707  0.00  0.00     0.084 H 
ATOM     22  C13 3Z3 d   1      29.010  14.514   8.400  0.00  0.00    -0.083 A 
ATOM     23  H2  3Z3 d   1      30.311  13.579   9.845  0.00  0.00     0.083 H 
ATOM     24  C14 3Z3 d   1      27.910  14.339   7.559  0.00  0.00    -0.082 A 
ATOM     25  H3  3Z3 d   1      29.512  15.473   8.444  0.00  0.00     0.083 H 
ATOM     26  C15 3Z3 d   1      27.248  13.107   7.486  0.00  0.00    -0.071 A 
ATOM     27  H4  3Z3 d   1      27.563  15.169   6.954  0.00  0.00     0.083 H 
ATOM     28  H5  3Z3 d   1      26.392  12.985   6.832  0.00  0.00     0.084 H 
ENDBRANCH  12  18
BRANCH  13  29
ATOM     29  C24 3Z3 d   1      26.552  10.681  10.663  0.00  0.00     0.001 C 
ATOM     30  H6  3Z3 d   1      27.065  11.654  10.660  0.00  0.00     0.059 H 
ATOM     31  H7  3Z3 d   1      27.071   9.995  11.349  0.00  0.00     0.059 H 
ATOM     32  H8  3Z3 d   1      25.512  10.816  10.996  0.00  0.00     0.059 H 
ENDBRANCH  13  29
BRANCH  14  33
ATOM     33  C4  3Z3 d   1      25.515   8.119   9.827  0.00  0.00     0.060 A 
ATOM     34  C6  3Z3 d   1      24.169   7.759   9.817  0.00  0.00    -0.055 A 
ATOM     35  C7  3Z3 d   1      23.693   6.806  10.729  0.00  0.00    -0.081 A 
ATOM     36  H9  3Z3 d   1      23.491   8.215   9.105  0.00  0.00     0.087 H 
ATOM     37  C8  3Z3 d   1      24.561   6.197  11.641  0.00  0.00    -0.083 A 
ATOM     38  H10 3Z3 d   1      22.642   6.539  10.727  0.00  0.00     0.083 H 
ATOM     39  C9  3Z3 d   1      25.914   6.545  11.656  0.00  0.00    -0.081 A 
ATOM     40  H11 3Z3 d   1      24.184   5.455  12.336  0.00  0.00     0.083 H 
ATOM     41  C10 3Z3 d   1      26.381   7.497  10.740  0.00  0.00    -0.055 A 
ATOM     42  H12 3Z3 d   1      26.592   6.085  12.366  0.00  0.00     0.083 H 
ATOM     43  H13 3Z3 d   1      27.433   7.759  10.736  0.00  0.00     0.087 H 
ENDBRANCH  14  33
ENDBRANCH   9  11
ENDBRANCH   1   9
BRANCH   2  44
ATOM     44  N3  3Z3 d   1      28.670   9.747   3.248  0.00  0.00    -0.398 N 
ATOM     45  H15 3Z3 d   1      29.111  10.191   4.066  0.00  0.00     0.156 HD
ATOM     46  H16 3Z3 d   1      29.216   9.594   2.388  0.00  0.00     0.156 HD
ENDBRANCH   2  44
BRANCH   6  47
ATOM     47  C23 3Z3 d   1      27.495   8.482   0.997  0.00  0.00     0.017 A 
ATOM     48  C29 3Z3 d   1      28.100   7.210   0.837  0.00  0.00    -0.067 A 
ATOM     49  C28 3Z3 d   1      28.768   6.878  -0.339  0.00  0.00    -0.053 A 
ATOM     50  H22 3Z3 d   1      28.042   6.486   1.641  0.00  0.00     0.085 H 
ATOM     51  C27 3Z3 d   1      28.845   7.793  -1.387  0.00  0.00     0.090 A 
ATOM     52  H23 3Z3 d   1      29.230   5.903  -0.440  0.00  0.00     0.087 H 
ATOM     53  N5  3Z3 d   1      29.499   7.490  -2.545  0.00  0.00    -0.062 NA
ATOM     54  C26 3Z3 d   1      28.237   9.038  -1.222  0.00  0.00     0.051 A 
ATOM     55  C31 3Z3 d   1      29.545   8.409  -3.543  0.00  0.00     0.722 A 
ATOM     56  N4  3Z3 d   1      28.948   9.600  -3.370  0.00  0.00    -0.074 NA
ATOM     57  C30 3Z3 d   1      28.312   9.942  -2.257  0.00  0.00     0.036 A 
ATOM     58  H28 3Z3 d   1      27.857  10.921  -2.164  0.00  0.00     0.117 H 
ATOM     59  C25 3Z3 d   1      27.564   9.382  -0.041  0.00  0.00     0.141 A 
ATOM     60  F1  3Z3 d   1      26.987  10.583   0.114  0.00  0.00    -0.204 F 
BRANCH  55  61
ATOM     61  N6  3Z3 d   1      30.162   8.218  -4.727  0.00  0.00    -0.227 N 
ATOM     62  H24 3Z3 d   1      30.067   8.950  -5.445  0.00  0.00     0.177 HD
BRANCH  61  63
ATOM     63  C32 3Z3 d   1      30.966   7.022  -5.057  0.00  0.00    -0.005 C 
ATOM     64  H25 3Z3 d   1      31.357   7.114  -6.081  0.00  0.00     0.057 H 
ATOM     65  H26 3Z3 d   1      30.334   6.124  -4.985  0.00  0.00     0.057 H 
ATOM     66  H27 3Z3 d   1      31.805   6.938  -4.350  0.00  0.00     0.057 H 
ENDBRANCH  61  63
ENDBRANCH  55  61
ENDBRANCH   6  47
BRANCH   5  67
ATOM     67  C33 3Z3 d   1      24.712   7.734   1.067  0.00  0.00    -0.050 C 
ATOM     68  H19 3Z3 d   1      23.669   7.521   1.346  0.00  0.00     0.033 H 
ATOM     69  H20 3Z3 d   1      25.218   6.795   0.796  0.00  0.00     0.033 H 
ATOM     70  H21 3Z3 d   1      24.729   8.421   0.208  0.00  0.00     0.033 H 
ENDBRANCH   5  67
TORSDOF 10
