REMARK  10 active torsions:
REMARK  status: ('A' for Active; 'I' for Inactive)
REMARK    1  A    between atoms: C32_1  and  N4_2 
REMARK    2  A    between atoms: N4_2  and  C24_3 
REMARK    3  A    between atoms: C27_11  and  C16_12 
REMARK    4  A    between atoms: C17_13  and  N5_14 
REMARK    5  A    between atoms: C21_15  and  C29_16 
REMARK    6  A    between atoms: C18_19  and  C30_20 
REMARK    7  A    between atoms: C30_20  and  C13_22 
REMARK    8  A    between atoms: N2_25  and  C7_26 
REMARK    9  A    between atoms: N1_32  and  C31_33 
REMARK   10  A    between atoms: C14_34  and  C1_35 
ROOT
ATOM      1  C30 3Z4 d   1      27.491  10.160   5.667  0.00  0.00     0.202 C 
ATOM      2  O2  3Z4 d   1      28.432  10.947   5.500  0.00  0.00    -0.286 OA
ENDROOT
BRANCH   1   3
ATOM      3  C18 3Z4 d   1      26.783   9.583   4.421  0.00  0.00     0.042 A 
ATOM      4  C17 3Z4 d   1      27.452   9.579   3.184  0.00  0.00     0.051 A 
ATOM      5  C16 3Z4 d   1      26.818   9.064   2.044  0.00  0.00     0.007 A 
ATOM      6  C21 3Z4 d   1      25.494   8.590   2.151  0.00  0.00    -0.049 A 
ATOM      7  C20 3Z4 d   1      24.829   8.599   3.382  0.00  0.00    -0.075 A 
ATOM      8  C19 3Z4 d   1      25.466   9.106   4.512  0.00  0.00    -0.066 A 
ATOM      9  H13 3Z4 d   1      23.819   8.212   3.456  0.00  0.00     0.084 H 
ATOM     10  H14 3Z4 d   1      24.945   9.132   5.462  0.00  0.00     0.085 H 
BRANCH   4  11
ATOM     11  N5  3Z4 d   1      28.711  10.049   3.098  0.00  0.00    -0.398 N 
ATOM     12  H8  3Z4 d   1      29.201  10.046   2.192  0.00  0.00     0.156 HD
ATOM     13  H9  3Z4 d   1      29.184  10.411   3.938  0.00  0.00     0.156 HD
ENDBRANCH   4  11
BRANCH   5  14
ATOM     14  C27 3Z4 d   1      27.439   9.098   0.780  0.00  0.00    -0.022 A 
ATOM     15  C28 3Z4 d   1      28.103   8.036   0.156  0.00  0.00    -0.053 A 
ATOM     16  C23 3Z4 d   1      28.631   8.218  -1.130  0.00  0.00     0.038 A 
ATOM     17  H5  3Z4 d   1      28.208   7.083   0.661  0.00  0.00     0.087 H 
ATOM     18  S1  3Z4 d   1      29.519   7.202  -2.161  0.00  0.00    -0.050 SA
ATOM     19  C22 3Z4 d   1      28.512   9.451  -1.804  0.00  0.00     0.076 A 
ATOM     20  C24 3Z4 d   1      29.676   8.342  -3.408  0.00  0.00     0.167 A 
ATOM     21  N3  3Z4 d   1      29.076   9.473  -3.030  0.00  0.00    -0.224 NA
ATOM     22  C25 3Z4 d   1      27.842  10.491  -1.171  0.00  0.00    -0.053 A 
ATOM     23  C26 3Z4 d   1      27.310  10.311   0.098  0.00  0.00    -0.070 A 
ATOM     24  H6  3Z4 d   1      27.735  11.447  -1.671  0.00  0.00     0.087 H 
ATOM     25  H7  3Z4 d   1      26.782  11.131   0.572  0.00  0.00     0.084 H 
BRANCH  20  26
ATOM     26  N4  3Z4 d   1      30.297   8.185  -4.587  0.00  0.00    -0.373 N 
ATOM     27  H4  3Z4 d   1      30.259   8.942  -5.284  0.00  0.00     0.161 HD
BRANCH  26  28
ATOM     28  C32 3Z4 d   1      31.034   6.946  -4.902  0.00  0.00    -0.019 C 
ATOM     29  H1  3Z4 d   1      31.465   7.022  -5.911  0.00  0.00     0.056 H 
ATOM     30  H2  3Z4 d   1      30.345   6.089  -4.861  0.00  0.00     0.056 H 
ATOM     31  H3  3Z4 d   1      31.841   6.803  -4.168  0.00  0.00     0.056 H 
ENDBRANCH  26  28
ENDBRANCH  20  26
ENDBRANCH   5  14
BRANCH   6  32
ATOM     32  C29 3Z4 d   1      24.723   8.039   0.933  0.00  0.00    -0.050 C 
ATOM     33  H10 3Z4 d   1      23.715   7.728   1.247  0.00  0.00     0.033 H 
ATOM     34  H11 3Z4 d   1      25.261   7.174   0.519  0.00  0.00     0.033 H 
ATOM     35  H12 3Z4 d   1      24.642   8.822   0.165  0.00  0.00     0.033 H 
ENDBRANCH   6  32
ENDBRANCH   1   3
BRANCH   1  36
ATOM     36  C13 3Z4 d   1      27.028   9.880   7.105  0.00  0.00     0.114 A 
ATOM     37  C15 3Z4 d   1      26.394   8.751   7.632  0.00  0.00     0.283 A 
ATOM     38  O1  3Z4 d   1      26.072   7.720   7.034  0.00  0.00    -0.265 OA
ATOM     39  N2  3Z4 d   1      26.192   8.976   8.931  0.00  0.00    -0.218 N 
ATOM     40  N1  3Z4 d   1      26.656  10.096   9.245  0.00  0.00    -0.285 N 
ATOM     41  C14 3Z4 d   1      27.178  10.746   8.190  0.00  0.00     0.081 A 
BRANCH  39  42
ATOM     42  C7  3Z4 d   1      25.643   8.069   9.766  0.00  0.00     0.060 A 
ATOM     43  C8  3Z4 d   1      26.511   7.383  10.630  0.00  0.00    -0.055 A 
ATOM     44  C9  3Z4 d   1      26.036   6.413  11.524  0.00  0.00    -0.081 A 
ATOM     45  H15 3Z4 d   1      27.571   7.608  10.605  0.00  0.00     0.087 H 
ATOM     46  C10 3Z4 d   1      24.668   6.116  11.533  0.00  0.00    -0.083 A 
ATOM     47  H16 3Z4 d   1      26.716   5.902  12.196  0.00  0.00     0.083 H 
ATOM     48  C11 3Z4 d   1      23.800   6.791  10.668  0.00  0.00    -0.081 A 
ATOM     49  H17 3Z4 d   1      24.281   5.363  12.210  0.00  0.00     0.083 H 
ATOM     50  C12 3Z4 d   1      24.284   7.759   9.778  0.00  0.00    -0.055 A 
ATOM     51  H18 3Z4 d   1      22.741   6.562  10.687  0.00  0.00     0.083 H 
ATOM     52  H19 3Z4 d   1      23.604   8.265   9.102  0.00  0.00     0.087 H 
ENDBRANCH  39  42
BRANCH  40  53
ATOM     53  C31 3Z4 d   1      26.603  10.704  10.594  0.00  0.00     0.002 C 
ATOM     54  H20 3Z4 d   1      27.089  11.691  10.571  0.00  0.00     0.059 H 
ATOM     55  H21 3Z4 d   1      27.127  10.054  11.310  0.00  0.00     0.059 H 
ATOM     56  H22 3Z4 d   1      25.554  10.820  10.903  0.00  0.00     0.059 H 
ENDBRANCH  40  53
BRANCH  41  57
ATOM     57  C1  3Z4 d   1      27.778  12.023   8.199  0.00  0.00    -0.007 A 
ATOM     58  C2  3Z4 d   1      28.901  12.211   9.026  0.00  0.00    -0.071 A 
ATOM     59  C3  3Z4 d   1      29.545  13.451   9.111  0.00  0.00    -0.082 A 
ATOM     60  H23 3Z4 d   1      29.275  11.378   9.610  0.00  0.00     0.084 H 
ATOM     61  C4  3Z4 d   1      29.067  14.522   8.357  0.00  0.00    -0.083 A 
ATOM     62  H24 3Z4 d   1      30.407  13.577   9.757  0.00  0.00     0.083 H 
ATOM     63  C5  3Z4 d   1      27.949  14.343   7.539  0.00  0.00    -0.082 A 
ATOM     64  H25 3Z4 d   1      29.559  15.486   8.405  0.00  0.00     0.083 H 
ATOM     65  C6  3Z4 d   1      27.301  13.101   7.458  0.00  0.00    -0.071 A 
ATOM     66  H26 3Z4 d   1      27.576  15.178   6.957  0.00  0.00     0.083 H 
ATOM     67  H27 3Z4 d   1      26.432  12.981   6.821  0.00  0.00     0.084 H 
ENDBRANCH  41  57
ENDBRANCH   1  36
TORSDOF 10
