REMARK  9 active torsions:
REMARK  status: ('A' for Active; 'I' for Inactive)
REMARK    1  A    between atoms: C32_5  and  C34_6 
REMARK    2  A    between atoms: C30_11  and  C12_12 
REMARK    3  A    between atoms: C13_13  and  N3_14 
REMARK    4  A    between atoms: C11_15  and  C14_16 
REMARK    5  A    between atoms: C8_19  and  C7_20 
REMARK    6  A    between atoms: C7_20  and  C1_22 
REMARK    7  A    between atoms: N2_25  and  C4_26 
REMARK    8  A    between atoms: N1_32  and  C5_33 
REMARK    9  A    between atoms: C2_34  and  C6_35 
ROOT
ATOM      1  C12 3Z5 d   1      26.662   8.980   2.008  0.00  0.00     0.007 A 
ATOM      2  C13 3Z5 d   1      27.295   9.529   3.135  0.00  0.00     0.051 A 
ATOM      3  C11 3Z5 d   1      25.343   8.502   2.120  0.00  0.00    -0.049 A 
ATOM      4  C10 3Z5 d   1      24.679   8.552   3.344  0.00  0.00    -0.075 A 
ATOM      5  C9  3Z5 d   1      25.307   9.094   4.459  0.00  0.00    -0.066 A 
ATOM      6  C8  3Z5 d   1      26.617   9.573   4.371  0.00  0.00     0.042 A 
ATOM      7  H14 3Z5 d   1      23.669   8.167   3.427  0.00  0.00     0.084 H 
ATOM      8  H15 3Z5 d   1      24.777   9.146   5.403  0.00  0.00     0.085 H 
ENDROOT
BRANCH   6   9
ATOM      9  C7  3Z5 d   1      27.319  10.178   5.612  0.00  0.00     0.202 C 
ATOM     10  O2  3Z5 d   1      28.295  10.902   5.434  0.00  0.00    -0.286 OA
BRANCH   9  11
ATOM     11  C1  3Z5 d   1      26.866   9.916   7.060  0.00  0.00     0.114 A 
ATOM     12  C3  3Z5 d   1      26.245   8.791   7.576  0.00  0.00     0.283 A 
ATOM     13  O1  3Z5 d   1      25.913   7.778   6.955  0.00  0.00    -0.265 OA
ATOM     14  N2  3Z5 d   1      26.052   9.000   8.881  0.00  0.00    -0.218 N 
ATOM     15  N1  3Z5 d   1      26.509  10.115   9.205  0.00  0.00    -0.285 N 
ATOM     16  C2  3Z5 d   1      27.033  10.766   8.156  0.00  0.00     0.081 A 
BRANCH  14  17
ATOM     17  C4  3Z5 d   1      25.488   8.106   9.714  0.00  0.00     0.060 A 
ATOM     18  C15 3Z5 d   1      24.127   7.806   9.659  0.00  0.00    -0.055 A 
ATOM     19  C16 3Z5 d   1      23.582   6.864  10.539  0.00  0.00    -0.081 A 
ATOM     20  H16 3Z5 d   1      23.491   8.302   8.935  0.00  0.00     0.087 H 
ATOM     21  C17 3Z5 d   1      24.395   6.212  11.472  0.00  0.00    -0.083 A 
ATOM     22  H17 3Z5 d   1      22.523   6.638  10.497  0.00  0.00     0.083 H 
ATOM     23  C18 3Z5 d   1      25.759   6.504  11.534  0.00  0.00    -0.081 A 
ATOM     24  H18 3Z5 d   1      23.966   5.480  12.147  0.00  0.00     0.083 H 
ATOM     25  C19 3Z5 d   1      26.298   7.442  10.651  0.00  0.00    -0.055 A 
ATOM     26  H19 3Z5 d   1      26.393   6.008  12.260  0.00  0.00     0.083 H 
ATOM     27  H20 3Z5 d   1      27.359   7.662  10.689  0.00  0.00     0.087 H 
ENDBRANCH  14  17
BRANCH  15  28
ATOM     28  C5  3Z5 d   1      26.470  10.680  10.577  0.00  0.00     0.002 C 
ATOM     29  H21 3Z5 d   1      26.942  11.674  10.578  0.00  0.00     0.059 H 
ATOM     30  H22 3Z5 d   1      27.015  10.015  11.263  0.00  0.00     0.059 H 
ATOM     31  H23 3Z5 d   1      25.424  10.770  10.907  0.00  0.00     0.059 H 
ENDBRANCH  15  28
BRANCH  16  32
ATOM     32  C6  3Z5 d   1      27.631  12.041   8.146  0.00  0.00    -0.007 A 
ATOM     33  C20 3Z5 d   1      28.751  12.280   8.956  0.00  0.00    -0.071 A 
ATOM     34  C21 3Z5 d   1      29.367  13.530   8.989  0.00  0.00    -0.082 A 
ATOM     35  H24 3Z5 d   1      29.145  11.477   9.568  0.00  0.00     0.084 H 
ATOM     36  C22 3Z5 d   1      28.863  14.564   8.199  0.00  0.00    -0.083 A 
ATOM     37  H25 3Z5 d   1      30.230  13.697   9.623  0.00  0.00     0.083 H 
ATOM     38  C23 3Z5 d   1      27.747  14.333   7.392  0.00  0.00    -0.082 A 
ATOM     39  H26 3Z5 d   1      29.335  15.540   8.212  0.00  0.00     0.083 H 
ATOM     40  C24 3Z5 d   1      27.128  13.081   7.362  0.00  0.00    -0.071 A 
ATOM     41  H27 3Z5 d   1      27.355  15.137   6.780  0.00  0.00     0.083 H 
ATOM     42  H28 3Z5 d   1      26.261  12.918   6.733  0.00  0.00     0.084 H 
ENDBRANCH  16  32
ENDBRANCH   9  11
ENDBRANCH   6   9
BRANCH   2  43
ATOM     43  N3  3Z5 d   1      28.547  10.004   3.045  0.00  0.00    -0.398 N 
ATOM     44  H9  3Z5 d   1      29.046   9.974   2.144  0.00  0.00     0.156 HD
ATOM     45  H10 3Z5 d   1      29.009  10.399   3.877  0.00  0.00     0.156 HD
ENDBRANCH   2  43
BRANCH   1  46
ATOM     46  C30 3Z5 d   1      27.307   8.950   0.763  0.00  0.00    -0.022 A 
ATOM     47  C27 3Z5 d   1      28.013   7.839   0.288  0.00  0.00    -0.060 A 
ATOM     48  C25 3Z5 d   1      28.610   7.883  -0.975  0.00  0.00    -0.006 A 
ATOM     49  H1  3Z5 d   1      28.097   6.947   0.898  0.00  0.00     0.086 H 
ATOM     50  C28 3Z5 d   1      29.331   6.794  -1.470  0.00  0.00    -0.069 A 
ATOM     51  C26 3Z5 d   1      28.499   9.031  -1.767  0.00  0.00     0.067 A 
ATOM     52  C31 3Z5 d   1      29.918   6.881  -2.738  0.00  0.00    -0.059 A 
ATOM     53  H2  3Z5 d   1      29.435   5.891  -0.879  0.00  0.00     0.085 H 
ATOM     54  C32 3Z5 d   1      29.771   8.050  -3.485  0.00  0.00     0.031 A 
ATOM     55  H3  3Z5 d   1      30.483   6.046  -3.136  0.00  0.00     0.086 H 
ATOM     56  N4  3Z5 d   1      29.070   9.087  -2.983  0.00  0.00    -0.253 NA
ATOM     57  C29 3Z5 d   1      27.790  10.131  -1.300  0.00  0.00    -0.053 A 
ATOM     58  C33 3Z5 d   1      27.197  10.086  -0.042  0.00  0.00    -0.070 A 
ATOM     59  H7  3Z5 d   1      27.699  11.020  -1.913  0.00  0.00     0.087 H 
ATOM     60  H8  3Z5 d   1      26.642  10.945   0.318  0.00  0.00     0.084 H 
BRANCH  54  61
ATOM     61  C34 3Z5 d   1      30.404   8.172  -4.883  0.00  0.00    -0.035 C 
ATOM     62  H4  3Z5 d   1      30.175   9.162  -5.304  0.00  0.00     0.035 H 
ATOM     63  H5  3Z5 d   1      29.994   7.391  -5.540  0.00  0.00     0.035 H 
ATOM     64  H6  3Z5 d   1      31.494   8.050  -4.804  0.00  0.00     0.035 H 
ENDBRANCH  54  61
ENDBRANCH   1  46
BRANCH   3  65
ATOM     65  C14 3Z5 d   1      24.580   7.904   0.923  0.00  0.00    -0.050 C 
ATOM     66  H11 3Z5 d   1      23.573   7.599   1.245  0.00  0.00     0.033 H 
ATOM     67  H12 3Z5 d   1      25.124   7.027   0.542  0.00  0.00     0.033 H 
ATOM     68  H13 3Z5 d   1      24.498   8.658   0.127  0.00  0.00     0.033 H 
ENDBRANCH   3  65
TORSDOF 9
