REMARK  6 active torsions:
REMARK  status: ('A' for Active; 'I' for Inactive)
REMARK    1  A    between atoms: C23_2  and  C9_5 
REMARK    2  A    between atoms: C7_11  and  C22_12 
REMARK    3  A    between atoms: C22_12  and  C21_13 
REMARK       I    between atoms: C21_13  and  N4_15 
REMARK    4  A    between atoms: N3_27  and  C25_28 
REMARK    5  A    between atoms: C3_31  and  C24_32 
REMARK    6  A    between atoms: C4_34  and  N5_35 
ROOT
ATOM      1  C21 3Z6 d   1     -41.155  47.251  -7.452  0.00  0.00     0.232 C 
ATOM      2  O1  3Z6 d   1     -40.420  46.319  -7.794  0.00  0.00    -0.272 OA
ATOM      3  N4  3Z6 d   1     -41.855  47.967  -8.349  0.00  0.00    -0.292 N 
ATOM      4  C15 3Z6 d   1     -42.781  49.013  -7.890  0.00  0.00    -0.011 C 
ATOM      5  C16 3Z6 d   1     -43.485  49.485  -9.150  0.00  0.00    -0.055 C 
ATOM      6  C13 3Z6 d   1     -43.017  48.493 -10.205  0.00  0.00    -0.007 A 
ATOM      7  C20 3Z6 d   1     -43.425  48.348 -11.537  0.00  0.00    -0.060 A 
ATOM      8  C14 3Z6 d   1     -42.022  47.668  -9.647  0.00  0.00     0.052 A 
ATOM      9  C19 3Z6 d   1     -41.467  46.677 -10.454  0.00  0.00    -0.055 A 
ATOM     10  C18 3Z6 d   1     -41.880  46.532 -11.787  0.00  0.00    -0.070 A 
ATOM     11  C17 3Z6 d   1     -42.836  47.382 -12.354  0.00  0.00    -0.023 A 
ATOM     12  C5  3Z6 d   1     -43.292  47.168 -13.662  0.00  0.00     0.008 A 
ATOM     13  C1  3Z6 d   1     -42.614  47.058 -14.883  0.00  0.00     0.068 A 
ATOM     14  C6  3Z6 d   1     -44.583  46.906 -13.915  0.00  0.00    -0.007 A 
ATOM     15  N3  3Z6 d   1     -44.746  46.682 -15.215  0.00  0.00    -0.344 N 
ATOM     16  C2  3Z6 d   1     -43.587  46.765 -15.846  0.00  0.00     0.146 A 
ATOM     17  N1  3Z6 d   1     -43.272  46.616 -17.145  0.00  0.00    -0.215 NA
ATOM     18  C3  3Z6 d   1     -42.001  46.744 -17.539  0.00  0.00     0.126 A 
ATOM     19  N2  3Z6 d   1     -41.030  47.029 -16.637  0.00  0.00    -0.216 NA
ATOM     20  C4  3Z6 d   1     -41.304  47.193 -15.322  0.00  0.00     0.138 A 
ATOM     21  H6  3Z6 d   1     -42.929  49.370  -6.872  0.00  0.00     0.112 H 
ATOM     22  H7  3Z6 d   1     -44.162  50.330  -9.270  0.00  0.00     0.087 H 
ATOM     23  H8  3Z6 d   1     -44.203  48.990 -11.935  0.00  0.00     0.086 H 
ATOM     24  H9  3Z6 d   1     -40.711  46.014 -10.049  0.00  0.00     0.087 H 
ATOM     25  H10 3Z6 d   1     -41.448  45.743 -12.392  0.00  0.00     0.084 H 
ATOM     26  H11 3Z6 d   1     -45.376  46.881 -13.169  0.00  0.00     0.113 H 
ENDROOT
BRANCH  20  27
ATOM     27  N5  3Z6 d   1     -40.333  47.473 -14.460  0.00  0.00    -0.383 N 
ATOM     28  H18 3Z6 d   1     -39.363  47.572 -14.791  0.00  0.00     0.157 HD
ATOM     29  H19 3Z6 d   1     -40.550  47.591 -13.460  0.00  0.00     0.157 HD
ENDBRANCH  20  27
BRANCH  15  30
ATOM     30  C25 3Z6 d   1     -46.039  46.385 -15.874  0.00  0.00    -0.013 C 
ATOM     31  H12 3Z6 d   1     -46.841  46.375 -15.121  0.00  0.00     0.057 H 
ATOM     32  H13 3Z6 d   1     -45.984  45.401 -16.363  0.00  0.00     0.057 H 
ATOM     33  H14 3Z6 d   1     -46.253  47.158 -16.627  0.00  0.00     0.057 H 
ENDBRANCH  15  30
BRANCH   1  34
ATOM     34  C22 3Z6 d   1     -41.266  47.614  -5.959  0.00  0.00     0.034 C 
ATOM     35  H4  3Z6 d   1     -42.249  48.075  -5.784  0.00  0.00     0.054 H 
ATOM     36  H5  3Z6 d   1     -41.184  46.690  -5.368  0.00  0.00     0.054 H 
BRANCH  34  37
ATOM     37  C7  3Z6 d   1     -40.190  48.581  -5.493  0.00  0.00    -0.046 A 
ATOM     38  C8  3Z6 d   1     -40.555  49.844  -5.028  0.00  0.00    -0.062 A 
ATOM     39  C9  3Z6 d   1     -39.572  50.735  -4.598  0.00  0.00     0.051 A 
ATOM     40  H1  3Z6 d   1     -41.600  50.132  -5.001  0.00  0.00     0.085 H 
ATOM     41  C10 3Z6 d   1     -38.223  50.346  -4.635  0.00  0.00    -0.031 A 
ATOM     42  C11 3Z6 d   1     -37.868  49.072  -5.095  0.00  0.00     0.117 A 
ATOM     43  H2  3Z6 d   1     -37.453  51.035  -4.306  0.00  0.00     0.089 H 
ATOM     44  F4  3Z6 d   1     -36.585  48.657  -5.133  0.00  0.00    -0.206 F 
ATOM     45  C12 3Z6 d   1     -38.853  48.188  -5.515  0.00  0.00    -0.039 A 
ATOM     46  H3  3Z6 d   1     -38.583  47.196  -5.859  0.00  0.00     0.089 H 
BRANCH  39  47
ATOM     47  C23 3Z6 d   1     -39.994  52.127  -4.083  0.00  0.00     0.417 C 
ATOM     48  F1  3Z6 d   1     -41.051  52.052  -3.293  0.00  0.00    -0.166 F 
ATOM     49  F2  3Z6 d   1     -39.021  52.644  -3.343  0.00  0.00    -0.166 F 
ATOM     50  F3  3Z6 d   1     -40.310  52.906  -5.112  0.00  0.00    -0.166 F 
ENDBRANCH  39  47
ENDBRANCH  34  37
ENDBRANCH   1  34
BRANCH  18  51
ATOM     51  C24 3Z6 d   1     -41.685  46.564 -19.024  0.00  0.00    -0.019 C 
ATOM     52  H15 3Z6 d   1     -42.612  46.340 -19.572  0.00  0.00     0.037 H 
ATOM     53  H16 3Z6 d   1     -40.975  45.733 -19.150  0.00  0.00     0.037 H 
ATOM     54  H17 3Z6 d   1     -41.240  47.489 -19.419  0.00  0.00     0.037 H 
ENDBRANCH  18  51
TORSDOF 6
