REMARK  5 active torsions:
REMARK  status: ('A' for Active; 'I' for Inactive)
REMARK    1  A    between atoms: C9_2  and  C10_4 
REMARK       I    between atoms: C10_4  and  N1_19 
REMARK    2  A    between atoms: N1_19  and  C11_5 
REMARK    3  A    between atoms: C6_12  and  C7_7 
REMARK    4  A    between atoms: C15_20  and  O1_13 
REMARK    5  A    between atoms: O1_13  and  C16_24 
ROOT
ATOM      1  C11 3YR d   1      53.352  19.918   2.498  0.00  0.00     0.086 A 
ATOM      2  C12 3YR d   1      52.872  19.010   1.562  0.00  0.00     0.030 A 
ATOM      3  C15 3YR d   1      52.630  20.194   3.655  0.00  0.00     0.099 A 
ATOM      4  C14 3YR d   1      51.418  19.565   3.860  0.00  0.00    -0.032 A 
ATOM      5  C13 3YR d   1      50.985  18.684   2.887  0.00  0.00     0.004 A 
ATOM      6  N2  3YR d   1      51.705  18.431   1.781  0.00  0.00    -0.271 NA
ATOM      7  H2  3YR d   1      53.444  18.781   0.670  0.00  0.00     0.118 H 
ATOM      8  H7  3YR d   1      50.829  19.755   4.750  0.00  0.00     0.090 H 
ATOM      9  H8  3YR d   1      50.034  18.181   3.020  0.00  0.00     0.114 H 
ENDROOT
BRANCH   1  10
ATOM     10  N1  3YR d   1      54.543  20.548   2.391  0.00  0.00    -0.318 N 
ATOM     11  C10 3YR d   1      55.394  20.367   1.397  0.00  0.00     0.275 C 
ATOM     12  O2  3YR d   1      55.173  19.732   0.391  0.00  0.00    -0.266 OA
ATOM     13  H6  3YR d   1      54.797  21.193   3.111  0.00  0.00     0.169 HD
BRANCH  11  14
ATOM     14  C9  3YR d   1      56.685  21.032   1.576  0.00  0.00     0.132 A 
ATOM     15  C8  3YR d   1      57.734  21.029   0.686  0.00  0.00    -0.010 A 
ATOM     16  S   3YR d   1      58.957  21.921   1.330  0.00  0.00    -0.079 SA
ATOM     17  H1  3YR d   1      57.752  20.523  -0.278  0.00  0.00     0.099 H 
ATOM     18  C7  3YR d   1      58.109  22.311   2.773  0.00  0.00     0.114 A 
ATOM     19  N4  3YR d   1      56.913  21.734   2.693  0.00  0.00    -0.235 NA
BRANCH  18  20
ATOM     20  C6  3YR d   1      58.624  23.097   3.811  0.00  0.00     0.077 A 
ATOM     21  C5  3YR d   1      57.846  23.345   4.933  0.00  0.00     0.132 A 
ATOM     22  C4  3YR d   1      58.323  24.127   5.987  0.00  0.00    -0.044 A 
ATOM     23  F2  3YR d   1      56.608  22.820   5.039  0.00  0.00    -0.205 F 
ATOM     24  C3  3YR d   1      59.596  24.665   5.925  0.00  0.00    -0.077 A 
ATOM     25  H5  3YR d   1      57.697  24.312   6.852  0.00  0.00     0.088 H 
ATOM     26  C2  3YR d   1      60.371  24.411   4.813  0.00  0.00    -0.044 A 
ATOM     27  H3  3YR d   1      59.977  25.275   6.736  0.00  0.00     0.083 H 
ATOM     28  C1  3YR d   1      59.887  23.625   3.759  0.00  0.00     0.132 A 
ATOM     29  H4  3YR d   1      61.371  24.826   4.753  0.00  0.00     0.088 H 
ATOM     30  F1  3YR d   1      60.648  23.419   2.670  0.00  0.00    -0.205 F 
ENDBRANCH  18  20
ENDBRANCH  11  14
ENDBRANCH   1  10
BRANCH   3  31
ATOM     31  O1  3YR d   1      53.157  21.093   4.557  0.00  0.00    -0.342 OA
BRANCH  31  32
ATOM     32  C16 3YR d   1      52.573  21.330   5.850  0.00  0.00     0.070 C 
ATOM     33  C19 3YR d   1      51.450  22.356   5.702  0.00  0.00     0.106 C 
ATOM     34  N3  3YR d   1      52.185  23.592   5.814  0.00  0.00    -0.073 N 
ATOM     35  H10 3YR d   1      50.704  22.256   6.504  0.00  0.00     0.079 H 
ATOM     36  H11 3YR d   1      50.952  22.270   4.725  0.00  0.00     0.079 H 
ATOM     37  C18 3YR d   1      53.522  23.457   6.360  0.00  0.00     0.084 C 
ATOM     38  H12 3YR d   1      51.663  24.214   6.412  0.00  0.00     0.277 HD
ATOM     39  H13 3YR d   1      52.261  23.996   4.894  0.00  0.00     0.277 HD
ATOM     40  C17 3YR d   1      53.608  21.997   6.736  0.00  0.00    -0.016 C 
ATOM     41  H14 3YR d   1      53.651  24.098   7.244  0.00  0.00     0.075 H 
ATOM     42  H15 3YR d   1      54.281  23.714   5.607  0.00  0.00     0.075 H 
ATOM     43  H16 3YR d   1      54.613  21.599   6.532  0.00  0.00     0.039 H 
ATOM     44  H17 3YR d   1      53.365  21.852   7.799  0.00  0.00     0.039 H 
ATOM     45  H9  3YR d   1      52.207  20.392   6.292  0.00  0.00     0.086 H 
ENDBRANCH  31  32
ENDBRANCH   3  31
TORSDOF 5
