REMARK  8 active torsions:
REMARK  status: ('A' for Active; 'I' for Inactive)
REMARK    1  A    between atoms: C16_8  and  C24_15 
REMARK    2  A    between atoms: C18_11  and  O19_32 
REMARK    3  A    between atoms: C4_12  and  C12_14 
REMARK       I    between atoms: C24_15  and  N26_29 
REMARK    4  A    between atoms: C30_20  and  N31_30 
REMARK    5  A    between atoms: C2_24  and  C1_21 
REMARK    6  A    between atoms: N22_27  and  C23_22 
REMARK    7  A    between atoms: O19_32  and  C20_23 
REMARK    8  A    between atoms: C2_24  and  N3_28 
ROOT
ATOM      1  C15 3Z0 d   1      27.137  42.514  25.414  0.00  0.00    -0.037 A 
ATOM      2  C17 3Z0 d   1      24.956  43.589  25.332  0.00  0.00    -0.033 A 
ATOM      3  C16 3Z0 d   1      25.914  42.745  24.827  0.00  0.00     0.037 A 
ATOM      4  C14 3Z0 d   1      27.385  43.192  26.591  0.00  0.00     0.090 A 
ATOM      5  C21 3Z0 d   1      26.433  44.044  27.110  0.00  0.00     0.098 A 
ATOM      6  C18 3Z0 d   1      25.222  44.253  26.502  0.00  0.00     0.098 A 
ATOM      7  C12 3Z0 d   1      28.223  43.987  28.371  0.00  0.00     0.158 A 
ATOM      8  N13 3Z0 d   1      28.502  43.165  27.386  0.00  0.00    -0.226 NA
ATOM      9  N22 3Z0 d   1      26.985  44.543  28.251  0.00  0.00    -0.330 N 
ATOM     10  H4  3Z0 d   1      27.864  41.839  24.977  0.00  0.00     0.088 H 
ATOM     11  H5  3Z0 d   1      24.012  43.727  24.818  0.00  0.00     0.089 H 
ENDROOT
BRANCH   3  12
ATOM     12  C24 3Z0 d   1      25.618  42.049  23.583  0.00  0.00     0.254 C 
ATOM     13  N26 3Z0 d   1      25.349  42.808  22.475  0.00  0.00    -0.346 N 
ATOM     14  C27 3Z0 d   1      25.522  44.232  22.520  0.00  0.00    -0.002 C 
ATOM     15  C32 3Z0 d   1      25.046  42.190  21.215  0.00  0.00     0.024 C 
ATOM     16  C28 3Z0 d   1      24.342  44.915  21.878  0.00  0.00    -0.048 C 
ATOM     17  H11 3Z0 d   1      25.605  44.556  23.568  0.00  0.00     0.064 H 
ATOM     18  H12 3Z0 d   1      26.440  44.505  21.978  0.00  0.00     0.064 H 
ATOM     19  C29 3Z0 d   1      24.140  44.365  20.489  0.00  0.00    -0.036 C 
ATOM     20  H7  3Z0 d   1      23.440  44.732  22.480  0.00  0.00     0.035 H 
ATOM     21  H8  3Z0 d   1      24.531  45.997  21.820  0.00  0.00     0.035 H 
ATOM     22  C30 3Z0 d   1      23.873  42.883  20.567  0.00  0.00     0.115 C 
ATOM     23  H9  3Z0 d   1      25.045  44.543  19.889  0.00  0.00     0.036 H 
ATOM     24  H10 3Z0 d   1      23.283  44.867  20.017  0.00  0.00     0.036 H 
ATOM     25  H15 3Z0 d   1      22.940  42.676  21.111  0.00  0.00     0.086 H 
ATOM     26  H13 3Z0 d   1      25.922  42.263  20.554  0.00  0.00     0.067 H 
ATOM     27  H14 3Z0 d   1      24.798  41.131  21.380  0.00  0.00     0.067 H 
ATOM     28  O25 3Z0 d   1      25.624  40.827  23.556  0.00  0.00    -0.267 OA
BRANCH  22  29
ATOM     29  N31 3Z0 d   1      23.814  42.395  19.170  0.00  0.00    -0.073 N 
ATOM     30  H27 3Z0 d   1      23.041  42.833  18.694  0.00  0.00     0.274 HD
ATOM     31  H28 3Z0 d   1      23.687  41.395  19.168  0.00  0.00     0.274 HD
ATOM     32  H29 3Z0 d   1      24.674  42.625  18.697  0.00  0.00     0.274 HD
ENDBRANCH  22  29
ENDBRANCH   3  12
BRANCH   6  33
ATOM     33  O19 3Z0 d   1      24.354  45.126  27.113  0.00  0.00    -0.354 OA
BRANCH  33  34
ATOM     34  C20 3Z0 d   1      23.659  46.043  26.284  0.00  0.00     0.010 C 
ATOM     35  H22 3Z0 d   1      23.005  46.674  26.904  0.00  0.00     0.066 H 
ATOM     36  H23 3Z0 d   1      23.050  45.489  25.555  0.00  0.00     0.066 H 
ATOM     37  H24 3Z0 d   1      24.383  46.677  25.751  0.00  0.00     0.066 H 
ENDBRANCH  33  34
ENDBRANCH   6  33
BRANCH   9  38
ATOM     38  C23 3Z0 d   1      26.378  45.484  29.165  0.00  0.00    -0.012 C 
ATOM     39  H19 3Z0 d   1      25.375  45.752  28.802  0.00  0.00     0.057 H 
ATOM     40  H20 3Z0 d   1      27.000  46.389  29.226  0.00  0.00     0.057 H 
ATOM     41  H21 3Z0 d   1      26.297  45.027  30.162  0.00  0.00     0.057 H 
ENDBRANCH   9  38
BRANCH   7  42
ATOM     42  C4  3Z0 d   1      29.099  44.292  29.434  0.00  0.00     0.083 A 
ATOM     43  C5  3Z0 d   1      28.983  44.064  30.787  0.00  0.00    -0.040 A 
ATOM     44  C6  3Z0 d   1      30.154  44.578  31.398  0.00  0.00     0.012 A 
ATOM     45  H3  3Z0 d   1      28.149  43.580  31.292  0.00  0.00     0.088 H 
ATOM     46  C7  3Z0 d   1      30.648  44.668  32.681  0.00  0.00    -0.068 A 
ATOM     47  C11 3Z0 d   1      30.945  45.102  30.399  0.00  0.00     0.140 A 
ATOM     48  C8  3Z0 d   1      31.869  45.258  32.888  0.00  0.00    -0.065 A 
ATOM     49  H2  3Z0 d   1      30.079  44.277  33.517  0.00  0.00     0.085 H 
ATOM     50  C9  3Z0 d   1      32.546  45.735  31.793  0.00  0.00     0.004 A 
ATOM     51  H1  3Z0 d   1      32.286  45.345  33.885  0.00  0.00     0.085 H 
ATOM     52  N10 3Z0 d   1      32.136  45.687  30.524  0.00  0.00    -0.242 NA
ATOM     53  H6  3Z0 d   1      33.509  46.197  31.978  0.00  0.00     0.114 H 
ATOM     54  N3  3Z0 d   1      30.291  44.920  29.216  0.00  0.00    -0.328 N 
BRANCH  54  55
ATOM     55  C2  3Z0 d   1      30.787  45.330  27.922  0.00  0.00    -0.002 C 
ATOM     56  H25 3Z0 d   1      30.068  45.036  27.143  0.00  0.00     0.064 H 
ATOM     57  H26 3Z0 d   1      30.917  46.422  27.907  0.00  0.00     0.064 H 
BRANCH  55  58
ATOM     58  C1  3Z0 d   1      32.113  44.661  27.663  0.00  0.00    -0.061 C 
ATOM     59  H16 3Z0 d   1      32.494  44.971  26.679  0.00  0.00     0.029 H 
ATOM     60  H17 3Z0 d   1      31.982  43.569  27.678  0.00  0.00     0.029 H 
ATOM     61  H18 3Z0 d   1      32.831  44.955  28.443  0.00  0.00     0.029 H 
ENDBRANCH  55  58
ENDBRANCH  54  55
ENDBRANCH   7  42
TORSDOF 8
