REMARK WARNING: 32 MAX_TORS EXCEEDED!!!
REMARK  48 active torsions:
REMARK  status: ('A' for Active; 'I' for Inactive)
REMARK    1  A    between atoms: N_1  and  CA_2 
REMARK    2  A    between atoms: CA_2  and  C_3 
REMARK    3  A    between atoms: CA_2  and  CB_5 
REMARK       I    between atoms: C_3  and  N_10 
REMARK    4  A    between atoms: CB_5  and  CG_6 
REMARK    5  A    between atoms: CG_6  and  CD_7 
REMARK    6  A    between atoms: N_10  and  CA_11 
REMARK    7  A    between atoms: CA_11  and  C_12 
REMARK    8  A    between atoms: CA_11  and  CB_14 
REMARK       I    between atoms: C_12  and  N_21 
REMARK    9  A    between atoms: CB_14  and  CG_15 
REMARK   10  A    between atoms: CG_15  and  CD_16 
REMARK   11  A    between atoms: CD_16  and  NE_17 
REMARK       I    between atoms: NE_17  and  CZ_18 
REMARK       I    between atoms: CZ_18  and  NH1_19 
REMARK   12  A    between atoms: N_21  and  CA_22 
REMARK   13  A    between atoms: CA_22  and  C_23 
REMARK   14  A    between atoms: CA_22  and  CB_25 
REMARK       I    between atoms: C_23  and  N_30 
REMARK   15  A    between atoms: CB_25  and  CG_26 
REMARK   16  A    between atoms: CG_26  and  CD_27 
REMARK   17  A    between atoms: N_30  and  CA_31 
REMARK   18  A    between atoms: CA_31  and  CB_32 
REMARK   19  A    between atoms: CA_31  and  C_34 
REMARK   20  A    between atoms: CB_32  and  OG_33 
REMARK   21  A    between atoms: OG_33  and  P_36 
REMARK       I    between atoms: C_34  and  N_40 
REMARK   22  A    between atoms: N_40  and  CA_41 
REMARK   23  A    between atoms: CA_41  and  C_42 
REMARK   24  A    between atoms: CA_41  and  CB_44 
REMARK       I    between atoms: C_42  and  N_49 
REMARK   25  A    between atoms: CB_44  and  CG_45 
REMARK   26  A    between atoms: CG_45  and  CD_46 
REMARK   27  A    between atoms: N_49  and  CA_50 
REMARK   28  A    between atoms: CA_50  and  C_51 
REMARK   29  A    between atoms: CA_50  and  CB_53 
REMARK       I    between atoms: C_51  and  N_60 
REMARK   30  A    between atoms: CB_53  and  CG_54 
REMARK   31  A    between atoms: N_60  and  CA_61 
REMARK   32  A    between atoms: CA_61  and  C_62 
REMARK   33  A    between atoms: CA_61  and  CB_64 
REMARK       I    between atoms: C_62  and  N_68 
REMARK   34  A    between atoms: CB_64  and  CG_65 
REMARK   35  A    between atoms: N_68  and  CA_69 
REMARK   36  A    between atoms: CA_69  and  C_70 
REMARK   37  A    between atoms: CA_69  and  CB_72 
REMARK       I    between atoms: C_70  and  N_76 
REMARK   38  A    between atoms: CB_72  and  CG1_73 
REMARK   39  A    between atoms: CB_72  and  CG2_74 
REMARK   40  A    between atoms: CG1_73  and  CD1_75 
REMARK   41  A    between atoms: N_76  and  CA_77 
REMARK   42  A    between atoms: CA_77  and  C_78 
REMARK   43  A    between atoms: CA_77  and  CB_80 
REMARK       I    between atoms: C_78  and  N_85 
REMARK   44  A    between atoms: CB_80  and  CG_81 
REMARK   45  A    between atoms: CG_81  and  CD_82 
REMARK   46  A    between atoms: N_85  and  CA_86 
REMARK   47  A    between atoms: CA_86  and  C_87 
REMARK   48  A    between atoms: CA_86  and  CB_89 
ROOT
ATOM      1  CA  GLU d   1     -29.479   2.886 -27.149  0.00  0.00     0.090 C 
ATOM      2  H33 GLU d   1     -30.297   2.245 -27.508  0.00  0.00     0.087 H 
ENDROOT
BRANCH   1   3
ATOM      3  N   GLU d   1     -29.775   3.237 -25.758  0.00  0.00    -0.346 N 
ATOM      4  C   SEP d   1     -29.851   2.321 -24.794  0.00  0.00     0.243 C 
ATOM      5  O   SEP d   1     -29.571   1.134 -24.978  0.00  0.00    -0.271 OA
ATOM      6  H32 GLU d   1     -29.925   4.198 -25.524  0.00  0.00     0.163 HD
BRANCH   4   7
ATOM      7  CA  SEP d   1     -30.323   2.797 -23.414  0.00  0.00     0.110 C 
ATOM      8  H29 SEP d   1     -29.439   2.930 -22.773  0.00  0.00     0.090 H 
BRANCH   7   9
ATOM      9  N   SEP d   1     -31.050   4.065 -23.457  0.00  0.00    -0.344 N 
ATOM     10  C   GLU d   1     -30.459   5.239 -23.250  0.00  0.00     0.241 C 
ATOM     11  O   GLU d   1     -29.240   5.367 -23.053  0.00  0.00    -0.271 OA
ATOM     12  H28 SEP d   1     -32.031   4.049 -23.650  0.00  0.00     0.163 HD
BRANCH  10  13
ATOM     13  CA  GLU d   1     -31.384   6.449 -23.293  0.00  0.00     0.090 C 
ATOM     14  H23 GLU d   1     -30.781   7.342 -23.516  0.00  0.00     0.087 H 
BRANCH  13  15
ATOM     15  N   GLU d   1     -32.397   6.296 -24.352  0.00  0.00    -0.346 N 
ATOM     16  C   ARG d   1     -32.072   6.172 -25.643  0.00  0.00     0.241 C 
ATOM     17  O   ARG d   1     -30.908   6.185 -26.048  0.00  0.00    -0.271 OA
ATOM     18  H22 GLU d   1     -33.364   6.285 -24.096  0.00  0.00     0.163 HD
BRANCH  16  19
ATOM     19  CA  ARG d   1     -33.232   6.009 -26.619  0.00  0.00     0.089 C 
ATOM     20  H10 ARG d   1     -34.068   6.627 -26.260  0.00  0.00     0.087 H 
BRANCH  19  21
ATOM     21  N   ARG d   1     -32.888   6.466 -27.971  0.00  0.00    -0.346 N 
ATOM     22  C   GLU d   1     -33.060   7.731 -28.346  0.00  0.00     0.249 C 
ATOM     23  O   GLU d   1     -33.509   8.598 -27.591  0.00  0.00    -0.271 OA
ATOM     24  H9  ARG d   1     -32.515   5.810 -28.627  0.00  0.00     0.163 HD
BRANCH  22  25
ATOM     25  CA  GLU d   1     -32.669   8.084 -29.780  0.00  0.00     0.176 C 
ATOM     26  H4  GLU d   1     -32.721   7.170 -30.390  0.00  0.00     0.099 H 
BRANCH  25  27
ATOM     27  N   GLU d   1     -33.577   9.072 -30.352  0.00  0.00    -0.066 N 
ATOM     28  H1  GLU d   1     -33.293   9.283 -31.296  0.00  0.00     0.275 HD
ATOM     29  H2  GLU d   1     -33.551   9.913 -29.797  0.00  0.00     0.275 HD
ATOM     30  H3  GLU d   1     -34.515   8.703 -30.358  0.00  0.00     0.275 HD
ENDBRANCH  25  27
BRANCH  25  31
ATOM     31  CB  GLU d   1     -31.243   8.614 -29.813  0.00  0.00    -0.021 C 
ATOM     32  H5  GLU d   1     -31.119   9.330 -28.988  0.00  0.00     0.037 H 
ATOM     33  H6  GLU d   1     -31.085   9.129 -30.772  0.00  0.00     0.037 H 
BRANCH  31  34
ATOM     34  CG  GLU d   1     -30.197   7.540 -29.672  0.00  0.00     0.018 C 
ATOM     35  H7  GLU d   1     -30.418   6.730 -30.383  0.00  0.00     0.049 H 
ATOM     36  H8  GLU d   1     -30.226   7.145 -28.646  0.00  0.00     0.049 H 
BRANCH  34  37
ATOM     37  CD  GLU d   1     -28.825   8.071 -29.951  0.00  0.00     0.172 C 
ATOM     38  OE1 GLU d   1     -28.573   8.464 -31.109  0.00  0.00    -0.648 OA
ATOM     39  OE2 GLU d   1     -28.016   8.130 -29.004  0.00  0.00    -0.648 OA
ENDBRANCH  34  37
ENDBRANCH  31  34
ENDBRANCH  25  31
ENDBRANCH  22  25
ENDBRANCH  19  21
BRANCH  19  40
ATOM     40  CB  ARG d   1     -33.689   4.547 -26.632  0.00  0.00    -0.036 C 
ATOM     41  H11 ARG d   1     -33.670   4.173 -25.598  0.00  0.00     0.036 H 
ATOM     42  H12 ARG d   1     -32.978   3.971 -27.243  0.00  0.00     0.036 H 
BRANCH  40  43
ATOM     43  CG  ARG d   1     -35.086   4.321 -27.192  0.00  0.00    -0.048 C 
ATOM     44  H13 ARG d   1     -35.167   4.813 -28.172  0.00  0.00     0.035 H 
ATOM     45  H14 ARG d   1     -35.826   4.753 -26.503  0.00  0.00     0.035 H 
BRANCH  43  46
ATOM     46  CD  ARG d   1     -35.363   2.833 -27.355  0.00  0.00     0.009 C 
ATOM     47  H15 ARG d   1     -36.341   2.703 -27.842  0.00  0.00     0.064 H 
ATOM     48  H16 ARG d   1     -35.383   2.362 -26.361  0.00  0.00     0.064 H 
BRANCH  46  49
ATOM     49  NE  ARG d   1     -34.338   2.181 -28.168  0.00  0.00    -0.227 N 
ATOM     50  CZ  ARG d   1     -33.535   1.212 -27.737  0.00  0.00     0.665 C 
ATOM     51  NH1 ARG d   1     -33.635   0.765 -26.495  0.00  0.00    -0.235 N 
ATOM     52  NH2 ARG d   1     -32.635   0.683 -28.554  0.00  0.00    -0.235 N 
ATOM     53  H18 ARG d   1     -33.011   0.015 -26.166  0.00  0.00     0.174 HD
ATOM     54  H19 ARG d   1     -34.337   1.168 -25.858  0.00  0.00     0.174 HD
ATOM     55  H20 ARG d   1     -32.553   1.027 -29.521  0.00  0.00     0.174 HD
ATOM     56  H21 ARG d   1     -32.018  -0.072 -28.221  0.00  0.00     0.174 HD
ATOM     57  H17 ARG d   1     -34.230   2.494 -29.143  0.00  0.00     0.177 HD
ENDBRANCH  46  49
ENDBRANCH  43  46
ENDBRANCH  40  43
ENDBRANCH  19  40
ENDBRANCH  16  19
ENDBRANCH  13  15
BRANCH  13  58
ATOM     58  CB  GLU d   1     -32.056   6.643 -21.924  0.00  0.00    -0.029 C 
ATOM     59  H24 GLU d   1     -32.455   5.670 -21.602  0.00  0.00     0.037 H 
ATOM     60  H25 GLU d   1     -32.885   7.355 -22.052  0.00  0.00     0.037 H 
BRANCH  58  61
ATOM     61  CG  GLU d   1     -31.144   7.175 -20.805  0.00  0.00     0.018 C 
ATOM     62  H26 GLU d   1     -31.775   7.650 -20.040  0.00  0.00     0.049 H 
ATOM     63  H27 GLU d   1     -30.465   7.925 -21.238  0.00  0.00     0.049 H 
BRANCH  61  64
ATOM     64  CD  GLU d   1     -30.301   6.093 -20.131  0.00  0.00     0.172 C 
ATOM     65  OE1 GLU d   1     -30.652   4.896 -20.230  0.00  0.00    -0.648 OA
ATOM     66  OE2 GLU d   1     -29.281   6.448 -19.501  0.00  0.00    -0.648 OA
ENDBRANCH  61  64
ENDBRANCH  58  61
ENDBRANCH  13  58
ENDBRANCH  10  13
ENDBRANCH   7   9
BRANCH   7  67
ATOM     67  CB  SEP d   1     -31.224   1.718 -22.807  0.00  0.00     0.059 C 
ATOM     68  H30 SEP d   1     -31.664   2.092 -21.871  0.00  0.00     0.079 H 
ATOM     69  H31 SEP d   1     -30.627   0.818 -22.598  0.00  0.00     0.079 H 
BRANCH  67  70
ATOM     70  OG  SEP d   1     -32.263   1.395 -23.722  0.00  0.00    -0.280 OA
BRANCH  70  71
ATOM     71  P   SEP d   1     -33.752   1.624 -23.110  0.00  0.00     0.422 P 
ATOM     72  O1P SEP d   1     -33.967   0.718 -21.799  0.00  0.00    -0.617 OA
ATOM     73  O2P SEP d   1     -33.937   3.178 -22.724  0.00  0.00    -0.617 OA
ATOM     74  O3P SEP d   1     -34.828   1.191 -24.218  0.00  0.00    -0.617 OA
ENDBRANCH  70  71
ENDBRANCH  67  70
ENDBRANCH   7  67
ENDBRANCH   4   7
ENDBRANCH   1   3
BRANCH   1  75
ATOM     75  C   GLU d   1     -28.167   2.121 -27.341  0.00  0.00     0.241 C 
ATOM     76  O   GLU d   1     -28.046   1.277 -28.235  0.00  0.00    -0.271 OA
ATOM     77  N   PHE d   1     -27.179   2.438 -26.514  0.00  0.00    -0.346 N 
ATOM     78  H38 PHE d   1     -27.359   3.071 -25.761  0.00  0.00     0.163 HD
BRANCH  77  79
ATOM     79  CA  PHE d   1     -25.837   1.887 -26.674  0.00  0.00     0.093 C 
ATOM     80  H39 PHE d   1     -25.704   1.612 -27.731  0.00  0.00     0.088 H 
BRANCH  79  81
ATOM     81  C   PHE d   1     -25.603   0.642 -25.815  0.00  0.00     0.241 C 
ATOM     82  O   PHE d   1     -24.521   0.059 -25.855  0.00  0.00    -0.271 OA
ATOM     83  N   ASP d   1     -26.589   0.246 -25.017  0.00  0.00    -0.345 N 
ATOM     84  H47 ASP d   1     -27.517   0.596 -25.146  0.00  0.00     0.163 HD
BRANCH  83  85
ATOM     85  CA  ASP d   1     -26.297  -0.710 -23.946  0.00  0.00     0.098 C 
ATOM     86  H48 ASP d   1     -25.245  -0.564 -23.662  0.00  0.00     0.088 H 
BRANCH  85  87
ATOM     87  C   ASP d   1     -26.457  -2.165 -24.360  0.00  0.00     0.241 C 
ATOM     88  O   ASP d   1     -27.423  -2.527 -25.014  0.00  0.00    -0.271 OA
ATOM     89  N   ILE d   1     -25.496  -2.988 -23.956  0.00  0.00    -0.346 N 
ATOM     90  H51 ILE d   1     -24.719  -2.606 -23.456  0.00  0.00     0.163 HD
BRANCH  89  91
ATOM     91  CA  ILE d   1     -25.523  -4.428 -24.210  0.00  0.00     0.092 C 
ATOM     92  H52 ILE d   1     -25.791  -4.586 -25.265  0.00  0.00     0.088 H 
BRANCH  91  93
ATOM     93  C   ILE d   1     -26.583  -5.113 -23.343  0.00  0.00     0.241 C 
ATOM     94  O   ILE d   1     -26.710  -4.826 -22.159  0.00  0.00    -0.271 OA
ATOM     95  N   GLU d   1     -27.360  -6.010 -23.937  0.00  0.00    -0.346 N 
ATOM     96  H62 GLU d   1     -27.207  -6.246 -24.897  0.00  0.00     0.163 HD
BRANCH  95  97
ATOM     97  CA  GLU d   1     -28.437  -6.652 -23.191  0.00  0.00     0.090 C 
ATOM     98  H63 GLU d   1     -28.877  -5.891 -22.530  0.00  0.00     0.087 H 
BRANCH  97  99
ATOM     99  C   GLU d   1     -27.936  -7.794 -22.305  0.00  0.00     0.241 C 
ATOM    100  O   GLU d   1     -26.868  -8.370 -22.546  0.00  0.00    -0.271 OA
ATOM    101  N   ASP d   1     -28.709  -8.105 -21.268  0.00  0.00    -0.345 N 
ATOM    102  H68 ASP d   1     -29.495  -7.523 -21.059  0.00  0.00     0.163 HD
BRANCH 101 103
ATOM    103  CA  ASP d   1     -28.447  -9.267 -20.426  0.00  0.00     0.093 C 
ATOM    104  H69 ASP d   1     -27.381  -9.524 -20.509  0.00  0.00     0.089 H 
BRANCH 103 105
ATOM    105  C   ASP d   1     -29.273 -10.466 -20.902  0.00  0.00     0.196 C 
ATOM    106  O   ASP d   1     -29.557 -10.608 -22.097  0.00  0.00    -0.646 OA
ATOM    107  OXT ASP d   1     -29.675 -11.319 -20.102  0.00  0.00    -0.646 OA
ENDBRANCH 103 105
BRANCH 103 108
ATOM    108  CB  ASP d   1     -28.752  -8.949 -18.970  0.00  0.00    -0.048 C 
ATOM    109  H70 ASP d   1     -28.549  -9.835 -18.351  0.00  0.00     0.030 H 
ATOM    110  H71 ASP d   1     -29.811  -8.667 -18.870  0.00  0.00     0.030 H 
ATOM    111  H72 ASP d   1     -28.117  -8.115 -18.636  0.00  0.00     0.030 H 
ENDBRANCH 103 108
ENDBRANCH 101 103
ENDBRANCH  97  99
BRANCH  97 112
ATOM    112  CB  GLU d   1     -29.541  -7.144 -24.136  0.00  0.00    -0.029 C 
ATOM    113  H64 GLU d   1     -29.807  -6.319 -24.813  0.00  0.00     0.037 H 
ATOM    114  H65 GLU d   1     -30.416  -7.417 -23.529  0.00  0.00     0.037 H 
BRANCH 112 115
ATOM    115  CG  GLU d   1     -29.156  -8.347 -24.983  0.00  0.00     0.018 C 
ATOM    116  H66 GLU d   1     -28.971  -9.203 -24.318  0.00  0.00     0.049 H 
ATOM    117  H67 GLU d   1     -28.237  -8.109 -25.539  0.00  0.00     0.049 H 
BRANCH 115 118
ATOM    118  CD  GLU d   1     -30.245  -8.725 -25.976  0.00  0.00     0.172 C 
ATOM    119  OE1 GLU d   1     -31.180  -7.919 -26.166  0.00  0.00    -0.648 OA
ATOM    120  OE2 GLU d   1     -30.167  -9.823 -26.565  0.00  0.00    -0.648 OA
ENDBRANCH 115 118
ENDBRANCH 112 115
ENDBRANCH  97 112
ENDBRANCH  95  97
ENDBRANCH  91  93
BRANCH  91 121
ATOM    121  CB  ILE d   1     -24.125  -5.043 -23.972  0.00  0.00    -0.030 C 
ATOM    122  H53 ILE d   1     -23.814  -4.825 -22.940  0.00  0.00     0.043 H 
BRANCH 121 123
ATOM    123  CG1 ILE d   1     -23.125  -4.393 -24.937  0.00  0.00    -0.063 C 
ATOM    124  H54 ILE d   1     -23.278  -3.304 -24.904  0.00  0.00     0.033 H 
ATOM    125  H55 ILE d   1     -23.339  -4.763 -25.951  0.00  0.00     0.033 H 
BRANCH 123 126
ATOM    126  CD1 ILE d   1     -21.674  -4.671 -24.634  0.00  0.00    -0.076 C 
ATOM    127  H59 ILE d   1     -21.041  -4.165 -25.377  0.00  0.00     0.027 H 
ATOM    128  H60 ILE d   1     -21.492  -5.755 -24.675  0.00  0.00     0.027 H 
ATOM    129  H61 ILE d   1     -21.431  -4.296 -23.629  0.00  0.00     0.027 H 
ENDBRANCH 123 126
ENDBRANCH 121 123
BRANCH 121 130
ATOM    130  CG2 ILE d   1     -24.149  -6.557 -24.156  0.00  0.00    -0.071 C 
ATOM    131  H56 ILE d   1     -24.872  -7.000 -23.455  0.00  0.00     0.028 H 
ATOM    132  H57 ILE d   1     -23.148  -6.966 -23.958  0.00  0.00     0.028 H 
ATOM    133  H58 ILE d   1     -24.445  -6.796 -25.188  0.00  0.00     0.028 H 
ENDBRANCH 121 130
ENDBRANCH  91 121
ENDBRANCH  89  91
ENDBRANCH  85  87
BRANCH  85 134
ATOM    134  CB  ASP d   1     -27.156  -0.437 -22.719  0.00  0.00     0.043 C 
ATOM    135  H49 ASP d   1     -26.847  -1.119 -21.913  0.00  0.00     0.052 H 
ATOM    136  H50 ASP d   1     -28.209  -0.627 -22.976  0.00  0.00     0.052 H 
BRANCH 134 137
ATOM    137  CG  ASP d   1     -27.027   0.980 -22.228  0.00  0.00     0.175 C 
ATOM    138  OD1 ASP d   1     -25.990   1.628 -22.500  0.00  0.00    -0.648 OA
ATOM    139  OD2 ASP d   1     -27.964   1.437 -21.559  0.00  0.00    -0.648 OA
ENDBRANCH 134 137
ENDBRANCH  85 134
ENDBRANCH  83  85
ENDBRANCH  79  81
BRANCH  79 140
ATOM    140  CB  PHE d   1     -24.778   2.940 -26.292  0.00  0.00    -0.014 C 
ATOM    141  H40 PHE d   1     -23.787   2.465 -26.337  0.00  0.00     0.043 H 
ATOM    142  H41 PHE d   1     -24.978   3.274 -25.263  0.00  0.00     0.043 H 
BRANCH 140 143
ATOM    143  CG  PHE d   1     -24.763   4.152 -27.188  0.00  0.00    -0.056 A 
ATOM    144  CD1 PHE d   1     -25.692   5.165 -27.023  0.00  0.00    -0.077 A 
ATOM    145  CE1 PHE d   1     -25.672   6.281 -27.842  0.00  0.00    -0.082 A 
ATOM    146  H42 PHE d   1     -26.442   5.084 -26.245  0.00  0.00     0.084 H 
ATOM    147  CZ  PHE d   1     -24.724   6.393 -28.832  0.00  0.00    -0.083 A 
ATOM    148  H44 PHE d   1     -26.405   7.068 -27.703  0.00  0.00     0.083 H 
ATOM    149  CE2 PHE d   1     -23.788   5.396 -29.007  0.00  0.00    -0.082 A 
ATOM    150  H46 PHE d   1     -24.713   7.266 -29.475  0.00  0.00     0.083 H 
ATOM    151  CD2 PHE d   1     -23.804   4.286 -28.184  0.00  0.00    -0.077 A 
ATOM    152  H45 PHE d   1     -23.041   5.483 -29.788  0.00  0.00     0.083 H 
ATOM    153  H43 PHE d   1     -23.059   3.510 -28.317  0.00  0.00     0.084 H 
ENDBRANCH 140 143
ENDBRANCH  79 140
ENDBRANCH  77  79
ENDBRANCH   1  75
BRANCH   1 154
ATOM    154  CB  GLU d   1     -29.433   4.150 -28.013  0.00  0.00    -0.029 C 
ATOM    155  H34 GLU d   1     -28.573   4.757 -27.693  0.00  0.00     0.037 H 
ATOM    156  H35 GLU d   1     -30.362   4.716 -27.849  0.00  0.00     0.037 H 
BRANCH 154 157
ATOM    157  CG  GLU d   1     -29.297   3.874 -29.503  0.00  0.00     0.018 C 
ATOM    158  H36 GLU d   1     -28.862   2.873 -29.637  0.00  0.00     0.049 H 
ATOM    159  H37 GLU d   1     -28.626   4.628 -29.941  0.00  0.00     0.049 H 
BRANCH 157 160
ATOM    160  CD  GLU d   1     -30.630   3.927 -30.233  0.00  0.00     0.172 C 
ATOM    161  OE1 GLU d   1     -31.602   4.512 -29.699  0.00  0.00    -0.648 OA
ATOM    162  OE2 GLU d   1     -30.709   3.383 -31.347  0.00  0.00    -0.648 OA
ENDBRANCH 157 160
ENDBRANCH 154 157
ENDBRANCH   1 154
TORSDOF 48
