REMARK WARNING: 32 MAX_TORS EXCEEDED!!!
REMARK  57 active torsions:
REMARK  status: ('A' for Active; 'I' for Inactive)
REMARK    1  A    between atoms: N_1  and  CA_2 
REMARK    2  A    between atoms: CA_2  and  C_3 
REMARK    3  A    between atoms: CA_2  and  CB_5 
REMARK       I    between atoms: C_3  and  N_10 
REMARK    4  A    between atoms: CB_5  and  CG_6 
REMARK    5  A    between atoms: CG_6  and  CD_7 
REMARK    6  A    between atoms: N_10  and  CA_11 
REMARK    7  A    between atoms: CA_11  and  C_12 
REMARK    8  A    between atoms: CA_11  and  CB_14 
REMARK       I    between atoms: C_12  and  N_22 
REMARK    9  A    between atoms: CB_14  and  CG_15 
REMARK   10  A    between atoms: CZ_20  and  OH_21 
REMARK   11  A    between atoms: N_22  and  CA_23 
REMARK   12  A    between atoms: CA_23  and  C_24 
REMARK   13  A    between atoms: CA_23  and  CB_26 
REMARK       I    between atoms: C_24  and  N_31 
REMARK   14  A    between atoms: CB_26  and  CG_27 
REMARK   15  A    between atoms: CG_27  and  CD_28 
REMARK   16  A    between atoms: N_31  and  CA_32 
REMARK   17  A    between atoms: CA_32  and  C_33 
REMARK   18  A    between atoms: CA_32  and  CB_35 
REMARK       I    between atoms: C_33  and  N_40 
REMARK   19  A    between atoms: CB_35  and  CG_36 
REMARK   20  A    between atoms: CG_36  and  CD_37 
REMARK   21  A    between atoms: N_40  and  CA_41 
REMARK   22  A    between atoms: CA_41  and  C_42 
REMARK   23  A    between atoms: CA_41  and  CB_44 
REMARK       I    between atoms: C_42  and  N_51 
REMARK   24  A    between atoms: CB_44  and  CG_45 
REMARK   25  A    between atoms: CG_45  and  CD_46 
REMARK   26  A    between atoms: CD_46  and  NE_47 
REMARK       I    between atoms: NE_47  and  CZ_48 
REMARK       I    between atoms: CZ_48  and  NH1_49 
REMARK   27  A    between atoms: N_51  and  CA_52 
REMARK   28  A    between atoms: CA_52  and  C_53 
REMARK   29  A    between atoms: CA_52  and  CB_55 
REMARK       I    between atoms: C_53  and  N_60 
REMARK   30  A    between atoms: CB_55  and  CG_56 
REMARK   31  A    between atoms: CG_56  and  CD_57 
REMARK   32  A    between atoms: N_60  and  CA_61 
REMARK   33  A    between atoms: CA_61  and  C_62 
REMARK   34  A    between atoms: CA_61  and  CB_64 
REMARK       I    between atoms: C_62  and  N_66 
REMARK   35  A    between atoms: CB_64  and  OG_65 
REMARK   36  A    between atoms: N_66  and  CA_67 
REMARK   37  A    between atoms: CA_67  and  C_68 
REMARK   38  A    between atoms: CA_67  and  CB_70 
REMARK       I    between atoms: C_68  and  N_75 
REMARK   39  A    between atoms: CB_70  and  CG_71 
REMARK   40  A    between atoms: CG_71  and  CD_72 
REMARK   41  A    between atoms: N_75  and  CA_76 
REMARK   42  A    between atoms: CA_76  and  C_77 
REMARK   43  A    between atoms: CA_76  and  CB_79 
REMARK       I    between atoms: C_77  and  N_86 
REMARK   44  A    between atoms: CB_79  and  CG_80 
REMARK   45  A    between atoms: N_86  and  CA_87 
REMARK   46  A    between atoms: CA_87  and  C_88 
REMARK   47  A    between atoms: CA_87  and  CB_90 
REMARK       I    between atoms: C_88  and  N_94 
REMARK   48  A    between atoms: CB_90  and  CG_91 
REMARK   49  A    between atoms: N_94  and  CA_95 
REMARK   50  A    between atoms: CA_95  and  C_96 
REMARK   51  A    between atoms: CA_95  and  CB_98 
REMARK       I    between atoms: C_96  and  N_102 
REMARK   52  A    between atoms: CB_98  and  CG1_99 
REMARK   53  A    between atoms: CB_98  and  CG2_100 
REMARK   54  A    between atoms: CG1_99  and  CD1_101 
REMARK   55  A    between atoms: N_102  and  CA_103 
REMARK   56  A    between atoms: CA_103  and  C_104 
REMARK   57  A    between atoms: CA_103  and  CB_106 
ROOT
ATOM      1  CA  GLU d   1       8.879   3.470  -5.681  0.00  0.00     0.090 C 
ATOM      2  H44 GLU d   1       7.986   4.035  -5.378  0.00  0.00     0.087 H 
ENDROOT
BRANCH   1   3
ATOM      3  N   GLU d   1       9.036   3.547  -7.143  0.00  0.00    -0.346 N 
ATOM      4  C   ARG d   1       9.195   4.667  -7.838  0.00  0.00     0.241 C 
ATOM      5  O   ARG d   1       9.199   5.774  -7.317  0.00  0.00    -0.271 OA
ATOM      6  H43 GLU d   1       9.022   2.687  -7.653  0.00  0.00     0.163 HD
BRANCH   4   7
ATOM      7  CA  ARG d   1       9.420   4.513  -9.328  0.00  0.00     0.089 C 
ATOM      8  H31 ARG d   1       8.733   3.740  -9.704  0.00  0.00     0.087 H 
BRANCH   7   9
ATOM      9  N   ARG d   1       9.154   5.759 -10.051  0.00  0.00    -0.346 N 
ATOM     10  C   GLU d   1       8.006   6.046 -10.682  0.00  0.00     0.241 C 
ATOM     11  O   GLU d   1       7.051   5.272 -10.747  0.00  0.00    -0.271 OA
ATOM     12  H30 ARG d   1       9.881   6.445 -10.076  0.00  0.00     0.163 HD
BRANCH  10  13
ATOM     13  CA  GLU d   1       7.974   7.376 -11.448  0.00  0.00     0.090 C 
ATOM     14  H25 GLU d   1       9.008   7.750 -11.474  0.00  0.00     0.087 H 
BRANCH  13  15
ATOM     15  N   GLU d   1       7.550   7.205 -12.834  0.00  0.00    -0.346 N 
ATOM     16  C   GLU d   1       8.167   6.374 -13.692  0.00  0.00     0.241 C 
ATOM     17  O   GLU d   1       9.130   5.652 -13.383  0.00  0.00    -0.271 OA
ATOM     18  H24 GLU d   1       6.764   7.730 -13.161  0.00  0.00     0.163 HD
BRANCH  16  19
ATOM     19  CA  GLU d   1       7.642   6.352 -15.108  0.00  0.00     0.090 C 
ATOM     20  H19 GLU d   1       7.107   7.291 -15.313  0.00  0.00     0.087 H 
BRANCH  19  21
ATOM     21  N   GLU d   1       8.795   6.253 -16.003  0.00  0.00    -0.346 N 
ATOM     22  C   TYR d   1       9.002   7.041 -17.076  0.00  0.00     0.241 C 
ATOM     23  O   TYR d   1       8.203   7.898 -17.466  0.00  0.00    -0.271 OA
ATOM     24  H18 GLU d   1       9.478   5.550 -15.804  0.00  0.00     0.163 HD
BRANCH  22  25
ATOM     25  CA  TYR d   1      10.316   6.821 -17.806  0.00  0.00     0.093 C 
ATOM     26  H10 TYR d   1      10.669   5.819 -17.520  0.00  0.00     0.088 H 
BRANCH  25  27
ATOM     27  N   TYR d   1      10.177   6.806 -19.254  0.00  0.00    -0.346 N 
ATOM     28  C   GLU d   1       9.536   5.804 -19.865  0.00  0.00     0.249 C 
ATOM     29  O   GLU d   1       9.019   4.864 -19.255  0.00  0.00    -0.271 OA
ATOM     30  H9  TYR d   1      10.564   7.551 -19.797  0.00  0.00     0.163 HD
BRANCH  28  31
ATOM     31  CA  GLU d   1       9.489   5.852 -21.383  0.00  0.00     0.176 C 
ATOM     32  H4  GLU d   1      10.283   6.537 -21.717  0.00  0.00     0.099 H 
BRANCH  31  33
ATOM     33  N   GLU d   1       9.768   4.541 -21.975  0.00  0.00    -0.066 N 
ATOM     34  H1  GLU d   1       9.728   4.611 -22.980  0.00  0.00     0.275 HD
ATOM     35  H2  GLU d   1       9.081   3.876 -21.657  0.00  0.00     0.275 HD
ATOM     36  H3  GLU d   1      10.687   4.235 -21.695  0.00  0.00     0.275 HD
ENDBRANCH  31  33
BRANCH  31  37
ATOM     37  CB  GLU d   1       8.153   6.427 -21.866  0.00  0.00    -0.021 C 
ATOM     38  H5  GLU d   1       7.646   6.902 -21.014  0.00  0.00     0.037 H 
ATOM     39  H6  GLU d   1       7.533   5.603 -22.249  0.00  0.00     0.037 H 
BRANCH  37  40
ATOM     40  CG  GLU d   1       8.323   7.461 -22.969  0.00  0.00     0.018 C 
ATOM     41  H7  GLU d   1       8.602   6.927 -23.889  0.00  0.00     0.049 H 
ATOM     42  H8  GLU d   1       9.141   8.135 -22.674  0.00  0.00     0.049 H 
BRANCH  40  43
ATOM     43  CD  GLU d   1       7.106   8.317 -23.280  0.00  0.00     0.172 C 
ATOM     44  OE1 GLU d   1       6.317   8.608 -22.350  0.00  0.00    -0.648 OA
ATOM     45  OE2 GLU d   1       6.968   8.735 -24.453  0.00  0.00    -0.648 OA
ENDBRANCH  40  43
ENDBRANCH  37  40
ENDBRANCH  31  37
ENDBRANCH  28  31
ENDBRANCH  25  27
BRANCH  25  46
ATOM     46  CB  TYR d   1      11.385   7.821 -17.332  0.00  0.00    -0.014 C 
ATOM     47  H11 TYR d   1      11.000   8.843 -17.461  0.00  0.00     0.043 H 
ATOM     48  H12 TYR d   1      12.291   7.691 -17.941  0.00  0.00     0.043 H 
BRANCH  46  49
ATOM     49  CG  TYR d   1      11.737   7.609 -15.876  0.00  0.00    -0.056 A 
ATOM     50  CD1 TYR d   1      12.574   6.563 -15.486  0.00  0.00    -0.074 A 
ATOM     51  CE1 TYR d   1      12.850   6.320 -14.146  0.00  0.00    -0.051 A 
ATOM     52  H13 TYR d   1      13.018   5.927 -16.244  0.00  0.00     0.084 H 
ATOM     53  CZ  TYR d   1      12.279   7.122 -13.171  0.00  0.00     0.065 A 
ATOM     54  H15 TYR d   1      13.509   5.507 -13.865  0.00  0.00     0.087 H 
ATOM     55  CE2 TYR d   1      11.429   8.158 -13.527  0.00  0.00    -0.051 A 
ATOM     56  CD2 TYR d   1      11.156   8.391 -14.876  0.00  0.00    -0.074 A 
ATOM     57  H16 TYR d   1      10.980   8.783 -12.763  0.00  0.00     0.087 H 
ATOM     58  H14 TYR d   1      10.481   9.193 -15.152  0.00  0.00     0.084 H 
BRANCH  53  59
ATOM     59  OH  TYR d   1      12.552   6.865 -11.860  0.00  0.00    -0.361 OA
ATOM     60  H17 TYR d   1      11.744   6.659 -11.404  0.00  0.00     0.217 HD
ENDBRANCH  53  59
ENDBRANCH  46  49
ENDBRANCH  25  46
ENDBRANCH  22  25
ENDBRANCH  19  21
BRANCH  19  61
ATOM     61  CB  GLU d   1       6.670   5.190 -15.300  0.00  0.00    -0.029 C 
ATOM     62  H20 GLU d   1       6.062   5.082 -14.390  0.00  0.00     0.037 H 
ATOM     63  H21 GLU d   1       7.247   4.269 -15.466  0.00  0.00     0.037 H 
BRANCH  61  64
ATOM     64  CG  GLU d   1       5.743   5.408 -16.485  0.00  0.00     0.018 C 
ATOM     65  H22 GLU d   1       6.364   5.498 -17.388  0.00  0.00     0.049 H 
ATOM     66  H23 GLU d   1       5.197   6.349 -16.320  0.00  0.00     0.049 H 
BRANCH  64  67
ATOM     67  CD  GLU d   1       4.722   4.313 -16.728  0.00  0.00     0.172 C 
ATOM     68  OE1 GLU d   1       4.101   3.840 -15.748  0.00  0.00    -0.648 OA
ATOM     69  OE2 GLU d   1       4.523   3.949 -17.909  0.00  0.00    -0.648 OA
ENDBRANCH  64  67
ENDBRANCH  61  64
ENDBRANCH  19  61
ENDBRANCH  16  19
ENDBRANCH  13  15
BRANCH  13  70
ATOM     70  CB  GLU d   1       7.136   8.439 -10.736  0.00  0.00    -0.029 C 
ATOM     71  H26 GLU d   1       6.108   8.065 -10.621  0.00  0.00     0.037 H 
ATOM     72  H27 GLU d   1       7.127   9.354 -11.346  0.00  0.00     0.037 H 
BRANCH  70  73
ATOM     73  CG  GLU d   1       7.699   8.768  -9.359  0.00  0.00     0.018 C 
ATOM     74  H28 GLU d   1       8.748   9.073  -9.491  0.00  0.00     0.049 H 
ATOM     75  H29 GLU d   1       7.657   7.851  -8.753  0.00  0.00     0.049 H 
BRANCH  73  76
ATOM     76  CD  GLU d   1       6.996   9.860  -8.589  0.00  0.00     0.172 C 
ATOM     77  OE1 GLU d   1       6.193  10.609  -9.190  0.00  0.00    -0.648 OA
ATOM     78  OE2 GLU d   1       7.195   9.915  -7.358  0.00  0.00    -0.648 OA
ENDBRANCH  73  76
ENDBRANCH  70  73
ENDBRANCH  13  70
ENDBRANCH  10  13
ENDBRANCH   7   9
BRANCH   7  79
ATOM     79  CB  ARG d   1      10.877   4.058  -9.592  0.00  0.00    -0.036 C 
ATOM     80  H32 ARG d   1      11.111   3.231  -8.906  0.00  0.00     0.036 H 
ATOM     81  H33 ARG d   1      11.547   4.906  -9.387  0.00  0.00     0.036 H 
BRANCH  79  82
ATOM     82  CG  ARG d   1      11.128   3.579 -11.034  0.00  0.00    -0.048 C 
ATOM     83  H34 ARG d   1      10.970   4.423 -11.721  0.00  0.00     0.035 H 
ATOM     84  H35 ARG d   1      10.415   2.776 -11.270  0.00  0.00     0.035 H 
BRANCH  82  85
ATOM     85  CD  ARG d   1      12.536   3.053 -11.223  0.00  0.00     0.009 C 
ATOM     86  H36 ARG d   1      13.246   3.786 -10.812  0.00  0.00     0.064 H 
ATOM     87  H37 ARG d   1      12.724   2.923 -12.299  0.00  0.00     0.064 H 
BRANCH  85  88
ATOM     88  NE  ARG d   1      12.742   1.769 -10.550  0.00  0.00    -0.227 N 
ATOM     89  CZ  ARG d   1      12.544   0.574 -11.105  0.00  0.00     0.665 C 
ATOM     90  NH1 ARG d   1      12.131   0.476 -12.360  0.00  0.00    -0.235 N 
ATOM     91  NH2 ARG d   1      12.755  -0.529 -10.406  0.00  0.00    -0.235 N 
ATOM     92  H39 ARG d   1      11.980  -0.452 -12.782  0.00  0.00     0.174 HD
ATOM     93  H40 ARG d   1      11.961   1.327 -12.914  0.00  0.00     0.174 HD
ATOM     94  H41 ARG d   1      13.076  -0.466  -9.429  0.00  0.00     0.174 HD
ATOM     95  H42 ARG d   1      12.598  -1.451 -10.838  0.00  0.00     0.174 HD
ATOM     96  H38 ARG d   1      13.065   1.791  -9.572  0.00  0.00     0.177 HD
ENDBRANCH  85  88
ENDBRANCH  82  85
ENDBRANCH  79  82
ENDBRANCH   7  79
ENDBRANCH   4   7
ENDBRANCH   1   3
BRANCH   1  97
ATOM     97  C   GLU d   1      10.136   4.104  -4.976  0.00  0.00     0.241 C 
ATOM     98  O   GLU d   1      10.010   4.827  -3.972  0.00  0.00    -0.271 OA
ATOM     99  N   SER d   1      11.329   3.851  -5.532  0.00  0.00    -0.344 N 
ATOM    100  H49 SER d   1      11.356   3.282  -6.354  0.00  0.00     0.163 HD
BRANCH  99 101
ATOM    101  CA  SER d   1      12.597   4.362  -5.003  0.00  0.00     0.109 C 
ATOM    102  H50 SER d   1      12.469   4.514  -3.921  0.00  0.00     0.090 H 
BRANCH 101 103
ATOM    103  C   SER d   1      13.020   5.714  -5.619  0.00  0.00     0.243 C 
ATOM    104  O   SER d   1      14.195   6.062  -5.509  0.00  0.00    -0.271 OA
ATOM    105  N   GLU d   1      12.069   6.475  -6.246  0.00  0.00    -0.346 N 
ATOM    106  H54 GLU d   1      11.136   6.116  -6.256  0.00  0.00     0.163 HD
BRANCH 105 107
ATOM    107  CA  GLU d   1      12.293   7.777  -6.909  0.00  0.00     0.090 C 
ATOM    108  H55 GLU d   1      12.829   7.561  -7.845  0.00  0.00     0.087 H 
BRANCH 107 109
ATOM    109  C   GLU d   1      13.145   8.827  -6.135  0.00  0.00     0.241 C 
ATOM    110  O   GLU d   1      13.979   9.509  -6.734  0.00  0.00    -0.271 OA
ATOM    111  N   PHE d   1      12.885   8.980  -4.829  0.00  0.00    -0.346 N 
ATOM    112  H60 PHE d   1      12.222   8.361  -4.408  0.00  0.00     0.163 HD
BRANCH 111 113
ATOM    113  CA  PHE d   1      13.513   9.999  -3.978  0.00  0.00     0.093 C 
ATOM    114  H61 PHE d   1      13.856  10.818  -4.628  0.00  0.00     0.088 H 
BRANCH 113 115
ATOM    115  C   PHE d   1      14.725   9.476  -3.203  0.00  0.00     0.241 C 
ATOM    116  O   PHE d   1      15.414  10.261  -2.555  0.00  0.00    -0.271 OA
ATOM    117  N   ASP d   1      14.980   8.162  -3.254  0.00  0.00    -0.345 N 
ATOM    118  H69 ASP d   1      14.420   7.588  -3.851  0.00  0.00     0.163 HD
BRANCH 117 119
ATOM    119  CA  ASP d   1      16.045   7.531  -2.471  0.00  0.00     0.098 C 
ATOM    120  H70 ASP d   1      15.990   8.006  -1.480  0.00  0.00     0.088 H 
BRANCH 119 121
ATOM    121  C   ASP d   1      17.454   7.762  -2.943  0.00  0.00     0.241 C 
ATOM    122  O   ASP d   1      17.759   7.559  -4.111  0.00  0.00    -0.271 OA
ATOM    123  N   ILE d   1      18.320   8.125  -1.996  0.00  0.00    -0.346 N 
ATOM    124  H73 ILE d   1      17.948   8.277  -1.080  0.00  0.00     0.163 HD
BRANCH 123 125
ATOM    125  CA  ILE d   1      19.755   8.323  -2.162  0.00  0.00     0.092 C 
ATOM    126  H74 ILE d   1      19.949   8.774  -3.146  0.00  0.00     0.088 H 
BRANCH 125 127
ATOM    127  C   ILE d   1      20.461   6.950  -2.092  0.00  0.00     0.241 C 
ATOM    128  O   ILE d   1      21.364   6.666  -2.901  0.00  0.00    -0.271 OA
ATOM    129  N   GLU d   1      20.037   6.123  -1.099  0.00  0.00    -0.345 N 
ATOM    130  H84 GLU d   1      19.308   6.474  -0.512  0.00  0.00     0.163 HD
BRANCH 129 131
ATOM    131  CA  GLU d   1      20.525   4.777  -0.790  0.00  0.00     0.093 C 
ATOM    132  H85 GLU d   1      20.930   4.316  -1.703  0.00  0.00     0.089 H 
BRANCH 131 133
ATOM    133  C   GLU d   1      19.352   3.953  -0.277  0.00  0.00     0.196 C 
ATOM    134  O   GLU d   1      18.454   4.511   0.350  0.00  0.00    -0.646 OA
ATOM    135  OXT GLU d   1      19.324   2.744  -0.499  0.00  0.00    -0.646 OA
ENDBRANCH 131 133
BRANCH 131 136
ATOM    136  CB  GLU d   1      21.629   4.828   0.282  0.00  0.00    -0.048 C 
ATOM    137  H86 GLU d   1      21.979   3.808   0.497  0.00  0.00     0.030 H 
ATOM    138  H87 GLU d   1      21.227   5.279   1.201  0.00  0.00     0.030 H 
ATOM    139  H88 GLU d   1      22.470   5.434  -0.086  0.00  0.00     0.030 H 
ENDBRANCH 131 136
ENDBRANCH 129 131
ENDBRANCH 125 127
BRANCH 125 140
ATOM    140  CB  ILE d   1      20.275   9.281  -1.062  0.00  0.00    -0.030 C 
ATOM    141  H75 ILE d   1      20.036   8.831  -0.087  0.00  0.00     0.043 H 
BRANCH 140 142
ATOM    142  CG1 ILE d   1      19.537  10.643  -1.138  0.00  0.00    -0.063 C 
ATOM    143  H76 ILE d   1      18.468  10.443  -1.305  0.00  0.00     0.033 H 
ATOM    144  H77 ILE d   1      19.943  11.203  -1.993  0.00  0.00     0.033 H 
BRANCH 142 145
ATOM    145  CD1 ILE d   1      19.668  11.538   0.132  0.00  0.00    -0.076 C 
ATOM    146  H81 ILE d   1      19.113  12.475  -0.021  0.00  0.00     0.027 H 
ATOM    147  H82 ILE d   1      20.729  11.765   0.312  0.00  0.00     0.027 H 
ATOM    148  H83 ILE d   1      19.254  11.005   1.001  0.00  0.00     0.027 H 
ENDBRANCH 142 145
ENDBRANCH 140 142
BRANCH 140 149
ATOM    149  CG2 ILE d   1      21.828   9.438  -1.131  0.00  0.00    -0.071 C 
ATOM    150  H78 ILE d   1      22.300   8.446  -1.073  0.00  0.00     0.028 H 
ATOM    151  H79 ILE d   1      22.172  10.057  -0.289  0.00  0.00     0.028 H 
ATOM    152  H80 ILE d   1      22.106   9.921  -2.079  0.00  0.00     0.028 H 
ENDBRANCH 140 149
ENDBRANCH 125 140
ENDBRANCH 123 125
ENDBRANCH 119 121
BRANCH 119 153
ATOM    153  CB  ASP d   1      15.780   6.024  -2.241  0.00  0.00     0.043 C 
ATOM    154  H71 ASP d   1      16.470   5.671  -1.460  0.00  0.00     0.052 H 
ATOM    155  H72 ASP d   1      15.988   5.493  -3.182  0.00  0.00     0.052 H 
BRANCH 153 156
ATOM    156  CG  ASP d   1      14.359   5.683  -1.808  0.00  0.00     0.175 C 
ATOM    157  OD1 ASP d   1      13.618   6.604  -1.402  0.00  0.00    -0.648 OA
ATOM    158  OD2 ASP d   1      13.975   4.523  -1.938  0.00  0.00    -0.648 OA
ENDBRANCH 153 156
ENDBRANCH 119 153
ENDBRANCH 117 119
ENDBRANCH 113 115
BRANCH 113 159
ATOM    159  CB  PHE d   1      12.463  10.560  -2.987  0.00  0.00    -0.014 C 
ATOM    160  H62 PHE d   1      12.949  11.354  -2.400  0.00  0.00     0.043 H 
ATOM    161  H63 PHE d   1      12.164   9.740  -2.318  0.00  0.00     0.043 H 
BRANCH 159 162
ATOM    162  CG  PHE d   1      11.202  11.142  -3.591  0.00  0.00    -0.056 A 
ATOM    163  CD1 PHE d   1      10.227  10.315  -4.139  0.00  0.00    -0.077 A 
ATOM    164  CE1 PHE d   1       9.056  10.847  -4.660  0.00  0.00    -0.082 A 
ATOM    165  H64 PHE d   1      10.384   9.243  -4.159  0.00  0.00     0.084 H 
ATOM    166  CZ  PHE d   1       8.835  12.209  -4.611  0.00  0.00    -0.083 A 
ATOM    167  H66 PHE d   1       8.315  10.193  -5.105  0.00  0.00     0.083 H 
ATOM    168  CE2 PHE d   1       9.789  13.048  -4.080  0.00  0.00    -0.082 A 
ATOM    169  H68 PHE d   1       7.907  12.619  -4.992  0.00  0.00     0.083 H 
ATOM    170  CD2 PHE d   1      10.964  12.514  -3.559  0.00  0.00    -0.077 A 
ATOM    171  H67 PHE d   1       9.626  14.120  -4.068  0.00  0.00     0.083 H 
ATOM    172  H65 PHE d   1      11.704  13.175  -3.122  0.00  0.00     0.084 H 
ENDBRANCH 159 162
ENDBRANCH 113 159
ENDBRANCH 111 113
ENDBRANCH 107 109
BRANCH 107 173
ATOM    173  CB  GLU d   1      10.944   8.422  -7.267  0.00  0.00    -0.029 C 
ATOM    174  H56 GLU d   1      10.525   8.872  -6.355  0.00  0.00     0.037 H 
ATOM    175  H57 GLU d   1      10.270   7.631  -7.628  0.00  0.00     0.037 H 
BRANCH 173 176
ATOM    176  CG  GLU d   1      11.027   9.505  -8.339  0.00  0.00     0.018 C 
ATOM    177  H58 GLU d   1      11.765  10.252  -8.012  0.00  0.00     0.049 H 
ATOM    178  H59 GLU d   1      10.038   9.979  -8.421  0.00  0.00     0.049 H 
BRANCH 176 179
ATOM    179  CD  GLU d   1      11.431   9.019  -9.718  0.00  0.00     0.172 C 
ATOM    180  OE1 GLU d   1      11.094   7.870 -10.080  0.00  0.00    -0.648 OA
ATOM    181  OE2 GLU d   1      12.163   9.760 -10.404  0.00  0.00    -0.648 OA
ENDBRANCH 176 179
ENDBRANCH 173 176
ENDBRANCH 107 173
ENDBRANCH 105 107
ENDBRANCH 101 103
BRANCH 101 182
ATOM    182  CB  SER d   1      13.701   3.333  -5.217  0.00  0.00     0.044 C 
ATOM    183  H51 SER d   1      13.434   2.404  -4.692  0.00  0.00     0.077 H 
ATOM    184  H52 SER d   1      14.643   3.727  -4.809  0.00  0.00     0.077 H 
BRANCH 182 185
ATOM    185  OG  SER d   1      13.875   3.052  -6.598  0.00  0.00    -0.398 OA
ATOM    186  H53 SER d   1      13.064   2.708  -6.955  0.00  0.00     0.209 HD
ENDBRANCH 182 185
ENDBRANCH 101 182
ENDBRANCH  99 101
ENDBRANCH   1  97
BRANCH   1 187
ATOM    187  CB  GLU d   1       8.683   1.982  -5.307  0.00  0.00    -0.029 C 
ATOM    188  H45 GLU d   1       9.642   1.465  -5.461  0.00  0.00     0.037 H 
ATOM    189  H46 GLU d   1       7.926   1.560  -5.984  0.00  0.00     0.037 H 
BRANCH 187 190
ATOM    190  CG  GLU d   1       8.236   1.720  -3.886  0.00  0.00     0.018 C 
ATOM    191  H47 GLU d   1       7.863   0.686  -3.839  0.00  0.00     0.049 H 
ATOM    192  H48 GLU d   1       7.415   2.417  -3.661  0.00  0.00     0.049 H 
BRANCH 190 193
ATOM    193  CD  GLU d   1       9.285   1.880  -2.799  0.00  0.00     0.172 C 
ATOM    194  OE1 GLU d   1      10.494   1.664  -3.059  0.00  0.00    -0.648 OA
ATOM    195  OE2 GLU d   1       8.879   2.214  -1.667  0.00  0.00    -0.648 OA
ENDBRANCH 190 193
ENDBRANCH 187 190
ENDBRANCH   1 187
TORSDOF 57
