REMARK  3 active torsions:
REMARK  status: ('A' for Active; 'I' for Inactive)
REMARK    1  A    between atoms: C1_1  and  O7_7 
REMARK    2  A    between atoms: C3_3  and  O9_9 
REMARK    3  A    between atoms: O7_7  and  C10_10 
ROOT
ATOM      1  C1  3Z7 d   1       9.476  34.364  27.928  0.00  0.00     0.102 A 
ATOM      2  C2  3Z7 d   1       9.675  33.044  27.578  0.00  0.00    -0.031 A 
ATOM      3  C3  3Z7 d   1       9.571  34.764  29.271  0.00  0.00     0.099 A 
ATOM      4  C4  3Z7 d   1       9.892  33.821  30.246  0.00  0.00    -0.047 A 
ATOM      5  C5  3Z7 d   1       9.991  32.130  28.564  0.00  0.00     0.013 A 
ATOM      6  C6  3Z7 d   1      10.109  32.498  29.894  0.00  0.00    -0.063 A 
ATOM      7 BR8  3Z7 d   1      10.237  30.316  28.073  0.00  0.00    -0.051 Br
ATOM      8  H1  3Z7 d   1       9.585  32.729  26.545  0.00  0.00     0.090 H 
ATOM      9  H2  3Z7 d   1       9.972  34.123  31.284  0.00  0.00     0.087 H 
ATOM     10  H3  3Z7 d   1      10.367  31.763  30.648  0.00  0.00     0.085 H 
ENDROOT
BRANCH   1  11
ATOM     11  O7  3Z7 d   1       9.240  35.380  27.045  0.00  0.00    -0.353 OA
BRANCH  11  12
ATOM     12  C10 3Z7 d   1       9.340  35.090  25.652  0.00  0.00     0.010 C 
ATOM     13  H5  3Z7 d   1       9.125  35.999  25.072  0.00  0.00     0.066 H 
ATOM     14  H6  3Z7 d   1       8.615  34.306  25.388  0.00  0.00     0.066 H 
ATOM     15  H7  3Z7 d   1      10.357  34.741  25.422  0.00  0.00     0.066 H 
ENDBRANCH  11  12
ENDBRANCH   1  11
BRANCH   3  16
ATOM     16  O9  3Z7 d   1       9.398  36.066  29.610  0.00  0.00    -0.358 OA
ATOM     17  H4  3Z7 d   1       8.689  36.137  30.238  0.00  0.00     0.217 HD
ENDBRANCH   3  16
TORSDOF 3
