REMARK  0 active torsions:
REMARK  status: ('A' for Active; 'I' for Inactive)
ROOT
ATOM      1  C12 3Z8 d   1      10.977  31.515  29.409  0.00  0.00    -0.025 C 
ATOM      2  C1  3Z8 d   1       9.817  34.106  30.203  0.00  0.00     0.252 C 
ATOM      3  C2  3Z8 d   1       9.999  33.772  28.779  0.00  0.00     0.040 A 
ATOM      4  N3  3Z8 d   1      10.034  33.102  31.074  0.00  0.00    -0.357 N 
ATOM      5  C4  3Z8 d   1      10.516  32.524  28.385  0.00  0.00    -0.041 A 
ATOM      6  C5  3Z8 d   1       9.519  34.663  27.809  0.00  0.00    -0.046 A 
ATOM      7  O6  3Z8 d   1       9.425  35.205  30.582  0.00  0.00    -0.268 OA
ATOM      8  C7  3Z8 d   1      10.557  32.215  27.028  0.00  0.00    -0.074 A 
ATOM      9  C8  3Z8 d   1       9.537  34.294  26.479  0.00  0.00     0.035 A 
ATOM     10  C9  3Z8 d   1      10.262  31.704  30.726  0.00  0.00    -0.001 C 
ATOM     11  C10 3Z8 d   1      10.087  33.099  26.073  0.00  0.00    -0.061 A 
ATOM     12 CL   3Z8 d   1       8.701  35.287  25.314  0.00  0.00    -0.084 Cl
ATOM     13  H1  3Z8 d   1      12.059  31.635  29.568  0.00  0.00     0.042 H 
ATOM     14  H2  3Z8 d   1      10.772  30.502  29.032  0.00  0.00     0.042 H 
ATOM     15  H3  3Z8 d   1      10.039  33.336  32.046  0.00  0.00     0.162 HD
ATOM     16  H4  3Z8 d   1       9.137  35.634  28.101  0.00  0.00     0.087 H 
ATOM     17  H5  3Z8 d   1      10.966  31.262  26.713  0.00  0.00     0.084 H 
ATOM     18  H6  3Z8 d   1      10.868  31.243  31.520  0.00  0.00     0.064 H 
ATOM     19  H7  3Z8 d   1       9.287  31.197  30.668  0.00  0.00     0.064 H 
ATOM     20  H8  3Z8 d   1      10.151  32.854  25.019  0.00  0.00     0.086 H 
ENDROOT
TORSDOF 0
