REMARK  25 active torsions:
REMARK  status: ('A' for Active; 'I' for Inactive)
REMARK       I    between atoms: N_1  and  C41_10 
REMARK    1  A    between atoms: C41_10  and  C42_12 
REMARK    2  A    between atoms: CA_19  and  CB_22 
REMARK    3  A    between atoms: CB_22  and  CG_23 
REMARK    4  A    between atoms: CG_23  and  CD1_24 
REMARK    5  A    between atoms: CG_23  and  CD2_25 
REMARK    6  A    between atoms: CA_29  and  C_26 
REMARK       I    between atoms: C_26  and  N_50 
REMARK    7  A    between atoms: C27_32  and  C28_33 
REMARK    8  A    between atoms: C27_32  and  ND1_46 
REMARK    9  A    between atoms: C28_33  and  C29_34 
REMARK   10  A    between atoms: C29_34  and  C30_35 
REMARK   11  A    between atoms: C30_35  and  C31_36 
REMARK   12  A    between atoms: C31_36  and  C32_37 
REMARK   13  A    between atoms: C32_37  and  C33_38 
REMARK   14  A    between atoms: C33_38  and  C34_39 
REMARK   15  A    between atoms: C34_39  and  C35_40 
REMARK   16  A    between atoms: N_50  and  CA_51 
REMARK   17  A    between atoms: CA_51  and  C_52 
REMARK   18  A    between atoms: CA_51  and  CB_54 
REMARK       I    between atoms: C_52  and  N_56 
REMARK   19  A    between atoms: CB_54  and  OG_55 
REMARK   20  A    between atoms: N_56  and  CA_57 
REMARK   21  A    between atoms: CA_57  and  CB_58 
REMARK   22  A    between atoms: CA_57  and  C_65 
REMARK   23  A    between atoms: CB_58  and  CG2_59 
REMARK   24  A    between atoms: CB_58  and  OG1_60 
REMARK   25  A    between atoms: OG1_60  and  P_61 
REMARK       I    between atoms: C_65  and  N_67 
ROOT
ATOM      1  N   4L0 d   1      -3.501  28.067  69.753  0.00  0.00    -0.337 N 
ATOM      2  C14 4L0 d   1      -9.491  28.219  68.347  0.00  0.00    -0.064 C 
ATOM      3  C15 4L0 d   1      -8.265  28.995  67.907  0.00  0.00    -0.063 C 
ATOM      4  C16 4L0 d   1      -7.482  28.236  66.865  0.00  0.00    -0.045 C 
ATOM      5  C   4L0 d   1      -4.807  26.959  71.569  0.00  0.00     0.241 C 
ATOM      6  O   4L0 d   1      -3.984  26.063  71.760  0.00  0.00    -0.271 OA
ATOM      7  CA  4L0 d   1      -4.835  27.736  70.251  0.00  0.00     0.094 C 
ATOM      8  CB  4L0 d   1      -5.404  26.836  69.142  0.00  0.00    -0.012 C 
ATOM      9  CD  4L0 d   1      -3.310  27.639  68.360  0.00  0.00     0.023 C 
ATOM     10  C41 4L0 d   1      -2.594  28.719  70.513  0.00  0.00     0.216 C 
ATOM     11  O6  4L0 d   1      -2.879  29.071  71.649  0.00  0.00    -0.274 OA
ATOM     12  CG  4L0 d   1      -4.742  27.414  67.905  0.00  0.00     0.056 C 
ATOM     13  O5  4L0 d   1      -5.298  28.704  67.648  0.00  0.00    -0.384 OA
ATOM     14  C17 4L0 d   1      -6.152  28.822  66.522  0.00  0.00     0.020 C 
ATOM     15  C13 4L0 d   1     -10.432  29.034  69.193  0.00  0.00    -0.050 C 
ATOM     16  C12 4L0 d   1     -11.564  28.202  69.773  0.00  0.00     0.000 C 
ATOM     17  H1  4L0 d   1      -9.162  27.346  68.930  0.00  0.00     0.033 H 
ATOM     18  H2  4L0 d   1     -10.031  27.879  67.451  0.00  0.00     0.033 H 
ATOM     19  H3  4L0 d   1      -7.621  29.173  68.781  0.00  0.00     0.033 H 
ATOM     20  H4  4L0 d   1      -8.584  29.959  67.484  0.00  0.00     0.033 H 
ATOM     21  H5  4L0 d   1      -8.085  28.198  65.946  0.00  0.00     0.036 H 
ATOM     22  H6  4L0 d   1      -7.318  27.214  67.239  0.00  0.00     0.036 H 
ATOM     23  H7  4L0 d   1      -5.438  28.647  70.377  0.00  0.00     0.088 H 
ATOM     24  H8  4L0 d   1      -6.500  26.915  69.084  0.00  0.00     0.040 H 
ATOM     25  H9  4L0 d   1      -5.120  25.784  69.294  0.00  0.00     0.040 H 
ATOM     26  H10 4L0 d   1      -2.721  26.712  68.303  0.00  0.00     0.068 H 
ATOM     27  H11 4L0 d   1      -2.819  28.422  67.764  0.00  0.00     0.068 H 
ATOM     28  H15 4L0 d   1      -4.820  26.750  67.031  0.00  0.00     0.086 H 
ATOM     29  H16 4L0 d   1      -6.272  29.883  66.258  0.00  0.00     0.074 H 
ATOM     30  H17 4L0 d   1      -5.717  28.279  65.670  0.00  0.00     0.074 H 
ATOM     31  H18 4L0 d   1     -10.864  29.832  68.571  0.00  0.00     0.035 H 
ATOM     32  H19 4L0 d   1      -9.863  29.482  70.021  0.00  0.00     0.035 H 
ATOM     33  H20 4L0 d   1     -11.924  27.502  69.005  0.00  0.00     0.064 H 
ATOM     34  H21 4L0 d   1     -12.384  28.871  70.072  0.00  0.00     0.064 H 
ATOM     35  N   LEU d   1      -5.740  27.307  72.460  0.00  0.00    -0.346 N 
ATOM     36  CA  LEU d   1      -5.916  26.616  73.730  0.00  0.00     0.089 C 
ATOM     37  C   LEU d   1      -7.012  25.550  73.697  0.00  0.00     0.241 C 
ATOM     38  O   LEU d   1      -7.331  24.947  74.724  0.00  0.00    -0.271 OA
ATOM     39  H22 LEU d   1      -6.343  28.075  72.246  0.00  0.00     0.163 HD
ATOM     40  H23 LEU d   1      -4.972  26.097  73.951  0.00  0.00     0.087 H 
ATOM     41  N   56A d   1      -7.568  25.315  72.515  0.00  0.00    -0.346 N 
ATOM     42  CA  56A d   1      -8.474  24.217  72.299  0.00  0.00     0.094 C 
ATOM     43  CB  56A d   1      -9.900  24.522  72.787  0.00  0.00     0.002 C 
ATOM     44  CG  56A d   1     -10.419  25.821  72.251  0.00  0.00     0.030 A 
ATOM     45  ND1 56A d   1     -10.484  27.006  72.953  0.00  0.00    -0.345 N 
ATOM     46  CD2 56A d   1     -10.837  26.088  70.999  0.00  0.00     0.002 A 
ATOM     47  CE1 56A d   1     -10.900  27.958  72.143  0.00  0.00     0.045 A 
ATOM     48  NE2 56A d   1     -11.117  27.437  70.948  0.00  0.00    -0.351 N 
ATOM     49  H33 56A d   1      -7.351  25.920  71.749  0.00  0.00     0.163 HD
ATOM     50  H34 56A d   1      -8.102  23.351  72.866  0.00  0.00     0.088 H 
ATOM     51  H35 56A d   1      -9.895  24.570  73.886  0.00  0.00     0.046 H 
ATOM     52  H36 56A d   1     -10.567  23.712  72.458  0.00  0.00     0.046 H 
ATOM     53  H58 56A d   1     -10.935  25.374  70.182  0.00  0.00     0.114 H 
ATOM     54  H59 56A d   1     -11.042  29.003  72.414  0.00  0.00     0.141 H 
ENDROOT
BRANCH  45  55
ATOM     55  C27 56A d   1     -10.173  27.182  74.378  0.00  0.00     0.001 C 
ATOM     56  H37 56A d   1      -9.279  26.588  74.617  0.00  0.00     0.065 H 
ATOM     57  H38 56A d   1      -9.966  28.247  74.562  0.00  0.00     0.065 H 
BRANCH  55  58
ATOM     58  C28 56A d   1     -11.295  26.747  75.285  0.00  0.00    -0.050 C 
ATOM     59  H39 56A d   1     -11.608  25.729  75.011  0.00  0.00     0.035 H 
ATOM     60  H40 56A d   1     -12.144  27.436  75.167  0.00  0.00     0.035 H 
BRANCH  58  61
ATOM     61  C29 56A d   1     -10.844  26.758  76.716  0.00  0.00    -0.064 C 
ATOM     62  H41 56A d   1     -10.541  27.781  76.985  0.00  0.00     0.033 H 
ATOM     63  H42 56A d   1      -9.983  26.081  76.822  0.00  0.00     0.033 H 
BRANCH  61  64
ATOM     64  C30 56A d   1     -11.931  26.311  77.656  0.00  0.00    -0.065 C 
ATOM     65  H43 56A d   1     -12.291  25.322  77.336  0.00  0.00     0.033 H 
ATOM     66  H44 56A d   1     -12.758  27.035  77.610  0.00  0.00     0.033 H 
BRANCH  64  67
ATOM     67  C31 56A d   1     -11.446  26.213  79.097  0.00  0.00    -0.065 C 
ATOM     68  H45 56A d   1     -11.090  27.206  79.409  0.00  0.00     0.033 H 
ATOM     69  H46 56A d   1     -10.612  25.497  79.132  0.00  0.00     0.033 H 
BRANCH  67  70
ATOM     70  C32 56A d   1     -12.507  25.757  80.081  0.00  0.00    -0.065 C 
ATOM     71  H47 56A d   1     -13.383  26.413  79.969  0.00  0.00     0.033 H 
ATOM     72  H48 56A d   1     -12.099  25.860  81.097  0.00  0.00     0.033 H 
BRANCH  70  73
ATOM     73  C33 56A d   1     -12.966  24.320  79.898  0.00  0.00    -0.061 C 
ATOM     74  H49 56A d   1     -12.094  23.656  79.992  0.00  0.00     0.033 H 
ATOM     75  H50 56A d   1     -13.402  24.214  78.894  0.00  0.00     0.033 H 
BRANCH  73  76
ATOM     76  C34 56A d   1     -14.016  23.904  80.937  0.00  0.00    -0.041 C 
ATOM     77  H51 56A d   1     -14.377  22.895  80.687  0.00  0.00     0.040 H 
ATOM     78  H52 56A d   1     -14.854  24.615  80.893  0.00  0.00     0.040 H 
BRANCH  76  79
ATOM     79  C35 56A d   1     -13.474  23.886  82.345  0.00  0.00    -0.058 A 
ATOM     80  C36 56A d   1     -13.838  24.863  83.247  0.00  0.00    -0.077 A 
ATOM     81  C37 56A d   1     -13.325  24.861  84.531  0.00  0.00    -0.082 A 
ATOM     82  H53 56A d   1     -14.532  25.640  82.947  0.00  0.00     0.084 H 
ATOM     83  C38 56A d   1     -12.432  23.891  84.925  0.00  0.00    -0.083 A 
ATOM     84  H54 56A d   1     -13.629  25.630  85.233  0.00  0.00     0.083 H 
ATOM     85  C39 56A d   1     -12.069  22.906  84.048  0.00  0.00    -0.082 A 
ATOM     86  H55 56A d   1     -12.018  23.907  85.927  0.00  0.00     0.083 H 
ATOM     87  C40 56A d   1     -12.588  22.898  82.762  0.00  0.00    -0.077 A 
ATOM     88  H56 56A d   1     -11.376  22.132  84.358  0.00  0.00     0.083 H 
ATOM     89  H57 56A d   1     -12.300  22.112  82.073  0.00  0.00     0.084 H 
ENDBRANCH  76  79
ENDBRANCH  73  76
ENDBRANCH  70  73
ENDBRANCH  67  70
ENDBRANCH  64  67
ENDBRANCH  61  64
ENDBRANCH  58  61
ENDBRANCH  55  58
ENDBRANCH  45  55
BRANCH  42  90
ATOM     90  C   56A d   1      -8.484  23.859  70.821  0.00  0.00     0.241 C 
ATOM     91  O   56A d   1      -8.036  24.640  69.987  0.00  0.00    -0.271 OA
ATOM     92  N   SER d   1      -8.983  22.660  70.524  0.00  0.00    -0.344 N 
ATOM     93  H60 SER d   1      -9.309  22.075  71.266  0.00  0.00     0.163 HD
BRANCH  92  94
ATOM     94  CA  SER d   1      -9.068  22.178  69.169  0.00  0.00     0.109 C 
ATOM     95  H61 SER d   1      -8.112  22.396  68.671  0.00  0.00     0.090 H 
BRANCH  94  96
ATOM     96  C   SER d   1     -10.174  22.876  68.368  0.00  0.00     0.243 C 
ATOM     97  O   SER d   1     -10.872  23.760  68.890  0.00  0.00    -0.271 OA
ATOM     98  N   TPO d   1     -10.289  22.533  67.082  0.00  0.00    -0.344 N 
ATOM     99  H65 TPO d   1      -9.758  21.762  66.731  0.00  0.00     0.163 HD
BRANCH  98 100
ATOM    100  CA  TPO d   1     -11.176  23.262  66.177  0.00  0.00     0.114 C 
ATOM    101  H66 TPO d   1     -10.887  24.323  66.209  0.00  0.00     0.091 H 
BRANCH 100 102
ATOM    102  CB  TPO d   1     -11.002  22.751  64.744  0.00  0.00     0.076 C 
ATOM    103  H67 TPO d   1     -11.313  21.697  64.700  0.00  0.00     0.087 H 
BRANCH 102 104
ATOM    104  CG2 TPO d   1     -11.798  23.518  63.716  0.00  0.00    -0.049 C 
ATOM    105  H68 TPO d   1     -11.618  23.090  62.719  0.00  0.00     0.031 H 
ATOM    106  H69 TPO d   1     -11.487  24.573  63.724  0.00  0.00     0.031 H 
ATOM    107  H70 TPO d   1     -12.869  23.450  63.956  0.00  0.00     0.031 H 
ENDBRANCH 102 104
BRANCH 102 108
ATOM    108  OG1 TPO d   1      -9.592  22.855  64.459  0.00  0.00    -0.275 OA
BRANCH 108 109
ATOM    109  P   TPO d   1      -8.661  21.566  64.235  0.00  0.00     0.422 P 
ATOM    110  O1P TPO d   1      -9.282  20.724  63.140  0.00  0.00    -0.617 OA
ATOM    111  O2P TPO d   1      -7.318  22.135  63.850  0.00  0.00    -0.617 OA
ATOM    112  O3P TPO d   1      -8.614  20.833  65.555  0.00  0.00    -0.617 OA
ENDBRANCH 108 109
ENDBRANCH 102 108
ENDBRANCH 100 102
BRANCH 100 113
ATOM    113  C   TPO d   1     -12.666  23.164  66.564  0.00  0.00     0.240 C 
ATOM    114  O   TPO d   1     -13.117  22.055  66.842  0.00  0.00    -0.271 OA
ATOM    115  N   NH2 d   1     -13.392  24.280  66.601  0.00  0.00    -0.368 N 
ATOM    116  H71 NH2 d   1     -14.360  24.239  66.849  0.00  0.00     0.159 HD
ATOM    117  H72 NH2 d   1     -12.969  25.159  66.380  0.00  0.00     0.159 HD
ENDBRANCH 100 113
ENDBRANCH  98 100
ENDBRANCH  94  96
BRANCH  94 118
ATOM    118  CB  SER d   1      -9.259  20.668  69.188  0.00  0.00     0.044 C 
ATOM    119  H62 SER d   1      -8.407  20.201  69.703  0.00  0.00     0.077 H 
ATOM    120  H63 SER d   1      -9.311  20.296  68.154  0.00  0.00     0.077 H 
BRANCH 118 121
ATOM    121  OG  SER d   1     -10.482  20.325  69.881  0.00  0.00    -0.398 OA
ATOM    122  H64 SER d   1     -11.220  20.726  69.436  0.00  0.00     0.209 HD
ENDBRANCH 118 121
ENDBRANCH  94 118
ENDBRANCH  92  94
ENDBRANCH  42  90
BRANCH  36 123
ATOM    123  CB  LEU d   1      -6.159  27.633  74.851  0.00  0.00    -0.035 C 
ATOM    124  H24 LEU d   1      -6.356  27.077  75.779  0.00  0.00     0.037 H 
ATOM    125  H25 LEU d   1      -7.045  28.229  74.585  0.00  0.00     0.037 H 
BRANCH 123 126
ATOM    126  CG  LEU d   1      -5.004  28.592  75.110  0.00  0.00    -0.059 C 
ATOM    127  H26 LEU d   1      -4.866  29.204  74.206  0.00  0.00     0.038 H 
BRANCH 126 128
ATOM    128  CD1 LEU d   1      -5.318  29.526  76.268  0.00  0.00    -0.073 C 
ATOM    129  H27 LEU d   1      -4.468  30.205  76.432  0.00  0.00     0.028 H 
ATOM    130  H28 LEU d   1      -5.495  28.935  77.178  0.00  0.00     0.028 H 
ATOM    131  H29 LEU d   1      -6.217  30.114  76.032  0.00  0.00     0.028 H 
ENDBRANCH 126 128
BRANCH 126 132
ATOM    132  CD2 LEU d   1      -3.715  27.852  75.371  0.00  0.00    -0.073 C 
ATOM    133  H30 LEU d   1      -3.500  27.181  74.526  0.00  0.00     0.028 H 
ATOM    134  H31 LEU d   1      -3.812  27.261  76.294  0.00  0.00     0.028 H 
ATOM    135  H32 LEU d   1      -2.893  28.575  75.483  0.00  0.00     0.028 H 
ENDBRANCH 126 132
ENDBRANCH 123 126
ENDBRANCH  36 123
BRANCH  10 136
ATOM    136  C42 4L0 d   1      -1.256  29.012  69.894  0.00  0.00    -0.003 C 
ATOM    137  H12 4L0 d   1      -0.624  29.542  70.621  0.00  0.00     0.040 H 
ATOM    138  H13 4L0 d   1      -1.394  29.640  69.002  0.00  0.00     0.040 H 
ATOM    139  H14 4L0 d   1      -0.770  28.068  69.606  0.00  0.00     0.040 H 
ENDBRANCH  10 136
TORSDOF 25
