REMARK  25 active torsions:
REMARK  status: ('A' for Active; 'I' for Inactive)
REMARK       I    between atoms: N_14  and  C43_15 
REMARK    1  A    between atoms: C43_15  and  C44_17 
REMARK    2  A    between atoms: CA_21  and  CB_24 
REMARK    3  A    between atoms: CB_24  and  CG_25 
REMARK    4  A    between atoms: CG_25  and  CD1_26 
REMARK    5  A    between atoms: CG_25  and  CD2_27 
REMARK    6  A    between atoms: CA_31  and  C_28 
REMARK       I    between atoms: C_28  and  N_52 
REMARK    7  A    between atoms: C27_34  and  C28_35 
REMARK    8  A    between atoms: C27_34  and  ND1_48 
REMARK    9  A    between atoms: C28_35  and  C29_36 
REMARK   10  A    between atoms: C29_36  and  C30_37 
REMARK   11  A    between atoms: C30_37  and  C31_38 
REMARK   12  A    between atoms: C31_38  and  C32_39 
REMARK   13  A    between atoms: C32_39  and  C33_40 
REMARK   14  A    between atoms: C33_40  and  C34_41 
REMARK   15  A    between atoms: C34_41  and  C35_42 
REMARK   16  A    between atoms: N_52  and  CA_53 
REMARK   17  A    between atoms: CA_53  and  C_54 
REMARK   18  A    between atoms: CA_53  and  CB_56 
REMARK       I    between atoms: C_54  and  N_58 
REMARK   19  A    between atoms: CB_56  and  OG_57 
REMARK   20  A    between atoms: N_58  and  CA_59 
REMARK   21  A    between atoms: CA_59  and  CB_60 
REMARK   22  A    between atoms: CA_59  and  C_67 
REMARK   23  A    between atoms: CB_60  and  CG2_61 
REMARK   24  A    between atoms: CB_60  and  OG1_62 
REMARK   25  A    between atoms: OG1_62  and  P_63 
REMARK       I    between atoms: C_67  and  N_69 
ROOT
ATOM      1  C13 4KY d   1       1.942   3.716 -11.891  0.00  0.00    -0.050 C 
ATOM      2  C14 4KY d   1       0.626   4.475 -11.924  0.00  0.00    -0.064 C 
ATOM      3  C15 4KY d   1      -0.231   4.300 -10.677  0.00  0.00    -0.065 C 
ATOM      4  C16 4KY d   1      -0.827   2.912 -10.491  0.00  0.00    -0.065 C 
ATOM      5  C17 4KY d   1      -1.745   2.799  -9.274  0.00  0.00    -0.063 C 
ATOM      6  C18 4KY d   1      -2.542   1.497  -9.161  0.00  0.00    -0.045 C 
ATOM      7  C19 4KY d   1      -3.528   1.225 -10.274  0.00  0.00     0.020 C 
ATOM      8  C   4KY d   1      -4.789   3.514 -14.719  0.00  0.00     0.241 C 
ATOM      9  O   4KY d   1      -5.634   2.656 -14.978  0.00  0.00    -0.271 OA
ATOM     10  CA  4KY d   1      -4.811   4.280 -13.397  0.00  0.00     0.094 C 
ATOM     11  CB  4KY d   1      -3.932   3.550 -12.376  0.00  0.00    -0.012 C 
ATOM     12  CG  4KY d   1      -4.928   2.629 -11.684  0.00  0.00     0.056 C 
ATOM     13  CD  4KY d   1      -6.168   3.503 -11.521  0.00  0.00     0.023 C 
ATOM     14  N   4KY d   1      -6.117   4.348 -12.724  0.00  0.00    -0.337 N 
ATOM     15  C43 4KY d   1      -7.159   5.065 -13.177  0.00  0.00     0.216 C 
ATOM     16  O6  4KY d   1      -8.185   5.193 -12.482  0.00  0.00    -0.274 OA
ATOM     17  O5  4KY d   1      -4.450   2.314 -10.373  0.00  0.00    -0.384 OA
ATOM     18  C12 4KY d   1       2.744   3.884 -13.174  0.00  0.00     0.000 C 
ATOM     19  H1  4KY d   1       1.729   2.647 -11.746  0.00  0.00     0.035 H 
ATOM     20  H2  4KY d   1       2.543   4.088 -11.048  0.00  0.00     0.035 H 
ATOM     21  H3  4KY d   1       0.048   4.124 -12.791  0.00  0.00     0.033 H 
ATOM     22  H4  4KY d   1       0.849   5.546 -12.041  0.00  0.00     0.033 H 
ATOM     23  H5  4KY d   1      -1.059   5.022 -10.729  0.00  0.00     0.033 H 
ATOM     24  H6  4KY d   1       0.395   4.522  -9.800  0.00  0.00     0.033 H 
ATOM     25  H7  4KY d   1      -0.003   2.193 -10.373  0.00  0.00     0.033 H 
ATOM     26  H8  4KY d   1      -1.409   2.660 -11.390  0.00  0.00     0.033 H 
ATOM     27  H9  4KY d   1      -2.462   3.632  -9.314  0.00  0.00     0.033 H 
ATOM     28  H10 4KY d   1      -1.123   2.894  -8.372  0.00  0.00     0.033 H 
ATOM     29  H11 4KY d   1      -3.102   1.526  -8.215  0.00  0.00     0.036 H 
ATOM     30  H12 4KY d   1      -1.824   0.664  -9.136  0.00  0.00     0.036 H 
ATOM     31  H13 4KY d   1      -4.078   0.298 -10.057  0.00  0.00     0.074 H 
ATOM     32  H14 4KY d   1      -2.986   1.116 -11.225  0.00  0.00     0.074 H 
ATOM     33  H15 4KY d   1      -4.437   5.298 -13.580  0.00  0.00     0.088 H 
ATOM     34  H16 4KY d   1      -3.481   4.256 -11.663  0.00  0.00     0.040 H 
ATOM     35  H17 4KY d   1      -3.138   2.974 -12.874  0.00  0.00     0.040 H 
ATOM     36  H18 4KY d   1      -5.127   1.718 -12.268  0.00  0.00     0.086 H 
ATOM     37  H19 4KY d   1      -6.110   4.110 -10.605  0.00  0.00     0.068 H 
ATOM     38  H20 4KY d   1      -7.084   2.895 -11.500  0.00  0.00     0.068 H 
ATOM     39  H24 4KY d   1       3.700   3.349 -13.072  0.00  0.00     0.064 H 
ATOM     40  H25 4KY d   1       2.939   4.954 -13.337  0.00  0.00     0.064 H 
ATOM     41  N   LEU d   1      -3.803   3.850 -15.556  0.00  0.00    -0.346 N 
ATOM     42  CA  LEU d   1      -3.689   3.235 -16.874  0.00  0.00     0.089 C 
ATOM     43  C   LEU d   1      -2.674   2.099 -16.915  0.00  0.00     0.241 C 
ATOM     44  O   LEU d   1      -2.510   1.439 -17.935  0.00  0.00    -0.271 OA
ATOM     45  H26 LEU d   1      -3.131   4.535 -15.274  0.00  0.00     0.163 HD
ATOM     46  H27 LEU d   1      -4.669   2.793 -17.106  0.00  0.00     0.087 H 
ATOM     47  N   56A d   1      -2.051   1.837 -15.771  0.00  0.00    -0.346 N 
ATOM     48  CA  56A d   1      -1.263   0.637 -15.593  0.00  0.00     0.094 C 
ATOM     49  CB  56A d   1       0.119   0.811 -16.218  0.00  0.00     0.002 C 
ATOM     50  CG  56A d   1       0.866   1.994 -15.621  0.00  0.00     0.030 A 
ATOM     51  ND1 56A d   1       0.996   3.225 -16.231  0.00  0.00    -0.345 N 
ATOM     52  CD2 56A d   1       1.519   2.073 -14.450  0.00  0.00     0.002 A 
ATOM     53  CE1 56A d   1       1.690   4.033 -15.424  0.00  0.00     0.045 A 
ATOM     54  NE2 56A d   1       2.011   3.344 -14.341  0.00  0.00    -0.351 N 
ATOM     55  H37 56A d   1      -2.129   2.486 -15.014  0.00  0.00     0.163 HD
ATOM     56  H38 56A d   1      -1.767  -0.197 -16.104  0.00  0.00     0.088 H 
ATOM     57  H39 56A d   1       0.002   0.973 -17.300  0.00  0.00     0.046 H 
ATOM     58  H40 56A d   1       0.705  -0.104 -16.045  0.00  0.00     0.046 H 
ATOM     59  H62 56A d   1       1.635   1.272 -13.721  0.00  0.00     0.114 H 
ATOM     60  H63 56A d   1       1.946   5.073 -15.622  0.00  0.00     0.141 H 
ENDROOT
BRANCH  51  61
ATOM     61  C27 56A d   1       0.562   3.518 -17.599  0.00  0.00     0.001 C 
ATOM     62  H41 56A d   1      -0.326   2.913 -17.835  0.00  0.00     0.065 H 
ATOM     63  H42 56A d   1       0.310   4.586 -17.679  0.00  0.00     0.065 H 
BRANCH  61  64
ATOM     64  C28 56A d   1       1.655   3.193 -18.573  0.00  0.00    -0.050 C 
ATOM     65  H43 56A d   1       2.013   2.171 -18.380  0.00  0.00     0.035 H 
ATOM     66  H44 56A d   1       2.482   3.904 -18.432  0.00  0.00     0.035 H 
BRANCH  64  67
ATOM     67  C29 56A d   1       1.175   3.280 -19.991  0.00  0.00    -0.064 C 
ATOM     68  H45 56A d   1       1.025   4.336 -20.259  0.00  0.00     0.033 H 
ATOM     69  H46 56A d   1       0.222   2.740 -20.084  0.00  0.00     0.033 H 
BRANCH  67  70
ATOM     70  C30 56A d   1       2.179   2.673 -20.922  0.00  0.00    -0.065 C 
ATOM     71  H47 56A d   1       2.448   1.674 -20.547  0.00  0.00     0.033 H 
ATOM     72  H48 56A d   1       3.075   3.312 -20.939  0.00  0.00     0.033 H 
BRANCH  70  73
ATOM     73  C31 56A d   1       1.660   2.536 -22.325  0.00  0.00    -0.065 C 
ATOM     74  H49 56A d   1       1.213   3.491 -22.638  0.00  0.00     0.033 H 
ATOM     75  H50 56A d   1       0.894   1.747 -22.350  0.00  0.00     0.033 H 
BRANCH  73  76
ATOM     76  C32 56A d   1       2.777   2.173 -23.286  0.00  0.00    -0.065 C 
ATOM     77  H51 56A d   1       3.593   2.899 -23.155  0.00  0.00     0.033 H 
ATOM     78  H52 56A d   1       2.385   2.244 -24.311  0.00  0.00     0.033 H 
BRANCH  76  79
ATOM     79  C33 56A d   1       3.351   0.769 -23.090  0.00  0.00    -0.061 C 
ATOM     80  H53 56A d   1       2.512   0.059 -23.051  0.00  0.00     0.033 H 
ATOM     81  H54 56A d   1       3.891   0.751 -22.132  0.00  0.00     0.033 H 
BRANCH  79  82
ATOM     82  C34 56A d   1       4.314   0.307 -24.187  0.00  0.00    -0.041 C 
ATOM     83  H55 56A d   1       4.591  -0.741 -23.998  0.00  0.00     0.040 H 
ATOM     84  H56 56A d   1       5.216   0.936 -24.155  0.00  0.00     0.040 H 
BRANCH  82  85
ATOM     85  C35 56A d   1       3.700   0.407 -25.561  0.00  0.00    -0.058 A 
ATOM     86  C36 56A d   1       2.739  -0.500 -25.975  0.00  0.00    -0.077 A 
ATOM     87  C37 56A d   1       2.169  -0.403 -27.232  0.00  0.00    -0.082 A 
ATOM     88  H57 56A d   1       2.430  -1.295 -25.306  0.00  0.00     0.084 H 
ATOM     89  C38 56A d   1       2.547   0.606 -28.093  0.00  0.00    -0.083 A 
ATOM     90  H58 56A d   1       1.421  -1.124 -27.542  0.00  0.00     0.083 H 
ATOM     91  C39 56A d   1       3.507   1.506 -27.699  0.00  0.00    -0.082 A 
ATOM     92  H59 56A d   1       2.090   0.688 -29.073  0.00  0.00     0.083 H 
ATOM     93  C40 56A d   1       4.075   1.412 -26.439  0.00  0.00    -0.077 A 
ATOM     94  H60 56A d   1       3.821   2.292 -28.376  0.00  0.00     0.083 H 
ATOM     95  H61 56A d   1       4.824   2.135 -26.135  0.00  0.00     0.084 H 
ENDBRANCH  82  85
ENDBRANCH  79  82
ENDBRANCH  76  79
ENDBRANCH  73  76
ENDBRANCH  70  73
ENDBRANCH  67  70
ENDBRANCH  64  67
ENDBRANCH  61  64
ENDBRANCH  51  61
BRANCH  48  96
ATOM     96  C   56A d   1      -1.188   0.316 -14.111  0.00  0.00     0.241 C 
ATOM     97  O   56A d   1      -1.607   1.113 -13.282  0.00  0.00    -0.271 OA
ATOM     98  N   SER d   1      -0.623  -0.844 -13.800  0.00  0.00    -0.344 N 
ATOM     99  H64 SER d   1      -0.219  -1.393 -14.531  0.00  0.00     0.163 HD
BRANCH  98 100
ATOM    100  CA  SER d   1      -0.570  -1.342 -12.450  0.00  0.00     0.109 C 
ATOM    101  H65 SER d   1      -1.519  -1.090 -11.955  0.00  0.00     0.090 H 
BRANCH 100 102
ATOM    102  C   SER d   1       0.561  -0.698 -11.650  0.00  0.00     0.243 C 
ATOM    103  O   SER d   1       1.323   0.118 -12.158  0.00  0.00    -0.271 OA
ATOM    104  N   TPO d   1       0.625  -1.045 -10.365  0.00  0.00    -0.344 N 
ATOM    105  H69 TPO d   1       0.054  -1.798 -10.039  0.00  0.00     0.163 HD
BRANCH 104 106
ATOM    106  CA  TPO d   1       1.496  -0.367  -9.421  0.00  0.00     0.114 C 
ATOM    107  H70 TPO d   1       1.216   0.697  -9.405  0.00  0.00     0.091 H 
BRANCH 106 108
ATOM    108  CB  TPO d   1       1.303  -0.945  -8.015  0.00  0.00     0.076 C 
ATOM    109  H71 TPO d   1       1.603  -2.003  -8.014  0.00  0.00     0.087 H 
BRANCH 108 110
ATOM    110  CG2 TPO d   1       2.091  -0.220  -6.943  0.00  0.00    -0.049 C 
ATOM    111  H72 TPO d   1       1.901  -0.691  -5.967  0.00  0.00     0.031 H 
ATOM    112  H73 TPO d   1       1.779   0.834  -6.908  0.00  0.00     0.031 H 
ATOM    113  H74 TPO d   1       3.165  -0.277  -7.175  0.00  0.00     0.031 H 
ENDBRANCH 108 110
BRANCH 108 114
ATOM    114  OG1 TPO d   1      -0.098  -0.828  -7.731  0.00  0.00    -0.275 OA
BRANCH 114 115
ATOM    115  P   TPO d   1      -1.047  -2.114  -7.580  0.00  0.00     0.422 P 
ATOM    116  O1P TPO d   1      -1.127  -2.789  -8.952  0.00  0.00    -0.617 OA
ATOM    117  O2P TPO d   1      -0.428  -2.968  -6.563  0.00  0.00    -0.617 OA
ATOM    118  O3P TPO d   1      -2.397  -1.554  -7.147  0.00  0.00    -0.617 OA
ENDBRANCH 114 115
ENDBRANCH 108 114
ENDBRANCH 106 108
BRANCH 106 119
ATOM    119  C   TPO d   1       2.982  -0.464  -9.807  0.00  0.00     0.240 C 
ATOM    120  O   TPO d   1       3.441  -1.556 -10.112  0.00  0.00    -0.271 OA
ATOM    121  N   NH2 d   1       3.716   0.634  -9.752  0.00  0.00    -0.368 N 
ATOM    122  H75 NH2 d   1       4.685   0.601  -9.997  0.00  0.00     0.159 HD
ATOM    123  H76 NH2 d   1       3.302   1.498  -9.465  0.00  0.00     0.159 HD
ENDBRANCH 106 119
ENDBRANCH 104 106
ENDBRANCH 100 102
BRANCH 100 124
ATOM    124  CB  SER d   1      -0.428  -2.863 -12.471  0.00  0.00     0.044 C 
ATOM    125  H66 SER d   1      -1.310  -3.301 -12.961  0.00  0.00     0.077 H 
ATOM    126  H67 SER d   1      -0.360  -3.234 -11.438  0.00  0.00     0.077 H 
BRANCH 124 127
ATOM    127  OG  SER d   1       0.755  -3.252 -13.191  0.00  0.00    -0.398 OA
ATOM    128  H68 SER d   1       1.519  -2.877 -12.769  0.00  0.00     0.209 HD
ENDBRANCH 124 127
ENDBRANCH 100 124
ENDBRANCH  98 100
ENDBRANCH  48  96
BRANCH  42 129
ATOM    129  CB  LEU d   1      -3.403   4.285 -17.947  0.00  0.00    -0.035 C 
ATOM    130  H28 LEU d   1      -3.210   3.763 -18.896  0.00  0.00     0.037 H 
ATOM    131  H29 LEU d   1      -2.505   4.846 -17.648  0.00  0.00     0.037 H 
BRANCH 129 132
ATOM    132  CG  LEU d   1      -4.530   5.278 -18.172  0.00  0.00    -0.059 C 
ATOM    133  H30 LEU d   1      -4.735   5.782 -17.216  0.00  0.00     0.038 H 
BRANCH 132 134
ATOM    134  CD1 LEU d   1      -4.140   6.335 -19.197  0.00  0.00    -0.073 C 
ATOM    135  H31 LEU d   1      -4.976   7.037 -19.336  0.00  0.00     0.028 H 
ATOM    136  H32 LEU d   1      -3.906   5.848 -20.155  0.00  0.00     0.028 H 
ATOM    137  H33 LEU d   1      -3.256   6.884 -18.840  0.00  0.00     0.028 H 
ENDBRANCH 132 134
BRANCH 132 138
ATOM    138  CD2 LEU d   1      -5.794   4.583 -18.624  0.00  0.00    -0.073 C 
ATOM    139  H34 LEU d   1      -6.077   3.819 -17.885  0.00  0.00     0.028 H 
ATOM    140  H35 LEU d   1      -5.620   4.103 -19.599  0.00  0.00     0.028 H 
ATOM    141  H36 LEU d   1      -6.605   5.321 -18.718  0.00  0.00     0.028 H 
ENDBRANCH 132 138
ENDBRANCH 129 132
ENDBRANCH  42 129
BRANCH  15 142
ATOM    142  C44 4KY d   1      -6.980   5.774 -14.465  0.00  0.00    -0.003 C 
ATOM    143  H21 4KY d   1      -7.903   6.317 -14.716  0.00  0.00     0.040 H 
ATOM    144  H22 4KY d   1      -6.757   5.044 -15.257  0.00  0.00     0.040 H 
ATOM    145  H23 4KY d   1      -6.147   6.487 -14.378  0.00  0.00     0.040 H 
ENDBRANCH  15 142
TORSDOF 25
