REMARK  24 active torsions:
REMARK  status: ('A' for Active; 'I' for Inactive)
REMARK    1  A    between atoms: CA_2  and  CB_5 
REMARK    2  A    between atoms: CB_5  and  CG_6 
REMARK    3  A    between atoms: CG_6  and  CD1_7 
REMARK    4  A    between atoms: CG_6  and  CD2_8 
REMARK    5  A    between atoms: C8_9  and  C7_10 
REMARK       I    between atoms: C7_10  and  N_45 
REMARK    6  A    between atoms: N4_18  and  C13_20 
REMARK    7  A    between atoms: C13_20  and  C14_21 
REMARK    8  A    between atoms: C14_21  and  C15_22 
REMARK    9  A    between atoms: C15_22  and  C16_23 
REMARK   10  A    between atoms: C16_23  and  C17_24 
REMARK   11  A    between atoms: C17_24  and  C18_25 
REMARK   12  A    between atoms: C18_25  and  C19_26 
REMARK   13  A    between atoms: C19_26  and  C20_27 
REMARK   14  A    between atoms: C20_27  and  C21_28 
REMARK   15  A    between atoms: N_45  and  CA_46 
REMARK   16  A    between atoms: CA_46  and  C_47 
REMARK   17  A    between atoms: CA_46  and  CB_49 
REMARK       I    between atoms: C_47  and  N_51 
REMARK   18  A    between atoms: CB_49  and  OG_50 
REMARK   19  A    between atoms: N_51  and  CA_52 
REMARK   20  A    between atoms: CA_52  and  CB_53 
REMARK   21  A    between atoms: CA_52  and  C_60 
REMARK   22  A    between atoms: CB_53  and  CG2_54 
REMARK   23  A    between atoms: CB_53  and  OG1_55 
REMARK   24  A    between atoms: OG1_55  and  P_56 
REMARK       I    between atoms: C_60  and  N_62 
ROOT
ATOM      1  N   LEU d   1      40.249  28.003  15.891  0.00  0.00    -0.348 N 
ATOM      2  CA  LEU d   1      39.966  27.441  17.205  0.00  0.00     0.089 C 
ATOM      3  C   LEU d   1      38.975  26.278  17.172  0.00  0.00     0.241 C 
ATOM      4  O   LEU d   1      38.766  25.617  18.184  0.00  0.00    -0.271 OA
ATOM      5  H1  LEU d   1      39.618  28.673  15.501  0.00  0.00     0.163 HD
ATOM      6  H2  LEU d   1      40.916  27.019  17.566  0.00  0.00     0.087 H 
ATOM      7  C8  3ZH d   1      37.573  24.832  15.800  0.00  0.00     0.094 C 
ATOM      8  C9  3ZH d   1      36.220  24.932  16.511  0.00  0.00     0.002 C 
ATOM      9  C11 3ZH d   1      34.832  26.232  14.800  0.00  0.00     0.002 A 
ATOM     10  N5  3ZH d   1      38.395  26.014  15.999  0.00  0.00    -0.346 N 
ATOM     11  C43 3ZH d   1      33.755  28.157  13.543  0.00  0.00     0.000 C 
ATOM     12  N3  3ZH d   1      34.373  27.524  14.721  0.00  0.00    -0.351 N 
ATOM     13  C12 3ZH d   1      34.619  28.134  15.871  0.00  0.00     0.045 A 
ATOM     14  N4  3ZH d   1      35.230  27.274  16.689  0.00  0.00    -0.345 N 
ATOM     15  C10 3ZH d   1      35.371  26.064  16.021  0.00  0.00     0.030 A 
ATOM     16  C33 3ZH d   1      41.331  27.645  15.194  0.00  0.00     0.218 C 
ATOM     17  O5  3ZH d   1      42.106  26.769  15.572  0.00  0.00    -0.274 OA
ATOM     18  C34 3ZH d   1      41.559  28.390  13.903  0.00  0.00     0.009 C 
ATOM     19  C35 3ZH d   1      40.315  28.481  13.033  0.00  0.00    -0.057 C 
ATOM     20  C36 3ZH d   1      40.643  28.831  11.591  0.00  0.00    -0.065 C 
ATOM     21  C37 3ZH d   1      39.446  28.872  10.657  0.00  0.00    -0.065 C 
ATOM     22  C38 3ZH d   1      38.557  30.098  10.819  0.00  0.00    -0.065 C 
ATOM     23  C39 3ZH d   1      37.257  29.849  11.563  0.00  0.00    -0.065 C 
ATOM     24  C40 3ZH d   1      36.292  28.906  10.853  0.00  0.00    -0.065 C 
ATOM     25  C41 3ZH d   1      34.863  28.911  11.375  0.00  0.00    -0.064 C 
ATOM     26  C42 3ZH d   1      34.714  29.127  12.878  0.00  0.00    -0.050 C 
ATOM     27  H12 3ZH d   1      38.109  23.992  16.267  0.00  0.00     0.088 H 
ATOM     28  H13 3ZH d   1      36.401  25.073  17.587  0.00  0.00     0.046 H 
ATOM     29  H14 3ZH d   1      35.672  23.991  16.352  0.00  0.00     0.046 H 
ATOM     30  H15 3ZH d   1      34.771  25.479  14.015  0.00  0.00     0.114 H 
ATOM     31  H16 3ZH d   1      38.530  26.647  15.236  0.00  0.00     0.163 HD
ATOM     32  H17 3ZH d   1      32.854  28.703  13.860  0.00  0.00     0.064 H 
ATOM     33  H18 3ZH d   1      33.476  27.376  12.821  0.00  0.00     0.064 H 
ATOM     34  H19 3ZH d   1      34.365  29.166  16.109  0.00  0.00     0.141 H 
ATOM     35  H41 3ZH d   1      42.345  27.871  13.335  0.00  0.00     0.047 H 
ATOM     36  H42 3ZH d   1      41.892  29.410  14.143  0.00  0.00     0.047 H 
ATOM     37  H43 3ZH d   1      39.653  29.257  13.443  0.00  0.00     0.033 H 
ATOM     38  H44 3ZH d   1      39.798  27.510  13.052  0.00  0.00     0.033 H 
ATOM     39  H45 3ZH d   1      41.350  28.080  11.209  0.00  0.00     0.033 H 
ATOM     40  H46 3ZH d   1      41.120  29.822  11.579  0.00  0.00     0.033 H 
ATOM     41  H47 3ZH d   1      38.834  27.977  10.844  0.00  0.00     0.033 H 
ATOM     42  H48 3ZH d   1      39.818  28.852   9.622  0.00  0.00     0.033 H 
ATOM     43  H49 3ZH d   1      38.310  30.476   9.816  0.00  0.00     0.033 H 
ATOM     44  H50 3ZH d   1      39.125  30.862  11.370  0.00  0.00     0.033 H 
ATOM     45  H51 3ZH d   1      36.751  30.816  11.704  0.00  0.00     0.033 H 
ATOM     46  H52 3ZH d   1      37.501  29.416  12.544  0.00  0.00     0.033 H 
ATOM     47  H53 3ZH d   1      36.684  27.883  10.952  0.00  0.00     0.033 H 
ATOM     48  H54 3ZH d   1      36.265  29.187   9.790  0.00  0.00     0.033 H 
ATOM     49  H55 3ZH d   1      34.407  27.942  11.125  0.00  0.00     0.033 H 
ATOM     50  H56 3ZH d   1      34.317  29.716  10.861  0.00  0.00     0.033 H 
ATOM     51  H57 3ZH d   1      35.703  29.012  13.345  0.00  0.00     0.035 H 
ATOM     52  H58 3ZH d   1      34.346  30.150  13.047  0.00  0.00     0.035 H 
ENDROOT
BRANCH  14  53
ATOM     53  C13 3ZH d   1      35.644  27.556  18.072  0.00  0.00     0.001 C 
ATOM     54  H20 3ZH d   1      35.990  28.598  18.133  0.00  0.00     0.065 H 
ATOM     55  H21 3ZH d   1      36.469  26.879  18.340  0.00  0.00     0.065 H 
BRANCH  53  56
ATOM     56  C14 3ZH d   1      34.510  27.359  19.057  0.00  0.00    -0.050 C 
ATOM     57  H22 3ZH d   1      33.997  26.417  18.812  0.00  0.00     0.035 H 
ATOM     58  H23 3ZH d   1      33.807  28.198  18.950  0.00  0.00     0.035 H 
BRANCH  56  59
ATOM     59  C15 3ZH d   1      34.964  27.296  20.503  0.00  0.00    -0.064 C 
ATOM     60  H24 3ZH d   1      35.286  28.300  20.816  0.00  0.00     0.033 H 
ATOM     61  H25 3ZH d   1      35.812  26.600  20.576  0.00  0.00     0.033 H 
BRANCH  59  62
ATOM     62  C16 3ZH d   1      33.864  26.824  21.437  0.00  0.00    -0.065 C 
ATOM     63  H26 3ZH d   1      33.488  25.859  21.066  0.00  0.00     0.033 H 
ATOM     64  H27 3ZH d   1      33.052  27.566  21.416  0.00  0.00     0.033 H 
BRANCH  62  65
ATOM     65  C17 3ZH d   1      34.302  26.641  22.879  0.00  0.00    -0.065 C 
ATOM     66  H28 3ZH d   1      35.059  27.404  23.113  0.00  0.00     0.033 H 
ATOM     67  H29 3ZH d   1      34.745  25.640  22.985  0.00  0.00     0.033 H 
BRANCH  65  68
ATOM     68  C18 3ZH d   1      33.163  26.771  23.876  0.00  0.00    -0.065 C 
ATOM     69  H30 3ZH d   1      32.722  27.772  23.761  0.00  0.00     0.033 H 
ATOM     70  H31 3ZH d   1      33.582  26.669  24.888  0.00  0.00     0.033 H 
BRANCH  68  71
ATOM     71  C19 3ZH d   1      32.048  25.744  23.721  0.00  0.00    -0.061 C 
ATOM     72  H32 3ZH d   1      31.878  25.596  22.644  0.00  0.00     0.033 H 
ATOM     73  H33 3ZH d   1      31.141  26.164  24.181  0.00  0.00     0.033 H 
BRANCH  71  74
ATOM     74  C20 3ZH d   1      32.291  24.372  24.345  0.00  0.00    -0.041 C 
ATOM     75  H34 3ZH d   1      33.111  23.885  23.797  0.00  0.00     0.040 H 
ATOM     76  H35 3ZH d   1      31.372  23.777  24.237  0.00  0.00     0.040 H 
BRANCH  74  77
ATOM     77  C21 3ZH d   1      32.659  24.411  25.809  0.00  0.00    -0.058 A 
ATOM     78  C26 3ZH d   1      32.138  25.387  26.646  0.00  0.00    -0.077 A 
ATOM     79  C25 3ZH d   1      32.524  25.461  27.973  0.00  0.00    -0.082 A 
ATOM     80  H36 3ZH d   1      31.420  26.100  26.256  0.00  0.00     0.084 H 
ATOM     81  C24 3ZH d   1      33.426  24.554  28.483  0.00  0.00    -0.083 A 
ATOM     82  H37 3ZH d   1      32.115  26.235  28.613  0.00  0.00     0.083 H 
ATOM     83  C23 3ZH d   1      33.937  23.569  27.667  0.00  0.00    -0.082 A 
ATOM     84  H38 3ZH d   1      33.732  24.615  29.521  0.00  0.00     0.083 H 
ATOM     85  C22 3ZH d   1      33.556  23.498  26.339  0.00  0.00    -0.077 A 
ATOM     86  H39 3ZH d   1      34.640  22.847  28.067  0.00  0.00     0.083 H 
ATOM     87  H40 3ZH d   1      33.964  22.719  25.706  0.00  0.00     0.084 H 
ENDBRANCH  74  77
ENDBRANCH  71  74
ENDBRANCH  68  71
ENDBRANCH  65  68
ENDBRANCH  62  65
ENDBRANCH  59  62
ENDBRANCH  56  59
ENDBRANCH  53  56
ENDBRANCH  14  53
BRANCH   7  88
ATOM     88  C7  3ZH d   1      37.434  24.493  14.319  0.00  0.00     0.241 C 
ATOM     89  O7  3ZH d   1      37.817  25.288  13.462  0.00  0.00    -0.271 OA
ATOM     90  N   SER d   1      36.873  23.317  14.026  0.00  0.00    -0.344 N 
ATOM     91  H59 SER d   1      36.506  22.756  14.768  0.00  0.00     0.163 HD
BRANCH  90  92
ATOM     92  CA  SER d   1      36.780  22.828  12.659  0.00  0.00     0.109 C 
ATOM     93  H60 SER d   1      37.746  23.024  12.171  0.00  0.00     0.090 H 
BRANCH  92  94
ATOM     94  C   SER d   1      35.699  23.535  11.846  0.00  0.00     0.243 C 
ATOM     95  O   SER d   1      34.972  24.377  12.363  0.00  0.00    -0.271 OA
ATOM     96  N   TPO d   1      35.615  23.188  10.559  0.00  0.00    -0.344 N 
ATOM     97  H64 TPO d   1      36.164  22.419  10.232  0.00  0.00     0.163 HD
BRANCH  96  98
ATOM     98  CA  TPO d   1      34.758  23.883   9.616  0.00  0.00     0.114 C 
ATOM     99  H65 TPO d   1      35.009  24.954   9.641  0.00  0.00     0.091 H 
BRANCH  98 100
ATOM    100  CB  TPO d   1      34.984  23.347   8.202  0.00  0.00     0.076 C 
ATOM    101  H66 TPO d   1      34.670  22.294   8.156  0.00  0.00     0.087 H 
BRANCH 100 102
ATOM    102  CG2 TPO d   1      34.238  24.120   7.139  0.00  0.00    -0.049 C 
ATOM    103  H67 TPO d   1      34.446  23.681   6.152  0.00  0.00     0.031 H 
ATOM    104  H68 TPO d   1      34.567  25.170   7.150  0.00  0.00     0.031 H 
ATOM    105  H69 TPO d   1      33.158  24.072   7.341  0.00  0.00     0.031 H 
ENDBRANCH 100 102
BRANCH 100 106
ATOM    106  OG1 TPO d   1      36.402  23.455   7.966  0.00  0.00    -0.275 OA
BRANCH 106 107
ATOM    107  P   TPO d   1      37.465  22.247   7.795  0.00  0.00     0.422 P 
ATOM    108  O1P TPO d   1      36.875  21.408   6.681  0.00  0.00    -0.617 OA
ATOM    109  O2P TPO d   1      38.823  22.795   7.469  0.00  0.00    -0.617 OA
ATOM    110  O3P TPO d   1      37.473  21.458   9.119  0.00  0.00    -0.617 OA
ENDBRANCH 106 107
ENDBRANCH 100 106
ENDBRANCH  98 100
BRANCH  98 111
ATOM    111  C   TPO d   1      33.275  23.714   9.959  0.00  0.00     0.240 C 
ATOM    112  O   TPO d   1      32.893  22.624  10.393  0.00  0.00    -0.271 OA
ATOM    113  N   NH2 d   1      32.468  24.749   9.778  0.00  0.00    -0.368 N 
ATOM    114  H70 NH2 d   1      31.495  24.668   9.993  0.00  0.00     0.159 HD
ATOM    115  H71 NH2 d   1      32.832  25.611   9.426  0.00  0.00     0.159 HD
ENDBRANCH  98 111
ENDBRANCH  96  98
ENDBRANCH  92  94
BRANCH  92 116
ATOM    116  CB  SER d   1      36.535  21.321  12.640  0.00  0.00     0.044 C 
ATOM    117  H61 SER d   1      37.397  20.811  13.095  0.00  0.00     0.077 H 
ATOM    118  H62 SER d   1      36.420  20.989  11.598  0.00  0.00     0.077 H 
BRANCH 116 119
ATOM    119  OG  SER d   1      35.361  20.984  13.366  0.00  0.00    -0.398 OA
ATOM    120  H63 SER d   1      34.612  21.419  12.975  0.00  0.00     0.209 HD
ENDBRANCH 116 119
ENDBRANCH  92 116
ENDBRANCH  90  92
ENDBRANCH   7  88
BRANCH   2 121
ATOM    121  CB  LEU d   1      39.563  28.521  18.217  0.00  0.00    -0.035 C 
ATOM    122  H3  LEU d   1      39.110  28.018  19.084  0.00  0.00     0.037 H 
ATOM    123  H4  LEU d   1      38.815  29.170  17.738  0.00  0.00     0.037 H 
BRANCH 121 124
ATOM    124  CG  LEU d   1      40.697  29.412  18.731  0.00  0.00    -0.059 C 
ATOM    125  H5  LEU d   1      40.291  29.988  19.575  0.00  0.00     0.038 H 
BRANCH 124 126
ATOM    126  CD1 LEU d   1      41.865  28.594  19.263  0.00  0.00    -0.073 C 
ATOM    127  H6  LEU d   1      42.654  29.271  19.621  0.00  0.00     0.028 H 
ATOM    128  H7  LEU d   1      42.264  27.959  18.459  0.00  0.00     0.028 H 
ATOM    129  H8  LEU d   1      41.521  27.961  20.094  0.00  0.00     0.028 H 
ENDBRANCH 124 126
BRANCH 124 130
ATOM    130  CD2 LEU d   1      41.177  30.418  17.694  0.00  0.00    -0.073 C 
ATOM    131  H9  LEU d   1      40.320  30.998  17.322  0.00  0.00     0.028 H 
ATOM    132  H10 LEU d   1      41.649  29.884  16.856  0.00  0.00     0.028 H 
ATOM    133  H11 LEU d   1      41.909  31.098  18.154  0.00  0.00     0.028 H 
ENDBRANCH 124 130
ENDBRANCH 121 124
ENDBRANCH   2 121
TORSDOF 24
