REMARK  12 active torsions:
REMARK  status: ('A' for Active; 'I' for Inactive)
REMARK    1  A    between atoms: C13_1  and  C14_2 
REMARK    2  A    between atoms: C21_9  and  C13_1 
REMARK    3  A    between atoms: C13_1  and  N12_26 
REMARK    4  A    between atoms: C14_2  and  C15_3 
REMARK       I    between atoms: N22_27  and  C21_9 
REMARK    5  A    between atoms: C24_10  and  C25_11 
REMARK    6  A    between atoms: C23_28  and  C24_10 
REMARK    7  A    between atoms: C23_28  and  C31_14 
REMARK    8  A    between atoms: C31_14  and  O32_32 
REMARK    9  A    between atoms: C02_16  and  O03_17 
REMARK       I    between atoms: N12_26  and  C02_16 
REMARK   10  A    between atoms: O03_17  and  C04_18 
REMARK   11  A    between atoms: C04_18  and  C05_19 
REMARK   12  A    between atoms: N22_27  and  C23_28 
ROOT
ATOM      1  C13 3ZR d   1      39.481  38.740  12.559  0.00  0.00     0.092 C 
ATOM      2  H1  3ZR d   1      38.434  38.729  12.222  0.00  0.00     0.087 H 
ENDROOT
BRANCH   1   3
ATOM      3  C14 3ZR d   1      40.210  39.859  11.826  0.00  0.00    -0.034 C 
ATOM      4  H2  3ZR d   1      40.236  39.617  10.753  0.00  0.00     0.037 H 
ATOM      5  H3  3ZR d   1      41.238  39.920  12.213  0.00  0.00     0.037 H 
BRANCH   3   6
ATOM      6  C15 3ZR d   1      39.537  41.229  12.004  0.00  0.00    -0.052 C 
ATOM      7  C16 3ZR d   1      38.113  41.262  11.444  0.00  0.00    -0.062 C 
ATOM      8  C17 3ZR d   1      37.513  42.666  11.524  0.00  0.00    -0.065 C 
ATOM      9  H5  3ZR d   1      37.484  40.571  12.024  0.00  0.00     0.033 H 
ATOM     10  H6  3ZR d   1      38.135  40.942  10.392  0.00  0.00     0.033 H 
ATOM     11  C18 3ZR d   1      38.404  43.705  10.877  0.00  0.00    -0.065 C 
ATOM     12  H7  3ZR d   1      37.370  42.931  12.582  0.00  0.00     0.033 H 
ATOM     13  H8  3ZR d   1      36.540  42.665  11.012  0.00  0.00     0.033 H 
ATOM     14  C19 3ZR d   1      39.821  43.656  11.433  0.00  0.00    -0.065 C 
ATOM     15  H9  3ZR d   1      37.982  44.703  11.064  0.00  0.00     0.033 H 
ATOM     16  H10 3ZR d   1      38.440  43.519   9.793  0.00  0.00     0.033 H 
ATOM     17  C20 3ZR d   1      40.396  42.260  11.280  0.00  0.00    -0.062 C 
ATOM     18  H11 3ZR d   1      39.803  43.926  12.499  0.00  0.00     0.033 H 
ATOM     19  H12 3ZR d   1      40.452  44.371  10.884  0.00  0.00     0.033 H 
ATOM     20  H13 3ZR d   1      40.439  42.005  10.211  0.00  0.00     0.033 H 
ATOM     21  H14 3ZR d   1      41.411  42.242  11.703  0.00  0.00     0.033 H 
ATOM     22  H4  3ZR d   1      39.497  41.471  13.076  0.00  0.00     0.040 H 
ENDBRANCH   3   6
ENDBRANCH   1   3
BRANCH   1  23
ATOM     23  C21 3ZR d   1      40.110  37.416  12.222  0.00  0.00     0.240 C 
ATOM     24  N22 3ZR d   1      39.441  36.739  11.318  0.00  0.00    -0.352 N 
ATOM     25  H27 3ZR d   1      38.705  37.262  10.888  0.00  0.00     0.163 HD
ATOM     26  O41 3ZR d   1      41.114  37.010  12.766  0.00  0.00    -0.271 OA
BRANCH  24  27
ATOM     27  C23 3ZR d   1      39.557  35.408  10.829  0.00  0.00     0.036 C 
ATOM     28  H28 3ZR d   1      40.528  35.186  11.296  0.00  0.00     0.076 H 
BRANCH  27  29
ATOM     29  C24 3ZR d   1      38.793  34.275  11.463  0.00  0.00    -0.016 C 
ATOM     30  H15 3ZR d   1      37.733  34.559  11.387  0.00  0.00     0.043 H 
ATOM     31  H16 3ZR d   1      38.985  33.400  10.825  0.00  0.00     0.043 H 
BRANCH  29  32
ATOM     32  C25 3ZR d   1      38.977  33.785  12.884  0.00  0.00     0.001 A 
ATOM     33  C29 3ZR d   1      38.041  32.919  13.454  0.00  0.00     0.206 A 
ATOM     34  N28 3ZR d   1      38.487  32.546  14.678  0.00  0.00    -0.234 NA
ATOM     35  O30 3ZR d   1      36.931  32.543  12.883  0.00  0.00    -0.170 OA
ATOM     36  C27 3ZR d   1      39.696  33.158  14.904  0.00  0.00     0.006 A 
ATOM     37  C26 3ZR d   1      40.037  33.912  13.775  0.00  0.00    -0.056 A 
ATOM     38  H17 3ZR d   1      40.291  33.071  15.812  0.00  0.00     0.114 H 
ATOM     39  H29 3ZR d   1      40.951  34.484  13.624  0.00  0.00     0.086 H 
ENDBRANCH  29  32
ENDBRANCH  27  29
BRANCH  27  40
ATOM     40  C31 3ZR d   1      39.984  35.223   9.391  0.00  0.00     0.036 C 
ATOM     41  H18 3ZR d   1      39.100  35.322   8.744  0.00  0.00     0.077 H 
ATOM     42  H19 3ZR d   1      40.412  34.216   9.276  0.00  0.00     0.077 H 
BRANCH  40  43
ATOM     43  O32 3ZR d   1      40.964  36.191   8.985  0.00  0.00    -0.399 OA
ATOM     44  H30 3ZR d   1      40.601  37.064   9.075  0.00  0.00     0.209 HD
ENDBRANCH  40  43
ENDBRANCH  27  40
ENDBRANCH  24  27
ENDBRANCH   1  23
BRANCH   1  45
ATOM     45  N12 3ZR d   1      39.495  38.945  13.979  0.00  0.00    -0.324 N 
ATOM     46  C02 3ZR d   1      38.912  38.129  14.853  0.00  0.00     0.361 C 
ATOM     47  O01 3ZR d   1      38.242  37.127  14.600  0.00  0.00    -0.238 OA
ATOM     48  H26 3ZR d   1      39.972  39.750  14.333  0.00  0.00     0.165 HD
BRANCH  46  49
ATOM     49  O03 3ZR d   1      39.156  38.522  16.225  0.00  0.00    -0.299 OA
BRANCH  49  50
ATOM     50  C04 3ZR d   1      38.550  37.900  17.368  0.00  0.00     0.054 C 
ATOM     51  H20 3ZR d   1      39.247  37.960  18.217  0.00  0.00     0.082 H 
ATOM     52  H21 3ZR d   1      38.348  36.844  17.133  0.00  0.00     0.082 H 
BRANCH  50  53
ATOM     53  C05 3ZR d   1      37.240  38.578  17.756  0.00  0.00    -0.032 A 
ATOM     54  C06 3ZR d   1      37.197  39.440  18.683  0.00  0.00    -0.075 A 
ATOM     55  C07 3ZR d   1      36.118  40.032  19.006  0.00  0.00    -0.081 A 
ATOM     56  H22 3ZR d   1      38.108  39.681  19.218  0.00  0.00     0.084 H 
ATOM     57  C08 3ZR d   1      34.997  39.715  18.514  0.00  0.00    -0.062 A 
ATOM     58  H23 3ZR d   1      36.161  40.838  19.730  0.00  0.00     0.083 H 
ATOM     59  C09 3ZR d   1      34.950  38.807  17.530  0.00  0.00     0.034 A 
ATOM     60  H24 3ZR d   1      34.086  40.172  18.884  0.00  0.00     0.086 H 
ATOM     61 CL   3ZR d   1      33.426  38.311  16.782  0.00  0.00    -0.084 Cl
ATOM     62  C11 3ZR d   1      36.102  38.249  17.125  0.00  0.00    -0.054 A 
ATOM     63  H25 3ZR d   1      36.113  37.544  16.302  0.00  0.00     0.087 H 
ENDBRANCH  50  53
ENDBRANCH  49  50
ENDBRANCH  46  49
ENDBRANCH   1  45
TORSDOF 12
