REMARK  11 active torsions:
REMARK  status: ('A' for Active; 'I' for Inactive)
REMARK    1  A    between atoms: C02_2  and  O03_3 
REMARK       I    between atoms: C02_2  and  N11_5 
REMARK    2  A    between atoms: O03_3  and  C04_4 
REMARK    3  A    between atoms: N11_5  and  C12_6 
REMARK    4  A    between atoms: C12_6  and  C13_7 
REMARK    5  A    between atoms: C12_6  and  C20_14 
REMARK    6  A    between atoms: C13_7  and  C14_8 
REMARK       I    between atoms: C20_14  and  N21_15 
REMARK    7  A    between atoms: N21_15  and  C22_16 
REMARK    8  A    between atoms: C22_16  and  C23_17 
REMARK    9  A    between atoms: C22_16  and  C30_26 
REMARK   10  A    between atoms: C23_17  and  C24_18 
REMARK   11  A    between atoms: C30_26  and  O31_24 
ROOT
ATOM      1  C12 M40 d   1     -19.264  20.585 -33.132  0.00  0.00     0.092 C 
ATOM      2  H5  M40 d   1     -18.669  19.845 -33.687  0.00  0.00     0.087 H 
ENDROOT
BRANCH   1   3
ATOM      3  N11 M40 d   1     -20.315  21.054 -33.969  0.00  0.00    -0.324 N 
ATOM      4  C02 M40 d   1     -21.242  20.053 -34.523  0.00  0.00     0.360 C 
ATOM      5  O01 M40 d   1     -21.134  18.830 -34.377  0.00  0.00    -0.239 OA
ATOM      6  H4  M40 d   1     -20.420  22.027 -34.173  0.00  0.00     0.165 HD
BRANCH   4   7
ATOM      7  O03 M40 d   1     -22.200  20.589 -35.366  0.00  0.00    -0.309 OA
BRANCH   7   8
ATOM      8  C04 M40 d   1     -23.303  19.857 -35.806  0.00  0.00     0.015 C 
ATOM      9  H1  M40 d   1     -23.922  20.486 -36.462  0.00  0.00     0.067 H 
ATOM     10  H2  M40 d   1     -23.898  19.534 -34.939  0.00  0.00     0.067 H 
ATOM     11  H3  M40 d   1     -22.958  18.974 -36.364  0.00  0.00     0.067 H 
ENDBRANCH   7   8
ENDBRANCH   4   7
ENDBRANCH   1   3
BRANCH   1  12
ATOM     12  C13 M40 d   1     -18.393  21.759 -32.744  0.00  0.00    -0.034 C 
ATOM     13  H6  M40 d   1     -17.611  21.376 -32.072  0.00  0.00     0.037 H 
ATOM     14  H7  M40 d   1     -19.030  22.470 -32.197  0.00  0.00     0.037 H 
BRANCH  12  15
ATOM     15  C14 M40 d   1     -17.685  22.549 -33.863  0.00  0.00    -0.052 C 
ATOM     16  C15 M40 d   1     -16.999  23.705 -33.193  0.00  0.00    -0.062 C 
ATOM     17  C16 M40 d   1     -15.997  24.404 -34.077  0.00  0.00    -0.065 C 
ATOM     18  H9  M40 d   1     -16.475  23.330 -32.302  0.00  0.00     0.033 H 
ATOM     19  H10 M40 d   1     -17.764  24.435 -32.889  0.00  0.00     0.033 H 
ATOM     20  C17 M40 d   1     -15.062  23.446 -34.718  0.00  0.00    -0.065 C 
ATOM     21  H11 M40 d   1     -15.418  25.112 -33.467  0.00  0.00     0.033 H 
ATOM     22  H12 M40 d   1     -16.537  24.953 -34.862  0.00  0.00     0.033 H 
ATOM     23  C18 M40 d   1     -15.775  22.326 -35.450  0.00  0.00    -0.065 C 
ATOM     24  H13 M40 d   1     -14.423  23.005 -33.939  0.00  0.00     0.033 H 
ATOM     25  H14 M40 d   1     -14.437  23.994 -35.438  0.00  0.00     0.033 H 
ATOM     26  C19 M40 d   1     -16.748  21.603 -34.587  0.00  0.00    -0.062 C 
ATOM     27  H15 M40 d   1     -15.024  21.608 -35.811  0.00  0.00     0.033 H 
ATOM     28  H16 M40 d   1     -16.315  22.754 -36.307  0.00  0.00     0.033 H 
ATOM     29  H17 M40 d   1     -17.345  20.926 -35.216  0.00  0.00     0.033 H 
ATOM     30  H18 M40 d   1     -16.192  21.016 -33.841  0.00  0.00     0.033 H 
ATOM     31  H8  M40 d   1     -18.421  22.936 -34.583  0.00  0.00     0.040 H 
ENDBRANCH  12  15
ENDBRANCH   1  12
BRANCH   1  32
ATOM     32  C20 M40 d   1     -19.766  19.968 -31.893  0.00  0.00     0.240 C 
ATOM     33  N21 M40 d   1     -19.066  18.816 -31.413  0.00  0.00    -0.353 N 
ATOM     34  H19 M40 d   1     -18.296  18.465 -31.946  0.00  0.00     0.163 HD
ATOM     35  O32 M40 d   1     -20.719  20.431 -31.280  0.00  0.00    -0.271 OA
BRANCH  33  36
ATOM     36  C22 M40 d   1     -19.426  18.140 -30.191  0.00  0.00     0.033 C 
ATOM     37  H20 M40 d   1     -20.177  18.739 -29.655  0.00  0.00     0.075 H 
BRANCH  36  38
ATOM     38  C23 M40 d   1     -20.014  16.816 -30.530  0.00  0.00    -0.033 C 
ATOM     39  H21 M40 d   1     -20.258  16.305 -29.587  0.00  0.00     0.037 H 
ATOM     40  H22 M40 d   1     -19.252  16.238 -31.073  0.00  0.00     0.037 H 
BRANCH  38  41
ATOM     41  C24 M40 d   1     -21.307  16.844 -31.407  0.00  0.00     0.027 C 
ATOM     42  C25 M40 d   1     -22.428  17.575 -30.713  0.00  0.00    -0.039 C 
ATOM     43  C26 M40 d   1     -23.690  16.886 -31.242  0.00  0.00    -0.004 C 
ATOM     44  H24 M40 d   1     -22.424  18.643 -30.977  0.00  0.00     0.036 H 
ATOM     45  H25 M40 d   1     -22.350  17.467 -29.621  0.00  0.00     0.036 H 
ATOM     46  N27 M40 d   1     -23.260  15.513 -31.586  0.00  0.00    -0.361 N 
ATOM     47  H26 M40 d   1     -24.070  17.407 -32.133  0.00  0.00     0.064 H 
ATOM     48  H27 M40 d   1     -24.472  16.864 -30.468  0.00  0.00     0.064 H 
ATOM     49  C28 M40 d   1     -21.823  15.486 -31.669  0.00  0.00     0.221 C 
ATOM     50  H28 M40 d   1     -23.867  14.733 -31.736  0.00  0.00     0.162 HD
ATOM     51  O29 M40 d   1     -21.218  14.481 -31.934  0.00  0.00    -0.273 OA
ATOM     52  H23 M40 d   1     -21.072  17.341 -32.360  0.00  0.00     0.054 H 
ENDBRANCH  38  41
ENDBRANCH  36  38
BRANCH  36  53
ATOM     53  C30 M40 d   1     -18.205  17.981 -29.303  0.00  0.00     0.035 C 
ATOM     54  H30 M40 d   1     -17.377  17.571 -29.901  0.00  0.00     0.077 H 
ATOM     55  H31 M40 d   1     -18.445  17.287 -28.484  0.00  0.00     0.077 H 
BRANCH  53  56
ATOM     56  O31 M40 d   1     -17.811  19.210 -28.759  0.00  0.00    -0.399 OA
ATOM     57  H29 M40 d   1     -18.521  19.567 -28.238  0.00  0.00     0.209 HD
ENDBRANCH  53  56
ENDBRANCH  36  53
ENDBRANCH  33  36
ENDBRANCH   1  32
TORSDOF 11
