REMARK  11 active torsions:
REMARK  status: ('A' for Active; 'I' for Inactive)
REMARK    1  A    between atoms: N_1  and  CA_2 
REMARK    2  A    between atoms: CA_2  and  CB_3 
REMARK    3  A    between atoms: CA_2  and  C_6 
REMARK    4  A    between atoms: CB_3  and  CG_4 
REMARK    5  A    between atoms: CG_4  and  SD_5 
REMARK    6  A    between atoms: SD_5  and  C5'_9 
REMARK    7  A    between atoms: C5'_9  and  C4'_10 
REMARK    8  A    between atoms: C3'_12  and  O3'_13 
REMARK    9  A    between atoms: C2'_14  and  O2'_15 
REMARK   10  A    between atoms: C1'_16  and  N9_17 
REMARK   11  A    between atoms: C6_21  and  N6_22 
ROOT
ATOM      1  C4' SAH d   1     -33.234 -26.119  -6.860  0.00  0.00     0.076 C 
ATOM      2  O4' SAH d   1     -31.818 -25.902  -6.870  0.00  0.00    -0.355 OA
ATOM      3  C3' SAH d   1     -33.489 -27.028  -5.671  0.00  0.00     0.090 C 
ATOM      4  C2' SAH d   1     -32.210 -27.837  -5.577  0.00  0.00     0.105 C 
ATOM      5  C1' SAH d   1     -31.158 -26.900  -6.111  0.00  0.00     0.139 C 
ATOM      6  H11 SAH d   1     -33.540 -26.627  -7.787  0.00  0.00     0.088 H 
ATOM      7  H12 SAH d   1     -33.654 -26.442  -4.755  0.00  0.00     0.091 H 
ATOM      8  H14 SAH d   1     -32.009 -28.176  -4.550  0.00  0.00     0.093 H 
ATOM      9  H16 SAH d   1     -30.487 -27.459  -6.779  0.00  0.00     0.122 H 
ENDROOT
BRANCH   1  10
ATOM     10  C5' SAH d   1     -33.994 -24.812  -6.756  0.00  0.00     0.003 C 
ATOM     11  H9  SAH d   1     -33.913 -24.283  -7.717  0.00  0.00     0.052 H 
ATOM     12  H10 SAH d   1     -35.051 -25.038  -6.550  0.00  0.00     0.052 H 
BRANCH  10  13
ATOM     13  SD  SAH d   1     -33.374 -23.730  -5.452  0.00  0.00    -0.166 SA
BRANCH  13  14
ATOM     14  CG  SAH d   1     -34.773 -23.951  -4.329  0.00  0.00    -0.021 C 
ATOM     15  H7  SAH d   1     -35.511 -23.159  -4.524  0.00  0.00     0.049 H 
ATOM     16  H8  SAH d   1     -35.230 -24.933  -4.522  0.00  0.00     0.049 H 
BRANCH  14  17
ATOM     17  CB  SAH d   1     -34.358 -23.884  -2.866  0.00  0.00    -0.021 C 
ATOM     18  H5  SAH d   1     -33.260 -23.939  -2.819  0.00  0.00     0.037 H 
ATOM     19  H6  SAH d   1     -34.695 -22.919  -2.458  0.00  0.00     0.037 H 
BRANCH  17  20
ATOM     20  CA  SAH d   1     -34.931 -25.003  -1.982  0.00  0.00     0.183 C 
ATOM     21  H4  SAH d   1     -35.909 -25.277  -2.404  0.00  0.00     0.101 H 
BRANCH  20  22
ATOM     22  N   SAH d   1     -35.160 -24.420  -0.668  0.00  0.00    -0.065 N 
ATOM     23  H1  SAH d   1     -35.693 -23.570  -0.766  0.00  0.00     0.275 HD
ATOM     24  H2  SAH d   1     -34.275 -24.213  -0.233  0.00  0.00     0.275 HD
ATOM     25  H3  SAH d   1     -35.671 -25.073  -0.095  0.00  0.00     0.275 HD
ENDBRANCH  20  22
BRANCH  20  26
ATOM     26  C   SAH d   1     -34.109 -26.326  -1.916  0.00  0.00     0.204 C 
ATOM     27  O   SAH d   1     -32.876 -26.392  -1.971  0.00  0.00    -0.646 OA
ATOM     28  OXT SAH d   1     -34.667 -27.415  -1.823  0.00  0.00    -0.646 OA
ENDBRANCH  20  26
ENDBRANCH  17  20
ENDBRANCH  14  17
ENDBRANCH  13  14
ENDBRANCH  10  13
ENDBRANCH   1  10
BRANCH   3  29
ATOM     29  O3' SAH d   1     -34.590 -27.859  -5.895  0.00  0.00    -0.390 OA
ATOM     30  H13 SAH d   1     -34.725 -28.415  -5.137  0.00  0.00     0.210 HD
ENDBRANCH   3  29
BRANCH   5  31
ATOM     31  N9  SAH d   1     -30.344 -26.349  -5.007  0.00  0.00    -0.294 N 
ATOM     32  C8  SAH d   1     -30.207 -25.054  -4.627  0.00  0.00     0.071 A 
ATOM     33  N7  SAH d   1     -29.340 -25.012  -3.594  0.00  0.00    -0.236 NA
ATOM     34  H17 SAH d   1     -30.709 -24.198  -5.077  0.00  0.00     0.144 H 
ATOM     35  C5  SAH d   1     -28.910 -26.257  -3.277  0.00  0.00     0.149 A 
ATOM     36  C6  SAH d   1     -28.035 -26.769  -2.308  0.00  0.00     0.155 A 
ATOM     37  C4  SAH d   1     -29.539 -27.114  -4.180  0.00  0.00     0.167 A 
ATOM     38  N1  SAH d   1     -27.832 -28.128  -2.303  0.00  0.00    -0.222 NA
ATOM     39  C2  SAH d   1     -28.457 -28.966  -3.197  0.00  0.00     0.091 A 
ATOM     40  N3  SAH d   1     -29.314 -28.460  -4.139  0.00  0.00    -0.222 NA
ATOM     41  H20 SAH d   1     -28.270 -30.033  -3.156  0.00  0.00     0.146 H 
BRANCH  36  42
ATOM     42  N6  SAH d   1     -27.398 -25.993  -1.412  0.00  0.00    -0.382 N 
ATOM     43  H18 SAH d   1     -26.765 -26.419  -0.720  0.00  0.00     0.157 HD
ATOM     44  H19 SAH d   1     -27.544 -24.973  -1.418  0.00  0.00     0.157 HD
ENDBRANCH  36  42
ENDBRANCH   5  31
BRANCH   4  45
ATOM     45  O2' SAH d   1     -32.239 -28.908  -6.484  0.00  0.00    -0.388 OA
ATOM     46  H15 SAH d   1     -31.432 -29.404  -6.413  0.00  0.00     0.210 HD
ENDBRANCH   4  45
TORSDOF 11
