REMARK  17 active torsions:
REMARK  status: ('A' for Active; 'I' for Inactive)
REMARK    1  A    between atoms: C1_1  and  O8_8 
REMARK    2  A    between atoms: C2_2  and  N7_7 
REMARK    3  A    between atoms: C4_4  and  N9_9 
REMARK    4  A    between atoms: C5_5  and  O11_11 
REMARK    5  A    between atoms: O18_18  and  C6_6 
REMARK    6  A    between atoms: N9_9  and  C10_10 
REMARK    7  A    between atoms: C13_13  and  O18_18 
REMARK    8  A    between atoms: C15_15  and  C19_19 
REMARK    9  A    between atoms: C16_16  and  O21_21 
REMARK   10  A    between atoms: C19_19  and  O20_20 
REMARK   11  A    between atoms: C24_24  and  O30_30 
REMARK   12  A    between atoms: C25_25  and  O31_31 
REMARK   13  A    between atoms: C26_26  and  O32_32 
REMARK   14  A    between atoms: C27_27  and  C33_33 
REMARK   15  A    between atoms: C33_33  and  C34_34 
REMARK   16  A    between atoms: C33_33  and  N36_36 
REMARK   17  A    between atoms: C34_34  and  O35_35 
ROOT
ATOM      1  C12 HY0 d   1      20.650 259.122 214.104  0.00  0.00     0.119 C 
ATOM      2  C13 HY0 d   1      22.125 259.395 213.986  0.00  0.00     0.160 C 
ATOM      3  O14 HY0 d   1      22.433 260.505 213.179  0.00  0.00    -0.348 OA
ATOM      4  C15 HY0 d   1      21.944 260.319 211.880  0.00  0.00     0.089 C 
ATOM      5  C16 HY0 d   1      20.461 260.509 211.942  0.00  0.00     0.090 C 
ATOM      6  C17 HY0 d   1      19.884 259.369 212.877  0.00  0.00     0.101 C 
ATOM      7  O22 HY0 d   1      18.607 259.708 213.223  0.00  0.00    -0.320 OA
ATOM      8  C23 HY0 d   1      18.554 259.666 214.662  0.00  0.00     0.314 C 
ATOM      9  C24 HY0 d   1      17.615 260.720 215.145  0.00  0.00     0.143 C 
ATOM     10  C25 HY0 d   1      17.279 260.494 216.611  0.00  0.00     0.095 C 
ATOM     11  C26 HY0 d   1      16.789 259.080 216.849  0.00  0.00     0.090 C 
ATOM     12  C27 HY0 d   1      17.840 258.135 216.375  0.00  0.00     0.100 C 
ATOM     13  O28 HY0 d   1      18.077 258.388 215.009  0.00  0.00    -0.320 OA
ATOM     14  O29 HY0 d   1      19.941 259.871 215.170  0.00  0.00    -0.318 OA
ATOM     15  H18 HY0 d   1      20.564 258.051 214.341  0.00  0.00     0.095 H 
ATOM     16  H19 HY0 d   1      22.587 258.506 213.531  0.00  0.00     0.133 H 
ATOM     17  H20 HY0 d   1      22.182 259.308 211.519  0.00  0.00     0.090 H 
ATOM     18  H21 HY0 d   1      20.031 260.422 210.933  0.00  0.00     0.091 H 
ATOM     19  H22 HY0 d   1      19.866 258.434 212.298  0.00  0.00     0.092 H 
ATOM     20  H27 HY0 d   1      16.696 260.682 214.542  0.00  0.00     0.099 H 
ATOM     21  H28 HY0 d   1      18.192 260.641 217.207  0.00  0.00     0.091 H 
ATOM     22  H29 HY0 d   1      16.628 258.935 217.927  0.00  0.00     0.091 H 
ATOM     23  H30 HY0 d   1      18.763 258.287 216.954  0.00  0.00     0.091 H 
ENDROOT
BRANCH   2  24
ATOM     24  O18 HY0 d   1      22.718 259.607 215.264  0.00  0.00    -0.348 OA
BRANCH  24  25
ATOM     25  C6  HY0 d   1      24.174 259.572 215.233  0.00  0.00     0.095 C 
ATOM     26  C1  HY0 d   1      24.634 258.279 215.863  0.00  0.00     0.090 C 
ATOM     27  C2  HY0 d   1      26.142 258.237 215.966  0.00  0.00     0.129 C 
ATOM     28  H1  HY0 d   1      24.188 258.174 216.863  0.00  0.00     0.090 H 
ATOM     29  C3  HY0 d   1      26.630 259.395 216.824  0.00  0.00    -0.007 C 
ATOM     30  H2  HY0 d   1      26.585 258.312 214.962  0.00  0.00     0.088 H 
ATOM     31  C4  HY0 d   1      26.184 260.727 216.221  0.00  0.00     0.130 C 
ATOM     32  H3  HY0 d   1      27.729 259.370 216.876  0.00  0.00     0.039 H 
ATOM     33  H4  HY0 d   1      26.212 259.297 217.837  0.00  0.00     0.039 H 
ATOM     34  C5  HY0 d   1      24.670 260.761 215.996  0.00  0.00     0.090 C 
ATOM     35  H5  HY0 d   1      26.691 260.871 215.255  0.00  0.00     0.088 H 
ATOM     36  H6  HY0 d   1      24.163 260.798 216.971  0.00  0.00     0.090 H 
ATOM     37  H7  HY0 d   1      24.534 259.622 214.195  0.00  0.00     0.091 H 
BRANCH  26  38
ATOM     38  O8  HY0 d   1      24.232 257.214 215.033  0.00  0.00    -0.391 OA
ATOM     39  H11 HY0 d   1      23.286 257.218 214.951  0.00  0.00     0.210 HD
ENDBRANCH  26  38
BRANCH  27  40
ATOM     40  N7  HY0 d   1      26.514 257.011 216.562  0.00  0.00    -0.072 N 
ATOM     41  H8  HY0 d   1      26.189 256.247 215.990  0.00  0.00     0.274 HD
ATOM     42  H9  HY0 d   1      26.101 256.944 217.479  0.00  0.00     0.274 HD
ATOM     43  H10 HY0 d   1      27.518 256.967 216.642  0.00  0.00     0.274 HD
ENDBRANCH  27  40
BRANCH  31  44
ATOM     44  N9  HY0 d   1      26.553 261.775 217.110  0.00  0.00    -0.072 N 
ATOM     45  H12 HY0 d   1      26.397 261.483 218.062  0.00  0.00     0.277 HD
ATOM     46  H13 HY0 d   1      26.001 262.596 216.915  0.00  0.00     0.277 HD
BRANCH  44  47
ATOM     47  C10 HY0 d   1      27.968 262.076 216.914  0.00  0.00     0.065 C 
ATOM     48  H14 HY0 d   1      28.268 262.886 217.595  0.00  0.00     0.067 H 
ATOM     49  H15 HY0 d   1      28.135 262.392 215.874  0.00  0.00     0.067 H 
ATOM     50  H16 HY0 d   1      28.567 261.178 217.125  0.00  0.00     0.067 H 
ENDBRANCH  44  47
ENDBRANCH  31  44
BRANCH  34  51
ATOM     51  O11 HY0 d   1      24.366 261.920 215.250  0.00  0.00    -0.391 OA
ATOM     52  H17 HY0 d   1      24.795 261.872 214.404  0.00  0.00     0.210 HD
ENDBRANCH  34  51
ENDBRANCH  24  25
ENDBRANCH   2  24
BRANCH   4  53
ATOM     53  C19 HY0 d   1      22.580 261.360 210.962  0.00  0.00     0.043 C 
ATOM     54  H23 HY0 d   1      22.501 262.357 211.419  0.00  0.00     0.078 H 
ATOM     55  H24 HY0 d   1      22.067 261.361 209.989  0.00  0.00     0.078 H 
BRANCH  53  56
ATOM     56  O20 HY0 d   1      23.957 261.018 210.783  0.00  0.00    -0.398 OA
ATOM     57  H25 HY0 d   1      24.394 261.016 211.627  0.00  0.00     0.209 HD
ENDBRANCH  53  56
ENDBRANCH   4  53
BRANCH   5  58
ATOM     58  O21 HY0 d   1      20.148 261.745 212.466  0.00  0.00    -0.390 OA
ATOM     59  H26 HY0 d   1      19.204 261.833 212.524  0.00  0.00     0.210 HD
ENDBRANCH   5  58
BRANCH   9  60
ATOM     60  O30 HY0 d   1      18.198 262.024 215.047  0.00  0.00    -0.385 OA
ATOM     61  H31 HY0 d   1      18.422 262.202 214.141  0.00  0.00     0.210 HD
ENDBRANCH   9  60
BRANCH  10  62
ATOM     62  O31 HY0 d   1      16.328 261.456 217.006  0.00  0.00    -0.390 OA
ATOM     63  H32 HY0 d   1      16.145 261.357 217.933  0.00  0.00     0.210 HD
ENDBRANCH  10  62
BRANCH  12  64
ATOM     64  C33 HY0 d   1      17.371 256.676 216.524  0.00  0.00     0.147 C 
ATOM     65  H34 HY0 d   1      16.786 256.559 217.448  0.00  0.00     0.091 H 
BRANCH  64  66
ATOM     66  C34 HY0 d   1      18.567 255.760 216.544  0.00  0.00     0.045 C 
ATOM     67  H35 HY0 d   1      19.256 256.055 215.739  0.00  0.00     0.077 H 
ATOM     68  H36 HY0 d   1      18.228 254.727 216.376  0.00  0.00     0.077 H 
BRANCH  66  69
ATOM     69  O35 HY0 d   1      19.250 255.823 217.779  0.00  0.00    -0.399 OA
ATOM     70  H37 HY0 d   1      19.996 255.235 217.757  0.00  0.00     0.209 HD
ENDBRANCH  66  69
ENDBRANCH  64  66
BRANCH  64  71
ATOM     71  N36 HY0 d   1      16.587 256.338 215.395  0.00  0.00    -0.070 N 
ATOM     72  H38 HY0 d   1      15.777 256.937 215.357  0.00  0.00     0.274 HD
ATOM     73  H39 HY0 d   1      16.291 255.377 215.467  0.00  0.00     0.274 HD
ATOM     74  H40 HY0 d   1      17.134 256.459 214.557  0.00  0.00     0.274 HD
ENDBRANCH  64  71
ENDBRANCH  12  64
BRANCH  11  75
ATOM     75  O32 HY0 d   1      15.560 258.823 216.165  0.00  0.00    -0.390 OA
ATOM     76  H33 HY0 d   1      14.896 259.428 216.472  0.00  0.00     0.210 HD
ENDBRANCH  11  75
TORSDOF 17
