REMARK  12 active torsions:
REMARK  status: ('A' for Active; 'I' for Inactive)
REMARK    1  A    between atoms: S2_2  and  N1_4 
REMARK    2  A    between atoms: S2_2  and  C1_17 
REMARK    3  A    between atoms: N1_4  and  ON2_5 
REMARK    4  A    between atoms: N1_4  and  C16_9 
REMARK    5  A    between atoms: ON2_5  and  C13_6 
REMARK    6  A    between atoms: C13_6  and  C44_7 
REMARK    7  A    between atoms: C13_6  and  C15_8 
REMARK    8  A    between atoms: C16_9  and  C18_10 
REMARK    9  A    between atoms: C16_9  and  C17_13 
REMARK   10  A    between atoms: C18_10  and  C19_11 
REMARK   11  A    between atoms: C18_10  and  C20_12 
REMARK       I    between atoms: C17_13  and  N8_15 
REMARK   12  A    between atoms: C4_20  and  C5_23 
ROOT
ATOM      1  N1  N73 d   1      17.964 -19.879  17.956  0.00  0.00    -0.164 N 
ENDROOT
BRANCH   1   2
ATOM      2  S2  N73 d   1      16.579 -19.345  17.877  0.00  0.00     0.283 S 
ATOM      3  OSB N73 d   1      15.642 -20.336  18.402  0.00  0.00    -0.198 OA
ATOM      4  OSA N73 d   1      16.203 -18.927  16.520  0.00  0.00    -0.198 OA
BRANCH   2   5
ATOM      5  C1  N73 d   1      16.629 -17.853  18.956  0.00  0.00     0.081 A 
ATOM      6  C2  N73 d   1      16.756 -16.555  18.368  0.00  0.00    -0.059 A 
ATOM      7  C3  N73 d   1      16.819 -15.386  19.249  0.00  0.00    -0.071 A 
ATOM      8  H16 N73 d   1      16.805 -16.439  17.291  0.00  0.00     0.085 H 
ATOM      9  C4  N73 d   1      16.753 -15.551  20.672  0.00  0.00    -0.026 A 
ATOM     10  H17 N73 d   1      16.916 -14.393  18.824  0.00  0.00     0.084 H 
ATOM     11  C11 N73 d   1      16.641 -16.846  21.260  0.00  0.00    -0.071 A 
ATOM     12  C12 N73 d   1      16.574 -18.015  20.382  0.00  0.00    -0.059 A 
ATOM     13  H18 N73 d   1      16.606 -16.962  22.337  0.00  0.00     0.084 H 
ATOM     14  H19 N73 d   1      16.483 -19.007  20.810  0.00  0.00     0.085 H 
BRANCH   9  15
ATOM     15  C5  N73 d   1      16.824 -14.291  21.571  0.00  0.00    -0.026 A 
ATOM     16  C6  N73 d   1      17.518 -14.345  22.942  0.00  0.00    -0.072 A 
ATOM     17  C7  N73 d   1      17.547 -13.223  23.747  0.00  0.00    -0.082 A 
ATOM     18  H20 N73 d   1      17.985 -15.264  23.277  0.00  0.00     0.084 H 
ATOM     19  C8  N73 d   1      16.845 -11.930  23.274  0.00  0.00    -0.083 A 
ATOM     20  H21 N73 d   1      18.058 -13.249  24.703  0.00  0.00     0.083 H 
ATOM     21  C9  N73 d   1      16.207 -11.895  22.086  0.00  0.00    -0.082 A 
ATOM     22  H22 N73 d   1      16.865 -11.046  23.901  0.00  0.00     0.083 H 
ATOM     23  C10 N73 d   1      16.172 -13.166  21.174  0.00  0.00    -0.072 A 
ATOM     24  H23 N73 d   1      15.717 -10.984  21.762  0.00  0.00     0.083 H 
ATOM     25  H24 N73 d   1      15.633 -13.150  20.234  0.00  0.00     0.084 H 
ENDBRANCH   9  15
ENDBRANCH   2   5
ENDBRANCH   1   2
BRANCH   1  26
ATOM     26  ON2 N73 d   1      18.035 -21.078  18.363  0.00  0.00    -0.263 OA
BRANCH  26  27
ATOM     27  C13 N73 d   1      18.321 -21.332  19.745  0.00  0.00     0.059 C 
ATOM     28  H1  N73 d   1      18.190 -20.393  20.304  0.00  0.00     0.086 H 
BRANCH  27  29
ATOM     29  C44 N73 d   1      17.360 -22.386  20.319  0.00  0.00    -0.050 C 
ATOM     30  H2  N73 d   1      17.600 -22.563  21.378  0.00  0.00     0.031 H 
ATOM     31  H3  N73 d   1      17.468 -23.325  19.757  0.00  0.00     0.031 H 
ATOM     32  H4  N73 d   1      16.325 -22.024  20.233  0.00  0.00     0.031 H 
ENDBRANCH  27  29
BRANCH  27  33
ATOM     33  C15 N73 d   1      19.760 -21.815  19.928  0.00  0.00    -0.050 C 
ATOM     34  H5  N73 d   1      19.951 -22.002  20.995  0.00  0.00     0.031 H 
ATOM     35  H6  N73 d   1      20.455 -21.046  19.560  0.00  0.00     0.031 H 
ATOM     36  H7  N73 d   1      19.910 -22.745  19.361  0.00  0.00     0.031 H 
ENDBRANCH  27  33
ENDBRANCH  26  27
ENDBRANCH   1  26
BRANCH   1  37
ATOM     37  C16 N73 d   1      18.806 -19.561  16.908  0.00  0.00     0.133 C 
ATOM     38  H8  N73 d   1      18.215 -19.330  16.009  0.00  0.00     0.093 H 
BRANCH  37  39
ATOM     39  C18 N73 d   1      19.866 -20.660  16.575  0.00  0.00    -0.030 C 
ATOM     40  H9  N73 d   1      20.203 -21.103  17.523  0.00  0.00     0.042 H 
BRANCH  39  41
ATOM     41  C19 N73 d   1      19.324 -21.779  15.671  0.00  0.00    -0.071 C 
ATOM     42  H10 N73 d   1      20.120 -22.513  15.479  0.00  0.00     0.028 H 
ATOM     43  H11 N73 d   1      18.985 -21.348  14.717  0.00  0.00     0.028 H 
ATOM     44  H12 N73 d   1      18.479 -22.276  16.170  0.00  0.00     0.028 H 
ENDBRANCH  39  41
BRANCH  39  45
ATOM     45  C20 N73 d   1      21.065 -20.057  15.844  0.00  0.00    -0.071 C 
ATOM     46  H13 N73 d   1      21.494 -19.246  16.451  0.00  0.00     0.028 H 
ATOM     47  H14 N73 d   1      20.739 -19.656  14.873  0.00  0.00     0.028 H 
ATOM     48  H15 N73 d   1      21.825 -20.835  15.682  0.00  0.00     0.028 H 
ENDBRANCH  39  45
ENDBRANCH  37  39
BRANCH  37  49
ATOM     49  C17 N73 d   1      19.606 -18.334  17.394  0.00  0.00     0.295 C 
ATOM     50  O8  N73 d   1      20.280 -18.411  18.369  0.00  0.00    -0.267 OA
ATOM     51  N8  N73 d   1      19.562 -17.085  16.667  0.00  0.00    -0.057 NA
ATOM     52  OA8 N73 d   1      20.205 -16.178  17.055  0.00  0.00    -0.058 OA
ENDBRANCH  37  49
ENDBRANCH   1  37
TORSDOF 12
