REMARK  11 active torsions:
REMARK  status: ('A' for Active; 'I' for Inactive)
REMARK    1  A    between atoms: C6_2  and  C7_3 
REMARK       I    between atoms: C6_2  and  N_5 
REMARK    2  A    between atoms: C7_3  and  C8_4 
REMARK    3  A    between atoms: N_5  and  C4_6 
REMARK    4  A    between atoms: C_10  and  C25_11 
REMARK    5  A    between atoms: C2_12  and  N1_13 
REMARK    6  A    between atoms: N1_13  and  C12_14 
REMARK    7  A    between atoms: C14_23  and  C22_24 
REMARK    8  A    between atoms: C18_29  and  O1_30 
REMARK    9  A    between atoms: O1_30  and  C23_31 
REMARK   10  A    between atoms: C19_33  and  O2_34 
REMARK   11  A    between atoms: O2_34  and  C24_35 
ROOT
ATOM      1  C12 40M d   1     -12.641   6.126 -23.259  0.00  0.00     0.727 A 
ATOM      2  N3  40M d   1     -13.741   6.882 -23.086  0.00  0.00    -0.074 NA
ATOM      3  C11 40M d   1     -14.627   6.504 -22.155  0.00  0.00     0.033 A 
ATOM      4  C9  40M d   1     -14.372   5.353 -21.434  0.00  0.00     0.012 A 
ATOM      5  C13 40M d   1     -15.276   4.973 -20.459  0.00  0.00    -0.059 A 
ATOM      6  N2  40M d   1     -12.390   4.995 -22.595  0.00  0.00    -0.062 NA
ATOM      7  C10 40M d   1     -13.253   4.595 -21.639  0.00  0.00     0.087 A 
ATOM      8  C15 40M d   1     -13.017   3.441 -20.886  0.00  0.00    -0.053 A 
ATOM      9  C16 40M d   1     -13.944   3.047 -19.891  0.00  0.00    -0.070 A 
ATOM     10  C14 40M d   1     -15.036   3.844 -19.704  0.00  0.00    -0.021 A 
ATOM     11  H14 40M d   1     -15.522   7.087 -21.972  0.00  0.00     0.117 H 
ATOM     12  H15 40M d   1     -16.171   5.561 -20.289  0.00  0.00     0.086 H 
ATOM     13  H16 40M d   1     -12.126   2.849 -21.064  0.00  0.00     0.087 H 
ATOM     14  H17 40M d   1     -13.793   2.150 -19.302  0.00  0.00     0.084 H 
ENDROOT
BRANCH   1  15
ATOM     15  N1  40M d   1     -11.838   6.695 -24.234  0.00  0.00    -0.185 N 
ATOM     16  H13 40M d   1     -12.178   7.524 -24.742  0.00  0.00     0.184 HD
BRANCH  15  17
ATOM     17  C2  40M d   1     -10.580   6.175 -24.546  0.00  0.00     0.082 A 
ATOM     18  C4  40M d   1     -10.422   5.954 -25.923  0.00  0.00     0.062 A 
ATOM     19  C5  40M d   1      -9.195   5.478 -26.389  0.00  0.00    -0.055 A 
ATOM     20  C3  40M d   1      -8.147   5.242 -25.495  0.00  0.00    -0.080 A 
ATOM     21  H7  40M d   1      -9.055   5.291 -27.448  0.00  0.00     0.087 H 
ATOM     22  C1  40M d   1      -8.301   5.490 -24.135  0.00  0.00    -0.075 A 
ATOM     23  H8  40M d   1      -7.202   4.861 -25.866  0.00  0.00     0.083 H 
ATOM     24  C   40M d   1      -9.515   5.980 -23.648  0.00  0.00    -0.032 A 
ATOM     25  H9  40M d   1      -7.479   5.303 -23.453  0.00  0.00     0.084 H 
BRANCH  18  26
ATOM     26  N   40M d   1     -11.593   6.254 -26.697  0.00  0.00    -0.325 N 
ATOM     27  C6  40M d   1     -11.828   5.920 -28.014  0.00  0.00     0.221 C 
ATOM     28  O   40M d   1     -11.020   5.265 -28.675  0.00  0.00    -0.273 OA
ATOM     29  H6  40M d   1     -12.318   6.761 -26.230  0.00  0.00     0.169 HD
BRANCH  27  30
ATOM     30  C7  40M d   1     -13.135   6.396 -28.646  0.00  0.00     0.006 C 
ATOM     31  H1  40M d   1     -13.615   5.524 -29.114  0.00  0.00     0.046 H 
ATOM     32  H2  40M d   1     -12.881   7.134 -29.421  0.00  0.00     0.046 H 
BRANCH  30  33
ATOM     33  C8  40M d   1     -14.155   7.039 -27.713  0.00  0.00    -0.068 C 
ATOM     34  H3  40M d   1     -15.044   7.335 -28.290  0.00  0.00     0.028 H 
ATOM     35  H4  40M d   1     -13.711   7.928 -27.241  0.00  0.00     0.028 H 
ATOM     36  H5  40M d   1     -14.446   6.318 -26.935  0.00  0.00     0.028 H 
ENDBRANCH  30  33
ENDBRANCH  27  30
ENDBRANCH  18  26
BRANCH  24  37
ATOM     37  C25 40M d   1      -9.567   6.221 -22.165  0.00  0.00    -0.049 C 
ATOM     38  H10 40M d   1      -8.589   5.984 -21.721  0.00  0.00     0.033 H 
ATOM     39  H11 40M d   1     -10.339   5.579 -21.716  0.00  0.00     0.033 H 
ATOM     40  H12 40M d   1      -9.811   7.276 -21.973  0.00  0.00     0.033 H 
ENDBRANCH  24  37
ENDBRANCH  15  17
ENDBRANCH   1  15
BRANCH  10  41
ATOM     41  C22 40M d   1     -16.017   3.516 -18.622  0.00  0.00     0.023 A 
ATOM     42  C21 40M d   1     -16.066   4.330 -17.512  0.00  0.00     0.080 A 
ATOM     43 CL1  40M d   1     -15.103   5.782 -17.247  0.00  0.00    -0.080 Cl
ATOM     44  C19 40M d   1     -16.940   4.119 -16.470  0.00  0.00     0.093 A 
ATOM     45  C17 40M d   1     -17.749   3.014 -16.482  0.00  0.00    -0.015 A 
ATOM     46  C18 40M d   1     -17.727   2.178 -17.566  0.00  0.00     0.093 A 
ATOM     47  H21 40M d   1     -18.400   2.803 -15.642  0.00  0.00     0.092 H 
ATOM     48  C20 40M d   1     -16.807   2.431 -18.586  0.00  0.00     0.080 A 
ATOM     49 CL   40M d   1     -16.833   1.356 -19.928  0.00  0.00    -0.080 Cl
BRANCH  44  50
ATOM     50  O2  40M d   1     -16.925   5.002 -15.442  0.00  0.00    -0.354 OA
BRANCH  50  51
ATOM     51  C24 40M d   1     -18.142   5.443 -14.824  0.00  0.00     0.010 C 
ATOM     52  H22 40M d   1     -17.907   6.153 -14.017  0.00  0.00     0.066 H 
ATOM     53  H23 40M d   1     -18.676   4.577 -14.407  0.00  0.00     0.066 H 
ATOM     54  H24 40M d   1     -18.776   5.938 -15.574  0.00  0.00     0.066 H 
ENDBRANCH  50  51
ENDBRANCH  44  50
BRANCH  46  55
ATOM     55  O1  40M d   1     -18.498   1.046 -17.649  0.00  0.00    -0.354 OA
BRANCH  55  56
ATOM     56  C23 40M d   1     -19.545   0.831 -16.640  0.00  0.00     0.010 C 
ATOM     57  H18 40M d   1     -20.067  -0.115 -16.849  0.00  0.00     0.066 H 
ATOM     58  H19 40M d   1     -20.265   1.662 -16.675  0.00  0.00     0.066 H 
ATOM     59  H20 40M d   1     -19.087   0.784 -15.641  0.00  0.00     0.066 H 
ENDBRANCH  55  56
ENDBRANCH  46  55
ENDBRANCH  10  41
TORSDOF 11
