REMARK  3 active torsions:
REMARK  status: ('A' for Active; 'I' for Inactive)
REMARK    1  A    between atoms: C2_2  and  C1_1 
REMARK       I    between atoms: N1_9  and  C2_2 
REMARK    2  A    between atoms: C4_3  and  C5_4 
REMARK    3  A    between atoms: C4_3  and  N1_9 
ROOT
ATOM      1  C2  OGA d   1     -28.941   3.643  45.498  0.00  0.00     0.318 C 
ATOM      2  O2' OGA d   1     -28.063   4.374  45.998  0.00  0.00    -0.261 OA
ATOM      3  N1  OGA d   1     -29.831   4.047  44.600  0.00  0.00    -0.342 N 
ATOM      4  H3  OGA d   1     -30.340   3.354  44.089  0.00  0.00     0.163 HD
ENDROOT
BRANCH   3   5
ATOM      5  C4  OGA d   1     -30.101   5.442  44.324  0.00  0.00     0.075 C 
ATOM      6  H1  OGA d   1     -30.599   5.857  45.213  0.00  0.00     0.080 H 
ATOM      7  H2  OGA d   1     -29.129   5.937  44.184  0.00  0.00     0.080 H 
BRANCH   5   8
ATOM      8  C5  OGA d   1     -30.964   5.800  43.120  0.00  0.00     0.191 C 
ATOM      9  O3  OGA d   1     -31.328   6.995  43.123  0.00  0.00    -0.647 OA
ATOM     10  O4  OGA d   1     -31.278   4.956  42.198  0.00  0.00    -0.647 OA
ENDBRANCH   5   8
ENDBRANCH   3   5
BRANCH   1  11
ATOM     11  C1  OGA d   1     -28.999   2.202  45.803  0.00  0.00     0.270 C 
ATOM     12  O1  OGA d   1     -29.752   1.487  45.043  0.00  0.00    -0.640 OA
ATOM     13  O2  OGA d   1     -28.221   1.725  46.682  0.00  0.00    -0.640 OA
ENDBRANCH   1  11
TORSDOF 3
