REMARK  6 active torsions:
REMARK  status: ('A' for Active; 'I' for Inactive)
REMARK    1  A    between atoms: C20_4  and  C21_5 
REMARK    2  A    between atoms: C19_22  and  C20_4 
REMARK    3  A    between atoms: N11_17  and  C12_18 
REMARK    4  A    between atoms: C19_22  and  C18_21 
REMARK    5  A    between atoms: N22_23  and  C19_22 
REMARK    6  A    between atoms: N22_23  and  C23_24 
ROOT
ATOM      1  C01 40L d   1      -4.998 -11.285  17.788  0.00  0.00    -0.044 A 
ATOM      2  C02 40L d   1      -6.165 -10.673  18.233  0.00  0.00    -0.078 A 
ATOM      3  C03 40L d   1      -6.667 -10.993  19.500  0.00  0.00    -0.054 A 
ATOM      4  C04 40L d   1      -6.011 -11.918  20.327  0.00  0.00     0.077 A 
ATOM      5  C05 40L d   1      -4.859 -12.538  19.872  0.00  0.00     0.100 A 
ATOM      6  C06 40L d   1      -4.364 -12.221  18.604  0.00  0.00     0.134 A 
ATOM      7  F07 40L d   1      -3.247 -12.816  18.173  0.00  0.00    -0.205 F 
ATOM      8  N08 40L d   1      -6.527 -12.203  21.584  0.00  0.00    -0.232 NA
ATOM      9  C09 40L d   1      -4.194 -13.521  20.763  0.00  0.00     0.269 A 
ATOM     10  O10 40L d   1      -3.175 -14.067  20.402  0.00  0.00    -0.266 OA
ATOM     11  N11 40L d   1      -4.807 -13.757  21.995  0.00  0.00    -0.264 N 
ATOM     12  C18 40L d   1      -5.962 -13.073  22.348  0.00  0.00     0.137 A 
ATOM     13  H9  40L d   1      -4.586 -11.037  16.817  0.00  0.00     0.088 H 
ATOM     14  H10 40L d   1      -6.681  -9.956  17.605  0.00  0.00     0.083 H 
ATOM     15  H11 40L d   1      -7.577 -10.519  19.848  0.00  0.00     0.087 H 
ENDROOT
BRANCH  12  16
ATOM     16  C19 40L d   1      -6.612 -13.356  23.712  0.00  0.00     0.069 C 
ATOM     17  H14 40L d   1      -5.838 -13.617  24.449  0.00  0.00     0.084 H 
BRANCH  16  18
ATOM     18  C20 40L d   1      -7.597 -14.541  23.599  0.00  0.00    -0.043 C 
ATOM     19  H4  40L d   1      -7.031 -15.419  23.253  0.00  0.00     0.036 H 
ATOM     20  H5  40L d   1      -8.004 -14.739  24.602  0.00  0.00     0.036 H 
BRANCH  18  21
ATOM     21  C21 40L d   1      -8.769 -14.338  22.651  0.00  0.00    -0.074 C 
ATOM     22  H6  40L d   1      -9.400 -15.239  22.650  0.00  0.00     0.027 H 
ATOM     23  H7  40L d   1      -8.391 -14.154  21.634  0.00  0.00     0.027 H 
ATOM     24  H8  40L d   1      -9.364 -13.474  22.983  0.00  0.00     0.027 H 
ENDBRANCH  18  21
ENDBRANCH  16  18
BRANCH  16  25
ATOM     25  N22 40L d   1      -7.255 -12.107  24.110  0.00  0.00    -0.361 N 
ATOM     26  H15 40L d   1      -8.256 -11.941  23.933  0.00  0.00     0.162 HD
BRANCH  25  27
ATOM     27  C23 40L d   1      -6.477 -11.165  24.728  0.00  0.00     0.156 A 
ATOM     28  C24 40L d   1      -7.042  -9.992  25.228  0.00  0.00     0.127 A 
ATOM     29  C25 40L d   1      -6.203  -9.086  25.837  0.00  0.00     0.182 A 
ATOM     30  N29 40L d   1      -8.341  -9.540  25.230  0.00  0.00    -0.345 N 
ATOM     31  N26 40L d   1      -4.869  -9.182  26.014  0.00  0.00    -0.220 NA
ATOM     32  N31 40L d   1      -7.013  -8.065  26.229  0.00  0.00    -0.222 NA
ATOM     33  C27 40L d   1      -4.411 -10.346  25.500  0.00  0.00     0.091 A 
ATOM     34  N28 40L d   1      -5.119 -11.325  24.875  0.00  0.00    -0.222 NA
ATOM     35  H16 40L d   1      -3.346 -10.521  25.598  0.00  0.00     0.146 H 
ATOM     36  C30 40L d   1      -8.275  -8.386  25.844  0.00  0.00     0.067 A 
ATOM     37  H18 40L d   1      -9.140  -7.751  26.027  0.00  0.00     0.143 H 
ATOM     38  H17 40L d   1      -9.174 -10.003  24.839  0.00  0.00     0.167 HD
ENDBRANCH  25  27
ENDBRANCH  16  25
ENDBRANCH  12  16
BRANCH  11  39
ATOM     39  C12 40L d   1      -4.155 -14.676  22.870  0.00  0.00     0.044 A 
ATOM     40  C13 40L d   1      -3.099 -14.188  23.645  0.00  0.00    -0.057 A 
ATOM     41  C14 40L d   1      -2.408 -15.030  24.511  0.00  0.00    -0.081 A 
ATOM     42  H1  40L d   1      -2.816 -13.144  23.571  0.00  0.00     0.086 H 
ATOM     43  C15 40L d   1      -2.789 -16.366  24.600  0.00  0.00    -0.083 A 
ATOM     44  H12 40L d   1      -1.586 -14.651  25.107  0.00  0.00     0.083 H 
ATOM     45  C16 40L d   1      -3.827 -16.871  23.824  0.00  0.00    -0.081 A 
ATOM     46  H2  40L d   1      -2.268 -17.024  25.286  0.00  0.00     0.083 H 
ATOM     47  C17 40L d   1      -4.508 -16.030  22.951  0.00  0.00    -0.057 A 
ATOM     48  H13 40L d   1      -4.104 -17.916  23.900  0.00  0.00     0.083 H 
ATOM     49  H3  40L d   1      -5.310 -16.420  22.335  0.00  0.00     0.086 H 
ENDBRANCH  11  39
TORSDOF 6
