REMARK  2 active torsions:
REMARK  status: ('A' for Active; 'I' for Inactive)
REMARK    1  A    between atoms: C1_12  and  S1_13 
REMARK    2  A    between atoms: S1_13  and  N1_16 
ROOT
ATOM      1  C2  IL5 d   1      -5.723   3.301  15.407  0.00  0.00    -0.037 A 
ATOM      2  C3  IL5 d   1      -5.065   4.335  14.735  0.00  0.00     0.097 A 
ATOM      3  S2  IL5 d   1      -5.583   5.926  14.193  0.00  0.00     0.266 S 
ATOM      4  O3  IL5 d   1      -5.950   6.713  15.343  0.00  0.00    -0.200 OA
ATOM      5  O4  IL5 d   1      -6.602   5.844  13.177  0.00  0.00    -0.200 OA
ATOM      6  N2  IL5 d   1      -4.172   6.395  13.561  0.00  0.00    -0.246 N 
ATOM      7  C7  IL5 d   1      -3.223   5.440  13.690  0.00  0.00     0.266 A 
ATOM      8  O5  IL5 d   1      -2.058   5.571  13.289  0.00  0.00    -0.267 OA
ATOM      9  C4  IL5 d   1      -3.719   4.203  14.377  0.00  0.00     0.056 A 
ATOM     10  C5  IL5 d   1      -3.023   3.027  14.673  0.00  0.00    -0.065 A 
ATOM     11  C6  IL5 d   1      -3.673   1.993  15.354  0.00  0.00    -0.059 A 
ATOM     12  C1  IL5 d   1      -5.017   2.136  15.719  0.00  0.00     0.080 A 
ATOM     13  H1  IL5 d   1      -6.767   3.401  15.682  0.00  0.00     0.088 H 
ATOM     14  H2  IL5 d   1      -4.019   7.283  13.127  0.00  0.00     0.182 HD
ATOM     15  H3  IL5 d   1      -1.986   2.917  14.377  0.00  0.00     0.085 H 
ATOM     16  H4  IL5 d   1      -3.138   1.083  15.599  0.00  0.00     0.085 H 
ENDROOT
BRANCH  12  17
ATOM     17  S1  IL5 d   1      -5.825   0.833  16.575  0.00  0.00     0.256 S 
ATOM     18  O1  IL5 d   1      -5.309   0.908  17.907  0.00  0.00    -0.201 OA
ATOM     19  O2  IL5 d   1      -7.232   0.989  16.369  0.00  0.00    -0.201 OA
BRANCH  17  20
ATOM     20  N1  IL5 d   1      -5.341  -0.526  15.935  0.00  0.00    -0.324 N 
ATOM     21  H5  IL5 d   1      -5.689  -1.396  16.285  0.00  0.00     0.169 HD
ATOM     22  H6  IL5 d   1      -4.686  -0.517  15.179  0.00  0.00     0.169 HD
ENDBRANCH  17  20
ENDBRANCH  12  17
TORSDOF 2
