REMARK WARNING: 32 MAX_TORS EXCEEDED!!!
REMARK  70 active torsions:
REMARK  status: ('A' for Active; 'I' for Inactive)
REMARK    1  A    between atoms: N_1  and  CA_2 
REMARK    2  A    between atoms: CA_2  and  C_3 
REMARK    3  A    between atoms: CA_2  and  CB_5 
REMARK       I    between atoms: C_3  and  N_10 
REMARK    4  A    between atoms: CB_5  and  CG_6 
REMARK    5  A    between atoms: CG_6  and  CD_7 
REMARK    6  A    between atoms: CD_7  and  CE_8 
REMARK    7  A    between atoms: CE_8  and  NZ_9 
REMARK    8  A    between atoms: N_10  and  CA_11 
REMARK    9  A    between atoms: CA_11  and  C_12 
REMARK   10  A    between atoms: CA_11  and  CB_14 
REMARK       I    between atoms: C_12  and  N_17 
REMARK   11  A    between atoms: CB_14  and  OG1_15 
REMARK   12  A    between atoms: CB_14  and  CG2_16 
REMARK   13  A    between atoms: N_17  and  CA_18 
REMARK   14  A    between atoms: CA_18  and  C_19 
REMARK   15  A    between atoms: CA_18  and  CB_21 
REMARK       I    between atoms: C_19  and  N_23 
REMARK   16  A    between atoms: CB_21  and  OG_22 
REMARK   17  A    between atoms: N_23  and  CA_24 
REMARK   18  A    between atoms: CA_24  and  C_25 
REMARK   19  A    between atoms: CA_24  and  CB_27 
REMARK       I    between atoms: C_25  and  N_28 
REMARK   20  A    between atoms: N_28  and  CA_29 
REMARK   21  A    between atoms: CA_29  and  C_30 
REMARK   22  A    between atoms: CA_29  and  CB_32 
REMARK       I    between atoms: C_30  and  N_33 
REMARK   23  A    between atoms: N_33  and  CA_34 
REMARK   24  A    between atoms: CA_34  and  C_35 
REMARK   25  A    between atoms: CA_34  and  CB_37 
REMARK       I    between atoms: C_35  and  N_38 
REMARK   26  A    between atoms: N_38  and  CA_39 
REMARK   27  A    between atoms: CA_39  and  C_40 
REMARK   28  A    between atoms: CA_39  and  CB_42 
REMARK       I    between atoms: C_40  and  N_47 
REMARK   29  A    between atoms: CB_42  and  CG_43 
REMARK   30  A    between atoms: CG_43  and  CD_44 
REMARK       I    between atoms: CD_44  and  NE2_46 
REMARK   31  A    between atoms: N_47  and  CA_48 
REMARK   32  A    between atoms: CA_48  and  C_49 
REMARK   33  A    between atoms: CA_48  and  CB_51 
REMARK       I    between atoms: C_49  and  N_55 
REMARK   34  A    between atoms: CB_51  and  CG_52 
REMARK   35  A    between atoms: CG_52  and  CD1_53 
REMARK   36  A    between atoms: CG_52  and  CD2_54 
REMARK   37  A    between atoms: N_55  and  CA_56 
REMARK   38  A    between atoms: CA_56  and  C_57 
REMARK   39  A    between atoms: CA_56  and  CB_59 
REMARK       I    between atoms: C_57  and  N_63 
REMARK   40  A    between atoms: CB_59  and  CG_60 
REMARK   41  A    between atoms: N_63  and  CA_64 
REMARK   42  A    between atoms: CA_64  and  C_65 
REMARK   43  A    between atoms: CA_64  and  CB_67 
REMARK       I    between atoms: C_65  and  N_68 
REMARK   44  A    between atoms: N_68  and  CA_69 
REMARK   45  A    between atoms: CA_69  and  C_70 
REMARK   46  A    between atoms: CA_69  and  CB_72 
REMARK       I    between atoms: C_70  and  N_76 
REMARK   47  A    between atoms: CB_72  and  CG_73 
REMARK   48  A    between atoms: CG_73  and  CD1_74 
REMARK   49  A    between atoms: CG_73  and  CD2_75 
REMARK   50  A    between atoms: N_76  and  CA_77 
REMARK   51  A    between atoms: CA_77  and  C_78 
REMARK   52  A    between atoms: CA_77  and  CB_80 
REMARK       I    between atoms: C_78  and  N_84 
REMARK   53  A    between atoms: CB_80  and  CG_81 
REMARK   54  A    between atoms: CG_81  and  SD_82 
REMARK   55  A    between atoms: SD_82  and  CE_83 
REMARK   56  A    between atoms: N_84  and  CA_85 
REMARK   57  A    between atoms: CA_85  and  C_86 
REMARK   58  A    between atoms: CA_85  and  CB_88 
REMARK       I    between atoms: C_86  and  N_89 
REMARK   59  A    between atoms: N_89  and  CA_90 
REMARK   60  A    between atoms: CA_90  and  C_91 
REMARK   61  A    between atoms: CA_90  and  CB_93 
REMARK       I    between atoms: C_91  and  N_94 
REMARK   62  A    between atoms: N_94  and  CA_95 
REMARK   63  A    between atoms: CA_95  and  C_96 
REMARK   64  A    between atoms: CA_95  and  CB_98 
REMARK       I    between atoms: C_96  and  N_102 
REMARK   65  A    between atoms: CB_98  and  CG_99 
REMARK   66  A    between atoms: CG_99  and  CD1_100 
REMARK   67  A    between atoms: CG_99  and  CD2_101 
REMARK   68  A    between atoms: N_102  and  CA_103 
REMARK   69  A    between atoms: CA_103  and  C_104 
REMARK   70  A    between atoms: CA_103  and  CB_106 
ROOT
ATOM      1  CA  LEU d   1     -24.762  -1.418   0.823  0.00  0.00     0.089 C 
ATOM      2  H52 LEU d   1     -23.814  -1.560   0.283  0.00  0.00     0.087 H 
ENDROOT
BRANCH   1   3
ATOM      3  N   LEU d   1     -25.232  -2.730   1.260  0.00  0.00    -0.346 N 
ATOM      4  C   GLN d   1     -24.429  -3.591   1.875  0.00  0.00     0.241 C 
ATOM      5  O   GLN d   1     -23.244  -3.337   2.125  0.00  0.00    -0.271 OA
ATOM      6  H51 LEU d   1     -26.184  -2.987   1.092  0.00  0.00     0.163 HD
BRANCH   4   7
ATOM      7  CA  GLN d   1     -25.054  -4.932   2.276  0.00  0.00     0.090 C 
ATOM      8  H44 GLN d   1     -24.419  -5.387   3.050  0.00  0.00     0.087 H 
BRANCH   7   9
ATOM      9  N   GLN d   1     -26.398  -4.756   2.827  0.00  0.00    -0.346 N 
ATOM     10  C   ALA d   1     -26.648  -3.971   3.868  0.00  0.00     0.240 C 
ATOM     11  O   ALA d   1     -25.758  -3.392   4.508  0.00  0.00    -0.271 OA
ATOM     12  H43 GLN d   1     -27.159  -5.247   2.402  0.00  0.00     0.163 HD
BRANCH  10  13
ATOM     13  CA  ALA d   1     -28.117  -3.830   4.254  0.00  0.00     0.086 C 
ATOM     14  H39 ALA d   1     -28.213  -2.955   4.914  0.00  0.00     0.086 H 
BRANCH  13  15
ATOM     15  N   ALA d   1     -28.974  -3.613   3.081  0.00  0.00    -0.346 N 
ATOM     16  C   ALA d   1     -28.897  -2.497   2.362  0.00  0.00     0.240 C 
ATOM     17  O   ALA d   1     -28.106  -1.586   2.629  0.00  0.00    -0.271 OA
ATOM     18  H38 ALA d   1     -29.630  -4.320   2.817  0.00  0.00     0.163 HD
BRANCH  16  19
ATOM     19  CA  ALA d   1     -29.837  -2.406   1.149  0.00  0.00     0.086 C 
ATOM     20  H34 ALA d   1     -29.419  -1.667   0.450  0.00  0.00     0.086 H 
BRANCH  19  21
ATOM     21  N   ALA d   1     -29.940  -3.680   0.449  0.00  0.00    -0.346 N 
ATOM     22  C   ALA d   1     -28.892  -4.201  -0.181  0.00  0.00     0.240 C 
ATOM     23  O   ALA d   1     -27.786  -3.662  -0.183  0.00  0.00    -0.271 OA
ATOM     24  H33 ALA d   1     -30.812  -4.170   0.443  0.00  0.00     0.163 HD
BRANCH  22  25
ATOM     25  CA  ALA d   1     -29.111  -5.528  -0.900  0.00  0.00     0.086 C 
ATOM     26  H29 ALA d   1     -28.129  -5.992  -1.073  0.00  0.00     0.086 H 
BRANCH  25  27
ATOM     27  N   ALA d   1     -29.915  -6.447  -0.084  0.00  0.00    -0.346 N 
ATOM     28  C   SER d   1     -29.483  -6.854   1.104  0.00  0.00     0.243 C 
ATOM     29  O   SER d   1     -28.396  -6.486   1.585  0.00  0.00    -0.271 OA
ATOM     30  H28 ALA d   1     -30.797  -6.770  -0.427  0.00  0.00     0.163 HD
BRANCH  28  31
ATOM     31  CA  SER d   1     -30.411  -7.805   1.872  0.00  0.00     0.109 C 
ATOM     32  H24 SER d   1     -30.083  -7.830   2.922  0.00  0.00     0.090 H 
BRANCH  31  33
ATOM     33  N   SER d   1     -31.803  -7.367   1.840  0.00  0.00    -0.344 N 
ATOM     34  C   THR d   1     -32.178  -6.178   2.288  0.00  0.00     0.243 C 
ATOM     35  O   THR d   1     -31.389  -5.364   2.775  0.00  0.00    -0.271 OA
ATOM     36  H23 SER d   1     -32.496  -7.984   1.468  0.00  0.00     0.163 HD
BRANCH  34  37
ATOM     37  CA  THR d   1     -33.661  -5.853   2.137  0.00  0.00     0.113 C 
ATOM     38  H17 THR d   1     -34.250  -6.727   2.451  0.00  0.00     0.091 H 
BRANCH  37  39
ATOM     39  N   THR d   1     -34.055  -4.724   2.975  0.00  0.00    -0.344 N 
ATOM     40  C   LYS d   1     -34.325  -4.896   4.268  0.00  0.00     0.249 C 
ATOM     41  O   LYS d   1     -34.353  -6.010   4.789  0.00  0.00    -0.271 OA
ATOM     42  H16 THR d   1     -34.123  -3.811   2.573  0.00  0.00     0.163 HD
BRANCH  40  43
ATOM     43  CA  LYS d   1     -34.596  -3.639   5.104  0.00  0.00     0.176 C 
ATOM     44  H4  LYS d   1     -34.640  -2.778   4.421  0.00  0.00     0.099 H 
BRANCH  43  45
ATOM     45  N   LYS d   1     -35.860  -3.717   5.823  0.00  0.00    -0.067 N 
ATOM     46  H1  LYS d   1     -35.996  -2.873   6.357  0.00  0.00     0.275 HD
ATOM     47  H2  LYS d   1     -35.844  -4.509   6.446  0.00  0.00     0.275 HD
ATOM     48  H3  LYS d   1     -36.615  -3.823   5.164  0.00  0.00     0.275 HD
ENDBRANCH  43  45
BRANCH  43  49
ATOM     49  CB  LYS d   1     -33.463  -3.411   6.107  0.00  0.00    -0.030 C 
ATOM     50  H5  LYS d   1     -33.239  -4.371   6.595  0.00  0.00     0.036 H 
ATOM     51  H6  LYS d   1     -33.812  -2.689   6.860  0.00  0.00     0.036 H 
BRANCH  49  52
ATOM     52  CG  LYS d   1     -32.198  -2.886   5.512  0.00  0.00    -0.061 C 
ATOM     53  H7  LYS d   1     -32.431  -2.030   4.861  0.00  0.00     0.033 H 
ATOM     54  H8  LYS d   1     -31.719  -3.679   4.918  0.00  0.00     0.033 H 
BRANCH  52  55
ATOM     55  CD  LYS d   1     -31.244  -2.436   6.614  0.00  0.00    -0.043 C 
ATOM     56  H9  LYS d   1     -30.517  -3.237   6.811  0.00  0.00     0.035 H 
ATOM     57  H10 LYS d   1     -31.820  -2.231   7.528  0.00  0.00     0.035 H 
BRANCH  55  58
ATOM     58  CE  LYS d   1     -30.502  -1.183   6.205  0.00  0.00     0.080 C 
ATOM     59  H11 LYS d   1     -31.236  -0.404   5.954  0.00  0.00     0.075 H 
ATOM     60  H12 LYS d   1     -29.890  -1.408   5.320  0.00  0.00     0.075 H 
BRANCH  58  61
ATOM     61  NZ  LYS d   1     -29.612  -0.672   7.285  0.00  0.00    -0.079 N 
ATOM     62  H13 LYS d   1     -29.141   0.160   6.966  0.00  0.00     0.274 HD
ATOM     63  H14 LYS d   1     -28.929  -1.376   7.519  0.00  0.00     0.274 HD
ATOM     64  H15 LYS d   1     -30.163  -0.455   8.100  0.00  0.00     0.274 HD
ENDBRANCH  58  61
ENDBRANCH  55  58
ENDBRANCH  52  55
ENDBRANCH  49  52
ENDBRANCH  43  49
ENDBRANCH  40  43
ENDBRANCH  37  39
BRANCH  37  65
ATOM     65  CB  THR d   1     -33.919  -5.596   0.642  0.00  0.00     0.060 C 
ATOM     66  H18 THR d   1     -33.786  -6.540   0.093  0.00  0.00     0.086 H 
BRANCH  65  67
ATOM     67  OG1 THR d   1     -32.964  -4.640   0.161  0.00  0.00    -0.393 OA
ATOM     68  H19 THR d   1     -33.057  -3.829   0.647  0.00  0.00     0.210 HD
ENDBRANCH  65  67
BRANCH  65  69
ATOM     69  CG2 THR d   1     -35.341  -5.094   0.401  0.00  0.00    -0.050 C 
ATOM     70  H20 THR d   1     -35.491  -4.921  -0.675  0.00  0.00     0.031 H 
ATOM     71  H21 THR d   1     -35.495  -4.153   0.949  0.00  0.00     0.031 H 
ATOM     72  H22 THR d   1     -36.061  -5.847   0.755  0.00  0.00     0.031 H 
ENDBRANCH  65  69
ENDBRANCH  37  65
ENDBRANCH  34  37
ENDBRANCH  31  33
BRANCH  31  73
ATOM     73  CB  SER d   1     -30.304  -9.211   1.294  0.00  0.00     0.044 C 
ATOM     74  H25 SER d   1     -30.751  -9.219   0.289  0.00  0.00     0.077 H 
ATOM     75  H26 SER d   1     -30.852  -9.908   1.945  0.00  0.00     0.077 H 
BRANCH  73  76
ATOM     76  OG  SER d   1     -28.957  -9.632   1.201  0.00  0.00    -0.398 OA
ATOM     77  H27 SER d   1     -28.925 -10.509   0.838  0.00  0.00     0.209 HD
ENDBRANCH  73  76
ENDBRANCH  31  73
ENDBRANCH  28  31
ENDBRANCH  25  27
BRANCH  25  78
ATOM     78  CB  ALA d   1     -29.774  -5.292  -2.251  0.00  0.00    -0.049 C 
ATOM     79  H30 ALA d   1     -29.158  -4.602  -2.846  0.00  0.00     0.030 H 
ATOM     80  H31 ALA d   1     -30.771  -4.854  -2.099  0.00  0.00     0.030 H 
ATOM     81  H32 ALA d   1     -29.872  -6.249  -2.784  0.00  0.00     0.030 H 
ENDBRANCH  25  78
ENDBRANCH  22  25
ENDBRANCH  19  21
BRANCH  19  82
ATOM     82  CB  ALA d   1     -31.211  -1.930   1.578  0.00  0.00    -0.049 C 
ATOM     83  H35 ALA d   1     -31.118  -0.969   2.104  0.00  0.00     0.030 H 
ATOM     84  H36 ALA d   1     -31.663  -2.674   2.250  0.00  0.00     0.030 H 
ATOM     85  H37 ALA d   1     -31.848  -1.802   0.691  0.00  0.00     0.030 H 
ENDBRANCH  19  82
ENDBRANCH  16  19
ENDBRANCH  13  15
BRANCH  13  86
ATOM     86  CB  ALA d   1     -28.584  -5.064   5.019  0.00  0.00    -0.049 C 
ATOM     87  H40 ALA d   1     -27.937  -5.219   5.895  0.00  0.00     0.030 H 
ATOM     88  H41 ALA d   1     -28.529  -5.945   4.362  0.00  0.00     0.030 H 
ATOM     89  H42 ALA d   1     -29.622  -4.918   5.351  0.00  0.00     0.030 H 
ENDBRANCH  13  86
ENDBRANCH  10  13
ENDBRANCH   7   9
BRANCH   7  90
ATOM     90  CB  GLN d   1     -25.117  -5.886   1.076  0.00  0.00    -0.030 C 
ATOM     91  H45 GLN d   1     -25.837  -5.471   0.355  0.00  0.00     0.037 H 
ATOM     92  H46 GLN d   1     -25.480  -6.859   1.439  0.00  0.00     0.037 H 
BRANCH  90  93
ATOM     93  CG  GLN d   1     -23.809  -6.124   0.342  0.00  0.00     0.011 C 
ATOM     94  H47 GLN d   1     -23.147  -6.724   0.984  0.00  0.00     0.047 H 
ATOM     95  H48 GLN d   1     -23.337  -5.152   0.135  0.00  0.00     0.047 H 
BRANCH  93  96
ATOM     96  CD  GLN d   1     -24.013  -6.861  -0.978  0.00  0.00     0.215 C 
ATOM     97  OE1 GLN d   1     -25.120  -6.894  -1.529  0.00  0.00    -0.274 OA
ATOM     98  NE2 GLN d   1     -22.944  -7.460  -1.487  0.00  0.00    -0.370 N 
ATOM     99  H49 GLN d   1     -23.014  -7.959  -2.350  0.00  0.00     0.159 HD
ATOM    100  H50 GLN d   1     -22.068  -7.412  -1.007  0.00  0.00     0.159 HD
ENDBRANCH  93  96
ENDBRANCH  90  93
ENDBRANCH   7  90
ENDBRANCH   4   7
ENDBRANCH   1   3
BRANCH   1 101
ATOM    101  C   LEU d   1     -24.499  -0.482   2.005  0.00  0.00     0.241 C 
ATOM    102  O   LEU d   1     -23.538   0.292   1.999  0.00  0.00    -0.271 OA
ATOM    103  N   ASP d   1     -25.353  -0.540   3.021  0.00  0.00    -0.346 N 
ATOM    104  H62 ASP d   1     -26.122  -1.179   2.996  0.00  0.00     0.163 HD
BRANCH 103 105
ATOM    105  CA  ASP d   1     -25.163   0.332   4.172  0.00  0.00     0.098 C 
ATOM    106  H63 ASP d   1     -25.057   1.363   3.805  0.00  0.00     0.088 H 
BRANCH 105 107
ATOM    107  C   ASP d   1     -23.886  -0.038   4.920  0.00  0.00     0.241 C 
ATOM    108  O   ASP d   1     -23.266   0.816   5.551  0.00  0.00    -0.271 OA
ATOM    109  N   GLU d   1     -23.498  -1.308   4.829  0.00  0.00    -0.346 N 
ATOM    110  H66 GLU d   1     -24.080  -1.956   4.339  0.00  0.00     0.163 HD
BRANCH 109 111
ATOM    111  CA  GLU d   1     -22.254  -1.787   5.419  0.00  0.00     0.086 C 
ATOM    112  H67 GLU d   1     -22.210  -1.448   6.465  0.00  0.00     0.086 H 
BRANCH 111 113
ATOM    113  C   GLU d   1     -21.059  -1.209   4.668  0.00  0.00     0.240 C 
ATOM    114  O   GLU d   1     -20.011  -0.932   5.259  0.00  0.00    -0.271 OA
ATOM    115  N   LEU d   1     -21.223  -1.022   3.362  0.00  0.00    -0.346 N 
ATOM    116  H71 LEU d   1     -22.090  -1.281   2.936  0.00  0.00     0.163 HD
BRANCH 115 117
ATOM    117  CA  LEU d   1     -20.165  -0.446   2.536  0.00  0.00     0.089 C 
ATOM    118  H72 LEU d   1     -19.215  -0.926   2.813  0.00  0.00     0.087 H 
BRANCH 117 119
ATOM    119  C   LEU d   1     -20.026   1.053   2.773  0.00  0.00     0.241 C 
ATOM    120  O   LEU d   1     -18.917   1.571   2.891  0.00  0.00    -0.271 OA
ATOM    121  N   MET d   1     -21.158   1.744   2.853  0.00  0.00    -0.346 N 
ATOM    122  H82 MET d   1     -22.028   1.262   2.744  0.00  0.00     0.163 HD
BRANCH 121 123
ATOM    123  CA  MET d   1     -21.173   3.183   3.095  0.00  0.00     0.090 C 
ATOM    124  H83 MET d   1     -20.488   3.658   2.378  0.00  0.00     0.087 H 
BRANCH 123 125
ATOM    125  C   MET d   1     -20.692   3.525   4.510  0.00  0.00     0.241 C 
ATOM    126  O   MET d   1     -20.290   4.660   4.787  0.00  0.00    -0.271 OA
ATOM    127  N   ALA d   1     -20.744   2.539   5.401  0.00  0.00    -0.346 N 
ATOM    128  H91 ALA d   1     -21.125   1.656   5.128  0.00  0.00     0.163 HD
BRANCH 127 129
ATOM    129  CA  ALA d   1     -20.261   2.712   6.764  0.00  0.00     0.086 C 
ATOM    130  H92 ALA d   1     -20.647   3.666   7.153  0.00  0.00     0.086 H 
BRANCH 129 131
ATOM    131  C   ALA d   1     -18.739   2.766   6.774  0.00  0.00     0.240 C 
ATOM    132  O   ALA d   1     -18.140   3.460   7.594  0.00  0.00    -0.271 OA
ATOM    133  N   HIS d   1     -18.125   2.037   5.845  0.00  0.00    -0.346 N 
ATOM    134  H96 HIS d   1     -18.681   1.493   5.217  0.00  0.00     0.163 HD
BRANCH 133 135
ATOM    135  CA  HIS d   1     -16.672   2.000   5.707  0.00  0.00     0.086 C 
ATOM    136  H97 HIS d   1     -16.240   1.856   6.708  0.00  0.00     0.086 H 
BRANCH 135 137
ATOM    137  C   HIS d   1     -16.112   3.302   5.133  0.00  0.00     0.240 C 
ATOM    138  O   HIS d   1     -14.902   3.525   5.152  0.00  0.00    -0.271 OA
ATOM    139  N   LEU d   1     -16.993   4.154   4.618  0.00  0.00    -0.346 N 
ATOM    140 1H10 LEU d   1     -17.960   3.900   4.590  0.00  0.00     0.163 HD
BRANCH 139 141
ATOM    141  CA  LEU d   1     -16.581   5.451   4.092  0.00  0.00     0.089 C 
ATOM    142 2H10 LEU d   1     -15.517   5.389   3.821  0.00  0.00     0.087 H 
BRANCH 141 143
ATOM    143  C   LEU d   1     -16.746   6.543   5.146  0.00  0.00     0.241 C 
ATOM    144  O   LEU d   1     -15.882   7.408   5.296  0.00  0.00    -0.271 OA
ATOM    145  N   THR d   1     -17.857   6.496   5.876  0.00  0.00    -0.345 N 
ATOM    146 2H11 THR d   1     -18.515   5.760   5.714  0.00  0.00     0.163 HD
BRANCH 145 147
ATOM    147  CA  THR d   1     -18.143   7.490   6.908  0.00  0.00     0.093 C 
ATOM    148 3H11 THR d   1     -18.028   8.488   6.459  0.00  0.00     0.089 H 
BRANCH 147 149
ATOM    149  C   THR d   1     -17.169   7.371   8.076  0.00  0.00     0.196 C 
ATOM    150  O   THR d   1     -16.440   8.314   8.387  0.00  0.00    -0.646 OA
ATOM    151  OXT THR d   1     -17.093   6.330   8.730  0.00  0.00    -0.646 OA
ENDBRANCH 147 149
BRANCH 147 152
ATOM    152  CB  THR d   1     -19.587   7.357   7.438  0.00  0.00    -0.048 C 
ATOM    153 4H11 THR d   1     -19.765   8.119   8.211  0.00  0.00     0.030 H 
ATOM    154 5H11 THR d   1     -19.728   6.356   7.871  0.00  0.00     0.030 H 
ATOM    155 6H11 THR d   1     -20.296   7.502   6.610  0.00  0.00     0.030 H 
ENDBRANCH 147 152
ENDBRANCH 145 147
ENDBRANCH 141 143
BRANCH 141 156
ATOM    156  CB  LEU d   1     -17.380   5.809   2.834  0.00  0.00    -0.035 C 
ATOM    157 3H10 LEU d   1     -17.111   6.838   2.555  0.00  0.00     0.037 H 
ATOM    158 4H10 LEU d   1     -18.447   5.767   3.098  0.00  0.00     0.037 H 
BRANCH 156 159
ATOM    159  CG  LEU d   1     -17.180   4.931   1.595  0.00  0.00    -0.059 C 
ATOM    160 5H10 LEU d   1     -17.454   3.899   1.858  0.00  0.00     0.038 H 
BRANCH 159 161
ATOM    161  CD1 LEU d   1     -18.083   5.387   0.453  0.00  0.00    -0.073 C 
ATOM    162 6H10 LEU d   1     -17.921   4.742  -0.423  0.00  0.00     0.028 H 
ATOM    163 7H10 LEU d   1     -17.845   6.428   0.191  0.00  0.00     0.028 H 
ATOM    164 8H10 LEU d   1     -19.135   5.320   0.768  0.00  0.00     0.028 H 
ENDBRANCH 159 161
BRANCH 159 165
ATOM    165  CD2 LEU d   1     -15.727   4.941   1.164  0.00  0.00    -0.073 C 
ATOM    166 9H10 LEU d   1     -15.094   4.610   2.001  0.00  0.00     0.028 H 
ATOM    167 0H11 LEU d   1     -15.439   5.961   0.868  0.00  0.00     0.028 H 
ATOM    168 1H11 LEU d   1     -15.593   4.260   0.311  0.00  0.00     0.028 H 
ENDBRANCH 159 165
ENDBRANCH 156 159
ENDBRANCH 141 156
ENDBRANCH 139 141
ENDBRANCH 135 137
BRANCH 135 169
ATOM    169  CB  HIS d   1     -16.252   0.821   4.824  0.00  0.00    -0.049 C 
ATOM    170  H98 HIS d   1     -15.156   0.806   4.729  0.00  0.00     0.030 H 
ATOM    171  H99 HIS d   1     -16.705   0.930   3.827  0.00  0.00     0.030 H 
ATOM    172 0H10 HIS d   1     -16.593  -0.119   5.281  0.00  0.00     0.030 H 
ENDBRANCH 135 169
ENDBRANCH 133 135
ENDBRANCH 129 131
BRANCH 129 173
ATOM    173  CB  ALA d   1     -20.766   1.589   7.661  0.00  0.00    -0.049 C 
ATOM    174  H93 ALA d   1     -20.390   1.739   8.684  0.00  0.00     0.030 H 
ATOM    175  H94 ALA d   1     -20.407   0.623   7.277  0.00  0.00     0.030 H 
ATOM    176  H95 ALA d   1     -21.866   1.594   7.670  0.00  0.00     0.030 H 
ENDBRANCH 129 173
ENDBRANCH 127 129
ENDBRANCH 123 125
BRANCH 123 177
ATOM    177  CB  MET d   1     -22.575   3.736   2.861  0.00  0.00    -0.030 C 
ATOM    178  H84 MET d   1     -22.567   4.815   3.076  0.00  0.00     0.037 H 
ATOM    179  H85 MET d   1     -23.271   3.230   3.546  0.00  0.00     0.037 H 
BRANCH 177 180
ATOM    180  CG  MET d   1     -23.061   3.529   1.437  0.00  0.00    -0.021 C 
ATOM    181  H86 MET d   1     -24.016   4.058   1.298  0.00  0.00     0.049 H 
ATOM    182  H87 MET d   1     -23.207   2.454   1.256  0.00  0.00     0.049 H 
BRANCH 180 183
ATOM    183  SD  MET d   1     -21.849   4.171   0.265  0.00  0.00    -0.173 SA
BRANCH 183 184
ATOM    184  CE  MET d   1     -22.067   5.929   0.493  0.00  0.00    -0.035 C 
ATOM    185  H88 MET d   1     -21.379   6.473  -0.171  0.00  0.00     0.041 H 
ATOM    186  H89 MET d   1     -21.852   6.192   1.539  0.00  0.00     0.041 H 
ATOM    187  H90 MET d   1     -23.104   6.204   0.251  0.00  0.00     0.041 H 
ENDBRANCH 183 184
ENDBRANCH 180 183
ENDBRANCH 177 180
ENDBRANCH 123 177
ENDBRANCH 121 123
ENDBRANCH 117 119
BRANCH 117 188
ATOM    188  CB  LEU d   1     -20.431  -0.724   1.053  0.00  0.00    -0.035 C 
ATOM    189  H73 LEU d   1     -19.723  -0.126   0.461  0.00  0.00     0.037 H 
ATOM    190  H74 LEU d   1     -21.459  -0.407   0.825  0.00  0.00     0.037 H 
BRANCH 188 191
ATOM    191  CG  LEU d   1     -20.282  -2.184   0.636  0.00  0.00    -0.059 C 
ATOM    192  H75 LEU d   1     -20.930  -2.800   1.277  0.00  0.00     0.038 H 
BRANCH 191 193
ATOM    193  CD1 LEU d   1     -20.713  -2.372  -0.810  0.00  0.00    -0.073 C 
ATOM    194  H76 LEU d   1     -20.599  -3.429  -1.092  0.00  0.00     0.028 H 
ATOM    195  H77 LEU d   1     -20.086  -1.748  -1.464  0.00  0.00     0.028 H 
ATOM    196  H78 LEU d   1     -21.766  -2.075  -0.920  0.00  0.00     0.028 H 
ENDBRANCH 191 193
BRANCH 191 197
ATOM    197  CD2 LEU d   1     -18.835  -2.639   0.824  0.00  0.00    -0.073 C 
ATOM    198  H79 LEU d   1     -18.539  -2.497   1.874  0.00  0.00     0.028 H 
ATOM    199  H80 LEU d   1     -18.176  -2.045   0.174  0.00  0.00     0.028 H 
ATOM    200  H81 LEU d   1     -18.748  -3.703   0.560  0.00  0.00     0.028 H 
ENDBRANCH 191 197
ENDBRANCH 188 191
ENDBRANCH 117 188
ENDBRANCH 115 117
ENDBRANCH 111 113
BRANCH 111 201
ATOM    201  CB  GLU d   1     -22.199  -3.316   5.401  0.00  0.00    -0.049 C 
ATOM    202  H68 GLU d   1     -21.253  -3.654   5.850  0.00  0.00     0.030 H 
ATOM    203  H69 GLU d   1     -22.260  -3.673   4.362  0.00  0.00     0.030 H 
ATOM    204  H70 GLU d   1     -23.044  -3.720   5.978  0.00  0.00     0.030 H 
ENDBRANCH 111 201
ENDBRANCH 109 111
ENDBRANCH 105 107
BRANCH 105 205
ATOM    205  CB  ASP d   1     -26.373   0.284   5.102  0.00  0.00     0.043 C 
ATOM    206  H64 ASP d   1     -26.060   0.603   6.107  0.00  0.00     0.052 H 
ATOM    207  H65 ASP d   1     -26.746  -0.750   5.145  0.00  0.00     0.052 H 
BRANCH 205 208
ATOM    208  CG  ASP d   1     -27.495   1.188   4.631  0.00  0.00     0.175 C 
ATOM    209  OD1 ASP d   1     -27.235   2.067   3.782  0.00  0.00    -0.648 OA
ATOM    210  OD2 ASP d   1     -28.633   1.027   5.108  0.00  0.00    -0.648 OA
ENDBRANCH 205 208
ENDBRANCH 105 205
ENDBRANCH 103 105
ENDBRANCH   1 101
BRANCH   1 211
ATOM    211  CB  LEU d   1     -25.772  -0.781  -0.137  0.00  0.00    -0.035 C 
ATOM    212  H53 LEU d   1     -26.725  -0.672   0.402  0.00  0.00     0.037 H 
ATOM    213  H54 LEU d   1     -25.907  -1.467  -0.986  0.00  0.00     0.037 H 
BRANCH 211 214
ATOM    214  CG  LEU d   1     -25.396   0.588  -0.700  0.00  0.00    -0.059 C 
ATOM    215  H55 LEU d   1     -25.466   1.345   0.095  0.00  0.00     0.038 H 
BRANCH 214 216
ATOM    216  CD1 LEU d   1     -23.985   0.533  -1.227  0.00  0.00    -0.073 C 
ATOM    217  H56 LEU d   1     -23.707   1.516  -1.634  0.00  0.00     0.028 H 
ATOM    218  H57 LEU d   1     -23.920  -0.225  -2.022  0.00  0.00     0.028 H 
ATOM    219  H58 LEU d   1     -23.298   0.268  -0.410  0.00  0.00     0.028 H 
ENDBRANCH 214 216
BRANCH 214 220
ATOM    220  CD2 LEU d   1     -26.333   0.951  -1.831  0.00  0.00    -0.073 C 
ATOM    221  H59 LEU d   1     -27.365   0.993  -1.453  0.00  0.00     0.028 H 
ATOM    222  H60 LEU d   1     -26.263   0.191  -2.623  0.00  0.00     0.028 H 
ATOM    223  H61 LEU d   1     -26.052   1.933  -2.239  0.00  0.00     0.028 H 
ENDBRANCH 214 220
ENDBRANCH 211 214
ENDBRANCH   1 211
TORSDOF 70
