REMARK  13 active torsions:
REMARK  status: ('A' for Active; 'I' for Inactive)
REMARK    1  A    between atoms: NBG_18  and  C4_1 
REMARK    2  A    between atoms: CBE_7  and  OAE_6 
REMARK    3  A    between atoms: CAP_12  and  NBF_11 
REMARK    4  A    between atoms: CBA_13  and  CAP_12 
REMARK    5  A    between atoms: CAX_15  and  CAC_16 
REMARK    6  A    between atoms: C2_20  and  NAT_21 
REMARK    7  A    between atoms: NAT_21  and  CAZ_22 
REMARK    8  A    between atoms: CAW_24  and  CAB_25 
REMARK    9  A    between atoms: CAV_27  and  CAA_28 
REMARK   10  A    between atoms: CBC_29  and  OAU_30 
REMARK   11  A    between atoms: OAU_30  and  CAM_31 
REMARK   12  A    between atoms: CAM_31  and  CAL_32 
REMARK   13  A    between atoms: CAL_32  and  OAD_33 
ROOT
ATOM      1  C4  X4G d   1      12.640  -1.501  12.504  0.00  0.00     0.193 A 
ATOM      2  C5  X4G d   1      11.511  -1.100  13.250  0.00  0.00     0.181 A 
ATOM      3  C6  X4G d   1      11.676  -0.108  14.204  0.00  0.00     0.062 A 
ATOM      4  N1  X4G d   1      12.866   0.428  14.422  0.00  0.00    -0.072 NA
ATOM      5  N3  X4G d   1      13.834  -0.919  12.809  0.00  0.00    -0.041 NA
ATOM      6  F5  X4G d   1      10.265  -1.598  13.076  0.00  0.00    -0.200 F 
ATOM      7  C2  X4G d   1      13.966   0.052  13.750  0.00  0.00     0.728 A 
ATOM      8  H1  X4G d   1      10.821   0.232  14.777  0.00  0.00     0.120 H 
ENDROOT
BRANCH   1   9
ATOM      9  NBG X4G d   1      12.623  -2.492  11.590  0.00  0.00    -0.313 N 
ATOM     10  CAK X4G d   1      13.737  -2.956  11.006  0.00  0.00    -0.005 A 
ATOM     11  CBA X4G d   1      13.434  -3.965  10.210  0.00  0.00    -0.009 A 
ATOM     12  H13 X4G d   1      14.739  -2.561  11.164  0.00  0.00     0.113 H 
ATOM     13  CAX X4G d   1      12.068  -4.143  10.322  0.00  0.00    -0.037 A 
ATOM     14  CAJ X4G d   1      11.589  -3.254  11.181  0.00  0.00    -0.007 A 
ATOM     15  H17 X4G d   1      10.552  -3.157  11.498  0.00  0.00     0.113 H 
BRANCH  11  16
ATOM     16  CAP X4G d   1      14.431  -4.735   9.352  0.00  0.00     0.109 C 
ATOM     17  H11 X4G d   1      13.952  -5.015   8.402  0.00  0.00     0.083 H 
ATOM     18  H12 X4G d   1      15.304  -4.097   9.149  0.00  0.00     0.083 H 
BRANCH  16  19
ATOM     19  NBF X4G d   1      14.869  -5.947  10.048  0.00  0.00    -0.065 N 
ATOM     20  CAQ X4G d   1      15.496  -5.605  11.330  0.00  0.00     0.107 C 
ATOM     21  CBE X4G d   1      16.425  -6.759  11.653  0.00  0.00     0.060 C 
ATOM     22  H4  X4G d   1      16.065  -4.668  11.241  0.00  0.00     0.080 H 
ATOM     23  H5  X4G d   1      14.732  -5.497  12.114  0.00  0.00     0.080 H 
ATOM     24  CAN X4G d   1      16.698  -7.461  10.320  0.00  0.00    -0.017 C 
ATOM     25  H3  X4G d   1      15.987  -7.446  12.392  0.00  0.00     0.085 H 
ATOM     26  CAO X4G d   1      15.905  -6.657   9.279  0.00  0.00     0.086 C 
ATOM     27  H6  X4G d   1      16.348  -8.503  10.353  0.00  0.00     0.039 H 
ATOM     28  H7  X4G d   1      17.773  -7.443  10.086  0.00  0.00     0.039 H 
ATOM     29  H8  X4G d   1      15.444  -7.330   8.541  0.00  0.00     0.076 H 
ATOM     30  H9  X4G d   1      16.561  -5.941   8.763  0.00  0.00     0.076 H 
ATOM     31  H10 X4G d   1      14.074  -6.548  10.197  0.00  0.00     0.280 HD
BRANCH  21  32
ATOM     32  OAE X4G d   1      17.637  -6.196  12.125  0.00  0.00    -0.394 OA
ATOM     33  H2  X4G d   1      18.011  -5.642  11.450  0.00  0.00     0.210 HD
ENDBRANCH  21  32
ENDBRANCH  16  19
ENDBRANCH  11  16
BRANCH  13  34
ATOM     34  CAC X4G d   1      11.228  -5.203   9.594  0.00  0.00    -0.049 C 
ATOM     35  H14 X4G d   1      10.172  -5.097   9.884  0.00  0.00     0.033 H 
ATOM     36  H15 X4G d   1      11.585  -6.206   9.869  0.00  0.00     0.033 H 
ATOM     37  H16 X4G d   1      11.325  -5.064   8.507  0.00  0.00     0.033 H 
ENDBRANCH  13  34
ENDBRANCH   1   9
BRANCH   7  38
ATOM     38  NAT X4G d   1      15.112   0.680  14.105  0.00  0.00    -0.188 N 
ATOM     39  H18 X4G d   1      15.014   1.424  14.811  0.00  0.00     0.184 HD
BRANCH  38  40
ATOM     40  CAZ X4G d   1      16.369   0.459  13.654  0.00  0.00     0.050 A 
ATOM     41  CAI X4G d   1      16.737  -0.591  12.805  0.00  0.00    -0.048 A 
ATOM     42  CAW X4G d   1      18.065  -0.746  12.384  0.00  0.00    -0.026 A 
ATOM     43  H19 X4G d   1      15.984  -1.294  12.468  0.00  0.00     0.087 H 
ATOM     44  CBC X4G d   1      19.044   0.145  12.812  0.00  0.00     0.080 A 
ATOM     45  CAV X4G d   1      18.699   1.190  13.667  0.00  0.00    -0.026 A 
ATOM     46  CAH X4G d   1      17.374   1.341  14.072  0.00  0.00    -0.048 A 
ATOM     47  H23 X4G d   1      17.114   2.163  14.729  0.00  0.00     0.087 H 
BRANCH  42  48
ATOM     48  CAB X4G d   1      18.459  -1.903  11.459  0.00  0.00    -0.049 C 
ATOM     49  H20 X4G d   1      17.568  -2.503  11.222  0.00  0.00     0.033 H 
ATOM     50  H21 X4G d   1      19.205  -2.537  11.961  0.00  0.00     0.033 H 
ATOM     51  H22 X4G d   1      18.887  -1.500  10.529  0.00  0.00     0.033 H 
ENDBRANCH  42  48
BRANCH  44  52
ATOM     52  OAU X4G d   1      20.325  -0.019  12.403  0.00  0.00    -0.348 OA
BRANCH  52  53
ATOM     53  CAM X4G d   1      20.553   0.675  11.179  0.00  0.00     0.045 C 
ATOM     54  H27 X4G d   1      20.498   1.763  11.329  0.00  0.00     0.078 H 
ATOM     55  H28 X4G d   1      19.823   0.372  10.414  0.00  0.00     0.078 H 
BRANCH  53  56
ATOM     56  CAL X4G d   1      21.967   0.250  10.782  0.00  0.00     0.037 C 
ATOM     57  H29 X4G d   1      22.219   0.683   9.803  0.00  0.00     0.077 H 
ATOM     58  H30 X4G d   1      22.017  -0.847  10.722  0.00  0.00     0.077 H 
BRANCH  56  59
ATOM     59  OAD X4G d   1      22.903   0.720  11.770  0.00  0.00    -0.399 OA
ATOM     60  H31 X4G d   1      22.684   0.346  12.615  0.00  0.00     0.209 HD
ENDBRANCH  56  59
ENDBRANCH  53  56
ENDBRANCH  52  53
ENDBRANCH  44  52
BRANCH  45  61
ATOM     61  CAA X4G d   1      19.747   2.188  14.163  0.00  0.00    -0.049 C 
ATOM     62  H24 X4G d   1      19.267   2.926  14.822  0.00  0.00     0.033 H 
ATOM     63  H25 X4G d   1      20.199   2.703  13.303  0.00  0.00     0.033 H 
ATOM     64  H26 X4G d   1      20.529   1.652  14.721  0.00  0.00     0.033 H 
ENDBRANCH  45  61
ENDBRANCH  38  40
ENDBRANCH   7  38
TORSDOF 13
