REMARK  9 active torsions:
REMARK  status: ('A' for Active; 'I' for Inactive)
REMARK    1  A    between atoms: C4_1  and  NBA_16 
REMARK    2  A    between atoms: CAR_7  and  CAA_6 
REMARK    3  A    between atoms: CAS_10  and  CAB_11 
REMARK    4  A    between atoms: NAQ_14  and  CAT_13 
REMARK    5  A    between atoms: NAQ_14  and  C2_15 
REMARK    6  A    between atoms: CAU_19  and  CAC_20 
REMARK    7  A    between atoms: CAV_21  and  CAK_22 
REMARK    8  A    between atoms: CAK_22  and  NAZ_23 
REMARK    9  A    between atoms: CAY_26  and  OAD_27 
ROOT
ATOM      1  C4  X6G d   1       4.600  -2.788   6.541  0.00  0.00     0.170 C 
ATOM      2  C5  X6G d   1       5.701  -2.322   5.821  0.00  0.00    -0.019 C 
ATOM      3  C6  X6G d   1       5.430  -1.450   4.755  0.00  0.00     0.025 C 
ATOM      4  N1  X6G d   1       4.179  -1.108   4.417  0.00  0.00    -0.075 NA
ATOM      5  N3  X6G d   1       3.391  -2.413   6.137  0.00  0.00    -0.043 NA
ATOM      6  C2  X6G d   1       3.162  -1.533   5.182  0.00  0.00     0.728 C 
ATOM      7  H1  X6G d   1       6.713  -2.618   6.072  0.00  0.00     0.091 H 
ATOM      8  H2  X6G d   1       6.258  -1.041   4.188  0.00  0.00     0.115 H 
ENDROOT
BRANCH   1   9
ATOM      9  NBA X6G d   1       4.583  -3.661   7.555  0.00  0.00    -0.225 N 
ATOM     10  CAJ X6G d   1       3.468  -4.035   8.204  0.00  0.00     0.016 A 
ATOM     11  CAV X6G d   1       3.796  -4.937   9.115  0.00  0.00     0.011 A 
ATOM     12  H13 X6G d   1       2.464  -3.659   8.013  0.00  0.00     0.115 H 
ATOM     13  CAU X6G d   1       5.158  -5.106   8.924  0.00  0.00     0.060 A 
ATOM     14  NAP X6G d   1       5.565  -4.302   7.955  0.00  0.00    -0.171 NA
BRANCH  11  15
ATOM     15  CAK X6G d   1       2.823  -5.681  10.066  0.00  0.00     0.110 C 
ATOM     16  H17 X6G d   1       2.030  -5.018  10.442  0.00  0.00     0.083 H 
ATOM     17  H18 X6G d   1       3.351  -6.140  10.915  0.00  0.00     0.083 H 
BRANCH  15  18
ATOM     18  NAZ X6G d   1       2.301  -6.684   9.145  0.00  0.00    -0.062 N 
ATOM     19  CAM X6G d   1       1.105  -6.464   8.329  0.00  0.00     0.109 C 
ATOM     20  CAY X6G d   1       0.792  -7.931   8.482  0.00  0.00     0.082 C 
ATOM     21  H20 X6G d   1       1.309  -6.146   7.296  0.00  0.00     0.080 H 
ATOM     22  H21 X6G d   1       0.362  -5.789   8.780  0.00  0.00     0.080 H 
ATOM     23  CAL X6G d   1       1.464  -7.716   9.840  0.00  0.00     0.109 C 
ATOM     24  H24 X6G d   1       1.232  -8.665   7.790  0.00  0.00     0.088 H 
ATOM     25  H22 X6G d   1       0.804  -7.325  10.628  0.00  0.00     0.080 H 
ATOM     26  H23 X6G d   1       2.021  -8.583  10.225  0.00  0.00     0.080 H 
ATOM     27  H19 X6G d   1       3.076  -7.046   8.612  0.00  0.00     0.280 HD
BRANCH  20  28
ATOM     28  OAD X6G d   1      -0.611  -8.013   8.587  0.00  0.00    -0.392 OA
ATOM     29  H25 X6G d   1      -0.985  -8.146   7.724  0.00  0.00     0.210 HD
ENDBRANCH  20  28
ENDBRANCH  15  18
ENDBRANCH  11  15
BRANCH  13  30
ATOM     30  CAC X6G d   1       6.057  -6.036   9.713  0.00  0.00    -0.033 C 
ATOM     31  H14 X6G d   1       5.457  -6.585  10.453  0.00  0.00     0.035 H 
ATOM     32  H15 X6G d   1       6.829  -5.448  10.231  0.00  0.00     0.035 H 
ATOM     33  H16 X6G d   1       6.538  -6.750   9.028  0.00  0.00     0.035 H 
ENDBRANCH  13  30
ENDBRANCH   1   9
BRANCH   6  34
ATOM     34  NAQ X6G d   1       1.874  -1.383   4.876  0.00  0.00    -0.188 N 
ATOM     35  H12 X6G d   1       1.722  -1.482   3.862  0.00  0.00     0.184 HD
BRANCH  34  36
ATOM     36  CAT X6G d   1       0.724  -1.141   5.512  0.00  0.00     0.050 A 
ATOM     37  CAH X6G d   1       0.302  -1.900   6.606  0.00  0.00    -0.051 A 
ATOM     38  CAR X6G d   1      -0.967  -1.703   7.137  0.00  0.00    -0.059 A 
ATOM     39  H6  X6G d   1       0.963  -2.641   7.040  0.00  0.00     0.087 H 
ATOM     40  CAG X6G d   1      -1.840  -0.788   6.538  0.00  0.00    -0.071 A 
ATOM     41  CAS X6G d   1      -1.440  -0.091   5.395  0.00  0.00    -0.059 A 
ATOM     42  H7  X6G d   1      -2.824  -0.620   6.960  0.00  0.00     0.085 H 
ATOM     43  CAI X6G d   1      -0.172  -0.292   4.869  0.00  0.00    -0.051 A 
ATOM     44  H11 X6G d   1       0.121   0.213   3.956  0.00  0.00     0.087 H 
BRANCH  38  45
ATOM     45  CAA X6G d   1      -1.362  -2.484   8.400  0.00  0.00    -0.051 C 
ATOM     46  H3  X6G d   1      -0.533  -3.142   8.698  0.00  0.00     0.033 H 
ATOM     47  H4  X6G d   1      -2.255  -3.091   8.191  0.00  0.00     0.033 H 
ATOM     48  H5  X6G d   1      -1.581  -1.778   9.214  0.00  0.00     0.033 H 
ENDBRANCH  38  45
BRANCH  41  49
ATOM     49  CAB X6G d   1      -2.375   0.906   4.708  0.00  0.00    -0.051 C 
ATOM     50  H8  X6G d   1      -1.869   1.341   3.833  0.00  0.00     0.033 H 
ATOM     51  H9  X6G d   1      -2.640   1.707   5.414  0.00  0.00     0.033 H 
ATOM     52  H10 X6G d   1      -3.289   0.387   4.382  0.00  0.00     0.033 H 
ENDBRANCH  41  49
ENDBRANCH  34  36
ENDBRANCH   6  34
TORSDOF 9
