REMARK  8 active torsions:
REMARK  status: ('A' for Active; 'I' for Inactive)
REMARK    1  A    between atoms: C4_1  and  NBC_18 
REMARK    2  A    between atoms: NBB_7  and  CAB_6 
REMARK    3  A    between atoms: NAO_16  and  CAS_15 
REMARK    4  A    between atoms: NAO_16  and  C2_17 
REMARK    5  A    between atoms: CAT_21  and  CAA_22 
REMARK    6  A    between atoms: CAU_23  and  CAK_24 
REMARK    7  A    between atoms: CAK_24  and  NBA_25 
REMARK    8  A    between atoms: CAZ_28  and  OAC_29 
ROOT
ATOM      1  C4  X7G d   1      15.112  62.778  13.833  0.00  0.00     0.170 A 
ATOM      2  C5  X7G d   1      13.968  62.983  14.554  0.00  0.00    -0.019 A 
ATOM      3  C6  X7G d   1      14.016  63.859  15.623  0.00  0.00     0.025 A 
ATOM      4  N1  X7G d   1      15.126  64.432  15.931  0.00  0.00    -0.075 NA
ATOM      5  N3  X7G d   1      16.206  63.400  14.231  0.00  0.00    -0.043 NA
ATOM      6  C2  X7G d   1      16.224  64.207  15.262  0.00  0.00     0.728 A 
ATOM      7  H1  X7G d   1      13.048  62.472  14.294  0.00  0.00     0.091 H 
ATOM      8  H2  X7G d   1      13.121  64.062  16.200  0.00  0.00     0.115 H 
ENDROOT
BRANCH   1   9
ATOM      9  NBC X7G d   1      15.153  61.901  12.829  0.00  0.00    -0.225 N 
ATOM     10  CAJ X7G d   1      16.251  61.476  12.259  0.00  0.00     0.016 A 
ATOM     11  CAU X7G d   1      15.918  60.557  11.394  0.00  0.00     0.011 A 
ATOM     12  H11 X7G d   1      17.261  61.826  12.468  0.00  0.00     0.115 H 
ATOM     13  CAT X7G d   1      14.566  60.463  11.527  0.00  0.00     0.060 A 
ATOM     14  NAN X7G d   1      14.179  61.292  12.449  0.00  0.00    -0.171 NA
BRANCH  11  15
ATOM     15  CAK X7G d   1      16.863  59.770  10.491  0.00  0.00     0.110 C 
ATOM     16  H15 X7G d   1      17.717  60.402  10.206  0.00  0.00     0.083 H 
ATOM     17  H16 X7G d   1      16.329  59.445   9.586  0.00  0.00     0.083 H 
BRANCH  15  18
ATOM     18  NBA X7G d   1      17.336  58.605  11.230  0.00  0.00    -0.062 N 
ATOM     19  CAM X7G d   1      18.136  58.913  12.379  0.00  0.00     0.109 C 
ATOM     20  CAZ X7G d   1      18.859  57.620  12.119  0.00  0.00     0.082 C 
ATOM     21  H18 X7G d   1      17.584  58.949  13.329  0.00  0.00     0.080 H 
ATOM     22  H19 X7G d   1      18.756  59.816  12.281  0.00  0.00     0.080 H 
ATOM     23  CAL X7G d   1      18.468  57.885  10.697  0.00  0.00     0.109 C 
ATOM     24  H22 X7G d   1      18.462  56.712  12.597  0.00  0.00     0.088 H 
ATOM     25  H20 X7G d   1      19.181  58.501  10.129  0.00  0.00     0.080 H 
ATOM     26  H21 X7G d   1      18.212  56.988  10.114  0.00  0.00     0.080 H 
ATOM     27  H17 X7G d   1      16.545  58.013  11.428  0.00  0.00     0.280 HD
BRANCH  20  28
ATOM     28  OAC X7G d   1      20.231  57.746  12.297  0.00  0.00    -0.392 OA
ATOM     29  H23 X7G d   1      20.449  57.573  13.205  0.00  0.00     0.210 HD
ENDBRANCH  20  28
ENDBRANCH  15  18
ENDBRANCH  11  15
BRANCH  13  30
ATOM     30  CAA X7G d   1      13.673  59.532  10.741  0.00  0.00    -0.033 C 
ATOM     31  H12 X7G d   1      14.282  58.952  10.032  0.00  0.00     0.035 H 
ATOM     32  H13 X7G d   1      12.927  60.120  10.187  0.00  0.00     0.035 H 
ATOM     33  H14 X7G d   1      13.160  58.846  11.431  0.00  0.00     0.035 H 
ENDBRANCH  13  30
ENDBRANCH   1   9
BRANCH   6  34
ATOM     34  NAO X7G d   1      17.305  64.855  15.631  0.00  0.00    -0.188 N 
ATOM     35  H10 X7G d   1      17.165  65.526  16.400  0.00  0.00     0.184 HD
BRANCH  34  36
ATOM     36  CAS X7G d   1      18.551  64.784  15.172  0.00  0.00     0.050 A 
ATOM     37  CAI X7G d   1      19.026  63.945  14.182  0.00  0.00    -0.043 A 
ATOM     38  CAX X7G d   1      20.358  64.012  13.821  0.00  0.00     0.013 A 
ATOM     39  H7  X7G d   1      18.361  63.242  13.694  0.00  0.00     0.088 H 
ATOM     40  CAH X7G d   1      21.125  63.381  12.972  0.00  0.00     0.034 A 
ATOM     41  CAY X7G d   1      21.213  64.867  14.418  0.00  0.00     0.064 A 
ATOM     42  NAQ X7G d   1      22.372  63.836  13.054  0.00  0.00    -0.184 NA
ATOM     43  H6  X7G d   1      20.791  62.596  12.295  0.00  0.00     0.118 H 
ATOM     44  NBB X7G d   1      22.375  64.687  13.898  0.00  0.00    -0.274 N 
ATOM     45  CAG X7G d   1      20.774  65.701  15.387  0.00  0.00    -0.052 A 
ATOM     46  CAF X7G d   1      19.464  65.646  15.748  0.00  0.00    -0.054 A 
ATOM     47  H8  X7G d   1      21.451  66.399  15.866  0.00  0.00     0.087 H 
ATOM     48  H9  X7G d   1      19.118  66.314  16.529  0.00  0.00     0.087 H 
BRANCH  44  49
ATOM     49  CAB X7G d   1      23.489  65.398  14.269  0.00  0.00     0.003 C 
ATOM     50  H3  X7G d   1      23.221  66.114  15.060  0.00  0.00     0.059 H 
ATOM     51  H4  X7G d   1      23.882  65.944  13.399  0.00  0.00     0.059 H 
ATOM     52  H5  X7G d   1      24.257  64.706  14.646  0.00  0.00     0.059 H 
ENDBRANCH  44  49
ENDBRANCH  34  36
ENDBRANCH   6  34
TORSDOF 8
