REMARK  9 active torsions:
REMARK  status: ('A' for Active; 'I' for Inactive)
REMARK    1  A    between atoms: NBE_17  and  C4_1 
REMARK    2  A    between atoms: CBB_7  and  OAD_8 
REMARK    3  A    between atoms: CAL_11  and  NBC_10 
REMARK    4  A    between atoms: CAV_12  and  CAL_11 
REMARK    5  A    between atoms: CAS_14  and  CAA_15 
REMARK    6  A    between atoms: C2_18  and  NAR_19 
REMARK    7  A    between atoms: NAR_19  and  CAT_20 
REMARK    8  A    between atoms: CAU_25  and  CAB_26 
REMARK    9  A    between atoms: NBD_27  and  CAC_28 
ROOT
ATOM      1  C4  X9G d   1       4.118   6.428   4.142  0.00  0.00     0.170 A 
ATOM      2  C5  X9G d   1       5.266   5.701   3.802  0.00  0.00    -0.019 A 
ATOM      3  C6  X9G d   1       5.222   4.870   2.691  0.00  0.00     0.025 A 
ATOM      4  N1  X9G d   1       4.040   4.766   1.939  0.00  0.00    -0.075 NA
ATOM      5  N3  X9G d   1       3.008   6.260   3.380  0.00  0.00    -0.043 NA
ATOM      6  C2  X9G d   1       2.938   5.458   2.291  0.00  0.00     0.728 A 
ATOM      7  H1  X9G d   1       6.170   5.786   4.394  0.00  0.00     0.091 H 
ATOM      8  H2  X9G d   1       6.099   4.302   2.404  0.00  0.00     0.115 H 
ENDROOT
BRANCH   1   9
ATOM      9  NBE X9G d   1       4.087   7.220   5.231  0.00  0.00    -0.225 N 
ATOM     10  CAK X9G d   1       2.973   7.716   5.788  0.00  0.00     0.016 A 
ATOM     11  CAV X9G d   1       3.322   8.398   6.872  0.00  0.00     0.011 A 
ATOM     12  H12 X9G d   1       1.958   7.583   5.416  0.00  0.00     0.115 H 
ATOM     13  CAS X9G d   1       4.647   8.326   6.940  0.00  0.00     0.060 A 
ATOM     14  NAQ X9G d   1       5.071   7.578   5.926  0.00  0.00    -0.171 NA
BRANCH  11  15
ATOM     15  CAL X9G d   1       2.347   9.185   7.794  0.00  0.00     0.110 C 
ATOM     16  H10 X9G d   1       2.918   9.521   8.672  0.00  0.00     0.083 H 
ATOM     17  H11 X9G d   1       1.991  10.061   7.231  0.00  0.00     0.083 H 
BRANCH  15  18
ATOM     18  NBC X9G d   1       1.156   8.454   8.286  0.00  0.00    -0.062 N 
ATOM     19  CAM X9G d   1       1.072   8.180   9.752  0.00  0.00     0.109 C 
ATOM     20  CBB X9G d   1       0.258   6.941   9.340  0.00  0.00     0.082 C 
ATOM     21  H3  X9G d   1       2.033   7.966  10.244  0.00  0.00     0.080 H 
ATOM     22  H4  X9G d   1       0.519   8.930  10.337  0.00  0.00     0.080 H 
ATOM     23  CAN X9G d   1       0.899   7.021   7.977  0.00  0.00     0.109 C 
ATOM     24  H5  X9G d   1       0.453   6.022   9.912  0.00  0.00     0.088 H 
ATOM     25  H7  X9G d   1       0.216   6.845   7.133  0.00  0.00     0.080 H 
ATOM     26  H8  X9G d   1       1.802   6.405   7.853  0.00  0.00     0.080 H 
ATOM     27  H9  X9G d   1       0.372   9.009   7.981  0.00  0.00     0.280 HD
BRANCH  20  28
ATOM     28  OAD X9G d   1      -1.164   7.242   9.278  0.00  0.00    -0.392 OA
ATOM     29  H6  X9G d   1      -1.641   6.461   9.022  0.00  0.00     0.210 HD
ENDBRANCH  20  28
ENDBRANCH  15  18
ENDBRANCH  11  15
BRANCH  13  30
ATOM     30  CAA X9G d   1       5.572   8.962   7.986  0.00  0.00    -0.033 C 
ATOM     31  H13 X9G d   1       6.617   8.709   7.754  0.00  0.00     0.035 H 
ATOM     32  H14 X9G d   1       5.315   8.578   8.984  0.00  0.00     0.035 H 
ATOM     33  H15 X9G d   1       5.447  10.055   7.970  0.00  0.00     0.035 H 
ENDBRANCH  13  30
ENDBRANCH   1   9
BRANCH   6  34
ATOM     34  NAR X9G d   1       1.838   5.308   1.518  0.00  0.00    -0.188 N 
ATOM     35  H16 X9G d   1       1.955   4.814   0.622  0.00  0.00     0.184 HD
BRANCH  34  36
ATOM     36  CAT X9G d   1       0.587   5.756   1.827  0.00  0.00     0.050 A 
ATOM     37  CAJ X9G d   1       0.184   6.623   2.877  0.00  0.00    -0.043 A 
ATOM     38  CAZ X9G d   1      -1.105   6.989   3.037  0.00  0.00     0.017 A 
ATOM     39  H17 X9G d   1       0.930   7.000   3.567  0.00  0.00     0.088 H 
ATOM     40  CAW X9G d   1      -1.725   7.773   3.924  0.00  0.00     0.069 A 
ATOM     41  CBA X9G d   1      -2.066   6.545   2.205  0.00  0.00     0.046 A 
ATOM     42 CL1  X9G d   1      -0.982   8.621   5.228  0.00  0.00    -0.081 Cl
ATOM     43  CAU X9G d   1      -3.020   7.808   3.646  0.00  0.00     0.030 A 
ATOM     44  NBD X9G d   1      -3.245   7.050   2.584  0.00  0.00    -0.353 N 
ATOM     45  CAI X9G d   1      -1.749   5.727   1.198  0.00  0.00    -0.054 A 
ATOM     46  CAH X9G d   1      -0.431   5.320   0.980  0.00  0.00    -0.054 A 
ATOM     47  H24 X9G d   1      -2.531   5.372   0.536  0.00  0.00     0.087 H 
ATOM     48  H25 X9G d   1      -0.199   4.663   0.150  0.00  0.00     0.087 H 
BRANCH  43  49
ATOM     49  CAB X9G d   1      -4.096   8.583   4.413  0.00  0.00    -0.036 C 
ATOM     50  H18 X9G d   1      -3.631   9.127   5.249  0.00  0.00     0.035 H 
ATOM     51  H19 X9G d   1      -4.845   7.880   4.805  0.00  0.00     0.035 H 
ATOM     52  H20 X9G d   1      -4.584   9.300   3.736  0.00  0.00     0.035 H 
ENDBRANCH  43  49
BRANCH  44  53
ATOM     53  CAC X9G d   1      -4.554   6.789   1.927  0.00  0.00    -0.014 C 
ATOM     54  H21 X9G d   1      -5.346   7.338   2.457  0.00  0.00     0.057 H 
ATOM     55  H22 X9G d   1      -4.771   5.711   1.958  0.00  0.00     0.057 H 
ATOM     56  H23 X9G d   1      -4.512   7.125   0.880  0.00  0.00     0.057 H 
ENDBRANCH  44  53
ENDBRANCH  34  36
ENDBRANCH   6  34
TORSDOF 9
