REMARK WARNING: 32 MAX_TORS EXCEEDED!!!
REMARK  64 active torsions:
REMARK  status: ('A' for Active; 'I' for Inactive)
REMARK    1  A    between atoms: N_1  and  CA_2 
REMARK    2  A    between atoms: CA_2  and  C_3 
REMARK    3  A    between atoms: CA_2  and  CB_5 
REMARK       I    between atoms: C_3  and  N_9 
REMARK    4  A    between atoms: CB_5  and  CG_6 
REMARK       I    between atoms: CG_6  and  ND2_8 
REMARK    5  A    between atoms: N_9  and  CA_10 
REMARK    6  A    between atoms: CA_10  and  C_11 
REMARK    7  A    between atoms: CA_10  and  CB_13 
REMARK       I    between atoms: C_11  and  N_17 
REMARK    8  A    between atoms: CB_13  and  CG_14 
REMARK    9  A    between atoms: CG_14  and  CD1_15 
REMARK   10  A    between atoms: CG_14  and  CD2_16 
REMARK   11  A    between atoms: N_17  and  CA_18 
REMARK   12  A    between atoms: CA_18  and  C_19 
REMARK   13  A    between atoms: CA_18  and  CB_21 
REMARK       I    between atoms: C_19  and  N_23 
REMARK   14  A    between atoms: CB_21  and  OG_22 
REMARK   15  A    between atoms: N_23  and  CA_24 
REMARK   16  A    between atoms: CA_24  and  C_25 
REMARK   17  A    between atoms: CA_24  and  CB_27 
REMARK       I    between atoms: C_25  and  N_32 
REMARK   18  A    between atoms: CB_27  and  CG_28 
REMARK   19  A    between atoms: CG_28  and  CD_29 
REMARK   20  A    between atoms: N_32  and  CA_33 
REMARK   21  A    between atoms: CA_33  and  C_34 
REMARK   22  A    between atoms: CA_33  and  CB_36 
REMARK       I    between atoms: C_34  and  N_40 
REMARK   23  A    between atoms: CB_36  and  CG_37 
REMARK   24  A    between atoms: CG_37  and  CD1_38 
REMARK   25  A    between atoms: CG_37  and  CD2_39 
REMARK   26  A    between atoms: N_40  and  CA_41 
REMARK   27  A    between atoms: CA_41  and  C_42 
REMARK   28  A    between atoms: CA_41  and  CB_44 
REMARK       I    between atoms: C_42  and  N_48 
REMARK   29  A    between atoms: CB_44  and  CG_45 
REMARK   30  A    between atoms: N_48  and  CA_49 
REMARK   31  A    between atoms: CA_49  and  C_50 
REMARK   32  A    between atoms: CA_49  and  CB_52 
REMARK       I    between atoms: C_50  and  N_59 
REMARK   33  A    between atoms: CB_52  and  CG_53 
REMARK   34  A    between atoms: CG_53  and  CD_54 
REMARK   35  A    between atoms: CD_54  and  NE_55 
REMARK       I    between atoms: NE_55  and  CZ_56 
REMARK       I    between atoms: CZ_56  and  NH1_57 
REMARK   36  A    between atoms: N_59  and  CA_60 
REMARK   37  A    between atoms: CA_60  and  C_61 
REMARK   38  A    between atoms: CA_60  and  CB_63 
REMARK       I    between atoms: C_61  and  N_67 
REMARK   39  A    between atoms: CB_63  and  CG_64 
REMARK   40  A    between atoms: CG_64  and  CD1_65 
REMARK   41  A    between atoms: CG_64  and  CD2_66 
REMARK   42  A    between atoms: N_67  and  CA_68 
REMARK   43  A    between atoms: CA_68  and  C_69 
REMARK   44  A    between atoms: CA_68  and  CB_71 
REMARK       I    between atoms: C_69  and  N_75 
REMARK   45  A    between atoms: CB_71  and  CG_72 
REMARK   46  A    between atoms: CG_72  and  CD1_73 
REMARK   47  A    between atoms: CG_72  and  CD2_74 
REMARK   48  A    between atoms: N_75  and  CA_76 
REMARK   49  A    between atoms: CA_76  and  C_77 
REMARK   50  A    between atoms: CA_76  and  CB_79 
REMARK       I    between atoms: C_77  and  N_83 
REMARK   51  A    between atoms: CB_79  and  CG_80 
REMARK   52  A    between atoms: CG_80  and  CD1_81 
REMARK   53  A    between atoms: CG_80  and  CD2_82 
REMARK   54  A    between atoms: N_83  and  CA_84 
REMARK   55  A    between atoms: CA_84  and  C_85 
REMARK   56  A    between atoms: CA_84  and  CB_87 
REMARK       I    between atoms: C_85  and  N_92 
REMARK   57  A    between atoms: CB_87  and  CG_88 
REMARK   58  A    between atoms: CG_88  and  CD_89 
REMARK   59  A    between atoms: N_92  and  CA_93 
REMARK   60  A    between atoms: CA_93  and  C_94 
REMARK   61  A    between atoms: CA_93  and  CB_96 
REMARK   62  A    between atoms: CB_96  and  CG_97 
REMARK   63  A    between atoms: CG_97  and  CD1_98 
REMARK   64  A    between atoms: CG_97  and  CD2_99 
ROOT
ATOM      1  CA  ARG d   1      29.141   1.883 -38.837  0.00  0.00     0.089 C 
ATOM      2  H47 ARG d   1      29.889   2.392 -39.463  0.00  0.00     0.087 H 
ENDROOT
BRANCH   1   3
ATOM      3  N   ARG d   1      27.946   2.732 -38.778  0.00  0.00    -0.346 N 
ATOM      4  C   ASP d   1      27.273   3.065 -39.881  0.00  0.00     0.241 C 
ATOM      5  O   ASP d   1      27.652   2.764 -41.014  0.00  0.00    -0.271 OA
ATOM      6  H46 ARG d   1      27.629   3.069 -37.891  0.00  0.00     0.163 HD
BRANCH   4   7
ATOM      7  CA  ASP d   1      25.977   3.854 -39.694  0.00  0.00     0.098 C 
ATOM      8  H43 ASP d   1      25.348   3.675 -40.578  0.00  0.00     0.088 H 
BRANCH   7   9
ATOM      9  N   ASP d   1      25.218   3.406 -38.521  0.00  0.00    -0.346 N 
ATOM     10  C   LEU d   1      24.698   2.181 -38.460  0.00  0.00     0.241 C 
ATOM     11  O   LEU d   1      24.824   1.355 -39.364  0.00  0.00    -0.271 OA
ATOM     12  H42 ASP d   1      25.088   4.032 -37.752  0.00  0.00     0.163 HD
BRANCH  10  13
ATOM     13  CA  LEU d   1      23.902   1.820 -37.209  0.00  0.00     0.089 C 
ATOM     14  H32 LEU d   1      23.943   0.726 -37.098  0.00  0.00     0.087 H 
BRANCH  13  15
ATOM     15  N   LEU d   1      24.438   2.403 -35.966  0.00  0.00    -0.346 N 
ATOM     16  C   GLU d   1      25.564   1.962 -35.403  0.00  0.00     0.241 C 
ATOM     17  O   GLU d   1      26.280   1.121 -35.952  0.00  0.00    -0.271 OA
ATOM     18  H31 LEU d   1      23.941   3.154 -35.531  0.00  0.00     0.163 HD
BRANCH  16  19
ATOM     19  CA  GLU d   1      25.979   2.578 -34.040  0.00  0.00     0.090 C 
ATOM     20  H26 GLU d   1      26.998   2.974 -34.161  0.00  0.00     0.087 H 
BRANCH  19  21
ATOM     21  N   GLU d   1      25.124   3.690 -33.628  0.00  0.00    -0.346 N 
ATOM     22  C   SER d   1      25.588   4.936 -33.539  0.00  0.00     0.243 C 
ATOM     23  O   SER d   1      26.738   5.240 -33.853  0.00  0.00    -0.271 OA
ATOM     24  H25 GLU d   1      24.165   3.511 -33.407  0.00  0.00     0.163 HD
BRANCH  22  25
ATOM     25  CA  SER d   1      24.629   6.014 -33.026  0.00  0.00     0.109 C 
ATOM     26  H21 SER d   1      24.652   6.846 -33.745  0.00  0.00     0.090 H 
BRANCH  25  27
ATOM     27  N   SER d   1      23.237   5.583 -32.904  0.00  0.00    -0.344 N 
ATOM     28  C   LEU d   1      22.462   5.348 -33.961  0.00  0.00     0.241 C 
ATOM     29  O   LEU d   1      22.873   5.367 -35.118  0.00  0.00    -0.271 OA
ATOM     30  H20 SER d   1      22.851   5.460 -31.990  0.00  0.00     0.163 HD
BRANCH  28  31
ATOM     31  CA  LEU d   1      21.009   4.991 -33.658  0.00  0.00     0.089 C 
ATOM     32  H10 LEU d   1      20.562   4.538 -34.555  0.00  0.00     0.087 H 
BRANCH  31  33
ATOM     33  N   LEU d   1      20.950   4.011 -32.553  0.00  0.00    -0.346 N 
ATOM     34  C   ASN d   1      21.638   2.864 -32.567  0.00  0.00     0.249 C 
ATOM     35  O   ASN d   1      22.184   2.432 -33.569  0.00  0.00    -0.271 OA
ATOM     36  H9  LEU d   1      20.372   4.214 -31.763  0.00  0.00     0.163 HD
BRANCH  34  37
ATOM     37  CA  ASN d   1      21.742   2.060 -31.269  0.00  0.00     0.183 C 
ATOM     38  H4  ASN d   1      22.534   1.312 -31.421  0.00  0.00     0.099 H 
BRANCH  37  39
ATOM     39  N   ASN d   1      22.153   2.890 -30.103  0.00  0.00    -0.066 N 
ATOM     40  H1  ASN d   1      22.205   2.311 -29.280  0.00  0.00     0.275 HD
ATOM     41  H2  ASN d   1      21.476   3.622 -29.956  0.00  0.00     0.275 HD
ATOM     42  H3  ASN d   1      23.056   3.299 -30.283  0.00  0.00     0.275 HD
ENDBRANCH  37  39
BRANCH  37  43
ATOM     43  CB  ASN d   1      20.439   1.289 -30.978  0.00  0.00     0.044 C 
ATOM     44  H5  ASN d   1      19.625   2.013 -30.825  0.00  0.00     0.051 H 
ATOM     45  H6  ASN d   1      20.576   0.693 -30.064  0.00  0.00     0.051 H 
BRANCH  43  46
ATOM     46  CG  ASN d   1      20.055   0.345 -32.135  0.00  0.00     0.217 C 
ATOM     47  OD1 ASN d   1      19.213   0.650 -32.998  0.00  0.00    -0.274 OA
ATOM     48  ND2 ASN d   1      20.721  -0.807 -32.175  0.00  0.00    -0.370 N 
ATOM     49  H7  ASN d   1      20.527  -1.472 -32.897  0.00  0.00     0.159 HD
ATOM     50  H8  ASN d   1      21.415  -1.008 -31.483  0.00  0.00     0.159 HD
ENDBRANCH  43  46
ENDBRANCH  37  43
ENDBRANCH  34  37
ENDBRANCH  31  33
BRANCH  31  51
ATOM     51  CB  LEU d   1      20.211   6.262 -33.298  0.00  0.00    -0.035 C 
ATOM     52  H11 LEU d   1      20.397   6.454 -32.231  0.00  0.00     0.037 H 
ATOM     53  H12 LEU d   1      19.149   6.015 -33.447  0.00  0.00     0.037 H 
BRANCH  51  54
ATOM     54  CG  LEU d   1      20.456   7.599 -34.032  0.00  0.00    -0.059 C 
ATOM     55  H13 LEU d   1      21.443   7.968 -33.717  0.00  0.00     0.038 H 
BRANCH  54  56
ATOM     56  CD1 LEU d   1      20.478   7.480 -35.542  0.00  0.00    -0.073 C 
ATOM     57  H14 LEU d   1      20.657   8.471 -35.985  0.00  0.00     0.028 H 
ATOM     58  H15 LEU d   1      19.511   7.090 -35.893  0.00  0.00     0.028 H 
ATOM     59  H16 LEU d   1      21.282   6.793 -35.844  0.00  0.00     0.028 H 
ENDBRANCH  54  56
BRANCH  54  60
ATOM     60  CD2 LEU d   1      19.413   8.627 -33.620  0.00  0.00    -0.073 C 
ATOM     61  H17 LEU d   1      19.397   8.714 -32.523  0.00  0.00     0.028 H 
ATOM     62  H18 LEU d   1      18.423   8.308 -33.977  0.00  0.00     0.028 H 
ATOM     63  H19 LEU d   1      19.665   9.602 -34.061  0.00  0.00     0.028 H 
ENDBRANCH  54  60
ENDBRANCH  51  54
ENDBRANCH  31  51
ENDBRANCH  28  31
ENDBRANCH  25  27
BRANCH  25  64
ATOM     64  CB  SER d   1      25.134   6.528 -31.675  0.00  0.00     0.044 C 
ATOM     65  H22 SER d   1      24.564   7.427 -31.398  0.00  0.00     0.077 H 
ATOM     66  H23 SER d   1      26.201   6.782 -31.764  0.00  0.00     0.077 H 
BRANCH  64  67
ATOM     67  OG  SER d   1      24.976   5.553 -30.663  0.00  0.00    -0.398 OA
ATOM     68  H24 SER d   1      25.297   5.899 -29.838  0.00  0.00     0.209 HD
ENDBRANCH  64  67
ENDBRANCH  25  64
ENDBRANCH  22  25
ENDBRANCH  19  21
BRANCH  19  69
ATOM     69  CB  GLU d   1      26.019   1.505 -32.922  0.00  0.00    -0.029 C 
ATOM     70  H27 GLU d   1      26.758   0.744 -33.213  0.00  0.00     0.037 H 
ATOM     71  H28 GLU d   1      25.022   1.044 -32.862  0.00  0.00     0.037 H 
BRANCH  69  72
ATOM     72  CG  GLU d   1      26.403   2.024 -31.467  0.00  0.00     0.018 C 
ATOM     73  H29 GLU d   1      25.988   1.328 -30.723  0.00  0.00     0.049 H 
ATOM     74  H30 GLU d   1      25.963   3.022 -31.321  0.00  0.00     0.049 H 
BRANCH  72  75
ATOM     75  CD  GLU d   1      27.906   2.119 -31.260  0.00  0.00     0.172 C 
ATOM     76  OE1 GLU d   1      28.635   2.069 -32.264  0.00  0.00    -0.648 OA
ATOM     77  OE2 GLU d   1      28.372   2.240 -30.100  0.00  0.00    -0.648 OA
ENDBRANCH  72  75
ENDBRANCH  69  72
ENDBRANCH  19  69
ENDBRANCH  16  19
ENDBRANCH  13  15
BRANCH  13  78
ATOM     78  CB  LEU d   1      22.436   2.224 -37.407  0.00  0.00    -0.035 C 
ATOM     79  H33 LEU d   1      22.211   2.118 -38.478  0.00  0.00     0.037 H 
ATOM     80  H34 LEU d   1      22.347   3.281 -37.116  0.00  0.00     0.037 H 
BRANCH  78  81
ATOM     81  CG  LEU d   1      21.367   1.455 -36.643  0.00  0.00    -0.059 C 
ATOM     82  H35 LEU d   1      20.893   0.795 -37.385  0.00  0.00     0.038 H 
BRANCH  81  83
ATOM     83  CD1 LEU d   1      21.876   0.530 -35.540  0.00  0.00    -0.073 C 
ATOM     84  H36 LEU d   1      21.023   0.029 -35.059  0.00  0.00     0.028 H 
ATOM     85  H37 LEU d   1      22.425   1.120 -34.791  0.00  0.00     0.028 H 
ATOM     86  H38 LEU d   1      22.547  -0.226 -35.975  0.00  0.00     0.028 H 
ENDBRANCH  81  83
BRANCH  81  87
ATOM     87  CD2 LEU d   1      20.272   2.381 -36.133  0.00  0.00    -0.073 C 
ATOM     88  H39 LEU d   1      19.930   3.031 -36.952  0.00  0.00     0.028 H 
ATOM     89  H40 LEU d   1      20.667   3.000 -35.314  0.00  0.00     0.028 H 
ATOM     90  H41 LEU d   1      19.427   1.781 -35.764  0.00  0.00     0.028 H 
ENDBRANCH  81  87
ENDBRANCH  78  81
ENDBRANCH  13  78
ENDBRANCH  10  13
ENDBRANCH   7   9
BRANCH   7  91
ATOM     91  CB  ASP d   1      26.280   5.357 -39.632  0.00  0.00     0.043 C 
ATOM     92  H44 ASP d   1      27.121   5.575 -40.307  0.00  0.00     0.052 H 
ATOM     93  H45 ASP d   1      26.561   5.617 -38.601  0.00  0.00     0.052 H 
BRANCH  91  94
ATOM     94  CG  ASP d   1      25.094   6.211 -40.043  0.00  0.00     0.175 C 
ATOM     95  OD1 ASP d   1      24.698   6.153 -41.229  0.00  0.00    -0.648 OA
ATOM     96  OD2 ASP d   1      24.560   6.944 -39.187  0.00  0.00    -0.648 OA
ENDBRANCH  91  94
ENDBRANCH   7  91
ENDBRANCH   4   7
ENDBRANCH   1   3
BRANCH   1  97
ATOM     97  C   ARG d   1      28.821   0.530 -39.476  0.00  0.00     0.241 C 
ATOM     98  O   ARG d   1      29.577   0.045 -40.318  0.00  0.00    -0.271 OA
ATOM     99  N   LEU d   1      27.691  -0.058 -39.083  0.00  0.00    -0.346 N 
ATOM    100  H59 LEU d   1      27.120   0.399 -38.401  0.00  0.00     0.163 HD
BRANCH  99 101
ATOM    101  CA  LEU d   1      27.260  -1.349 -39.616  0.00  0.00     0.089 C 
ATOM    102  H60 LEU d   1      28.090  -2.059 -39.481  0.00  0.00     0.087 H 
BRANCH 101 103
ATOM    103  C   LEU d   1      26.944  -1.281 -41.118  0.00  0.00     0.241 C 
ATOM    104  O   LEU d   1      27.302  -2.193 -41.867  0.00  0.00    -0.271 OA
ATOM    105  N   LEU d   1      26.289  -0.201 -41.550  0.00  0.00    -0.346 N 
ATOM    106  H70 LEU d   1      26.011   0.493 -40.885  0.00  0.00     0.163 HD
BRANCH 105 107
ATOM    107  CA  LEU d   1      25.961   0.005 -42.971  0.00  0.00     0.089 C 
ATOM    108  H71 LEU d   1      25.467  -0.911 -43.328  0.00  0.00     0.087 H 
BRANCH 107 109
ATOM    109  C   LEU d   1      27.201   0.231 -43.841  0.00  0.00     0.241 C 
ATOM    110  O   LEU d   1      27.279  -0.283 -44.960  0.00  0.00    -0.271 OA
ATOM    111  N   LEU d   1      28.163   0.997 -43.331  0.00  0.00    -0.346 N 
ATOM    112  H81 LEU d   1      28.037   1.399 -42.424  0.00  0.00     0.163 HD
BRANCH 111 113
ATOM    113  CA  LEU d   1      29.406   1.266 -44.067  0.00  0.00     0.089 C 
ATOM    114  H82 LEU d   1      29.124   1.615 -45.071  0.00  0.00     0.087 H 
BRANCH 113 115
ATOM    115  C   LEU d   1      30.264   0.005 -44.242  0.00  0.00     0.241 C 
ATOM    116  O   LEU d   1      31.040  -0.087 -45.192  0.00  0.00    -0.271 OA
ATOM    117  N   GLU d   1      30.111  -0.961 -43.336  0.00  0.00    -0.346 N 
ATOM    118  H92 GLU d   1      29.497  -0.805 -42.562  0.00  0.00     0.163 HD
BRANCH 117 119
ATOM    119  CA  GLU d   1      30.813  -2.246 -43.437  0.00  0.00     0.090 C 
ATOM    120  H93 GLU d   1      31.848  -2.034 -43.744  0.00  0.00     0.087 H 
BRANCH 119 121
ATOM    121  C   GLU d   1      30.196  -3.157 -44.515  0.00  0.00     0.241 C 
ATOM    122  O   GLU d   1      30.908  -3.944 -45.145  0.00  0.00    -0.271 OA
ATOM    123  N   LEU d   1      28.886  -3.037 -44.738  0.00  0.00    -0.345 N 
ATOM    124  H98 LEU d   1      28.338  -2.468 -44.124  0.00  0.00     0.163 HD
BRANCH 123 125
ATOM    125  CA  LEU d   1      28.226  -3.717 -45.860  0.00  0.00     0.096 C 
ATOM    126  H99 LEU d   1      28.612  -4.746 -45.918  0.00  0.00     0.089 H 
BRANCH 125 127
ATOM    127  C   LEU d   1      28.547  -2.998 -47.172  0.00  0.00     0.196 C 
ATOM    128  O   LEU d   1      29.488  -3.361 -47.882  0.00  0.00    -0.646 OA
ATOM    129  OXT LEU d   1      27.873  -2.038 -47.552  0.00  0.00    -0.646 OA
ENDBRANCH 125 127
BRANCH 125 130
ATOM    130  CB  LEU d   1      26.702  -3.779 -45.658  0.00  0.00    -0.034 C 
ATOM    131 0H10 LEU d   1      26.245  -3.891 -46.652  0.00  0.00     0.037 H 
ATOM    132 1H10 LEU d   1      26.392  -2.820 -45.218  0.00  0.00     0.037 H 
BRANCH 130 133
ATOM    133  CG  LEU d   1      26.135  -4.894 -44.767  0.00  0.00    -0.059 C 
ATOM    134 2H10 LEU d   1      26.492  -5.855 -45.166  0.00  0.00     0.038 H 
BRANCH 133 135
ATOM    135  CD1 LEU d   1      26.618  -4.781 -43.327  0.00  0.00    -0.073 C 
ATOM    136 3H10 LEU d   1      26.187  -5.598 -42.730  0.00  0.00     0.028 H 
ATOM    137 4H10 LEU d   1      26.300  -3.814 -42.908  0.00  0.00     0.028 H 
ATOM    138 5H10 LEU d   1      27.716  -4.849 -43.302  0.00  0.00     0.028 H 
ENDBRANCH 133 135
BRANCH 133 139
ATOM    139  CD2 LEU d   1      24.613  -4.899 -44.817  0.00  0.00    -0.073 C 
ATOM    140 6H10 LEU d   1      24.281  -4.981 -45.862  0.00  0.00     0.028 H 
ATOM    141 7H10 LEU d   1      24.229  -3.964 -44.383  0.00  0.00     0.028 H 
ATOM    142 8H10 LEU d   1      24.230  -5.755 -44.242  0.00  0.00     0.028 H 
ENDBRANCH 133 139
ENDBRANCH 130 133
ENDBRANCH 125 130
ENDBRANCH 123 125
ENDBRANCH 119 121
BRANCH 119 143
ATOM    143  CB  GLU d   1      30.871  -2.939 -42.064  0.00  0.00    -0.029 C 
ATOM    144  H94 GLU d   1      31.241  -3.966 -42.205  0.00  0.00     0.037 H 
ATOM    145  H95 GLU d   1      29.855  -2.969 -41.644  0.00  0.00     0.037 H 
BRANCH 143 146
ATOM    146  CG  GLU d   1      31.805  -2.210 -41.052  0.00  0.00     0.018 C 
ATOM    147  H96 GLU d   1      31.590  -1.132 -41.092  0.00  0.00     0.049 H 
ATOM    148  H97 GLU d   1      32.849  -2.387 -41.349  0.00  0.00     0.049 H 
BRANCH 146 149
ATOM    149  CD  GLU d   1      31.622  -2.689 -39.612  0.00  0.00     0.172 C 
ATOM    150  OE1 GLU d   1      32.101  -2.320 -38.439  0.00  0.00    -0.648 OA
ATOM    151  OE2 GLU d   1      30.871  -3.574 -39.759  0.00  0.00    -0.648 OA
ENDBRANCH 146 149
ENDBRANCH 143 146
ENDBRANCH 119 143
ENDBRANCH 117 119
ENDBRANCH 113 115
BRANCH 113 152
ATOM    152  CB  LEU d   1      30.216   2.387 -43.393  0.00  0.00    -0.035 C 
ATOM    153  H83 LEU d   1      31.254   2.309 -43.748  0.00  0.00     0.037 H 
ATOM    154  H84 LEU d   1      30.185   2.215 -42.307  0.00  0.00     0.037 H 
BRANCH 152 155
ATOM    155  CG  LEU d   1      29.739   3.833 -43.653  0.00  0.00    -0.059 C 
ATOM    156  H85 LEU d   1      28.645   3.817 -43.765  0.00  0.00     0.038 H 
BRANCH 155 157
ATOM    157  CD1 LEU d   1      30.079   4.731 -42.475  0.00  0.00    -0.073 C 
ATOM    158  H86 LEU d   1      29.731   5.754 -42.681  0.00  0.00     0.028 H 
ATOM    159  H87 LEU d   1      31.168   4.738 -42.322  0.00  0.00     0.028 H 
ATOM    160  H88 LEU d   1      29.584   4.351 -41.569  0.00  0.00     0.028 H 
ENDBRANCH 155 157
BRANCH 155 161
ATOM    161  CD2 LEU d   1      30.337   4.378 -44.943  0.00  0.00    -0.073 C 
ATOM    162  H89 LEU d   1      30.077   3.711 -45.778  0.00  0.00     0.028 H 
ATOM    163  H90 LEU d   1      31.431   4.433 -44.845  0.00  0.00     0.028 H 
ATOM    164  H91 LEU d   1      29.935   5.383 -45.138  0.00  0.00     0.028 H 
ENDBRANCH 155 161
ENDBRANCH 152 155
ENDBRANCH 113 152
ENDBRANCH 111 113
ENDBRANCH 107 109
BRANCH 107 165
ATOM    165  CB  LEU d   1      24.977   1.175 -43.154  0.00  0.00    -0.035 C 
ATOM    166  H72 LEU d   1      25.110   1.557 -44.177  0.00  0.00     0.037 H 
ATOM    167  H73 LEU d   1      25.259   1.955 -42.432  0.00  0.00     0.037 H 
BRANCH 165 168
ATOM    168  CG  LEU d   1      23.460   0.894 -42.960  0.00  0.00    -0.059 C 
ATOM    169  H74 LEU d   1      23.317   0.376 -42.001  0.00  0.00     0.038 H 
BRANCH 168 170
ATOM    170  CD1 LEU d   1      22.674   2.196 -42.926  0.00  0.00    -0.073 C 
ATOM    171  H75 LEU d   1      21.605   1.976 -42.788  0.00  0.00     0.028 H 
ATOM    172  H76 LEU d   1      22.818   2.736 -43.873  0.00  0.00     0.028 H 
ATOM    173  H77 LEU d   1      23.030   2.818 -42.092  0.00  0.00     0.028 H 
ENDBRANCH 168 170
BRANCH 168 174
ATOM    174  CD2 LEU d   1      22.964  -0.008 -44.080  0.00  0.00    -0.073 C 
ATOM    175  H78 LEU d   1      23.546  -0.941 -44.084  0.00  0.00     0.028 H 
ATOM    176  H79 LEU d   1      23.086   0.505 -45.045  0.00  0.00     0.028 H 
ATOM    177  H80 LEU d   1      21.901  -0.240 -43.920  0.00  0.00     0.028 H 
ENDBRANCH 168 174
ENDBRANCH 165 168
ENDBRANCH 107 165
ENDBRANCH 105 107
ENDBRANCH 101 103
BRANCH 101 178
ATOM    178  CB  LEU d   1      26.049  -1.882 -38.836  0.00  0.00    -0.035 C 
ATOM    179  H61 LEU d   1      25.733  -2.818 -39.319  0.00  0.00     0.037 H 
ATOM    180  H62 LEU d   1      25.247  -1.135 -38.923  0.00  0.00     0.037 H 
BRANCH 178 181
ATOM    181  CG  LEU d   1      26.241  -2.179 -37.337  0.00  0.00    -0.059 C 
ATOM    182  H63 LEU d   1      26.790  -1.335 -36.893  0.00  0.00     0.038 H 
BRANCH 181 183
ATOM    183  CD1 LEU d   1      24.890  -2.282 -36.639  0.00  0.00    -0.073 C 
ATOM    184  H64 LEU d   1      25.044  -2.494 -35.571  0.00  0.00     0.028 H 
ATOM    185  H65 LEU d   1      24.304  -3.094 -37.093  0.00  0.00     0.028 H 
ATOM    186  H66 LEU d   1      24.347  -1.332 -36.749  0.00  0.00     0.028 H 
ENDBRANCH 181 183
BRANCH 181 187
ATOM    187  CD2 LEU d   1      27.069  -3.441 -37.115  0.00  0.00    -0.073 C 
ATOM    188  H67 LEU d   1      28.037  -3.340 -37.628  0.00  0.00     0.028 H 
ATOM    189  H68 LEU d   1      26.529  -4.310 -37.519  0.00  0.00     0.028 H 
ATOM    190  H69 LEU d   1      27.239  -3.583 -36.038  0.00  0.00     0.028 H 
ENDBRANCH 181 187
ENDBRANCH 178 181
ENDBRANCH 101 178
ENDBRANCH  99 101
ENDBRANCH   1  97
BRANCH   1 191
ATOM    191  CB  ARG d   1      29.746   1.672 -37.443  0.00  0.00    -0.036 C 
ATOM    192  H48 ARG d   1      28.953   1.311 -36.772  0.00  0.00     0.036 H 
ATOM    193  H49 ARG d   1      30.123   2.639 -37.079  0.00  0.00     0.036 H 
BRANCH 191 194
ATOM    194  CG  ARG d   1      30.893   0.667 -37.416  0.00  0.00    -0.048 C 
ATOM    195  H50 ARG d   1      31.549   0.868 -38.276  0.00  0.00     0.035 H 
ATOM    196  H51 ARG d   1      30.469  -0.344 -37.506  0.00  0.00     0.035 H 
BRANCH 194 197
ATOM    197  CD  ARG d   1      31.734   0.721 -36.151  0.00  0.00     0.009 C 
ATOM    198  H52 ARG d   1      32.123  -0.287 -35.947  0.00  0.00     0.064 H 
ATOM    199  H53 ARG d   1      31.092   1.042 -35.318  0.00  0.00     0.064 H 
BRANCH 197 200
ATOM    200  NE  ARG d   1      32.869   1.649 -36.250  0.00  0.00    -0.227 N 
ATOM    201  CZ  ARG d   1      32.885   2.925 -35.847  0.00  0.00     0.665 C 
ATOM    202  NH1 ARG d   1      31.820   3.496 -35.293  0.00  0.00    -0.235 N 
ATOM    203  NH2 ARG d   1      33.993   3.644 -36.001  0.00  0.00    -0.235 N 
ATOM    204  H55 ARG d   1      31.861   4.480 -34.992  0.00  0.00     0.174 HD
ATOM    205  H56 ARG d   1      30.953   2.954 -35.164  0.00  0.00     0.174 HD
ATOM    206  H57 ARG d   1      34.828   3.218 -36.428  0.00  0.00     0.174 HD
ATOM    207  H58 ARG d   1      34.016   4.627 -35.693  0.00  0.00     0.174 HD
ATOM    208  H54 ARG d   1      33.735   1.282 -36.670  0.00  0.00     0.177 HD
ENDBRANCH 197 200
ENDBRANCH 194 197
ENDBRANCH 191 194
ENDBRANCH   1 191
TORSDOF 64
