REMARK WARNING: 32 MAX_TORS EXCEEDED!!!
REMARK  72 active torsions:
REMARK  status: ('A' for Active; 'I' for Inactive)
REMARK    1  A    between atoms: N_1  and  CA_2 
REMARK    2  A    between atoms: CA_2  and  C_3 
REMARK       I    between atoms: C_3  and  N_5 
REMARK    3  A    between atoms: N_5  and  CA_6 
REMARK    4  A    between atoms: CA_6  and  C_7 
REMARK    5  A    between atoms: CA_6  and  CB_9 
REMARK       I    between atoms: C_7  and  N_11 
REMARK    6  A    between atoms: CB_9  and  OG_10 
REMARK    7  A    between atoms: N_11  and  CA_12 
REMARK    8  A    between atoms: CA_12  and  C_13 
REMARK    9  A    between atoms: CA_12  and  CB_15 
REMARK       I    between atoms: C_13  and  N_16 
REMARK   10  A    between atoms: N_16  and  CA_17 
REMARK   11  A    between atoms: CA_17  and  C_18 
REMARK   12  A    between atoms: CA_17  and  CB_20 
REMARK       I    between atoms: C_18  and  N_23 
REMARK   13  A    between atoms: CB_20  and  OG1_21 
REMARK   14  A    between atoms: CB_20  and  CG2_22 
REMARK   15  A    between atoms: N_23  and  CA_24 
REMARK   16  A    between atoms: CA_24  and  C_25 
REMARK   17  A    between atoms: CA_24  and  CB_27 
REMARK       I    between atoms: C_25  and  N_34 
REMARK   18  A    between atoms: CB_27  and  CG_28 
REMARK   19  A    between atoms: CG_28  and  CD_29 
REMARK   20  A    between atoms: CD_29  and  NE_30 
REMARK       I    between atoms: NE_30  and  CZ_31 
REMARK       I    between atoms: CZ_31  and  NH1_32 
REMARK   21  A    between atoms: N_34  and  CA_35 
REMARK   22  A    between atoms: CA_35  and  C_36 
REMARK   23  A    between atoms: CA_35  and  CB_38 
REMARK       I    between atoms: C_36  and  N_43 
REMARK   24  A    between atoms: CB_38  and  CG_39 
REMARK   25  A    between atoms: CG_39  and  CD_40 
REMARK   26  A    between atoms: N_43  and  CA_44 
REMARK   27  A    between atoms: CA_44  and  C_45 
REMARK   28  A    between atoms: CA_44  and  CB_47 
REMARK       I    between atoms: C_45  and  N_51 
REMARK   29  A    between atoms: CB_47  and  CG_48 
REMARK   30  A    between atoms: CG_48  and  CD1_49 
REMARK   31  A    between atoms: CG_48  and  CD2_50 
REMARK   32  A    between atoms: N_51  and  CA_52 
REMARK   33  A    between atoms: CA_52  and  C_53 
REMARK   34  A    between atoms: CA_52  and  CB_55 
REMARK       I    between atoms: C_53  and  N_59 
REMARK   35  A    between atoms: CB_55  and  CG_56 
REMARK   36  A    between atoms: N_59  and  CA_60 
REMARK   37  A    between atoms: CA_60  and  C_61 
REMARK   38  A    between atoms: CA_60  and  CB_63 
REMARK       I    between atoms: C_61  and  N_68 
REMARK   39  A    between atoms: CB_63  and  CG_64 
REMARK   40  A    between atoms: CG_64  and  CD_65 
REMARK   41  A    between atoms: N_68  and  CA_69 
REMARK   42  A    between atoms: CA_69  and  C_70 
REMARK   43  A    between atoms: CA_69  and  CB_72 
REMARK       I    between atoms: C_70  and  N_76 
REMARK   44  A    between atoms: CB_72  and  CG_73 
REMARK   45  A    between atoms: CG_73  and  CD1_74 
REMARK   46  A    between atoms: CG_73  and  CD2_75 
REMARK   47  A    between atoms: N_76  and  CA_77 
REMARK   48  A    between atoms: CA_77  and  C_78 
REMARK   49  A    between atoms: CA_77  and  CB_80 
REMARK       I    between atoms: C_78  and  N_84 
REMARK   50  A    between atoms: CB_80  and  CG_81 
REMARK   51  A    between atoms: CG_81  and  SD_82 
REMARK   52  A    between atoms: SD_82  and  CE_83 
REMARK   53  A    between atoms: N_84  and  CA_85 
REMARK   54  A    between atoms: CA_85  and  C_86 
REMARK   55  A    between atoms: CA_85  and  CB_88 
REMARK       I    between atoms: C_86  and  N_89 
REMARK   56  A    between atoms: N_89  and  CA_90 
REMARK   57  A    between atoms: CA_90  and  C_91 
REMARK   58  A    between atoms: CA_90  and  CB_93 
REMARK       I    between atoms: C_91  and  N_95 
REMARK   59  A    between atoms: CB_93  and  OG_94 
REMARK   60  A    between atoms: N_95  and  CA_96 
REMARK   61  A    between atoms: CA_96  and  C_97 
REMARK   62  A    between atoms: CA_96  and  CB_99 
REMARK       I    between atoms: C_97  and  N_103 
REMARK   63  A    between atoms: CB_99  and  CG_100 
REMARK   64  A    between atoms: CG_100  and  CD1_101 
REMARK   65  A    between atoms: CG_100  and  CD2_102 
REMARK   66  A    between atoms: N_103  and  CA_104 
REMARK   67  A    between atoms: CA_104  and  C_105 
REMARK   68  A    between atoms: CA_104  and  CB_107 
REMARK       I    between atoms: C_105  and  N_109 
REMARK   69  A    between atoms: CB_107  and  OG_108 
REMARK   70  A    between atoms: N_109  and  CA_110 
REMARK   71  A    between atoms: CA_110  and  C_111 
REMARK   72  A    between atoms: CA_110  and  CB_113 
ROOT
ATOM      1  N   GLU d   1      40.521  -1.602 142.560  0.00  0.00    -0.346 N 
ATOM      2  H57 GLU d   1      40.094  -0.719 142.366  0.00  0.00     0.163 HD
ATOM      3  C   ASP d   1      39.934  -2.441 143.411  0.00  0.00     0.241 C 
ATOM      4  O   ASP d   1      40.390  -3.552 143.648  0.00  0.00    -0.271 OA
ENDROOT
BRANCH   3   5
ATOM      5  CA  ASP d   1      38.657  -1.953 144.132  0.00  0.00     0.098 C 
ATOM      6  H54 ASP d   1      38.500  -2.603 145.006  0.00  0.00     0.088 H 
BRANCH   5   7
ATOM      7  N   ASP d   1      38.809  -0.582 144.624  0.00  0.00    -0.346 N 
ATOM      8  C   LEU d   1      39.778  -0.270 145.485  0.00  0.00     0.241 C 
ATOM      9  O   LEU d   1      40.559  -1.099 145.933  0.00  0.00    -0.271 OA
ATOM     10  H53 ASP d   1      38.179   0.128 144.311  0.00  0.00     0.163 HD
BRANCH   8  11
ATOM     11  CA  LEU d   1      39.909   1.189 145.902  0.00  0.00     0.089 C 
ATOM     12  H43 LEU d   1      40.921   1.341 146.305  0.00  0.00     0.087 H 
BRANCH  11  13
ATOM     13  N   LEU d   1      39.747   2.074 144.752  0.00  0.00    -0.346 N 
ATOM     14  C   GLU d   1      40.625   2.078 143.756  0.00  0.00     0.241 C 
ATOM     15  O   GLU d   1      41.613   1.347 143.730  0.00  0.00    -0.271 OA
ATOM     16  H42 LEU d   1      38.959   2.689 144.714  0.00  0.00     0.163 HD
BRANCH  14  17
ATOM     17  CA  GLU d   1      40.344   3.040 142.608  0.00  0.00     0.090 C 
ATOM     18  H37 GLU d   1      41.024   2.792 141.780  0.00  0.00     0.087 H 
BRANCH  17  19
ATOM     19  N   GLU d   1      38.968   2.914 142.117  0.00  0.00    -0.346 N 
ATOM     20  C   ARG d   1      38.549   1.788 141.555  0.00  0.00     0.241 C 
ATOM     21  O   ARG d   1      39.255   0.778 141.505  0.00  0.00    -0.271 OA
ATOM     22  H36 GLU d   1      38.338   3.686 142.207  0.00  0.00     0.163 HD
BRANCH  20  23
ATOM     23  CA  ARG d   1      37.140   1.788 140.933  0.00  0.00     0.089 C 
ATOM     24  H24 ARG d   1      36.854   0.736 140.783  0.00  0.00     0.087 H 
BRANCH  23  25
ATOM     25  N   ARG d   1      36.094   2.409 141.756  0.00  0.00    -0.346 N 
ATOM     26  C   THR d   1      35.716   1.901 142.921  0.00  0.00     0.243 C 
ATOM     27  O   THR d   1      36.351   1.024 143.482  0.00  0.00    -0.271 OA
ATOM     28  H23 ARG d   1      35.652   3.243 141.427  0.00  0.00     0.163 HD
BRANCH  26  29
ATOM     29  CA  THR d   1      34.437   2.465 143.569  0.00  0.00     0.113 C 
ATOM     30  H17 THR d   1      34.672   2.700 144.618  0.00  0.00     0.091 H 
BRANCH  29  31
ATOM     31  N   THR d   1      33.934   3.696 142.952  0.00  0.00    -0.344 N 
ATOM     32  C   ALA d   1      34.276   4.901 143.396  0.00  0.00     0.240 C 
ATOM     33  O   ALA d   1      35.049   5.067 144.325  0.00  0.00    -0.271 OA
ATOM     34  H16 THR d   1      33.313   3.627 142.171  0.00  0.00     0.163 HD
BRANCH  32  35
ATOM     35  CA  ALA d   1      33.662   6.103 142.688  0.00  0.00     0.086 C 
ATOM     36  H12 ALA d   1      34.358   6.948 142.797  0.00  0.00     0.086 H 
BRANCH  35  37
ATOM     37  N   ALA d   1      33.467   5.872 141.253  0.00  0.00    -0.346 N 
ATOM     38  C   SER d   1      34.493   5.690 140.414  0.00  0.00     0.243 C 
ATOM     39  O   SER d   1      35.664   5.754 140.771  0.00  0.00    -0.271 OA
ATOM     40  H11 ALA d   1      32.536   5.850 140.889  0.00  0.00     0.163 HD
BRANCH  38  41
ATOM     41  CA  SER d   1      34.159   5.379 138.952  0.00  0.00     0.109 C 
ATOM     42  H7  SER d   1      34.844   4.591 138.605  0.00  0.00     0.090 H 
BRANCH  41  43
ATOM     43  N   SER d   1      32.796   4.866 138.853  0.00  0.00    -0.344 N 
ATOM     44  C   GLY d   1      32.496   3.645 139.292  0.00  0.00     0.243 C 
ATOM     45  O   GLY d   1      33.357   2.829 139.633  0.00  0.00    -0.272 OA
ATOM     46  H6  SER d   1      32.080   5.437 138.451  0.00  0.00     0.163 HD
BRANCH  44  47
ATOM     47  CA  GLY d   1      31.021   3.291 139.372  0.00  0.00     0.152 C 
ATOM     48  H4  GLY d   1      30.446   3.996 138.754  0.00  0.00     0.090 H 
ATOM     49  H5  GLY d   1      30.874   2.268 138.994  0.00  0.00     0.090 H 
BRANCH  47  50
ATOM     50  N   GLY d   1      30.536   3.368 140.790  0.00  0.00    -0.071 N 
ATOM     51  H1  GLY d   1      29.557   3.130 140.824  0.00  0.00     0.274 HD
ATOM     52  H2  GLY d   1      30.667   4.304 141.139  0.00  0.00     0.274 HD
ATOM     53  H3  GLY d   1      31.058   2.721 141.359  0.00  0.00     0.274 HD
ENDBRANCH  47  50
ENDBRANCH  44  47
ENDBRANCH  41  43
BRANCH  41  54
ATOM     54  CB  SER d   1      34.374   6.613 138.058  0.00  0.00     0.044 C 
ATOM     55  H8  SER d   1      33.870   6.445 137.095  0.00  0.00     0.077 H 
ATOM     56  H9  SER d   1      35.453   6.745 137.889  0.00  0.00     0.077 H 
BRANCH  54  57
ATOM     57  OG  SER d   1      33.855   7.796 138.645  0.00  0.00    -0.398 OA
ATOM     58  H10 SER d   1      34.008   8.531 138.063  0.00  0.00     0.209 HD
ENDBRANCH  54  57
ENDBRANCH  41  54
ENDBRANCH  38  41
ENDBRANCH  35  37
BRANCH  35  59
ATOM     59  CB  ALA d   1      32.352   6.482 143.352  0.00  0.00    -0.049 C 
ATOM     60  H13 ALA d   1      32.520   6.651 144.426  0.00  0.00     0.030 H 
ATOM     61  H14 ALA d   1      31.624   5.668 143.218  0.00  0.00     0.030 H 
ATOM     62  H15 ALA d   1      31.961   7.402 142.893  0.00  0.00     0.030 H 
ENDBRANCH  35  59
ENDBRANCH  32  35
ENDBRANCH  29  31
BRANCH  29  63
ATOM     63  CB  THR d   1      33.354   1.365 143.549  0.00  0.00     0.060 C 
ATOM     64  H18 THR d   1      32.389   1.813 143.827  0.00  0.00     0.086 H 
BRANCH  63  65
ATOM     65  OG1 THR d   1      33.688   0.349 144.501  0.00  0.00    -0.393 OA
ATOM     66  H19 THR d   1      34.529  -0.030 144.276  0.00  0.00     0.210 HD
ENDBRANCH  63  65
BRANCH  63  67
ATOM     67  CG2 THR d   1      33.226   0.751 142.160  0.00  0.00    -0.050 C 
ATOM     68  H20 THR d   1      32.450  -0.028 142.174  0.00  0.00     0.031 H 
ATOM     69  H21 THR d   1      34.188   0.305 141.866  0.00  0.00     0.031 H 
ATOM     70  H22 THR d   1      32.949   1.533 141.438  0.00  0.00     0.031 H 
ENDBRANCH  63  67
ENDBRANCH  29  63
ENDBRANCH  26  29
ENDBRANCH  23  25
BRANCH  23  71
ATOM     71  CB  ARG d   1      37.172   2.475 139.567  0.00  0.00    -0.036 C 
ATOM     72  H25 ARG d   1      37.386   3.541 139.734  0.00  0.00     0.036 H 
ATOM     73  H26 ARG d   1      36.175   2.367 139.115  0.00  0.00     0.036 H 
BRANCH  71  74
ATOM     74  CG  ARG d   1      38.195   1.949 138.563  0.00  0.00    -0.048 C 
ATOM     75  H27 ARG d   1      37.913   0.932 138.253  0.00  0.00     0.035 H 
ATOM     76  H28 ARG d   1      39.190   1.927 139.032  0.00  0.00     0.035 H 
BRANCH  74  77
ATOM     77  CD  ARG d   1      38.233   2.861 137.337  0.00  0.00     0.009 C 
ATOM     78  H29 ARG d   1      38.907   2.423 136.586  0.00  0.00     0.064 H 
ATOM     79  H30 ARG d   1      38.612   3.849 137.637  0.00  0.00     0.064 H 
BRANCH  77  80
ATOM     80  NE  ARG d   1      36.892   3.021 136.744  0.00  0.00    -0.227 N 
ATOM     81  CZ  ARG d   1      36.371   4.160 136.264  0.00  0.00     0.665 C 
ATOM     82  NH1 ARG d   1      37.052   5.308 136.288  0.00  0.00    -0.235 N 
ATOM     83  NH2 ARG d   1      35.137   4.154 135.758  0.00  0.00    -0.235 N 
ATOM     84  H32 ARG d   1      36.626   6.167 135.912  0.00  0.00     0.174 HD
ATOM     85  H33 ARG d   1      38.003   5.334 136.682  0.00  0.00     0.174 HD
ATOM     86  H34 ARG d   1      34.596   3.278 135.731  0.00  0.00     0.174 HD
ATOM     87  H35 ARG d   1      34.725   5.025 135.394  0.00  0.00     0.174 HD
ATOM     88  H31 ARG d   1      36.300   2.179 136.694  0.00  0.00     0.177 HD
ENDBRANCH  77  80
ENDBRANCH  74  77
ENDBRANCH  71  74
ENDBRANCH  23  71
ENDBRANCH  20  23
ENDBRANCH  17  19
BRANCH  17  89
ATOM     89  CB  GLU d   1      40.630   4.477 143.053  0.00  0.00    -0.029 C 
ATOM     90  H38 GLU d   1      41.601   4.494 143.570  0.00  0.00     0.037 H 
ATOM     91  H39 GLU d   1      39.838   4.789 143.750  0.00  0.00     0.037 H 
BRANCH  89  92
ATOM     92  CG  GLU d   1      40.680   5.472 141.910  0.00  0.00     0.018 C 
ATOM     93  H40 GLU d   1      39.754   5.385 141.322  0.00  0.00     0.049 H 
ATOM     94  H41 GLU d   1      41.544   5.236 141.271  0.00  0.00     0.049 H 
BRANCH  92  95
ATOM     95  CD  GLU d   1      40.813   6.895 142.406  0.00  0.00     0.172 C 
ATOM     96  OE1 GLU d   1      39.828   7.441 142.957  0.00  0.00    -0.648 OA
ATOM     97  OE2 GLU d   1      41.913   7.451 142.257  0.00  0.00    -0.648 OA
ENDBRANCH  92  95
ENDBRANCH  89  92
ENDBRANCH  17  89
ENDBRANCH  14  17
ENDBRANCH  11  13
BRANCH  11  98
ATOM     98  CB  LEU d   1      38.903   1.511 147.012  0.00  0.00    -0.035 C 
ATOM     99  H44 LEU d   1      37.894   1.311 146.622  0.00  0.00     0.037 H 
ATOM    100  H45 LEU d   1      38.998   2.580 147.254  0.00  0.00     0.037 H 
BRANCH  98 101
ATOM    101  CG  LEU d   1      39.070   0.718 148.312  0.00  0.00    -0.059 C 
ATOM    102  H46 LEU d   1      38.770  -0.323 148.119  0.00  0.00     0.038 H 
BRANCH 101 103
ATOM    103  CD1 LEU d   1      40.534   0.708 148.786  0.00  0.00    -0.073 C 
ATOM    104  H47 LEU d   1      40.613   0.131 149.719  0.00  0.00     0.028 H 
ATOM    105  H48 LEU d   1      40.869   1.740 148.964  0.00  0.00     0.028 H 
ATOM    106  H49 LEU d   1      41.166   0.245 148.014  0.00  0.00     0.028 H 
ENDBRANCH 101 103
BRANCH 101 107
ATOM    107  CD2 LEU d   1      38.154   1.287 149.381  0.00  0.00    -0.073 C 
ATOM    108  H50 LEU d   1      37.117   1.282 149.016  0.00  0.00     0.028 H 
ATOM    109  H51 LEU d   1      38.456   2.319 149.612  0.00  0.00     0.028 H 
ATOM    110  H52 LEU d   1      38.225   0.672 150.290  0.00  0.00     0.028 H 
ENDBRANCH 101 107
ENDBRANCH  98 101
ENDBRANCH  11  98
ENDBRANCH   8  11
ENDBRANCH   5   7
BRANCH   5 111
ATOM    111  CB  ASP d   1      37.424  -2.088 143.226  0.00  0.00     0.043 C 
ATOM    112  H55 ASP d   1      37.434  -3.087 142.765  0.00  0.00     0.052 H 
ATOM    113  H56 ASP d   1      37.480  -1.321 142.440  0.00  0.00     0.052 H 
BRANCH 111 114
ATOM    114  CG  ASP d   1      36.116  -1.915 143.980  0.00  0.00     0.175 C 
ATOM    115  OD1 ASP d   1      36.115  -1.997 145.232  0.00  0.00    -0.648 OA
ATOM    116  OD2 ASP d   1      35.084  -1.696 143.313  0.00  0.00    -0.648 OA
ENDBRANCH 111 114
ENDBRANCH   5 111
ENDBRANCH   3   5
BRANCH   1 117
ATOM    117  CA  GLU d   1      41.786  -1.954 141.901  0.00  0.00     0.090 C 
ATOM    118  H58 GLU d   1      41.651  -2.943 141.439  0.00  0.00     0.087 H 
BRANCH 117 119
ATOM    119  C   GLU d   1      42.943  -2.077 142.907  0.00  0.00     0.241 C 
ATOM    120  O   GLU d   1      43.754  -2.995 142.812  0.00  0.00    -0.271 OA
ATOM    121  N   LEU d   1      43.003  -1.175 143.887  0.00  0.00    -0.346 N 
ATOM    122  H63 LEU d   1      42.379  -0.394 143.875  0.00  0.00     0.163 HD
BRANCH 121 123
ATOM    123  CA  LEU d   1      43.964  -1.308 144.978  0.00  0.00     0.089 C 
ATOM    124  H64 LEU d   1      44.974  -1.232 144.548  0.00  0.00     0.087 H 
BRANCH 123 125
ATOM    125  C   LEU d   1      43.840  -2.673 145.659  0.00  0.00     0.241 C 
ATOM    126  O   LEU d   1      44.836  -3.360 145.835  0.00  0.00    -0.271 OA
ATOM    127  N   MET d   1      42.621  -3.072 146.028  0.00  0.00    -0.346 N 
ATOM    128  H74 MET d   1      41.826  -2.510 145.798  0.00  0.00     0.163 HD
BRANCH 127 129
ATOM    129  CA  MET d   1      42.434  -4.333 146.771  0.00  0.00     0.090 C 
ATOM    130  H75 MET d   1      43.121  -4.318 147.630  0.00  0.00     0.087 H 
BRANCH 129 131
ATOM    131  C   MET d   1      42.781  -5.561 145.912  0.00  0.00     0.241 C 
ATOM    132  O   MET d   1      43.447  -6.495 146.382  0.00  0.00    -0.271 OA
ATOM    133  N   ALA d   1      42.344  -5.538 144.653  0.00  0.00    -0.346 N 
ATOM    134  H83 ALA d   1      41.844  -4.735 144.329  0.00  0.00     0.163 HD
BRANCH 133 135
ATOM    135  CA  ALA d   1      42.571  -6.648 143.730  0.00  0.00     0.086 C 
ATOM    136  H84 ALA d   1      42.180  -7.561 144.202  0.00  0.00     0.086 H 
BRANCH 135 137
ATOM    137  C   ALA d   1      44.060  -6.875 143.442  0.00  0.00     0.240 C 
ATOM    138  O   ALA d   1      44.487  -8.005 143.201  0.00  0.00    -0.271 OA
ATOM    139  N   SER d   1      44.845  -5.802 143.494  0.00  0.00    -0.344 N 
ATOM    140  H88 SER d   1      44.441  -4.923 143.747  0.00  0.00     0.163 HD
BRANCH 139 141
ATOM    141  CA  SER d   1      46.276  -5.858 143.196  0.00  0.00     0.109 C 
ATOM    142  H89 SER d   1      46.407  -6.540 142.343  0.00  0.00     0.090 H 
BRANCH 141 143
ATOM    143  C   SER d   1      47.155  -6.383 144.344  0.00  0.00     0.243 C 
ATOM    144  O   SER d   1      48.333  -6.630 144.129  0.00  0.00    -0.271 OA
ATOM    145  N   LEU d   1      46.601  -6.563 145.543  0.00  0.00    -0.346 N 
ATOM    146  H93 LEU d   1      45.613  -6.449 145.649  0.00  0.00     0.163 HD
BRANCH 145 147
ATOM    147  CA  LEU d   1      47.410  -6.925 146.708  0.00  0.00     0.089 C 
ATOM    148  H94 LEU d   1      48.231  -6.197 146.785  0.00  0.00     0.087 H 
BRANCH 147 149
ATOM    149  C   LEU d   1      48.022  -8.329 146.596  0.00  0.00     0.241 C 
ATOM    150  O   LEU d   1      47.385  -9.263 146.099  0.00  0.00    -0.271 OA
ATOM    151  N   SER d   1      49.255  -8.473 147.077  0.00  0.00    -0.344 N 
ATOM    152 4H10 SER d   1      49.721  -7.675 147.460  0.00  0.00     0.163 HD
BRANCH 151 153
ATOM    153  CA  SER d   1      49.954  -9.765 147.064  0.00  0.00     0.109 C 
ATOM    154 5H10 SER d   1      49.209 -10.532 146.807  0.00  0.00     0.090 H 
BRANCH 153 155
ATOM    155  C   SER d   1      50.581 -10.179 148.414  0.00  0.00     0.243 C 
ATOM    156  O   SER d   1      51.170 -11.262 148.513  0.00  0.00    -0.271 OA
ATOM    157  N   ASP d   1      50.447  -9.345 149.446  0.00  0.00    -0.345 N 
ATOM    158 9H10 ASP d   1      49.914  -8.507 149.329  0.00  0.00     0.163 HD
BRANCH 157 159
ATOM    159  CA  ASP d   1      51.062  -9.625 150.748  0.00  0.00     0.093 C 
ATOM    160 0H11 ASP d   1      50.780 -10.644 151.053  0.00  0.00     0.089 H 
BRANCH 159 161
ATOM    161  C   ASP d   1      50.575  -8.648 151.812  0.00  0.00     0.196 C 
ATOM    162  O   ASP d   1      51.360  -8.173 152.634  0.00  0.00    -0.646 OA
ATOM    163  OXT ASP d   1      49.389  -8.319 151.866  0.00  0.00    -0.646 OA
ENDBRANCH 159 161
BRANCH 159 164
ATOM    164  CB  ASP d   1      52.590  -9.547 150.645  0.00  0.00    -0.048 C 
ATOM    165 1H11 ASP d   1      53.035  -9.759 151.628  0.00  0.00     0.030 H 
ATOM    166 2H11 ASP d   1      52.885  -8.539 150.319  0.00  0.00     0.030 H 
ATOM    167 3H11 ASP d   1      52.947 -10.287 149.914  0.00  0.00     0.030 H 
ENDBRANCH 159 164
ENDBRANCH 157 159
ENDBRANCH 153 155
BRANCH 153 168
ATOM    168  CB  SER d   1      51.027  -9.760 145.967  0.00  0.00     0.044 C 
ATOM    169 6H10 SER d   1      50.536  -9.713 144.984  0.00  0.00     0.077 H 
ATOM    170 7H10 SER d   1      51.618 -10.685 146.038  0.00  0.00     0.077 H 
BRANCH 168 171
ATOM    171  OG  SER d   1      51.892  -8.647 146.105  0.00  0.00    -0.398 OA
ATOM    172 8H10 SER d   1      52.545  -8.668 145.416  0.00  0.00     0.209 HD
ENDBRANCH 168 171
ENDBRANCH 153 168
ENDBRANCH 151 153
ENDBRANCH 147 149
BRANCH 147 173
ATOM    173  CB  LEU d   1      46.579  -6.860 147.987  0.00  0.00    -0.035 C 
ATOM    174  H95 LEU d   1      47.248  -7.120 148.821  0.00  0.00     0.037 H 
ATOM    175  H96 LEU d   1      45.790  -7.621 147.899  0.00  0.00     0.037 H 
BRANCH 173 176
ATOM    176  CG  LEU d   1      45.893  -5.542 148.355  0.00  0.00    -0.059 C 
ATOM    177  H97 LEU d   1      45.324  -5.188 147.483  0.00  0.00     0.038 H 
BRANCH 176 178
ATOM    178  CD1 LEU d   1      44.926  -5.786 149.500  0.00  0.00    -0.073 C 
ATOM    179  H98 LEU d   1      44.430  -4.842 149.769  0.00  0.00     0.028 H 
ATOM    180  H99 LEU d   1      45.478  -6.171 150.370  0.00  0.00     0.028 H 
ATOM    181 0H10 LEU d   1      44.170  -6.522 149.191  0.00  0.00     0.028 H 
ENDBRANCH 176 178
BRANCH 176 182
ATOM    182  CD2 LEU d   1      46.911  -4.474 148.725  0.00  0.00    -0.073 C 
ATOM    183 1H10 LEU d   1      47.599  -4.315 147.881  0.00  0.00     0.028 H 
ATOM    184 2H10 LEU d   1      47.481  -4.801 149.607  0.00  0.00     0.028 H 
ATOM    185 3H10 LEU d   1      46.389  -3.533 148.954  0.00  0.00     0.028 H 
ENDBRANCH 176 182
ENDBRANCH 173 176
ENDBRANCH 147 173
ENDBRANCH 145 147
ENDBRANCH 141 143
BRANCH 141 186
ATOM    186  CB  SER d   1      46.769  -4.464 142.785  0.00  0.00     0.044 C 
ATOM    187  H90 SER d   1      46.063  -4.028 142.063  0.00  0.00     0.077 H 
ATOM    188  H91 SER d   1      47.762  -4.553 142.319  0.00  0.00     0.077 H 
BRANCH 186 189
ATOM    189  OG  SER d   1      46.859  -3.619 143.920  0.00  0.00    -0.398 OA
ATOM    190  H92 SER d   1      46.002  -3.539 144.323  0.00  0.00     0.209 HD
ENDBRANCH 186 189
ENDBRANCH 141 186
ENDBRANCH 139 141
ENDBRANCH 135 137
BRANCH 135 191
ATOM    191  CB  ALA d   1      41.803  -6.419 142.440  0.00  0.00    -0.049 C 
ATOM    192  H85 ALA d   1      41.981  -7.260 141.753  0.00  0.00     0.030 H 
ATOM    193  H86 ALA d   1      42.144  -5.484 141.971  0.00  0.00     0.030 H 
ATOM    194  H87 ALA d   1      40.728  -6.347 142.661  0.00  0.00     0.030 H 
ENDBRANCH 135 191
ENDBRANCH 133 135
ENDBRANCH 129 131
BRANCH 129 195
ATOM    195  CB  MET d   1      41.002  -4.454 147.314  0.00  0.00    -0.030 C 
ATOM    196  H76 MET d   1      40.914  -5.420 147.834  0.00  0.00     0.037 H 
ATOM    197  H77 MET d   1      40.310  -4.433 146.459  0.00  0.00     0.037 H 
BRANCH 195 198
ATOM    198  CG  MET d   1      40.587  -3.354 148.286  0.00  0.00    -0.021 C 
ATOM    199  H78 MET d   1      39.532  -3.514 148.552  0.00  0.00     0.049 H 
ATOM    200  H79 MET d   1      40.693  -2.387 147.772  0.00  0.00     0.049 H 
BRANCH 198 201
ATOM    201  SD  MET d   1      41.543  -3.282 149.814  0.00  0.00    -0.173 SA
BRANCH 201 202
ATOM    202  CE  MET d   1      41.089  -4.840 150.576  0.00  0.00    -0.035 C 
ATOM    203  H80 MET d   1      41.607  -4.941 151.541  0.00  0.00     0.041 H 
ATOM    204  H81 MET d   1      41.380  -5.670 149.915  0.00  0.00     0.041 H 
ATOM    205  H82 MET d   1      40.002  -4.865 150.739  0.00  0.00     0.041 H 
ENDBRANCH 201 202
ENDBRANCH 198 201
ENDBRANCH 195 198
ENDBRANCH 129 195
ENDBRANCH 127 129
ENDBRANCH 123 125
BRANCH 123 206
ATOM    206  CB  LEU d   1      43.802  -0.178 146.014  0.00  0.00    -0.035 C 
ATOM    207  H65 LEU d   1      42.832  -0.314 146.514  0.00  0.00     0.037 H 
ATOM    208  H66 LEU d   1      43.805   0.780 145.473  0.00  0.00     0.037 H 
BRANCH 206 209
ATOM    209  CG  LEU d   1      44.892  -0.111 147.103  0.00  0.00    -0.059 C 
ATOM    210  H67 LEU d   1      45.809  -0.539 146.673  0.00  0.00     0.038 H 
BRANCH 209 211
ATOM    211  CD1 LEU d   1      45.211   1.317 147.537  0.00  0.00    -0.073 C 
ATOM    212  H68 LEU d   1      45.992   1.299 148.312  0.00  0.00     0.028 H 
ATOM    213  H69 LEU d   1      44.303   1.788 147.942  0.00  0.00     0.028 H 
ATOM    214  H70 LEU d   1      45.568   1.893 146.670  0.00  0.00     0.028 H 
ENDBRANCH 209 211
BRANCH 209 215
ATOM    215  CD2 LEU d   1      44.511  -0.945 148.313  0.00  0.00    -0.073 C 
ATOM    216  H71 LEU d   1      44.282  -1.972 147.993  0.00  0.00     0.028 H 
ATOM    217  H72 LEU d   1      43.626  -0.506 148.797  0.00  0.00     0.028 H 
ATOM    218  H73 LEU d   1      45.349  -0.961 149.026  0.00  0.00     0.028 H 
ENDBRANCH 209 215
ENDBRANCH 206 209
ENDBRANCH 123 206
ENDBRANCH 121 123
ENDBRANCH 117 119
BRANCH 117 219
ATOM    219  CB  GLU d   1      42.111  -0.965 140.777  0.00  0.00    -0.029 C 
ATOM    220  H59 GLU d   1      43.168  -1.086 140.498  0.00  0.00     0.037 H 
ATOM    221  H60 GLU d   1      41.945   0.057 141.149  0.00  0.00     0.037 H 
BRANCH 219 222
ATOM    222  CG  GLU d   1      41.251  -1.176 139.533  0.00  0.00     0.018 C 
ATOM    223  H61 GLU d   1      40.193  -1.111 139.828  0.00  0.00     0.049 H 
ATOM    224  H62 GLU d   1      41.459  -2.180 139.134  0.00  0.00     0.049 H 
BRANCH 222 225
ATOM    225  CD  GLU d   1      41.504  -0.160 138.430  0.00  0.00     0.172 C 
ATOM    226  OE1 GLU d   1      42.481   0.614 138.528  0.00  0.00    -0.648 OA
ATOM    227  OE2 GLU d   1      40.716  -0.135 137.455  0.00  0.00    -0.648 OA
ENDBRANCH 222 225
ENDBRANCH 219 222
ENDBRANCH 117 219
ENDBRANCH   1 117
TORSDOF 72
