REMARK  6 active torsions:
REMARK  status: ('A' for Active; 'I' for Inactive)
REMARK    1  A    between atoms: C1_1  and  O21_16 
REMARK    2  A    between atoms: C2_2  and  O19_17 
REMARK    3  A    between atoms: C6_6  and  O20_18 
REMARK    4  A    between atoms: O21_16  and  C7_7 
REMARK    5  A    between atoms: C10_10  and  C11_11 
REMARK    6  A    between atoms: C14_14  and  O22_21 
ROOT
ATOM      1  C1  HUL d   1      16.943 -35.371   1.925  0.00  0.00     0.135 A 
ATOM      2  C2  HUL d   1      17.833 -36.415   2.239  0.00  0.00     0.119 A 
ATOM      3  C3  HUL d   1      18.645 -37.014   1.278  0.00  0.00     0.084 A 
ATOM      4  C4  HUL d   1      18.539 -36.558  -0.038  0.00  0.00     0.096 A 
ATOM      5  C5  HUL d   1      17.663 -35.511  -0.371  0.00  0.00    -0.014 A 
ATOM      6  C6  HUL d   1      16.861 -34.921   0.613  0.00  0.00     0.104 A 
ATOM      7  C8  HUL d   1      19.508 -38.063   1.600  0.00  0.00     0.190 A 
ATOM      8  C9  HUL d   1      20.243 -38.676   0.624  0.00  0.00    -0.000 A 
ATOM      9  C10 HUL d   1      20.136 -38.188  -0.664  0.00  0.00     0.090 A 
ATOM     10  O17 HUL d   1      19.311 -37.147  -0.999  0.00  0.00    -0.309 OA
ATOM     11  O18 HUL d   1      19.640 -38.514   2.732  0.00  0.00    -0.287 OA
ATOM     12  H1  HUL d   1      17.608 -35.158  -1.395  0.00  0.00     0.092 H 
ATOM     13  H5  HUL d   1      20.891 -39.520   0.854  0.00  0.00     0.094 H 
ENDROOT
BRANCH   9  14
ATOM     14  C11 HUL d   1      20.746 -38.826  -1.718  0.00  0.00    -0.002 A 
ATOM     15  C12 HUL d   1      21.722 -39.821  -1.488  0.00  0.00    -0.068 A 
ATOM     16  C13 HUL d   1      22.280 -40.453  -2.595  0.00  0.00    -0.050 A 
ATOM     17  H6  HUL d   1      22.026 -40.084  -0.481  0.00  0.00     0.085 H 
ATOM     18  C14 HUL d   1      21.830 -40.109  -3.881  0.00  0.00     0.065 A 
ATOM     19  H7  HUL d   1      23.053 -41.202  -2.467  0.00  0.00     0.087 H 
ATOM     20  C15 HUL d   1      20.841 -39.156  -4.131  0.00  0.00    -0.050 A 
ATOM     21  C16 HUL d   1      20.291 -38.517  -3.022  0.00  0.00    -0.068 A 
ATOM     22  H8  HUL d   1      20.517 -38.925  -5.139  0.00  0.00     0.087 H 
ATOM     23  H12 HUL d   1      19.509 -37.778  -3.159  0.00  0.00     0.085 H 
BRANCH  18  24
ATOM     24  O22 HUL d   1      22.374 -40.744  -4.953  0.00  0.00    -0.361 OA
ATOM     25  H11 HUL d   1      23.029 -41.363  -4.654  0.00  0.00     0.217 HD
ENDBRANCH  18  24
ENDBRANCH   9  14
BRANCH   2  26
ATOM     26  O19 HUL d   1      17.927 -36.882   3.510  0.00  0.00    -0.357 OA
ATOM     27  H9  HUL d   1      17.700 -37.804   3.525  0.00  0.00     0.218 HD
ENDBRANCH   2  26
BRANCH   6  28
ATOM     28  O20 HUL d   1      15.986 -33.901   0.359  0.00  0.00    -0.358 OA
ATOM     29  H10 HUL d   1      15.547 -33.654   1.165  0.00  0.00     0.217 HD
ENDBRANCH   6  28
BRANCH   1  30
ATOM     30  O21 HUL d   1      16.145 -34.785   2.885  0.00  0.00    -0.351 OA
BRANCH  30  31
ATOM     31  C7  HUL d   1      15.765 -35.691   3.969  0.00  0.00     0.011 C 
ATOM     32  H2  HUL d   1      15.133 -35.154   4.691  0.00  0.00     0.067 H 
ATOM     33  H3  HUL d   1      16.670 -36.057   4.476  0.00  0.00     0.067 H 
ATOM     34  H4  HUL d   1      15.206 -36.544   3.555  0.00  0.00     0.067 H 
ENDBRANCH  30  31
ENDBRANCH   1  30
TORSDOF 6
