REMARK  7 active torsions:
REMARK  status: ('A' for Active; 'I' for Inactive)
REMARK    1  A    between atoms: C2_7  and  C8_8 
REMARK    2  A    between atoms: C46_13  and  C22_14 
REMARK    3  A    between atoms: C29_15  and  C6_16 
REMARK    4  A    between atoms: C51_29  and  O52_30 
REMARK    5  A    between atoms: C51_29  and  C53_31 
REMARK    6  A    between atoms: C62_46  and  O66_47 
REMARK    7  A    between atoms: C63_48  and  C67_49 
ROOT
ATOM      1  C13 40P d   1       1.744  -3.087  51.247  0.00  0.00    -0.083 C 
ATOM      2  C18 40P d   1      -3.067   0.337  52.430  0.00  0.00     0.011 C 
ATOM      3  C15 40P d   1      -0.331  -1.868  51.848  0.00  0.00     0.077 C 
ATOM      4  C17 40P d   1      -1.800  -0.087  51.708  0.00  0.00     0.168 C 
ATOM      5  C8  40P d   1       2.427  -4.242  51.130  0.00  0.00     0.015 C 
ATOM      6  C9  40P d   1       1.798  -5.536  50.695  0.00  0.00    -0.034 C 
ATOM      7  C10 40P d   1       0.342  -5.371  50.253  0.00  0.00    -0.048 C 
ATOM      8  C27 40P d   1      -0.434  -4.348  51.069  0.00  0.00     0.010 C 
ATOM      9  C28 40P d   1      -0.449  -4.825  52.544  0.00  0.00    -0.049 C 
ATOM     10  C46 40P d   1      -1.773  -4.590  53.298  0.00  0.00    -0.052 C 
ATOM     11  C29 40P d   1      -2.760  -5.713  53.058  0.00  0.00    -0.037 C 
ATOM     12  C30 40P d   1      -2.588  -6.375  51.697  0.00  0.00     0.018 C 
ATOM     13  N31 40P d   1      -2.646  -5.318  50.665  0.00  0.00    -0.297 NA
ATOM     14  C32 40P d   1      -1.812  -4.407  50.378  0.00  0.00     0.016 C 
ATOM     15  C33 40P d   1      -2.161  -3.464  49.234  0.00  0.00    -0.028 C 
ATOM     16  C34 40P d   1      -3.642  -3.412  48.869  0.00  0.00    -0.057 C 
ATOM     17  C35 40P d   1      -4.450  -2.774  49.983  0.00  0.00    -0.045 C 
ATOM     18  C36 40P d   1      -5.876  -2.413  49.602  0.00  0.00    -0.087 C 
ATOM     19  C38 40P d   1      -6.455  -2.897  48.511  0.00  0.00    -0.119 C 
ATOM     20  C37 40P d   1      -6.650  -1.488  50.517  0.00  0.00    -0.021 C 
ATOM     21  C48 40P d   1      -6.730  -1.966  51.983  0.00  0.00     0.045 C 
ATOM     22  C49 40P d   1      -7.389  -3.326  52.154  0.00  0.00    -0.038 C 
ATOM     23  C50 40P d   1      -7.634  -3.655  53.631  0.00  0.00    -0.029 C 
ATOM     24  C51 40P d   1      -8.236  -2.466  54.384  0.00  0.00     0.110 C 
ATOM     25  O47 40P d   1      -7.340  -0.956  52.776  0.00  0.00    -0.347 OA
ATOM     26  C43 40P d   1      -7.356  -1.267  54.179  0.00  0.00     0.198 C 
ATOM     27  O44 40P d   1      -6.002  -1.489  54.638  0.00  0.00    -0.316 OA
ATOM     28  C42 40P d   1      -7.877  -0.009  54.884  0.00  0.00    -0.005 C 
ATOM     29  C55 40P d   1      -6.627   0.721  55.301  0.00  0.00    -0.008 C 
ATOM     30  C23 40P d   1      -5.457  -0.218  55.049  0.00  0.00     0.168 C 
ATOM     31  O48 40P d   1      -4.624   0.289  54.010  0.00  0.00    -0.349 OA
ATOM     32  C80 40P d   1      -4.759  -0.387  56.366  0.00  0.00    -0.013 C 
ATOM     33  C60 40P d   1      -3.520  -1.241  56.026  0.00  0.00    -0.058 C 
ATOM     34  C81 40P d   1      -2.688  -0.675  54.848  0.00  0.00    -0.040 C 
ATOM     35  C21 40P d   1      -3.528  -0.546  53.596  0.00  0.00     0.047 C 
ATOM     36  O16 40P d   1      -1.682  -1.503  51.507  0.00  0.00    -0.346 OA
ATOM     37  O65 40P d   1      -0.662   0.290  52.452  0.00  0.00    -0.344 OA
ATOM     38  C61 40P d   1       0.379  -0.517  51.914  0.00  0.00     0.092 C 
ATOM     39  C62 40P d   1       0.781   0.103  50.567  0.00  0.00     0.066 C 
ATOM     40  C63 40P d   1      -0.426   0.263  49.627  0.00  0.00    -0.025 C 
ATOM     41  C64 40P d   1      -1.676   0.665  50.382  0.00  0.00    -0.007 C 
ATOM     42  C12 40P d   1       0.258  -2.960  50.934  0.00  0.00     0.003 C 
ATOM     43  H1  40P d   1       2.280  -2.200  51.582  0.00  0.00     0.078 H 
ATOM     44  H2  40P d   1      -3.880   0.361  51.689  0.00  0.00     0.044 H 
ATOM     45  H3  40P d   1      -2.901   1.350  52.825  0.00  0.00     0.044 H 
ATOM     46  H4  40P d   1      -0.327  -2.296  52.861  0.00  0.00     0.088 H 
ATOM     47  H5  40P d   1       1.831  -6.243  51.537  0.00  0.00     0.040 H 
ATOM     48  H6  40P d   1       2.377  -5.942  49.852  0.00  0.00     0.040 H 
ATOM     49  H7  40P d   1      -0.162  -6.344  50.347  0.00  0.00     0.035 H 
ATOM     50  H8  40P d   1       0.333  -5.054  49.200  0.00  0.00     0.035 H 
ATOM     51  H9  40P d   1       0.348  -4.291  53.082  0.00  0.00     0.035 H 
ATOM     52  H10 40P d   1      -0.239  -5.905  52.554  0.00  0.00     0.035 H 
ATOM     53  H11 40P d   1      -2.213  -3.654  52.924  0.00  0.00     0.040 H 
ATOM     54  H15 40P d   1      -2.565  -6.483  53.819  0.00  0.00     0.042 H 
ATOM     55  H19 40P d   1      -3.396  -7.103  51.531  0.00  0.00     0.067 H 
ATOM     56  H20 40P d   1      -1.616  -6.888  51.651  0.00  0.00     0.067 H 
ATOM     57  H21 40P d   1      -1.601  -3.786  48.343  0.00  0.00     0.041 H 
ATOM     58  H22 40P d   1      -1.844  -2.450  49.519  0.00  0.00     0.041 H 
ATOM     59  H23 40P d   1      -4.008  -4.436  48.699  0.00  0.00     0.034 H 
ATOM     60  H24 40P d   1      -3.766  -2.821  47.950  0.00  0.00     0.034 H 
ATOM     61  H25 40P d   1      -3.935  -1.854  50.297  0.00  0.00     0.039 H 
ATOM     62  H26 40P d   1      -4.488  -3.479  50.827  0.00  0.00     0.039 H 
ATOM     63  H27 40P d   1      -7.479  -2.617  48.268  0.00  0.00     0.067 H 
ATOM     64  H28 40P d   1      -5.906  -3.574  47.858  0.00  0.00     0.067 H 
ATOM     65  H29 40P d   1      -7.675  -1.397  50.128  0.00  0.00     0.043 H 
ATOM     66  H30 40P d   1      -6.163  -0.502  50.502  0.00  0.00     0.043 H 
ATOM     67  H31 40P d   1      -5.696  -2.078  52.340  0.00  0.00     0.083 H 
ATOM     68  H32 40P d   1      -6.734  -4.096  51.721  0.00  0.00     0.036 H 
ATOM     69  H33 40P d   1      -8.353  -3.324  51.624  0.00  0.00     0.036 H 
ATOM     70  H34 40P d   1      -6.676  -3.926  54.099  0.00  0.00     0.037 H 
ATOM     71  H35 40P d   1      -8.328  -4.506  53.696  0.00  0.00     0.037 H 
ATOM     72  H40 40P d   1      -8.485  -0.276  55.761  0.00  0.00     0.041 H 
ATOM     73  H41 40P d   1      -8.477   0.605  54.196  0.00  0.00     0.041 H 
ATOM     74  H42 40P d   1      -6.680   0.980  56.369  0.00  0.00     0.041 H 
ATOM     75  H43 40P d   1      -6.509   1.639  54.706  0.00  0.00     0.041 H 
ATOM     76  H44 40P d   1      -5.406  -0.907  57.087  0.00  0.00     0.041 H 
ATOM     77  H45 40P d   1      -4.460   0.588  56.778  0.00  0.00     0.041 H 
ATOM     78  H46 40P d   1      -3.857  -2.254  55.760  0.00  0.00     0.033 H 
ATOM     79  H47 40P d   1      -2.876  -1.291  56.916  0.00  0.00     0.033 H 
ATOM     80  H48 40P d   1      -1.845  -1.352  54.646  0.00  0.00     0.036 H 
ATOM     81  H49 40P d   1      -2.303   0.317  55.125  0.00  0.00     0.036 H 
ATOM     82  H50 40P d   1      -3.819  -1.546  53.241  0.00  0.00     0.083 H 
ATOM     83  H51 40P d   1       1.259  -0.570  52.571  0.00  0.00     0.091 H 
ATOM     84  H52 40P d   1       1.526  -0.546  50.083  0.00  0.00     0.087 H 
ATOM     85  H54 40P d   1      -0.612  -0.720  49.169  0.00  0.00     0.043 H 
ATOM     86  H58 40P d   1      -1.637   1.745  50.587  0.00  0.00     0.041 H 
ATOM     87  H59 40P d   1      -2.556   0.441  49.761  0.00  0.00     0.041 H 
ATOM     88  H60 40P d   1       0.141  -2.630  49.891  0.00  0.00     0.051 H 
ENDROOT
BRANCH  24  89
ATOM     89  O52 40P d   1      -8.276  -2.764  55.780  0.00  0.00    -0.385 OA
ATOM     90  H36 40P d   1      -7.394  -2.926  56.093  0.00  0.00     0.210 HD
ENDBRANCH  24  89
BRANCH  24  91
ATOM     91  C53 40P d   1      -9.649  -2.163  53.860  0.00  0.00    -0.043 C 
ATOM     92  H37 40P d   1     -10.068  -1.307  54.410  0.00  0.00     0.031 H 
ATOM     93  H38 40P d   1     -10.291  -3.044  54.007  0.00  0.00     0.031 H 
ATOM     94  H39 40P d   1      -9.598  -1.921  52.788  0.00  0.00     0.031 H 
ENDBRANCH  24  91
BRANCH  40  95
ATOM     95  C67 40P d   1      -0.173   1.260  48.492  0.00  0.00    -0.070 C 
ATOM     96  H55 40P d   1      -1.069   1.329  47.858  0.00  0.00     0.028 H 
ATOM     97  H56 40P d   1       0.679   0.918  47.886  0.00  0.00     0.028 H 
ATOM     98  H57 40P d   1       0.053   2.249  48.916  0.00  0.00     0.028 H 
ENDBRANCH  40  95
BRANCH  39  99
ATOM     99  O66 40P d   1       1.354   1.390  50.808  0.00  0.00    -0.393 OA
ATOM    100  H53 40P d   1       2.120   1.296  51.362  0.00  0.00     0.210 HD
ENDBRANCH  39  99
BRANCH  10 101
ATOM    101  C22 40P d   1      -1.544  -4.450  54.812  0.00  0.00    -0.072 C 
ATOM    102  H12 40P d   1      -2.508  -4.284  55.315  0.00  0.00     0.028 H 
ATOM    103  H13 40P d   1      -0.878  -3.596  55.005  0.00  0.00     0.028 H 
ATOM    104  H14 40P d   1      -1.082  -5.370  55.200  0.00  0.00     0.028 H 
ENDBRANCH  10 101
BRANCH  11 105
ATOM    105  C6  40P d   1      -4.198  -5.228  53.253  0.00  0.00    -0.071 C 
ATOM    106  H16 40P d   1      -4.894  -6.061  53.073  0.00  0.00     0.028 H 
ATOM    107  H17 40P d   1      -4.410  -4.414  52.544  0.00  0.00     0.028 H 
ATOM    108  H18 40P d   1      -4.325  -4.860  54.282  0.00  0.00     0.028 H 
ENDBRANCH  11 105
BRANCH   5 109
ATOM    109  C2  40P d   1       3.872  -4.274  51.419  0.00  0.00     0.204 C 
ATOM    110  O1  40P d   1       4.501  -3.229  51.685  0.00  0.00    -0.644 OA
ATOM    111  O3  40P d   1       4.442  -5.374  51.374  0.00  0.00    -0.644 OA
ENDBRANCH   5 109
TORSDOF 7
