REMARK  5 active torsions:
REMARK  status: ('A' for Active; 'I' for Inactive)
REMARK    1  A    between atoms: C8_9  and  S_12 
REMARK    2  A    between atoms: S_12  and  N1'_15 
REMARK    3  A    between atoms: N1'_15  and  C1'_16 
REMARK    4  A    between atoms: C1'_16  and  C2'_17 
REMARK    5  A    between atoms: C2'_17  and  N2'_18 
ROOT
ATOM      1  C1  CKI d   1      27.660  37.282   3.989  0.00  0.00     0.014 A 
ATOM      2  N2  CKI d   1      27.693  37.016   5.332  0.00  0.00    -0.272 NA
ATOM      3  C3  CKI d   1      27.427  35.739   5.773  0.00  0.00     0.003 A 
ATOM      4  C4  CKI d   1      27.130  34.724   4.865  0.00  0.00    -0.054 A 
ATOM      5  C5  CKI d   1      26.800  33.989   2.577  0.00  0.00     0.045 A 
ATOM      6 CL5  CKI d   1      26.447  32.333   2.993  0.00  0.00    -0.083 Cl
ATOM      7  C6  CKI d   1      26.769  34.266   1.216  0.00  0.00    -0.060 A 
ATOM      8  C7  CKI d   1      27.036  35.558   0.777  0.00  0.00    -0.058 A 
ATOM      9  C8  CKI d   1      27.331  36.556   1.692  0.00  0.00     0.092 A 
ATOM     10  C9  CKI d   1      27.361  36.268   3.067  0.00  0.00     0.017 A 
ATOM     11  C10 CKI d   1      27.101  35.011   3.507  0.00  0.00     0.000 A 
ATOM     12  H1  CKI d   1      27.867  38.285   3.635  0.00  0.00     0.116 H 
ATOM     13  H2  CKI d   1      27.449  35.521   6.835  0.00  0.00     0.114 H 
ATOM     14  H3  CKI d   1      26.924  33.719   5.216  0.00  0.00     0.087 H 
ATOM     15  H4  CKI d   1      26.539  33.482   0.503  0.00  0.00     0.086 H 
ATOM     16  H5  CKI d   1      27.013  35.785  -0.283  0.00  0.00     0.086 H 
ENDROOT
BRANCH   9  17
ATOM     17  S   CKI d   1      27.622  38.047   0.782  0.00  0.00     0.259 S 
ATOM     18  O1S CKI d   1      26.808  38.107  -0.406  0.00  0.00    -0.201 OA
ATOM     19  O2S CKI d   1      27.173  39.207   1.507  0.00  0.00    -0.201 OA
BRANCH  17  20
ATOM     20  N1' CKI d   1      29.223  38.143   0.402  0.00  0.00    -0.314 N 
ATOM     21  H6  CKI d   1      29.721  37.334   0.089  0.00  0.00     0.172 HD
BRANCH  20  22
ATOM     22  C1' CKI d   1      29.883  39.393   0.527  0.00  0.00     0.025 C 
ATOM     23  H7  CKI d   1      30.273  39.504   1.550  0.00  0.00     0.067 H 
ATOM     24  H8  CKI d   1      29.175  40.207   0.314  0.00  0.00     0.067 H 
BRANCH  22  25
ATOM     25  C2' CKI d   1      31.024  39.443  -0.458  0.00  0.00     0.095 C 
ATOM     26  H9  CKI d   1      30.755  40.101  -1.298  0.00  0.00     0.077 H 
ATOM     27  H10 CKI d   1      31.226  38.430  -0.836  0.00  0.00     0.077 H 
BRANCH  25  28
ATOM     28  N2' CKI d   1      32.192  39.951   0.188  0.00  0.00    -0.078 N 
ATOM     29  H11 CKI d   1      32.953  39.984  -0.472  0.00  0.00     0.274 HD
ATOM     30  H12 CKI d   1      32.440  39.348   0.957  0.00  0.00     0.274 HD
ATOM     31  H13 CKI d   1      32.008  40.879   0.534  0.00  0.00     0.274 HD
ENDBRANCH  25  28
ENDBRANCH  22  25
ENDBRANCH  20  22
ENDBRANCH  17  20
ENDBRANCH   9  17
TORSDOF 5
