REMARK WARNING: 32 MAX_TORS EXCEEDED!!!
REMARK  50 active torsions:
REMARK  status: ('A' for Active; 'I' for Inactive)
REMARK    1  A    between atoms: N_1  and  CA_2 
REMARK    2  A    between atoms: CA_2  and  C_3 
REMARK    3  A    between atoms: CA_2  and  CB_5 
REMARK       I    between atoms: C_3  and  N_9 
REMARK    4  A    between atoms: CB_5  and  CG_6 
REMARK    5  A    between atoms: N_9  and  CA_10 
REMARK    6  A    between atoms: CA_10  and  C_11 
REMARK    7  A    between atoms: CA_10  and  CB_13 
REMARK       I    between atoms: C_11  and  N_15 
REMARK    8  A    between atoms: CB_13  and  OG_14 
REMARK    9  A    between atoms: N_15  and  CA_16 
REMARK   10  A    between atoms: CA_16  and  C_17 
REMARK   11  A    between atoms: CA_16  and  CB_19 
REMARK       I    between atoms: C_17  and  N_24 
REMARK   12  A    between atoms: CB_19  and  CG_20 
REMARK   13  A    between atoms: CG_20  and  CD_21 
REMARK   14  A    between atoms: CD_21  and  CE_22 
REMARK   15  A    between atoms: CE_22  and  NZ_23 
REMARK   16  A    between atoms: N_24  and  CA_25 
REMARK   17  A    between atoms: CA_25  and  C_26 
REMARK   18  A    between atoms: CA_25  and  CB_28 
REMARK       I    between atoms: C_26  and  N_32 
REMARK   19  A    between atoms: CB_28  and  CG_29 
REMARK   20  A    between atoms: N_32  and  CA_33 
REMARK   21  A    between atoms: CA_33  and  C_34 
REMARK   22  A    between atoms: CA_33  and  CB_36 
REMARK       I    between atoms: C_34  and  N_39 
REMARK   23  A    between atoms: CB_36  and  CG1_37 
REMARK   24  A    between atoms: CB_36  and  CG2_38 
REMARK   25  A    between atoms: N_39  and  CA_40 
REMARK   26  A    between atoms: CA_40  and  C_41 
REMARK   27  A    between atoms: CA_40  and  CB_43 
REMARK       I    between atoms: C_41  and  N_48 
REMARK   28  A    between atoms: CB_43  and  CG_44 
REMARK   29  A    between atoms: CG_44  and  CD_45 
REMARK   30  A    between atoms: CD_45  and  CE_46 
REMARK   31  A    between atoms: CE_46  and  NZ_47 
REMARK   32  A    between atoms: N_48  and  CA_49 
REMARK   33  A    between atoms: CA_49  and  C_50 
REMARK   34  A    between atoms: CA_49  and  CB_52 
REMARK       I    between atoms: C_50  and  N_57 
REMARK   35  A    between atoms: CB_52  and  CG_53 
REMARK   36  A    between atoms: CG_53  and  CD_54 
REMARK   37  A    between atoms: N_57  and  CA_58 
REMARK   38  A    between atoms: CA_58  and  C_59 
REMARK   39  A    between atoms: CA_58  and  CB_61 
REMARK       I    between atoms: C_59  and  N_71 
REMARK   40  A    between atoms: CB_61  and  CG_62 
REMARK   41  A    between atoms: N_71  and  CA_72 
REMARK   42  A    between atoms: CA_72  and  C_73 
REMARK   43  A    between atoms: CA_72  and  CB_75 
REMARK       I    between atoms: C_73  and  N_83 
REMARK   44  A    between atoms: CB_75  and  CG_76 
REMARK   45  A    between atoms: CZ_81  and  OH_82 
REMARK   46  A    between atoms: N_83  and  CA_84 
REMARK   47  A    between atoms: CA_84  and  C_85 
REMARK   48  A    between atoms: CA_84  and  CB_87 
REMARK   49  A    between atoms: CB_87  and  CG1_88 
REMARK   50  A    between atoms: CB_87  and  CG2_89 
ROOT
ATOM      1  CA  LYS d   1      -6.587   7.300  10.583  0.00  0.00     0.089 C 
ATOM      2  H39 LYS d   1      -7.131   6.387  10.298  0.00  0.00     0.087 H 
ENDROOT
BRANCH   1   3
ATOM      3  N   LYS d   1      -5.378   6.900  11.241  0.00  0.00    -0.346 N 
ATOM      4  C   VAL d   1      -4.532   6.025  10.708  0.00  0.00     0.241 C 
ATOM      5  O   VAL d   1      -4.721   5.498   9.616  0.00  0.00    -0.271 OA
ATOM      6  H38 LYS d   1      -5.163   7.294  12.135  0.00  0.00     0.163 HD
BRANCH   4   7
ATOM      7  CA  VAL d   1      -3.280   5.704  11.525  0.00  0.00     0.092 C 
ATOM      8  H30 VAL d   1      -3.486   5.994  12.566  0.00  0.00     0.088 H 
BRANCH   7   9
ATOM      9  N   VAL d   1      -2.984   4.277  11.500  0.00  0.00    -0.346 N 
ATOM     10  C   ASP d   1      -3.768   3.423  12.140  0.00  0.00     0.241 C 
ATOM     11  O   ASP d   1      -4.792   3.781  12.707  0.00  0.00    -0.271 OA
ATOM     12  H29 VAL d   1      -2.187   3.942  10.998  0.00  0.00     0.163 HD
BRANCH  10  13
ATOM     13  CA  ASP d   1      -3.402   1.930  12.141  0.00  0.00     0.098 C 
ATOM     14  H26 ASP d   1      -4.093   1.436  11.442  0.00  0.00     0.088 H 
BRANCH  13  15
ATOM     15  N   ASP d   1      -2.022   1.664  11.637  0.00  0.00    -0.346 N 
ATOM     16  C   LYS d   1      -1.792   1.330  10.353  0.00  0.00     0.241 C 
ATOM     17  O   LYS d   1      -2.659   1.337   9.453  0.00  0.00    -0.271 OA
ATOM     18  H25 ASP d   1      -1.250   1.736  12.268  0.00  0.00     0.163 HD
BRANCH  16  19
ATOM     19  CA  LYS d   1      -0.372   0.901   9.994  0.00  0.00     0.089 C 
ATOM     20  H13 LYS d   1      -0.279   0.962   8.900  0.00  0.00     0.087 H 
BRANCH  19  21
ATOM     21  N   LYS d   1       0.664   1.763  10.564  0.00  0.00    -0.346 N 
ATOM     22  C   SER d   1       0.601   3.068  10.423  0.00  0.00     0.243 C 
ATOM     23  O   SER d   1      -0.368   3.638   9.934  0.00  0.00    -0.271 OA
ATOM     24  H12 LYS d   1       1.427   1.355  11.066  0.00  0.00     0.163 HD
BRANCH  22  25
ATOM     25  CA  SER d   1       1.804   3.846  10.908  0.00  0.00     0.109 C 
ATOM     26  H8  SER d   1       1.456   4.836  11.239  0.00  0.00     0.090 H 
BRANCH  25  27
ATOM     27  N   SER d   1       2.468   3.210  12.045  0.00  0.00    -0.344 N 
ATOM     28  C   ASP d   1       1.804   3.043  13.170  0.00  0.00     0.249 C 
ATOM     29  O   ASP d   1       0.634   3.359  13.294  0.00  0.00    -0.271 OA
ATOM     30  H7  SER d   1       3.417   2.905  11.969  0.00  0.00     0.163 HD
BRANCH  28  31
ATOM     31  CA  ASP d   1       2.545   2.391  14.324  0.00  0.00     0.185 C 
ATOM     32  H4  ASP d   1       3.607   2.677  14.298  0.00  0.00     0.100 H 
BRANCH  31  33
ATOM     33  N   ASP d   1       1.939   2.870  15.571  0.00  0.00    -0.066 N 
ATOM     34  H1  ASP d   1       2.412   2.452  16.357  0.00  0.00     0.275 HD
ATOM     35  H2  ASP d   1       0.964   2.614  15.591  0.00  0.00     0.275 HD
ATOM     36  H3  ASP d   1       2.024   3.873  15.622  0.00  0.00     0.275 HD
ENDBRANCH  31  33
BRANCH  31  37
ATOM     37  CB  ASP d   1       2.429   0.861  14.196  0.00  0.00     0.050 C 
ATOM     38  H5  ASP d   1       3.191   0.401  14.842  0.00  0.00     0.052 H 
ATOM     39  H6  ASP d   1       2.622   0.586  13.149  0.00  0.00     0.052 H 
BRANCH  37  40
ATOM     40  CG  ASP d   1       1.084   0.313  14.588  0.00  0.00     0.175 C 
ATOM     41  OD1 ASP d   1       0.056   1.020  14.798  0.00  0.00    -0.648 OA
ATOM     42  OD2 ASP d   1       1.118  -0.901  14.757  0.00  0.00    -0.648 OA
ENDBRANCH  37  40
ENDBRANCH  31  37
ENDBRANCH  28  31
ENDBRANCH  25  27
BRANCH  25  43
ATOM     43  CB  SER d   1       2.780   4.046   9.738  0.00  0.00     0.044 C 
ATOM     44  H9  SER d   1       2.233   4.432   8.865  0.00  0.00     0.077 H 
ATOM     45  H10 SER d   1       3.248   3.084   9.481  0.00  0.00     0.077 H 
BRANCH  43  46
ATOM     46  OG  SER d   1       3.784   4.975  10.117  0.00  0.00    -0.398 OA
ATOM     47  H11 SER d   1       4.255   4.640  10.871  0.00  0.00     0.209 HD
ENDBRANCH  43  46
ENDBRANCH  25  43
ENDBRANCH  22  25
ENDBRANCH  19  21
BRANCH  19  48
ATOM     48  CB  LYS d   1      -0.148  -0.556  10.404  0.00  0.00    -0.038 C 
ATOM     49  H14 LYS d   1      -0.257  -0.630  11.496  0.00  0.00     0.036 H 
ATOM     50  H15 LYS d   1       0.874  -0.845  10.117  0.00  0.00     0.036 H 
BRANCH  48  51
ATOM     51  CG  LYS d   1      -1.124  -1.532   9.756  0.00  0.00    -0.061 C 
ATOM     52  H16 LYS d   1      -1.289  -1.217   8.715  0.00  0.00     0.033 H 
ATOM     53  H17 LYS d   1      -2.075  -1.488  10.308  0.00  0.00     0.033 H 
BRANCH  51  54
ATOM     54  CD  LYS d   1      -0.647  -2.959   9.748  0.00  0.00    -0.043 C 
ATOM     55  H18 LYS d   1       0.115  -3.075   8.963  0.00  0.00     0.035 H 
ATOM     56  H19 LYS d   1      -1.500  -3.618   9.531  0.00  0.00     0.035 H 
BRANCH  54  57
ATOM     57  CE  LYS d   1      -0.064  -3.347  11.035  0.00  0.00     0.080 C 
ATOM     58  H20 LYS d   1      -0.762  -3.075  11.841  0.00  0.00     0.075 H 
ATOM     59  H21 LYS d   1       0.885  -2.809  11.175  0.00  0.00     0.075 H 
BRANCH  57  60
ATOM     60  NZ  LYS d   1       0.196  -4.808  11.094  0.00  0.00    -0.079 N 
ATOM     61  H22 LYS d   1       0.596  -5.042  11.989  0.00  0.00     0.274 HD
ATOM     62  H23 LYS d   1       0.839  -5.065  10.361  0.00  0.00     0.274 HD
ATOM     63  H24 LYS d   1      -0.670  -5.309  10.972  0.00  0.00     0.274 HD
ENDBRANCH  57  60
ENDBRANCH  54  57
ENDBRANCH  51  54
ENDBRANCH  48  51
ENDBRANCH  19  48
ENDBRANCH  16  19
ENDBRANCH  13  15
BRANCH  13  64
ATOM     64  CB  ASP d   1      -3.630   1.291  13.527  0.00  0.00     0.043 C 
ATOM     65  H27 ASP d   1      -3.301   0.242  13.486  0.00  0.00     0.052 H 
ATOM     66  H28 ASP d   1      -4.705   1.329  13.756  0.00  0.00     0.052 H 
BRANCH  64  67
ATOM     67  CG  ASP d   1      -2.873   1.991  14.648  0.00  0.00     0.175 C 
ATOM     68  OD1 ASP d   1      -2.005   2.832  14.338  0.00  0.00    -0.648 OA
ATOM     69  OD2 ASP d   1      -3.152   1.704  15.833  0.00  0.00    -0.648 OA
ENDBRANCH  64  67
ENDBRANCH  13  64
ENDBRANCH  10  13
ENDBRANCH   7   9
BRANCH   7  70
ATOM     70  CB  VAL d   1      -2.020   6.482  11.057  0.00  0.00    -0.033 C 
ATOM     71  H31 VAL d   1      -1.666   6.042  10.113  0.00  0.00     0.042 H 
BRANCH  70  72
ATOM     72  CG1 VAL d   1      -2.294   7.941  10.817  0.00  0.00    -0.071 C 
ATOM     73  H32 VAL d   1      -1.369   8.439  10.489  0.00  0.00     0.028 H 
ATOM     74  H33 VAL d   1      -2.650   8.405  11.749  0.00  0.00     0.028 H 
ATOM     75  H34 VAL d   1      -3.063   8.046  10.038  0.00  0.00     0.028 H 
ENDBRANCH  70  72
BRANCH  70  76
ATOM     76  CG2 VAL d   1      -0.917   6.304  12.148  0.00  0.00    -0.071 C 
ATOM     77  H35 VAL d   1      -0.731   5.232  12.309  0.00  0.00     0.028 H 
ATOM     78  H36 VAL d   1      -1.254   6.763  13.089  0.00  0.00     0.028 H 
ATOM     79  H37 VAL d   1       0.011   6.791  11.814  0.00  0.00     0.028 H 
ENDBRANCH  70  76
ENDBRANCH   7  70
ENDBRANCH   4   7
ENDBRANCH   1   3
BRANCH   1  80
ATOM     80  C   LYS d   1      -6.329   8.117   9.334  0.00  0.00     0.241 C 
ATOM     81  O   LYS d   1      -5.458   8.975   9.315  0.00  0.00    -0.271 OA
ATOM     82  N   GLU d   1      -7.114   7.869   8.293  0.00  0.00    -0.346 N 
ATOM     83  H51 GLU d   1      -7.719   7.073   8.325  0.00  0.00     0.163 HD
BRANCH  82  84
ATOM     84  CA  GLU d   1      -7.127   8.711   7.109  0.00  0.00     0.090 C 
ATOM     85  H52 GLU d   1      -6.089   8.859   6.777  0.00  0.00     0.087 H 
BRANCH  84  86
ATOM     86  C   GLU d   1      -7.725  10.064   7.397  0.00  0.00     0.241 C 
ATOM     87  O   GLU d   1      -8.611  10.197   8.273  0.00  0.00    -0.271 OA
ATOM     88  N   TRP d   1      -7.257  11.098   6.710  0.00  0.00    -0.346 N 
ATOM     89  H57 TRP d   1      -6.520  10.949   6.051  0.00  0.00     0.163 HD
BRANCH  88  90
ATOM     90  CA  TRP d   1      -7.782  12.438   6.886  0.00  0.00     0.093 C 
ATOM     91  H58 TRP d   1      -8.406  12.441   7.792  0.00  0.00     0.088 H 
BRANCH  90  92
ATOM     92  C   TRP d   1      -8.643  12.849   5.694  0.00  0.00     0.241 C 
ATOM     93  O   TRP d   1      -8.226  12.762   4.536  0.00  0.00    -0.271 OA
ATOM     94  N   TYR d   1      -9.859  13.301   5.986  0.00  0.00    -0.346 N 
ATOM     95  H67 TYR d   1     -10.118  13.353   6.951  0.00  0.00     0.163 HD
BRANCH  94  96
ATOM     96  CA  TYR d   1     -10.840  13.726   4.996  0.00  0.00     0.093 C 
ATOM     97  H68 TYR d   1     -10.725  13.085   4.110  0.00  0.00     0.088 H 
BRANCH  96  98
ATOM     98  C   TYR d   1     -10.637  15.167   4.553  0.00  0.00     0.241 C 
ATOM     99  O   TYR d   1     -10.372  16.056   5.371  0.00  0.00    -0.271 OA
ATOM    100  N   VAL d   1     -10.711  15.369   3.230  0.00  0.00    -0.344 N 
ATOM    101  H76 VAL d   1     -10.946  14.591   2.647  0.00  0.00     0.163 HD
BRANCH 100 102
ATOM    102  CA  VAL d   1     -10.467  16.665   2.588  0.00  0.00     0.099 C 
ATOM    103  H77 VAL d   1     -10.581  17.453   3.347  0.00  0.00     0.090 H 
BRANCH 102 104
ATOM    104  C   VAL d   1     -11.473  16.924   1.478  0.00  0.00     0.197 C 
ATOM    105  O   VAL d   1     -11.451  18.048   0.942  0.00  0.00    -0.646 OA
ATOM    106  OXT VAL d   1     -12.213  16.010   1.098  0.00  0.00    -0.646 OA
ENDBRANCH 102 104
BRANCH 102 107
ATOM    107  CB  VAL d   1      -9.017  16.728   2.029  0.00  0.00    -0.032 C 
ATOM    108  H78 VAL d   1      -8.843  17.750   1.662  0.00  0.00     0.042 H 
BRANCH 107 109
ATOM    109  CG1 VAL d   1      -7.987  16.431   3.116  0.00  0.00    -0.071 C 
ATOM    110  H79 VAL d   1      -6.976  16.484   2.687  0.00  0.00     0.028 H 
ATOM    111  H80 VAL d   1      -8.161  15.423   3.521  0.00  0.00     0.028 H 
ATOM    112  H81 VAL d   1      -8.082  17.172   3.924  0.00  0.00     0.028 H 
ENDBRANCH 107 109
BRANCH 107 113
ATOM    113  CG2 VAL d   1      -8.831  15.797   0.899  0.00  0.00    -0.071 C 
ATOM    114  H82 VAL d   1      -9.575  16.015   0.118  0.00  0.00     0.028 H 
ATOM    115  H83 VAL d   1      -8.960  14.763   1.251  0.00  0.00     0.028 H 
ATOM    116  H84 VAL d   1      -7.819  15.920   0.485  0.00  0.00     0.028 H 
ENDBRANCH 107 113
ENDBRANCH 102 107
ENDBRANCH 100 102
ENDBRANCH  96  98
BRANCH  96 117
ATOM    117  CB  TYR d   1     -12.284  13.523   5.564  0.00  0.00    -0.014 C 
ATOM    118  H69 TYR d   1     -13.009  13.983   4.877  0.00  0.00     0.043 H 
ATOM    119  H70 TYR d   1     -12.355  14.007   6.549  0.00  0.00     0.043 H 
BRANCH 117 120
ATOM    120  CG  TYR d   1     -12.601  12.067   5.709  0.00  0.00    -0.056 A 
ATOM    121  CD1 TYR d   1     -12.245  11.365   6.838  0.00  0.00    -0.074 A 
ATOM    122  CE1 TYR d   1     -12.399  10.002   6.917  0.00  0.00    -0.051 A 
ATOM    123  H71 TYR d   1     -11.833  11.901   7.686  0.00  0.00     0.084 H 
ATOM    124  CZ  TYR d   1     -12.935   9.313   5.841  0.00  0.00     0.065 A 
ATOM    125  H73 TYR d   1     -12.104   9.470   7.814  0.00  0.00     0.087 H 
ATOM    126  CE2 TYR d   1     -13.350  10.008   4.725  0.00  0.00    -0.051 A 
ATOM    127  CD2 TYR d   1     -13.167  11.363   4.652  0.00  0.00    -0.074 A 
ATOM    128  H74 TYR d   1     -13.822   9.481   3.904  0.00  0.00     0.087 H 
ATOM    129  H72 TYR d   1     -13.468  11.895   3.757  0.00  0.00     0.084 H 
BRANCH 124 130
ATOM    130  OH  TYR d   1     -13.078   7.943   5.839  0.00  0.00    -0.361 OA
ATOM    131  H75 TYR d   1     -13.996   7.722   5.737  0.00  0.00     0.217 HD
ENDBRANCH 124 130
ENDBRANCH 117 120
ENDBRANCH  96 117
ENDBRANCH  94  96
ENDBRANCH  90  92
BRANCH  90 132
ATOM    132  CB  TRP d   1      -6.680  13.478   7.054  0.00  0.00    -0.012 C 
ATOM    133  H59 TRP d   1      -7.145  14.471   6.967  0.00  0.00     0.044 H 
ATOM    134  H60 TRP d   1      -5.962  13.336   6.233  0.00  0.00     0.044 H 
BRANCH 132 135
ATOM    135  CG  TRP d   1      -5.909  13.453   8.335  0.00  0.00    -0.028 A 
ATOM    136  CD1 TRP d   1      -5.485  12.356   9.019  0.00  0.00    -0.015 A 
ATOM    137  NE1 TRP d   1      -4.791  12.743  10.160  0.00  0.00    -0.365 N 
ATOM    138  H61 TRP d   1      -5.663  11.325   8.717  0.00  0.00     0.112 H 
ATOM    139  CE2 TRP d   1      -4.755  14.111  10.229  0.00  0.00     0.042 A 
ATOM    140  H62 TRP d   1      -4.370  12.101  10.847  0.00  0.00     0.165 HD
ATOM    141  CD2 TRP d   1      -5.446  14.601   9.113  0.00  0.00    -0.002 A 
ATOM    142  CZ2 TRP d   1      -4.182  14.957  11.184  0.00  0.00    -0.056 A 
ATOM    143  CE3 TRP d   1      -5.593  15.980   8.983  0.00  0.00    -0.070 A 
ATOM    144  CZ3 TRP d   1      -5.040  16.802   9.922  0.00  0.00    -0.082 A 
ATOM    145  H63 TRP d   1      -6.141  16.396   8.145  0.00  0.00     0.084 H 
ATOM    146  CH2 TRP d   1      -4.316  16.295  10.992  0.00  0.00    -0.081 A 
ATOM    147  H65 TRP d   1      -5.169  17.874   9.830  0.00  0.00     0.083 H 
ATOM    148  H66 TRP d   1      -3.848  16.981  11.689  0.00  0.00     0.083 H 
ATOM    149  H64 TRP d   1      -3.652  14.561  12.043  0.00  0.00     0.086 H 
ENDBRANCH 132 135
ENDBRANCH  90 132
ENDBRANCH  88  90
ENDBRANCH  84  86
BRANCH  84 150
ATOM    150  CB  GLU d   1      -7.900   8.004   5.991  0.00  0.00    -0.029 C 
ATOM    151  H53 GLU d   1      -7.484   6.991   5.887  0.00  0.00     0.037 H 
ATOM    152  H54 GLU d   1      -7.731   8.567   5.061  0.00  0.00     0.037 H 
BRANCH 150 153
ATOM    153  CG  GLU d   1      -9.418   7.866   6.181  0.00  0.00     0.018 C 
ATOM    154  H55 GLU d   1      -9.854   7.677   5.189  0.00  0.00     0.049 H 
ATOM    155  H56 GLU d   1      -9.786   8.829   6.566  0.00  0.00     0.049 H 
BRANCH 153 156
ATOM    156  CD  GLU d   1      -9.933   6.792   7.104  0.00  0.00     0.172 C 
ATOM    157  OE1 GLU d   1      -9.121   6.073   7.715  0.00  0.00    -0.648 OA
ATOM    158  OE2 GLU d   1     -11.195   6.682   7.179  0.00  0.00    -0.648 OA
ENDBRANCH 153 156
ENDBRANCH 150 153
ENDBRANCH  84 150
ENDBRANCH  82  84
ENDBRANCH   1  80
BRANCH   1 159
ATOM    159  CB  LYS d   1      -7.483   8.140  11.507  0.00  0.00    -0.038 C 
ATOM    160  H40 LYS d   1      -8.300   8.570  10.909  0.00  0.00     0.036 H 
ATOM    161  H41 LYS d   1      -6.880   8.951  11.940  0.00  0.00     0.036 H 
BRANCH 159 162
ATOM    162  CG  LYS d   1      -8.087   7.323  12.642  0.00  0.00    -0.061 C 
ATOM    163  H42 LYS d   1      -7.277   6.861  13.225  0.00  0.00     0.033 H 
ATOM    164  H43 LYS d   1      -8.729   6.536  12.219  0.00  0.00     0.033 H 
BRANCH 162 165
ATOM    165  CD  LYS d   1      -8.915   8.203  13.553  0.00  0.00    -0.043 C 
ATOM    166  H44 LYS d   1      -9.661   8.731  12.941  0.00  0.00     0.035 H 
ATOM    167  H45 LYS d   1      -8.247   8.936  14.029  0.00  0.00     0.035 H 
BRANCH 165 168
ATOM    168  CE  LYS d   1      -9.628   7.458  14.621  0.00  0.00     0.080 C 
ATOM    169  H46 LYS d   1      -8.928   6.743  15.077  0.00  0.00     0.075 H 
ATOM    170  H47 LYS d   1     -10.467   6.911  14.167  0.00  0.00     0.075 H 
BRANCH 168 171
ATOM    171  NZ  LYS d   1     -10.164   8.349  15.692  0.00  0.00    -0.079 N 
ATOM    172  H48 LYS d   1     -10.636   7.792  16.387  0.00  0.00     0.274 HD
ATOM    173  H49 LYS d   1     -10.814   9.005  15.289  0.00  0.00     0.274 HD
ATOM    174  H50 LYS d   1      -9.404   8.851  16.123  0.00  0.00     0.274 HD
ENDBRANCH 168 171
ENDBRANCH 165 168
ENDBRANCH 162 165
ENDBRANCH 159 162
ENDBRANCH   1 159
TORSDOF 50
