REMARK  10 active torsions:
REMARK  status: ('A' for Active; 'I' for Inactive)
REMARK    1  A    between atoms: C16_23  and  C10_1 
REMARK    2  A    between atoms: C15_3  and  O36_36 
REMARK    3  A    between atoms: N30_30  and  C24_8 
REMARK    4  A    between atoms: C26_9  and  C23_26 
REMARK    5  A    between atoms: N31_31  and  C26_9 
REMARK    6  A    between atoms: C27_28  and  C28_10 
REMARK    7  A    between atoms: C28_10  and  O37_37 
REMARK    8  A    between atoms: C14_22  and  N32_32 
REMARK       I    between atoms: N31_31  and  C16_23 
REMARK    9  A    between atoms: O37_37  and  C25_27 
REMARK   10  A    between atoms: C27_28  and  N31_31 
ROOT
ATOM      1  C20 40V d   1       6.526  -9.752 -14.902  0.00  0.00    -0.057 C 
ATOM      2  C21 40V d   1       7.302 -11.729 -13.738  0.00  0.00     0.084 C 
ATOM      3  C22 40V d   1       5.548 -10.472 -12.778  0.00  0.00     0.089 C 
ATOM      4  C19 40V d   1       7.663 -10.557 -14.639  0.00  0.00    -0.042 C 
ATOM      5  C23 40V d   1       5.842  -9.313 -13.722  0.00  0.00    -0.015 C 
ATOM      6  N30 40V d   1       6.691 -11.300 -12.521  0.00  0.00    -0.066 N 
ATOM      7  H5  40V d   1       5.822 -10.335 -15.514  0.00  0.00     0.033 H 
ATOM      8  H6  40V d   1       6.852  -8.864 -15.464  0.00  0.00     0.033 H 
ATOM      9  H7  40V d   1       8.219 -12.287 -13.497  0.00  0.00     0.076 H 
ATOM     10  H8  40V d   1       6.602 -12.387 -14.274  0.00  0.00     0.076 H 
ATOM     11  H9  40V d   1       4.759 -11.095 -13.225  0.00  0.00     0.076 H 
ATOM     12  H10 40V d   1       5.192 -10.061 -11.821  0.00  0.00     0.076 H 
ATOM     13  H34 40V d   1       8.431  -9.945 -14.143  0.00  0.00     0.035 H 
ATOM     14  H35 40V d   1       8.059 -10.943 -15.590  0.00  0.00     0.035 H 
ATOM     15  H36 40V d   1       6.465  -8.582 -13.186  0.00  0.00     0.045 H 
ATOM     16  H42 40V d   1       7.358 -10.772 -11.980  0.00  0.00     0.280 HD
ENDROOT
BRANCH   5  17
ATOM     17  C26 40V d   1       4.525  -8.607 -14.230  0.00  0.00     0.003 C 
ATOM     18  H12 40V d   1       4.069  -9.254 -14.994  0.00  0.00     0.065 H 
ATOM     19  H13 40V d   1       4.811  -7.647 -14.685  0.00  0.00     0.065 H 
BRANCH  17  20
ATOM     20  N31 40V d   1       3.540  -8.343 -13.238  0.00  0.00    -0.349 N 
ATOM     21  C16 40V d   1       2.303  -9.156 -13.233  0.00  0.00     0.227 C 
ATOM     22  O34 40V d   1       1.405  -8.952 -12.417  0.00  0.00    -0.273 OA
BRANCH  21  23
ATOM     23  C10 40V d   1       2.193 -10.268 -14.341  0.00  0.00     0.056 A 
ATOM     24  C15 40V d   1       1.687  -9.868 -15.778  0.00  0.00     0.089 A 
ATOM     25  C13 40V d   1       1.576 -10.928 -16.854  0.00  0.00     0.072 A 
ATOM     26  H2  40V d   1       2.722  -9.655 -16.084  0.00  0.00     0.094 H 
ATOM     27  C09 40V d   1       1.954 -12.355 -16.558  0.00  0.00    -0.002 A 
ATOM     28  N29 40V d   1       1.075 -10.487 -18.210  0.00  0.00    -0.262 NA
ATOM     29  C04 40V d   1       1.837 -13.346 -17.641  0.00  0.00    -0.071 A 
ATOM     30  C14 40V d   1       2.481 -12.764 -15.098  0.00  0.00     0.102 A 
ATOM     31  C03 40V d   1       1.339 -12.919 -18.996  0.00  0.00    -0.065 A 
ATOM     32  H21 40V d   1       2.109 -14.380 -17.463  0.00  0.00     0.084 H 
ATOM     33  C08 40V d   1       0.952 -11.471 -19.277  0.00  0.00     0.003 A 
ATOM     34  H20 40V d   1       1.254 -13.655 -19.787  0.00  0.00     0.085 H 
ATOM     35  H28 40V d   1       0.591 -11.178 -20.256  0.00  0.00     0.114 H 
ATOM     36  C07 40V d   1       2.582 -11.689 -14.029  0.00  0.00    -0.022 A 
ATOM     37  H31 40V d   1       3.510 -12.563 -15.430  0.00  0.00     0.090 H 
ATOM     38  H26 40V d   1       1.946 -12.014 -13.193  0.00  0.00     0.038 H 
ATOM     39  H27 40V d   1       3.632 -11.665 -13.703  0.00  0.00     0.038 H 
ATOM     40  H1  40V d   1       1.159 -10.483 -14.032  0.00  0.00     0.059 H 
BRANCH  24  41
ATOM     41  O36 40V d   1       1.318  -8.524 -16.078  0.00  0.00    -0.389 OA
ATOM     42  H43 40V d   1       1.861  -8.198 -16.786  0.00  0.00     0.210 HD
ENDBRANCH  24  41
BRANCH  30  43
ATOM     43  N32 40V d   1       2.874 -14.083 -14.692  0.00  0.00    -0.146 N 
ATOM     44  O33 40V d   1       3.123 -14.317 -13.360  0.00  0.00    -0.536 OA
ATOM     45  O35 40V d   1       2.996 -14.983 -15.471  0.00  0.00    -0.536 OA
ENDBRANCH  30  43
ENDBRANCH  21  23
BRANCH  20  46
ATOM     46  C27 40V d   1       3.675  -7.252 -12.219  0.00  0.00     0.017 C 
ATOM     47  H40 40V d   1       3.095  -7.502 -11.319  0.00  0.00     0.067 H 
ATOM     48  H41 40V d   1       4.732  -7.117 -11.948  0.00  0.00     0.067 H 
BRANCH  46  49
ATOM     49  C28 40V d   1       3.144  -6.009 -12.841  0.00  0.00     0.034 C 
ATOM     50  H14 40V d   1       3.783  -5.717 -13.687  0.00  0.00     0.076 H 
ATOM     51  H15 40V d   1       3.129  -5.200 -12.096  0.00  0.00     0.076 H 
BRANCH  49  52
ATOM     52  O37 40V d   1       1.813  -6.259 -13.307  0.00  0.00    -0.394 OA
BRANCH  52  53
ATOM     53  C25 40V d   1       1.340  -5.349 -14.257  0.00  0.00     0.004 C 
ATOM     54  H37 40V d   1       0.316  -5.624 -14.550  0.00  0.00     0.066 H 
ATOM     55  H38 40V d   1       1.993  -5.370 -15.142  0.00  0.00     0.066 H 
ATOM     56  H39 40V d   1       1.338  -4.337 -13.826  0.00  0.00     0.066 H 
ENDBRANCH  52  53
ENDBRANCH  49  52
ENDBRANCH  46  49
ENDBRANCH  20  46
ENDBRANCH  17  20
ENDBRANCH   5  17
BRANCH   6  57
ATOM     57  C24 40V d   1       6.368 -12.304 -11.901  0.00  0.00     0.104 C 
ATOM     58  C17 40V d   1       7.627 -13.172 -11.463  0.00  0.00    -0.034 C 
ATOM     59  C11 40V d   1       7.125 -13.954 -10.299  0.00  0.00    -0.049 A 
ATOM     60  H3  40V d   1       8.467 -12.525 -11.169  0.00  0.00     0.036 H 
ATOM     61  H4  40V d   1       7.946 -13.840 -12.277  0.00  0.00     0.036 H 
ATOM     62  C05 40V d   1       7.614 -15.281  -9.668  0.00  0.00    -0.061 A 
ATOM     63  C12 40V d   1       5.928 -13.223  -9.715  0.00  0.00    -0.049 A 
ATOM     64  H29 40V d   1       6.493 -14.554 -10.970  0.00  0.00     0.040 H 
ATOM     65  C01 40V d   1       6.884 -15.862  -8.454  0.00  0.00    -0.065 A 
ATOM     66  H22 40V d   1       7.573 -16.044 -10.459  0.00  0.00     0.033 H 
ATOM     67  H23 40V d   1       8.660 -15.123  -9.365  0.00  0.00     0.033 H 
ATOM     68  C02 40V d   1       5.677 -15.112  -7.867  0.00  0.00    -0.065 A 
ATOM     69  H16 40V d   1       6.530 -16.863  -8.742  0.00  0.00     0.033 H 
ATOM     70  H17 40V d   1       7.627 -15.954  -7.648  0.00  0.00     0.033 H 
ATOM     71  C06 40V d   1       5.194 -13.789  -8.502  0.00  0.00    -0.061 A 
ATOM     72  H18 40V d   1       5.924 -14.887  -6.819  0.00  0.00     0.033 H 
ATOM     73  H19 40V d   1       4.826 -15.808  -7.902  0.00  0.00     0.033 H 
ATOM     74  H24 40V d   1       5.239 -13.022  -7.715  0.00  0.00     0.033 H 
ATOM     75  H25 40V d   1       4.148 -13.943  -8.805  0.00  0.00     0.033 H 
ATOM     76  C18 40V d   1       5.689 -11.985 -10.511  0.00  0.00    -0.034 C 
ATOM     77  H30 40V d   1       5.220 -13.774 -10.352  0.00  0.00     0.040 H 
ATOM     78  H32 40V d   1       4.612 -11.798 -10.633  0.00  0.00     0.036 H 
ATOM     79  H33 40V d   1       6.161 -11.114 -10.034  0.00  0.00     0.036 H 
ATOM     80  H11 40V d   1       5.690 -12.898 -12.531  0.00  0.00     0.084 H 
ENDBRANCH   6  57
TORSDOF 10
