REMARK  7 active torsions:
REMARK  status: ('A' for Active; 'I' for Inactive)
REMARK    1  A    between atoms: C7_4  and  C6_3 
REMARK    2  A    between atoms: C7_4  and  C9_13 
REMARK    3  A    between atoms: N11_15  and  C7_4 
REMARK    4  A    between atoms: N24_24  and  C22_8 
REMARK    5  A    between atoms: C9_13  and  O10_14 
REMARK    6  A    between atoms: C18_20  and  C14_17 
REMARK    7  A    between atoms: N24_24  and  C25_25 
ROOT
ATOM      1  C13 41B d   1     -14.255 -36.075 -25.503  0.00  0.00    -0.056 A 
ATOM      2  C15 41B d   1     -14.602 -33.744 -24.888  0.00  0.00    -0.005 A 
ATOM      3  N11 41B d   1     -13.155 -35.172 -23.585  0.00  0.00    -0.313 N 
ATOM      4  C12 41B d   1     -13.429 -36.212 -24.448  0.00  0.00    -0.015 A 
ATOM      5  C14 41B d   1     -14.877 -34.820 -25.746  0.00  0.00    -0.000 A 
ATOM      6  C16 41B d   1     -13.730 -33.942 -23.780  0.00  0.00     0.248 A 
ATOM      7  O17 41B d   1     -13.505 -32.999 -23.032  0.00  0.00    -0.268 OA
ATOM      8  H3  41B d   1     -14.445 -36.919 -26.165  0.00  0.00     0.086 H 
ATOM      9  H4  41B d   1     -15.051 -32.768 -25.068  0.00  0.00     0.093 H 
ATOM     10  H13 41B d   1     -12.961 -37.179 -24.270  0.00  0.00     0.111 H 
ENDROOT
BRANCH   5  11
ATOM     11  C18 41B d   1     -15.760 -34.721 -26.941  0.00  0.00     0.087 A 
ATOM     12  C19 41B d   1     -16.394 -33.525 -27.317  0.00  0.00    -0.036 A 
ATOM     13  C20 41B d   1     -17.112 -33.550 -28.505  0.00  0.00     0.023 A 
ATOM     14  H14 41B d   1     -16.326 -32.629 -26.711  0.00  0.00     0.089 H 
ATOM     15  N21 41B d   1     -17.218 -34.674 -29.220  0.00  0.00    -0.075 NA
ATOM     16  H5  41B d   1     -17.593 -32.645 -28.858  0.00  0.00     0.115 H 
ATOM     17  C22 41B d   1     -16.619 -35.798 -28.841  0.00  0.00     0.723 A 
ATOM     18  N23 41B d   1     -15.902 -35.809 -27.725  0.00  0.00    -0.062 NA
BRANCH  17  19
ATOM     19  N24 41B d   1     -16.710 -36.934 -29.646  0.00  0.00    -0.218 N 
ATOM     20  H15 41B d   1     -17.225 -36.860 -30.535  0.00  0.00     0.178 HD
BRANCH  19  21
ATOM     21  C25 41B d   1     -16.111 -38.233 -29.296  0.00  0.00     0.030 C 
ATOM     22  C26 41B d   1     -16.807 -39.356 -30.097  0.00  0.00    -0.026 C 
ATOM     23  C27 41B d   1     -16.102 -40.715 -29.903  0.00  0.00     0.021 C 
ATOM     24  H6  41B d   1     -16.791 -39.095 -31.165  0.00  0.00     0.039 H 
ATOM     25  H7  41B d   1     -17.849 -39.443 -29.757  0.00  0.00     0.039 H 
ATOM     26  O28 41B d   1     -14.669 -40.615 -30.041  0.00  0.00    -0.391 OA
ATOM     27  H17 41B d   1     -16.481 -41.421 -30.657  0.00  0.00     0.074 H 
ATOM     28  H18 41B d   1     -16.335 -41.093 -28.897  0.00  0.00     0.074 H 
ATOM     29  C29 41B d   1     -14.001 -39.617 -29.247  0.00  0.00     0.021 C 
ATOM     30  C30 41B d   1     -14.594 -38.235 -29.578  0.00  0.00    -0.026 C 
ATOM     31  H19 41B d   1     -12.925 -39.622 -29.477  0.00  0.00     0.074 H 
ATOM     32  H20 41B d   1     -14.149 -39.836 -28.179  0.00  0.00     0.074 H 
ATOM     33  H21 41B d   1     -14.106 -37.470 -28.956  0.00  0.00     0.039 H 
ATOM     34  H22 41B d   1     -14.420 -38.009 -30.640  0.00  0.00     0.039 H 
ATOM     35  H16 41B d   1     -16.267 -38.415 -28.222  0.00  0.00     0.073 H 
ENDBRANCH  19  21
ENDBRANCH  17  19
ENDBRANCH   5  11
BRANCH   3  36
ATOM     36  C7  41B d   1     -12.292 -35.444 -22.414  0.00  0.00     0.065 C 
ATOM     37  H2  41B d   1     -12.178 -34.495 -21.870  0.00  0.00     0.084 H 
BRANCH  36  38
ATOM     38  C6  41B d   1     -13.040 -36.392 -21.498  0.00  0.00    -0.030 A 
ATOM     39  C5  41B d   1     -13.941 -35.831 -20.597  0.00  0.00    -0.036 A 
ATOM     40  C4  41B d   1     -14.730 -36.654 -19.801  0.00  0.00     0.138 A 
ATOM     41  H1  41B d   1     -14.027 -34.754 -20.516  0.00  0.00     0.089 H 
ATOM     42  C3  41B d   1     -14.620 -38.033 -19.920  0.00  0.00     0.072 A 
ATOM     43  F31 41B d   1     -15.599 -36.136 -18.904  0.00  0.00    -0.204 F 
ATOM     44  C2  41B d   1     -13.741 -38.614 -20.825  0.00  0.00    -0.058 A 
ATOM     45 CL1  41B d   1     -15.624 -39.012 -18.917  0.00  0.00    -0.081 Cl
ATOM     46  C1  41B d   1     -12.961 -37.787 -21.625  0.00  0.00    -0.073 A 
ATOM     47  H9  41B d   1     -13.665 -39.692 -20.906  0.00  0.00     0.086 H 
ATOM     48  H8  41B d   1     -12.286 -38.223 -22.353  0.00  0.00     0.084 H 
ENDBRANCH  36  38
BRANCH  36  49
ATOM     49  C9  41B d   1     -10.872 -35.890 -22.774  0.00  0.00     0.040 C 
ATOM     50  H10 41B d   1     -10.422 -35.182 -23.485  0.00  0.00     0.077 H 
ATOM     51  H11 41B d   1     -10.893 -36.895 -23.221  0.00  0.00     0.077 H 
BRANCH  49  52
ATOM     52  O10 41B d   1     -10.126 -35.908 -21.562  0.00  0.00    -0.398 OA
ATOM     53  H12 41B d   1     -10.120 -35.037 -21.182  0.00  0.00     0.209 HD
ENDBRANCH  49  52
ENDBRANCH  36  49
ENDBRANCH   3  36
TORSDOF 7
