REMARK  5 active torsions:
REMARK  status: ('A' for Active; 'I' for Inactive)
REMARK    1  A    between atoms: C01_1  and  C02_2 
REMARK    2  A    between atoms: C04_4  and  N01_5 
REMARK    3  A    between atoms: N01_5  and  C05_6 
REMARK    4  A    between atoms: C05_6  and  C06_7 
REMARK    5  A    between atoms: C16_21  and  C17_22 
REMARK       I    between atoms: C17_22  and  N02_23 
ROOT
ATOM      1  C02 733 d   1      -6.690 -20.638  11.039  0.00  0.00     0.033 A 
ATOM      2  C03 733 d   1      -6.203 -21.259  12.189  0.00  0.00    -0.033 A 
ATOM      3  C04 733 d   1      -6.315 -20.610  13.431  0.00  0.00     0.043 A 
ATOM      4  C12 733 d   1      -6.922 -19.342  13.457  0.00  0.00     0.023 A 
ATOM      5  C13 733 d   1      -7.045 -18.652  14.668  0.00  0.00    -0.031 A 
ATOM      6  C14 733 d   1      -7.637 -17.388  14.719  0.00  0.00     0.118 A 
ATOM      7  F   733 d   1      -7.737 -16.755  15.922  0.00  0.00    -0.206 F 
ATOM      8  C15 733 d   1      -8.121 -16.799  13.544  0.00  0.00    -0.028 A 
ATOM      9  C16 733 d   1      -8.028 -17.450  12.299  0.00  0.00     0.064 A 
ATOM     10  C1  733 d   1      -7.409 -18.750  12.268  0.00  0.00     0.085 A 
ATOM     11  N1  733 d   1      -7.261 -19.441  11.119  0.00  0.00    -0.252 NA
ATOM     12  H4  733 d   1      -5.740 -22.237  12.125  0.00  0.00     0.090 H 
ATOM     13  H10 733 d   1      -6.675 -19.105  15.581  0.00  0.00     0.089 H 
ATOM     14  H11 733 d   1      -8.579 -15.818  13.594  0.00  0.00     0.089 H 
ENDROOT
BRANCH   3  15
ATOM     15  N01 733 d   1      -5.806 -21.216  14.625  0.00  0.00    -0.385 N 
ATOM     16  H5  733 d   1      -5.637 -20.626  15.452  0.00  0.00     0.160 HD
BRANCH  15  17
ATOM     17  C05 733 d   1      -5.515 -22.667  14.706  0.00  0.00     0.020 C 
ATOM     18  H6  733 d   1      -4.617 -22.882  14.108  0.00  0.00     0.071 H 
ATOM     19  H7  733 d   1      -6.371 -23.223  14.296  0.00  0.00     0.071 H 
BRANCH  17  20
ATOM     20  C06 733 d   1      -5.272 -23.127  16.137  0.00  0.00     0.005 A 
ATOM     21  C07 733 d   1      -6.233 -23.903  16.812  0.00  0.00     0.043 A 
ATOM     22 CL1  733 d   1      -7.738 -24.358  16.070  0.00  0.00    -0.084 Cl
ATOM     23  C08 733 d   1      -6.015 -24.321  18.126  0.00  0.00    -0.060 A 
ATOM     24  C09 733 d   1      -4.839 -23.980  18.798  0.00  0.00    -0.059 A 
ATOM     25  H8  733 d   1      -6.767 -24.917  18.631  0.00  0.00     0.086 H 
ATOM     26  C10 733 d   1      -3.871 -23.209  18.136  0.00  0.00     0.056 A 
ATOM     27  H9  733 d   1      -4.676 -24.307  19.819  0.00  0.00     0.086 H 
ATOM     28 CL2  733 d   1      -2.400 -22.749  18.953  0.00  0.00    -0.083 Cl
ATOM     29  C11 733 d   1      -4.078 -22.782  16.810  0.00  0.00     0.065 A 
ATOM     30 CL3  733 d   1      -2.827 -21.807  16.059  0.00  0.00    -0.082 Cl
ENDBRANCH  17  20
ENDBRANCH  15  17
ENDBRANCH   3  15
BRANCH   1  31
ATOM     31  C01 733 d   1      -6.586 -21.327   9.700  0.00  0.00    -0.035 C 
ATOM     32  H1  733 d   1      -6.089 -22.300   9.826  0.00  0.00     0.035 H 
ATOM     33  H2  733 d   1      -5.999 -20.702   9.011  0.00  0.00     0.035 H 
ATOM     34  H3  733 d   1      -7.594 -21.481   9.288  0.00  0.00     0.035 H 
ENDBRANCH   1  31
BRANCH   9  35
ATOM     35  C17 733 d   1      -8.564 -16.727  11.077  0.00  0.00     0.251 C 
ATOM     36  N02 733 d   1      -9.202 -15.569  11.200  0.00  0.00    -0.366 N 
ATOM     37  H12 733 d   1      -9.551 -15.102  10.388  0.00  0.00     0.159 HD
ATOM     38  H13 733 d   1      -9.334 -15.164  12.105  0.00  0.00     0.159 HD
ATOM     39  O1  733 d   1      -8.416 -17.131   9.909  0.00  0.00    -0.268 OA
ENDBRANCH   9  35
TORSDOF 5
