REMARK  7 active torsions:
REMARK  status: ('A' for Active; 'I' for Inactive)
REMARK    1  A    between atoms: C09_15  and  C10_1 
REMARK    2  A    between atoms: C14_18  and  C15_3 
REMARK    3  A    between atoms: C20_5  and  C21_6 
REMARK       I    between atoms: C21_6  and  N23_23 
REMARK    4  A    between atoms: C03_9  and  C02_8 
REMARK    5  A    between atoms: N06_12  and  C05_11 
REMARK    6  A    between atoms: C07_13  and  N06_12 
REMARK    7  A    between atoms: C08_14  and  C07_13 
ROOT
ATOM      1  C17 41Z d   1      -7.155 -18.679  14.921  0.00  0.00    -0.069 A 
ATOM      2  C20 41Z d   1      -8.011 -17.558  12.563  0.00  0.00     0.061 A 
ATOM      3  C24 41Z d   1      -7.343 -18.781  12.505  0.00  0.00     0.085 A 
ATOM      4  C03 41Z d   1      -6.456 -20.571  11.385  0.00  0.00     0.033 A 
ATOM      5  C04 41Z d   1      -6.019 -21.157  12.553  0.00  0.00    -0.033 A 
ATOM      6  C05 41Z d   1      -6.249 -20.534  13.763  0.00  0.00     0.043 A 
ATOM      7  C16 41Z d   1      -6.921 -19.326  13.720  0.00  0.00     0.020 A 
ATOM      8  C18 41Z d   1      -7.815 -17.475  14.943  0.00  0.00    -0.081 A 
ATOM      9  C19 41Z d   1      -8.243 -16.914  13.759  0.00  0.00    -0.065 A 
ATOM     10  N25 41Z d   1      -7.110 -19.408  11.340  0.00  0.00    -0.252 NA
ATOM     11  H8  41Z d   1      -6.816 -19.125  15.849  0.00  0.00     0.085 H 
ATOM     12  H12 41Z d   1      -5.495 -22.106  12.522  0.00  0.00     0.090 H 
ATOM     13  H18 41Z d   1      -7.998 -16.970  15.884  0.00  0.00     0.083 H 
ATOM     14  H19 41Z d   1      -8.764 -15.963  13.769  0.00  0.00     0.085 H 
ENDROOT
BRANCH   6  15
ATOM     15  N06 41Z d   1      -5.839 -21.058  15.028  0.00  0.00    -0.385 N 
ATOM     16  H13 41Z d   1      -6.063 -20.569  15.907  0.00  0.00     0.160 HD
BRANCH  15  17
ATOM     17  C07 41Z d   1      -5.088 -22.317  15.028  0.00  0.00     0.017 C 
ATOM     18  H14 41Z d   1      -4.203 -22.199  14.386  0.00  0.00     0.071 H 
ATOM     19  H15 41Z d   1      -5.732 -23.111  14.623  0.00  0.00     0.071 H 
BRANCH  17  20
ATOM     20  C08 41Z d   1      -4.633 -22.721  16.409  0.00  0.00    -0.029 A 
ATOM     21  C09 41Z d   1      -3.348 -22.443  16.859  0.00  0.00    -0.054 A 
ATOM     22  C11 41Z d   1      -2.942 -22.817  18.126  0.00  0.00    -0.077 A 
ATOM     23  C12 41Z d   1      -3.801 -23.480  18.978  0.00  0.00    -0.082 A 
ATOM     24  H16 41Z d   1      -1.935 -22.586  18.455  0.00  0.00     0.084 H 
ATOM     25  C13 41Z d   1      -5.077 -23.756  18.538  0.00  0.00    -0.077 A 
ATOM     26  H17 41Z d   1      -3.480 -23.777  19.970  0.00  0.00     0.083 H 
ATOM     27  C14 41Z d   1      -5.492 -23.385  17.274  0.00  0.00    -0.054 A 
ATOM     28  H4  41Z d   1      -5.767 -24.273  19.195  0.00  0.00     0.084 H 
BRANCH  21  29
ATOM     29  C10 41Z d   1      -2.353 -21.737  16.017  0.00  0.00    -0.051 C 
ATOM     30  H1  41Z d   1      -1.412 -21.628  16.576  0.00  0.00     0.033 H 
ATOM     31  H2  41Z d   1      -2.739 -20.742  15.750  0.00  0.00     0.033 H 
ATOM     32  H3  41Z d   1      -2.170 -22.317  15.101  0.00  0.00     0.033 H 
ENDBRANCH  21  29
BRANCH  27  33
ATOM     33  C15 41Z d   1      -6.887 -23.718  16.883  0.00  0.00    -0.051 C 
ATOM     34  H5  41Z d   1      -7.386 -24.240  17.713  0.00  0.00     0.033 H 
ATOM     35  H6  41Z d   1      -6.874 -24.369  15.996  0.00  0.00     0.033 H 
ATOM     36  H7  41Z d   1      -7.434 -22.792  16.651  0.00  0.00     0.033 H 
ENDBRANCH  27  33
ENDBRANCH  17  20
ENDBRANCH  15  17
ENDBRANCH   6  15
BRANCH   4  37
ATOM     37  C02 41Z d   1      -6.203 -21.247  10.083  0.00  0.00    -0.035 C 
ATOM     38  H9  41Z d   1      -5.661 -22.188  10.258  0.00  0.00     0.035 H 
ATOM     39  H10 41Z d   1      -5.599 -20.590   9.440  0.00  0.00     0.035 H 
ATOM     40  H11 41Z d   1      -7.162 -21.463   9.589  0.00  0.00     0.035 H 
ENDBRANCH   4  37
BRANCH   2  41
ATOM     41  C21 41Z d   1      -8.507 -16.866  11.355  0.00  0.00     0.251 C 
ATOM     42  O22 41Z d   1      -8.409 -17.333  10.234  0.00  0.00    -0.268 OA
ATOM     43  N23 41Z d   1      -9.078 -15.654  11.614  0.00  0.00    -0.366 N 
ATOM     44  H20 41Z d   1      -9.446 -15.104  10.864  0.00  0.00     0.159 HD
ATOM     45  H21 41Z d   1      -9.129 -15.316  12.554  0.00  0.00     0.159 HD
ENDBRANCH   2  41
TORSDOF 7
