REMARK  10 active torsions:
REMARK  status: ('A' for Active; 'I' for Inactive)
REMARK    1  A    between atoms: C2A_7  and  CAA_11 
REMARK    2  A    between atoms: C3A_8  and  CMA_10 
REMARK    3  A    between atoms: CAA_11  and  CBA_12 
REMARK    4  A    between atoms: CBA_12  and  CGA_13 
REMARK    5  A    between atoms: C2B_18  and  CMB_21 
REMARK    6  A    between atoms: C2C_24  and  CMC_27 
REMARK    7  A    between atoms: C2D_30  and  CMD_33 
REMARK    8  A    between atoms: C3D_31  and  CAD_34 
REMARK    9  A    between atoms: CAD_34  and  CBD_35 
REMARK   10  A    between atoms: CBD_35  and  CGD_36 
ROOT
ATOM      1  CHA DE9 d   1      -8.156 -22.220 -20.133  0.00  0.00    -0.026 C 
ATOM      2  CHB DE9 d   1      -3.902 -21.122 -17.595  0.00  0.00    -0.026 C 
ATOM      3  CHC DE9 d   1      -2.432 -25.926 -18.042  0.00  0.00    -0.027 C 
ATOM      4  CHD DE9 d   1      -6.764 -27.074 -20.359  0.00  0.00    -0.027 C 
ATOM      5  NA  DE9 d   1      -5.959 -22.068 -18.820  0.00  0.00    -0.248 NA
ATOM      6  C1A DE9 d   1      -7.017 -21.534 -19.462  0.00  0.00     0.066 A 
ATOM      7  C2A DE9 d   1      -6.919 -20.147 -19.401  0.00  0.00    -0.021 A 
ATOM      8  C3A DE9 d   1      -5.743 -19.864 -18.707  0.00  0.00    -0.025 A 
ATOM      9  C4A DE9 d   1      -5.173 -21.074 -18.362  0.00  0.00     0.066 A 
ATOM     10  NB  DE9 d   1      -3.526 -23.608 -17.995  0.00  0.00    -0.249 NA
ATOM     11  C1B DE9 d   1      -3.150 -22.401 -17.547  0.00  0.00     0.065 A 
ATOM     12  C2B DE9 d   1      -1.882 -22.482 -16.989  0.00  0.00    -0.031 A 
ATOM     13  C3B DE9 d   1      -1.490 -23.808 -17.115  0.00  0.00    -0.047 A 
ATOM     14  C4B DE9 d   1      -2.533 -24.477 -17.743  0.00  0.00     0.060 A 
ATOM     15  NC  DE9 d   1      -4.749 -26.157 -19.068  0.00  0.00    -0.249 NA
ATOM     16  C1C DE9 d   1      -3.497 -26.568 -18.848  0.00  0.00     0.065 A 
ATOM     17  C2C DE9 d   1      -3.293 -27.764 -19.506  0.00  0.00    -0.031 A 
ATOM     18  C3C DE9 d   1      -4.482 -28.073 -20.150  0.00  0.00    -0.047 A 
ATOM     19  C4C DE9 d   1      -5.372 -27.056 -19.853  0.00  0.00     0.060 A 
ATOM     20  ND  DE9 d   1      -7.112 -24.574 -20.049  0.00  0.00    -0.248 NA
ATOM     21  C1D DE9 d   1      -7.481 -25.788 -20.487  0.00  0.00     0.066 A 
ATOM     22  C2D DE9 d   1      -8.730 -25.700 -21.107  0.00  0.00    -0.025 A 
ATOM     23  C3D DE9 d   1      -9.093 -24.371 -21.027  0.00  0.00    -0.021 A 
ATOM     24  C4D DE9 d   1      -8.075 -23.691 -20.376  0.00  0.00     0.066 A 
ATOM     25  H   DE9 d   1      -9.031 -21.659 -20.441  0.00  0.00     0.090 H 
ATOM     26  H   DE9 d   1      -3.532 -20.242 -17.081  0.00  0.00     0.090 H 
ATOM     27  H   DE9 d   1      -1.592 -26.506 -17.677  0.00  0.00     0.090 H 
ATOM     28  H   DE9 d   1      -7.245 -28.007 -20.629  0.00  0.00     0.090 H 
ATOM     29  H   DE9 d   1      -0.551 -24.238 -16.787  0.00  0.00     0.088 H 
ATOM     30  H   DE9 d   1      -4.676 -28.943 -20.767  0.00  0.00     0.088 H 
ENDROOT
BRANCH   7  31
ATOM     31  CAA DE9 d   1      -7.847 -19.116 -19.955  0.00  0.00    -0.029 C 
ATOM     32  H   DE9 d   1      -7.864 -18.272 -19.250  0.00  0.00     0.041 H 
ATOM     33  H   DE9 d   1      -8.849 -19.567 -20.011  0.00  0.00     0.041 H 
BRANCH  31  34
ATOM     34  CBA DE9 d   1      -7.526 -18.571 -21.299  0.00  0.00     0.019 C 
ATOM     35  H   DE9 d   1      -6.476 -18.242 -21.298  0.00  0.00     0.049 H 
ATOM     36  H   DE9 d   1      -8.180 -17.707 -21.488  0.00  0.00     0.049 H 
BRANCH  34  37
ATOM     37  CGA DE9 d   1      -7.710 -19.549 -22.404  0.00  0.00     0.172 C 
ATOM     38  O1A DE9 d   1      -6.746 -19.844 -23.155  0.00  0.00    -0.648 OA
ATOM     39  O2A DE9 d   1      -8.842 -20.078 -22.568  0.00  0.00    -0.648 OA
ENDBRANCH  34  37
ENDBRANCH  31  34
ENDBRANCH   7  31
BRANCH   8  40
ATOM     40  CMA DE9 d   1      -5.185 -18.515 -18.381  0.00  0.00    -0.048 C 
ATOM     41  H   DE9 d   1      -5.851 -17.736 -18.781  0.00  0.00     0.033 H 
ATOM     42  H   DE9 d   1      -4.187 -18.412 -18.833  0.00  0.00     0.033 H 
ATOM     43  H   DE9 d   1      -5.106 -18.405 -17.289  0.00  0.00     0.033 H 
ENDBRANCH   8  40
BRANCH  23  44
ATOM     44  CAD DE9 d   1     -10.333 -23.768 -21.590  0.00  0.00    -0.029 C 
ATOM     45  H   DE9 d   1     -10.718 -23.014 -20.888  0.00  0.00     0.041 H 
ATOM     46  H   DE9 d   1     -11.086 -24.557 -21.730  0.00  0.00     0.041 H 
BRANCH  44  47
ATOM     47  CBD DE9 d   1     -10.056 -23.116 -22.905  0.00  0.00     0.019 C 
ATOM     48  H   DE9 d   1      -9.342 -23.761 -23.438  0.00  0.00     0.049 H 
ATOM     49  H   DE9 d   1      -9.584 -22.147 -22.688  0.00  0.00     0.049 H 
BRANCH  47  50
ATOM     50  CGD DE9 d   1     -11.178 -22.850 -23.840  0.00  0.00     0.172 C 
ATOM     51  O1D DE9 d   1     -12.323 -23.261 -23.554  0.00  0.00    -0.648 OA
ATOM     52  O2D DE9 d   1     -10.972 -22.219 -24.918  0.00  0.00    -0.648 OA
ENDBRANCH  47  50
ENDBRANCH  44  47
ENDBRANCH  23  44
BRANCH  22  53
ATOM     53  CMD DE9 d   1      -9.534 -26.787 -21.746  0.00  0.00    -0.048 C 
ATOM     54  H   DE9 d   1      -8.995 -27.742 -21.658  0.00  0.00     0.033 H 
ATOM     55  H   DE9 d   1      -9.691 -26.551 -22.809  0.00  0.00     0.033 H 
ATOM     56  H   DE9 d   1     -10.508 -26.868 -21.241  0.00  0.00     0.033 H 
ENDBRANCH  22  53
BRANCH  12  57
ATOM     57  CMB DE9 d   1      -1.086 -21.374 -16.378  0.00  0.00    -0.049 C 
ATOM     58  H   DE9 d   1      -1.663 -20.439 -16.425  0.00  0.00     0.033 H 
ATOM     59  H   DE9 d   1      -0.144 -21.251 -16.932  0.00  0.00     0.033 H 
ATOM     60  H   DE9 d   1      -0.865 -21.617 -15.328  0.00  0.00     0.033 H 
ENDBRANCH  12  57
BRANCH  17  61
ATOM     61  CMC DE9 d   1      -2.037 -28.563 -19.536  0.00  0.00    -0.049 C 
ATOM     62  H   DE9 d   1      -1.269 -28.061 -18.929  0.00  0.00     0.033 H 
ATOM     63  H   DE9 d   1      -1.684 -28.652 -20.574  0.00  0.00     0.033 H 
ATOM     64  H   DE9 d   1      -2.230 -29.566 -19.127  0.00  0.00     0.033 H 
ENDBRANCH  17  61
TORSDOF 10
