REMARK  2 active torsions:
REMARK  status: ('A' for Active; 'I' for Inactive)
REMARK    1  A    between atoms: C15_7  and  C12_8 
REMARK    2  A    between atoms: C1_26  and  C7_27 
ROOT
ATOM      1  C12 43K d   1      66.799  51.516  10.828  0.00  0.00     0.067 A 
ATOM      2  C14 43K d   1      67.099  50.512   9.884  0.00  0.00    -0.043 A 
ATOM      3  N11 43K d   1      67.819  52.267  11.309  0.00  0.00    -0.258 NA
ATOM      4  C10 43K d   1      69.071  52.066  10.932  0.00  0.00     0.036 A 
ATOM      5  C9  43K d   1      69.410  51.104  10.005  0.00  0.00     0.102 A 
ATOM      6  O8  43K d   1      70.716  50.992   9.697  0.00  0.00    -0.308 OA
ATOM      7  C13 43K d   1      68.410  50.296   9.451  0.00  0.00     0.015 A 
ATOM      8  C21 43K d   1      68.745  49.213   8.415  0.00  0.00     0.115 A 
ATOM      9  C16 43K d   1      68.336  47.821   8.888  0.00  0.00     0.060 C 
ATOM     10  O17 43K d   1      67.489  47.266   7.831  0.00  0.00    -0.319 OA
ATOM     11  C18 43K d   1      67.199  48.299   6.976  0.00  0.00     0.213 C 
ATOM     12  N19 43K d   1      67.880  49.412   7.229  0.00  0.00    -0.337 N 
ATOM     13  N20 43K d   1      66.304  48.168   6.003  0.00  0.00    -0.365 N 
ATOM     14  C5  43K d   1      70.242  49.246   8.052  0.00  0.00     0.012 A 
ATOM     15  C6  43K d   1      70.746  48.389   7.072  0.00  0.00    -0.060 A 
ATOM     16  C4  43K d   1      71.120  50.115   8.729  0.00  0.00     0.085 A 
ATOM     17  C3  43K d   1      72.466  50.121   8.417  0.00  0.00    -0.049 A 
ATOM     18  C2  43K d   1      72.954  49.265   7.434  0.00  0.00    -0.069 A 
ATOM     19  C1  43K d   1      72.102  48.397   6.759  0.00  0.00    -0.021 A 
ATOM     20  H4  43K d   1      66.299  49.897   9.488  0.00  0.00     0.088 H 
ATOM     21  H5  43K d   1      69.855  52.677  11.366  0.00  0.00     0.119 H 
ATOM     22  H6  43K d   1      67.775  47.888   9.832  0.00  0.00     0.080 H 
ATOM     23  H7  43K d   1      69.226  47.191   9.035  0.00  0.00     0.080 H 
ATOM     24  H8  43K d   1      67.816  50.283   6.682  0.00  0.00     0.164 HD
ATOM     25  H9  43K d   1      66.106  48.960   5.375  0.00  0.00     0.159 HD
ATOM     26  H10 43K d   1      65.808  47.274   5.876  0.00  0.00     0.159 HD
ATOM     27  H11 43K d   1      70.077  47.713   6.552  0.00  0.00     0.086 H 
ATOM     28  H12 43K d   1      73.141  50.791   8.937  0.00  0.00     0.087 H 
ATOM     29  H13 43K d   1      74.010  49.275   7.192  0.00  0.00     0.085 H 
ENDROOT
BRANCH   1  30
ATOM     30  C15 43K d   1      65.489  51.762  11.307  0.00  0.00    -0.002 A 
ATOM     31  C28 43K d   1      64.353  51.210  10.703  0.00  0.00    -0.015 A 
ATOM     32  C29 43K d   1      63.092  51.492  11.237  0.00  0.00     0.210 A 
ATOM     33  H1  43K d   1      64.450  50.572   9.832  0.00  0.00     0.092 H 
ATOM     34  F33 43K d   1      62.018  50.969  10.636  0.00  0.00    -0.184 F 
ATOM     35  N30 43K d   1      62.920  52.264  12.323  0.00  0.00    -0.233 NA
ATOM     36  C31 43K d   1      63.977  52.801  12.934  0.00  0.00     0.006 A 
ATOM     37  C32 43K d   1      65.271  52.563  12.442  0.00  0.00    -0.054 A 
ATOM     38  H2  43K d   1      63.837  53.422  13.812  0.00  0.00     0.114 H 
ATOM     39  H3  43K d   1      66.121  53.007  12.949  0.00  0.00     0.087 H 
ENDBRANCH   1  30
BRANCH  19  40
ATOM     40  C7  43K d   1      72.621  47.543   5.781  0.00  0.00     0.032 A 
ATOM     41  C22 43K d   1      73.640  46.649   6.122  0.00  0.00    -0.066 A 
ATOM     42  C23 43K d   1      74.138  45.800   5.146  0.00  0.00    -0.065 A 
ATOM     43  H14 43K d   1      74.034  46.620   7.132  0.00  0.00     0.085 H 
ATOM     44  C24 43K d   1      73.617  45.851   3.856  0.00  0.00     0.005 A 
ATOM     45  H15 43K d   1      74.930  45.099   5.386  0.00  0.00     0.085 H 
ATOM     46  N25 43K d   1      72.642  46.692   3.552  0.00  0.00    -0.232 NA
ATOM     47  H16 43K d   1      74.015  45.194   3.091  0.00  0.00     0.114 H 
ATOM     48  C26 43K d   1      72.146  47.537   4.461  0.00  0.00     0.220 A 
ATOM     49  F27 43K d   1      71.179  48.382   4.068  0.00  0.00    -0.183 F 
ENDBRANCH  19  40
TORSDOF 2
