REMARK  13 active torsions:
REMARK  status: ('A' for Active; 'I' for Inactive)
REMARK    1  A    between atoms: C2_2  and  C1_1 
REMARK       I    between atoms: C1_1  and  N3_13 
REMARK    2  A    between atoms: C2_2  and  C6_14 
REMARK    3  A    between atoms: N7_15  and  C2_2 
REMARK    4  A    between atoms: C6_14  and  C3_3 
REMARK    5  A    between atoms: N3_13  and  O5_5 
REMARK    6  A    between atoms: C11_6  and  C12_7 
REMARK    7  A    between atoms: N7_15  and  C11_6 
REMARK    8  A    between atoms: C12_7  and  C13_8 
REMARK    9  A    between atoms: C12_7  and  C17_19 
REMARK   10  A    between atoms: C20_10  and  C25_23 
REMARK   11  A    between atoms: C6_14  and  C4_24 
REMARK   12  A    between atoms: S8_16  and  N7_15 
REMARK   13  A    between atoms: S8_16  and  C18_20 
ROOT
ATOM      1  N7  41R d   1       9.626  19.787  27.843  0.00  0.00    -0.292 N 
ENDROOT
BRANCH   1   2
ATOM      2  C2  41R d   1      10.938  19.225  27.486  0.00  0.00     0.104 C 
ATOM      3  H1  41R d   1      11.301  19.764  26.598  0.00  0.00     0.089 H 
BRANCH   2   4
ATOM      4  C1  41R d   1      11.988  19.334  28.559  0.00  0.00     0.265 C 
ATOM      5  O4  41R d   1      12.009  18.569  29.512  0.00  0.00    -0.269 OA
ATOM      6  N3  41R d   1      12.889  20.296  28.395  0.00  0.00    -0.236 N 
ATOM      7  H14 41R d   1      12.703  21.053  27.769  0.00  0.00     0.197 HD
BRANCH   6   8
ATOM      8  O5  41R d   1      14.091  20.252  29.093  0.00  0.00    -0.287 OA
ATOM      9  H5  41R d   1      14.617  21.009  28.863  0.00  0.00     0.244 HD
ENDBRANCH   6   8
ENDBRANCH   2   4
BRANCH   2  10
ATOM     10  C6  41R d   1      10.785  17.741  27.145  0.00  0.00    -0.032 C 
ATOM     11  H15 41R d   1      10.578  17.213  28.088  0.00  0.00     0.042 H 
BRANCH  10  12
ATOM     12  C3  41R d   1      12.103  17.205  26.589  0.00  0.00    -0.071 C 
ATOM     13  H2  41R d   1      11.991  16.138  26.345  0.00  0.00     0.028 H 
ATOM     14  H3  41R d   1      12.895  17.327  27.342  0.00  0.00     0.028 H 
ATOM     15  H4  41R d   1      12.372  17.763  25.680  0.00  0.00     0.028 H 
ENDBRANCH  10  12
BRANCH  10  16
ATOM     16  C4  41R d   1       9.633  17.423  26.198  0.00  0.00    -0.071 C 
ATOM     17  H23 41R d   1       8.695  17.817  26.616  0.00  0.00     0.028 H 
ATOM     18  H24 41R d   1       9.550  16.333  26.074  0.00  0.00     0.028 H 
ATOM     19  H25 41R d   1       9.823  17.890  25.220  0.00  0.00     0.028 H 
ENDBRANCH  10  16
ENDBRANCH   2  10
ENDBRANCH   1   2
BRANCH   1  20
ATOM     20  C11 41R d   1       9.056  19.357  29.130  0.00  0.00     0.009 C 
ATOM     21  H6  41R d   1       8.330  18.552  28.944  0.00  0.00     0.066 H 
ATOM     22  H7  41R d   1       9.868  18.979  29.768  0.00  0.00     0.066 H 
BRANCH  20  23
ATOM     23  C12 41R d   1       8.348  20.500  29.860  0.00  0.00    -0.045 C 
ATOM     24  H8  41R d   1       7.787  21.072  29.106  0.00  0.00     0.041 H 
BRANCH  23  25
ATOM     25  C13 41R d   1       9.330  21.456  30.525  0.00  0.00    -0.072 C 
ATOM     26  H9  41R d   1       8.774  22.257  31.034  0.00  0.00     0.028 H 
ATOM     27  H10 41R d   1       9.988  21.895  29.761  0.00  0.00     0.028 H 
ATOM     28  H11 41R d   1       9.937  20.906  31.260  0.00  0.00     0.028 H 
ENDBRANCH  23  25
BRANCH  23  29
ATOM     29  C17 41R d   1       7.345  19.973  30.882  0.00  0.00    -0.072 C 
ATOM     30  H16 41R d   1       6.644  19.285  30.387  0.00  0.00     0.028 H 
ATOM     31  H17 41R d   1       6.787  20.816  31.316  0.00  0.00     0.028 H 
ATOM     32  H18 41R d   1       7.881  19.438  31.680  0.00  0.00     0.028 H 
ENDBRANCH  23  29
ENDBRANCH  20  23
ENDBRANCH   1  20
BRANCH   1  33
ATOM     33  S8  41R d   1       8.932  20.670  26.812  0.00  0.00     0.261 S 
ATOM     34  O9  41R d   1       7.627  20.144  26.520  0.00  0.00    -0.200 OA
ATOM     35  O10 41R d   1       9.730  20.608  25.620  0.00  0.00    -0.200 OA
BRANCH  33  36
ATOM     36  C18 41R d   1       8.795  22.219  27.220  0.00  0.00     0.080 A 
ATOM     37  C19 41R d   1       7.552  22.847  27.316  0.00  0.00    -0.052 A 
ATOM     38  C20 41R d   1       7.481  24.201  27.654  0.00  0.00    -0.022 A 
ATOM     39  H12 41R d   1       6.644  22.285  27.129  0.00  0.00     0.086 H 
ATOM     40  C21 41R d   1       8.632  24.930  27.883  0.00  0.00     0.122 A 
ATOM     41  C22 41R d   1       9.873  24.311  27.787  0.00  0.00    -0.044 A 
ATOM     42  F24 41R d   1       8.533  26.238  28.199  0.00  0.00    -0.206 F 
ATOM     43  C23 41R d   1       9.945  22.962  27.455  0.00  0.00    -0.057 A 
ATOM     44  H13 41R d   1      10.780  24.876  27.970  0.00  0.00     0.088 H 
ATOM     45  H19 41R d   1      10.914  22.483  27.378  0.00  0.00     0.086 H 
BRANCH  38  46
ATOM     46  C25 41R d   1       6.162  24.920  27.756  0.00  0.00    -0.048 C 
ATOM     47  H20 41R d   1       5.343  24.215  27.549  0.00  0.00     0.033 H 
ATOM     48  H21 41R d   1       6.134  25.740  27.023  0.00  0.00     0.033 H 
ATOM     49  H22 41R d   1       6.045  25.330  28.770  0.00  0.00     0.033 H 
ENDBRANCH  38  46
ENDBRANCH  33  36
ENDBRANCH   1  33
TORSDOF 13
