REMARK  14 active torsions:
REMARK  status: ('A' for Active; 'I' for Inactive)
REMARK    1  A    between atoms: C1_1  and  C2_2 
REMARK    2  A    between atoms: N6_5  and  C1_1 
REMARK    3  A    between atoms: C1_1  and  C28_17 
REMARK    4  A    between atoms: O17_14  and  C3_3 
REMARK    5  A    between atoms: N4_18  and  O5_4 
REMARK    6  A    between atoms: N6_5  and  C18_16 
REMARK    7  A    between atoms: S7_20  and  N6_5 
REMARK    8  A    between atoms: C28_17  and  C7_6 
REMARK    9  A    between atoms: C28_17  and  C8_7 
REMARK   10  A    between atoms: C10_8  and  S7_20 
REMARK   11  A    between atoms: C12_10  and  O17_14 
REMARK   12  A    between atoms: C18_16  and  C19_15 
REMARK   13  A    between atoms: C19_15  and  C5_24 
REMARK   14  A    between atoms: C19_15  and  C6_25 
ROOT
ATOM      1  N6  41S d   1       9.661  20.053  27.951  0.00  0.00    -0.293 N 
ENDROOT
BRANCH   1   2
ATOM      2  C1  41S d   1      11.025  19.703  27.587  0.00  0.00     0.091 C 
ATOM      3  H1  41S d   1      11.437  20.445  26.887  0.00  0.00     0.087 H 
BRANCH   2   4
ATOM      4  C2  41S d   1      11.911  19.605  28.793  0.00  0.00     0.198 C 
ATOM      5  N4  41S d   1      12.877  20.511  28.980  0.00  0.00    -0.247 N 
ATOM      6  H19 41S d   1      13.019  21.255  28.328  0.00  0.00     0.196 HD
ATOM      7  O3  41S d   1      11.778  18.559  29.795  0.00  0.00    -0.173 OA
BRANCH   5   8
ATOM      8  O5  41S d   1      13.649  20.390  30.070  0.00  0.00    -0.288 OA
ATOM      9  H5  41S d   1      14.290  21.091  30.082  0.00  0.00     0.244 HD
ENDBRANCH   5   8
ENDBRANCH   2   4
BRANCH   2  10
ATOM     10  C28 41S d   1      10.917  18.334  26.924  0.00  0.00    -0.033 C 
ATOM     11  H18 41S d   1      10.371  17.669  27.609  0.00  0.00     0.042 H 
BRANCH  10  12
ATOM     12  C7  41S d   1      12.296  17.732  26.687  0.00  0.00    -0.071 C 
ATOM     13  H6  41S d   1      12.189  16.747  26.209  0.00  0.00     0.028 H 
ATOM     14  H7  41S d   1      12.816  17.618  27.649  0.00  0.00     0.028 H 
ATOM     15  H8  41S d   1      12.878  18.396  26.032  0.00  0.00     0.028 H 
ENDBRANCH  10  12
BRANCH  10  16
ATOM     16  C8  41S d   1      10.126  18.418  25.624  0.00  0.00    -0.071 C 
ATOM     17  H9  41S d   1       9.137  18.855  25.824  0.00  0.00     0.028 H 
ATOM     18  H10 41S d   1      10.002  17.409  25.204  0.00  0.00     0.028 H 
ATOM     19  H11 41S d   1      10.668  19.050  24.905  0.00  0.00     0.028 H 
ENDBRANCH  10  16
ENDBRANCH   2  10
ENDBRANCH   1   2
BRANCH   1  20
ATOM     20  C18 41S d   1       9.245  19.591  29.267  0.00  0.00     0.009 C 
ATOM     21  H16 41S d   1      10.119  19.305  29.870  0.00  0.00     0.066 H 
ATOM     22  H17 41S d   1       8.564  18.732  29.178  0.00  0.00     0.066 H 
BRANCH  20  23
ATOM     23  C19 41S d   1       8.527  20.780  29.894  0.00  0.00    -0.045 C 
ATOM     24  H15 41S d   1       8.174  21.429  29.079  0.00  0.00     0.041 H 
BRANCH  23  25
ATOM     25  C5  41S d   1       7.311  20.325  30.691  0.00  0.00    -0.072 C 
ATOM     26  H20 41S d   1       6.813  21.201  31.132  0.00  0.00     0.028 H 
ATOM     27  H21 41S d   1       7.632  19.644  31.493  0.00  0.00     0.028 H 
ATOM     28  H22 41S d   1       6.610  19.802  30.024  0.00  0.00     0.028 H 
ENDBRANCH  23  25
BRANCH  23  29
ATOM     29  C6  41S d   1       9.476  21.595  30.764  0.00  0.00    -0.072 C 
ATOM     30  H23 41S d   1      10.343  21.910  30.165  0.00  0.00     0.028 H 
ATOM     31  H24 41S d   1       9.818  20.980  31.609  0.00  0.00     0.028 H 
ATOM     32  H25 41S d   1       8.952  22.483  31.146  0.00  0.00     0.028 H 
ENDBRANCH  23  29
ENDBRANCH  20  23
ENDBRANCH   1  20
BRANCH   1  33
ATOM     33  S7  41S d   1       8.742  20.840  27.030  0.00  0.00     0.261 S 
ATOM     34  O8  41S d   1       7.390  20.391  27.205  0.00  0.00    -0.200 OA
ATOM     35  O9  41S d   1       9.142  20.636  25.666  0.00  0.00    -0.200 OA
BRANCH  33  36
ATOM     36  C10 41S d   1       8.837  22.393  27.384  0.00  0.00     0.082 A 
ATOM     37  C11 41S d   1       7.684  23.168  27.424  0.00  0.00    -0.025 A 
ATOM     38  C12 41S d   1       7.767  24.521  27.733  0.00  0.00     0.108 A 
ATOM     39  H12 41S d   1       6.721  22.718  27.214  0.00  0.00     0.090 H 
ATOM     40  C13 41S d   1       8.997  25.097  28.001  0.00  0.00     0.149 A 
ATOM     41  C14 41S d   1      10.151  24.323  27.962  0.00  0.00    -0.041 A 
ATOM     42  F16 41S d   1       9.075  26.406  28.299  0.00  0.00    -0.203 F 
ATOM     43  C15 41S d   1      10.072  22.971  27.654  0.00  0.00    -0.057 A 
ATOM     44  H13 41S d   1      11.114  24.775  28.172  0.00  0.00     0.088 H 
ATOM     45  H14 41S d   1      10.972  22.367  27.624  0.00  0.00     0.086 H 
BRANCH  38  46
ATOM     46  O17 41S d   1       6.631  25.285  27.771  0.00  0.00    -0.353 OA
BRANCH  46  47
ATOM     47  C3  41S d   1       5.354  24.660  27.883  0.00  0.00     0.011 C 
ATOM     48  H2  41S d   1       4.569  25.430  27.898  0.00  0.00     0.066 H 
ATOM     49  H3  41S d   1       5.312  24.076  28.814  0.00  0.00     0.066 H 
ATOM     50  H4  41S d   1       5.196  23.992  27.023  0.00  0.00     0.066 H 
ENDBRANCH  46  47
ENDBRANCH  38  46
ENDBRANCH  33  36
ENDBRANCH   1  33
TORSDOF 14
