REMARK  15 active torsions:
REMARK  status: ('A' for Active; 'I' for Inactive)
REMARK    1  A    between atoms: C1_1  and  C2_2 
REMARK    2  A    between atoms: N6_4  and  C1_1 
REMARK    3  A    between atoms: C1_1  and  C23_24 
REMARK    4  A    between atoms: N4_17  and  O5_3 
REMARK    5  A    between atoms: N6_4  and  C7_5 
REMARK    6  A    between atoms: S11_18  and  N6_4 
REMARK    7  A    between atoms: C7_5  and  C8_6 
REMARK    8  A    between atoms: C8_6  and  C9_7 
REMARK    9  A    between atoms: C8_6  and  C10_8 
REMARK   10  A    between atoms: C14_9  and  S11_18 
REMARK   11  A    between atoms: C16_11  and  C20_13 
REMARK   12  A    between atoms: C20_13  and  O21_23 
REMARK   13  A    between atoms: O21_23  and  C22_14 
REMARK   14  A    between atoms: C23_24  and  C24_15 
REMARK   15  A    between atoms: C23_24  and  C25_25 
ROOT
ATOM      1  N6  41T d   1       9.684  19.549  27.671  0.00  0.00    -0.293 N 
ENDROOT
BRANCH   1   2
ATOM      2  C1  41T d   1      11.089  19.183  27.426  0.00  0.00     0.091 C 
ATOM      3  H1  41T d   1      11.488  19.852  26.649  0.00  0.00     0.087 H 
BRANCH   2   4
ATOM      4  C2  41T d   1      11.996  19.241  28.628  0.00  0.00     0.198 C 
ATOM      5  O3  41T d   1      11.921  18.216  29.678  0.00  0.00    -0.173 OA
ATOM      6  N4  41T d   1      12.920  20.240  28.717  0.00  0.00    -0.247 N 
ATOM      7  H22 41T d   1      12.912  20.974  28.038  0.00  0.00     0.196 HD
BRANCH   6   8
ATOM      8  O5  41T d   1      13.848  20.262  29.704  0.00  0.00    -0.288 OA
ATOM      9  H2  41T d   1      14.400  21.029  29.601  0.00  0.00     0.244 HD
ENDBRANCH   6   8
ENDBRANCH   2   4
BRANCH   2  10
ATOM     10  C23 41T d   1      11.136  17.726  26.948  0.00  0.00    -0.033 C 
ATOM     11  H25 41T d   1      10.878  17.107  27.820  0.00  0.00     0.042 H 
BRANCH  10  12
ATOM     12  C24 41T d   1      12.554  17.352  26.524  0.00  0.00    -0.071 C 
ATOM     13  H19 41T d   1      12.571  16.306  26.184  0.00  0.00     0.028 H 
ATOM     14  H20 41T d   1      13.236  17.471  27.379  0.00  0.00     0.028 H 
ATOM     15  H21 41T d   1      12.877  18.009  25.703  0.00  0.00     0.028 H 
ENDBRANCH  10  12
BRANCH  10  16
ATOM     16  C25 41T d   1      10.145  17.353  25.847  0.00  0.00    -0.071 C 
ATOM     17  H26 41T d   1       9.127  17.626  26.162  0.00  0.00     0.028 H 
ATOM     18  H27 41T d   1      10.193  16.270  25.662  0.00  0.00     0.028 H 
ATOM     19  H28 41T d   1      10.401  17.894  24.924  0.00  0.00     0.028 H 
ENDBRANCH  10  16
ENDBRANCH   2  10
ENDBRANCH   1   2
BRANCH   1  20
ATOM     20  C7  41T d   1       9.070  18.959  28.866  0.00  0.00     0.009 C 
ATOM     21  H3  41T d   1       9.855  18.522  29.500  0.00  0.00     0.066 H 
ATOM     22  H4  41T d   1       8.365  18.172  28.561  0.00  0.00     0.066 H 
BRANCH  20  23
ATOM     23  C8  41T d   1       8.319  20.031  29.658  0.00  0.00    -0.045 C 
ATOM     24  H5  41T d   1       7.709  20.600  28.941  0.00  0.00     0.041 H 
BRANCH  23  25
ATOM     25  C9  41T d   1       9.274  21.009  30.328  0.00  0.00    -0.072 C 
ATOM     26  H6  41T d   1       8.697  21.761  30.886  0.00  0.00     0.028 H 
ATOM     27  H7  41T d   1       9.884  21.509  29.561  0.00  0.00     0.028 H 
ATOM     28  H8  41T d   1       9.931  20.463  31.021  0.00  0.00     0.028 H 
ENDBRANCH  23  25
BRANCH  23  29
ATOM     29  C10 41T d   1       7.372  19.422  30.687  0.00  0.00    -0.072 C 
ATOM     30  H9  41T d   1       6.690  18.719  30.187  0.00  0.00     0.028 H 
ATOM     31  H10 41T d   1       6.788  20.221  31.166  0.00  0.00     0.028 H 
ATOM     32  H11 41T d   1       7.955  18.886  31.450  0.00  0.00     0.028 H 
ENDBRANCH  23  29
ENDBRANCH  20  23
ENDBRANCH   1  20
BRANCH   1  33
ATOM     33  S11 41T d   1       8.917  20.432  26.685  0.00  0.00     0.261 S 
ATOM     34  O12 41T d   1       7.597  19.897  26.511  0.00  0.00    -0.200 OA
ATOM     35  O13 41T d   1       9.589  20.401  25.418  0.00  0.00    -0.200 OA
BRANCH  33  36
ATOM     36  C14 41T d   1       8.769  21.967  27.090  0.00  0.00     0.080 A 
ATOM     37  C15 41T d   1       7.492  22.512  27.149  0.00  0.00    -0.052 A 
ATOM     38  C16 41T d   1       7.312  23.846  27.488  0.00  0.00    -0.033 A 
ATOM     39  H12 41T d   1       6.631  21.891  26.929  0.00  0.00     0.086 H 
ATOM     40  C17 41T d   1       8.419  24.641  27.760  0.00  0.00    -0.075 A 
ATOM     41  C18 41T d   1       9.700  24.099  27.701  0.00  0.00    -0.081 A 
ATOM     42  H23 41T d   1       8.285  25.685  28.019  0.00  0.00     0.084 H 
ATOM     43  C19 41T d   1       9.877  22.760  27.364  0.00  0.00    -0.060 A 
ATOM     44  H24 41T d   1      10.561  24.721  27.918  0.00  0.00     0.083 H 
ATOM     45  H13 41T d   1      10.874  22.338  27.316  0.00  0.00     0.085 H 
BRANCH  38  46
ATOM     46  C20 41T d   1       5.911  24.413  27.543  0.00  0.00     0.043 C 
ATOM     47  H14 41T d   1       5.613  24.528  28.596  0.00  0.00     0.081 H 
ATOM     48  H15 41T d   1       5.223  23.716  27.041  0.00  0.00     0.081 H 
BRANCH  46  49
ATOM     49  O21 41T d   1       5.836  25.682  26.899  0.00  0.00    -0.391 OA
BRANCH  49  50
ATOM     50  C22 41T d   1       4.480  26.072  26.677  0.00  0.00     0.004 C 
ATOM     51  H16 41T d   1       4.457  27.053  26.180  0.00  0.00     0.066 H 
ATOM     52  H17 41T d   1       3.955  26.137  27.641  0.00  0.00     0.066 H 
ATOM     53  H18 41T d   1       3.984  25.326  26.039  0.00  0.00     0.066 H 
ENDBRANCH  49  50
ENDBRANCH  46  49
ENDBRANCH  38  46
ENDBRANCH  33  36
ENDBRANCH   1  33
TORSDOF 15
