REMARK  7 active torsions:
REMARK  status: ('A' for Active; 'I' for Inactive)
REMARK    1  A    between atoms: C22_1  and  C21_2 
REMARK    2  A    between atoms: C7_6  and  C1_7 
REMARK    3  A    between atoms: C6_16  and  C8_17 
REMARK    4  A    between atoms: C8_17  and  C18_18 
REMARK    5  A    between atoms: C8_17  and  C9_20 
REMARK    6  A    between atoms: C16_24  and  O1_25 
REMARK    7  A    between atoms: O1_25  and  C19_26 
ROOT
ATOM      1  C8  46G d   1      21.047  31.109  55.202  0.00  0.00     0.189 C 
ATOM      2  F2  46G d   1      22.207  31.675  54.909  0.00  0.00    -0.229 F 
ENDROOT
BRANCH   1   3
ATOM      3  C6  46G d   1      21.345  29.832  55.966  0.00  0.00     0.179 A 
ATOM      4  N1  46G d   1      22.366  29.725  56.880  0.00  0.00    -0.285 N 
ATOM      5  C5  46G d   1      23.349  30.598  57.350  0.00  0.00     0.001 A 
ATOM      6  C4  46G d   1      22.266  28.416  57.324  0.00  0.00     0.196 A 
ATOM      7  C1  46G d   1      24.237  30.136  58.330  0.00  0.00     0.019 A 
ATOM      8  H6  46G d   1      23.424  31.614  56.964  0.00  0.00     0.113 H 
ATOM      9  C2  46G d   1      24.148  28.819  58.773  0.00  0.00    -0.028 A 
ATOM     10  C3  46G d   1      23.163  27.968  58.288  0.00  0.00     0.165 A 
ATOM     11  H5  46G d   1      24.860  28.451  59.510  0.00  0.00     0.089 H 
ATOM     12  F1  46G d   1      23.076  26.702  58.728  0.00  0.00    -0.202 F 
ATOM     13  N2  46G d   1      21.243  27.856  56.683  0.00  0.00    -0.126 NA
ATOM     14  N3  46G d   1      20.707  28.672  55.894  0.00  0.00    -0.130 NA
BRANCH   7  15
ATOM     15  C7  46G d   1      25.257  30.968  58.764  0.00  0.00     0.115 A 
ATOM     16  C20 46G d   1      26.265  30.742  59.618  0.00  0.00    -0.022 A 
ATOM     17  C21 46G d   1      27.026  31.842  59.604  0.00  0.00     0.061 A 
ATOM     18  H4  46G d   1      26.431  29.841  60.207  0.00  0.00     0.091 H 
ATOM     19  N5  46G d   1      26.563  32.745  58.755  0.00  0.00    -0.133 NA
ATOM     20  O2  46G d   1      25.418  32.193  58.187  0.00  0.00    -0.212 OA
BRANCH  17  21
ATOM     21  C22 46G d   1      28.266  32.070  60.449  0.00  0.00    -0.033 C 
ATOM     22  H1  46G d   1      28.452  31.184  61.073  0.00  0.00     0.035 H 
ATOM     23  H2  46G d   1      28.114  32.947  61.095  0.00  0.00     0.035 H 
ATOM     24  H3  46G d   1      29.131  32.244  59.792  0.00  0.00     0.035 H 
ENDBRANCH  17  21
ENDBRANCH   7  15
ENDBRANCH   1   3
BRANCH   1  25
ATOM     25  C18 46G d   1      20.206  30.761  53.950  0.00  0.00    -0.032 C 
ATOM     26  H7  46G d   1      19.985  31.681  53.389  0.00  0.00     0.033 H 
ATOM     27  H8  46G d   1      19.264  30.286  54.261  0.00  0.00     0.033 H 
ATOM     28  H9  46G d   1      20.771  30.068  53.309  0.00  0.00     0.033 H 
ENDBRANCH   1  25
BRANCH   1  29
ATOM     29  C9  46G d   1      20.256  32.038  56.145  0.00  0.00    -0.011 A 
ATOM     30  C14 46G d   1      20.814  33.219  56.626  0.00  0.00    -0.061 A 
ATOM     31  C13 46G d   1      20.071  34.041  57.486  0.00  0.00    -0.004 A 
ATOM     32  H10 46G d   1      21.820  33.502  56.337  0.00  0.00     0.085 H 
ATOM     33  C17 46G d   1      20.599  35.233  57.982  0.00  0.00    -0.037 A 
ATOM     34  C12 46G d   1      18.770  33.668  57.845  0.00  0.00     0.067 A 
ATOM     35  C16 46G d   1      19.800  36.004  58.841  0.00  0.00     0.086 A 
ATOM     36  H11 46G d   1      21.598  35.555  57.712  0.00  0.00     0.089 H 
ATOM     37  C15 46G d   1      18.522  35.562  59.152  0.00  0.00     0.035 A 
ATOM     38  N4  46G d   1      18.036  34.435  58.666  0.00  0.00    -0.258 NA
ATOM     39  H15 46G d   1      17.905  36.160  59.813  0.00  0.00     0.119 H 
ATOM     40  C11 46G d   1      18.220  32.486  57.374  0.00  0.00    -0.054 A 
ATOM     41  C10 46G d   1      18.958  31.672  56.520  0.00  0.00    -0.071 A 
ATOM     42  H16 46G d   1      17.218  32.197  57.670  0.00  0.00     0.087 H 
ATOM     43  H17 46G d   1      18.526  30.752  56.144  0.00  0.00     0.084 H 
BRANCH  35  44
ATOM     44  O1  46G d   1      20.189  37.191  59.396  0.00  0.00    -0.354 OA
BRANCH  44  45
ATOM     45  C19 46G d   1      21.607  37.339  59.611  0.00  0.00     0.010 C 
ATOM     46  H12 46G d   1      21.809  38.323  60.058  0.00  0.00     0.066 H 
ATOM     47  H13 46G d   1      22.134  37.258  58.649  0.00  0.00     0.066 H 
ATOM     48  H14 46G d   1      21.959  36.548  60.290  0.00  0.00     0.066 H 
ENDBRANCH  44  45
ENDBRANCH  35  44
ENDBRANCH   1  29
TORSDOF 7
