REMARK  10 active torsions:
REMARK  status: ('A' for Active; 'I' for Inactive)
REMARK    1  A    between atoms: CBF_2  and  OAW_5 
REMARK    2  A    between atoms: OAW_5  and  CAZ_6 
REMARK    3  A    between atoms: CAY_11  and  NAT_12 
REMARK       I    between atoms: NAT_12  and  CAX_13 
REMARK       I    between atoms: CAX_13  and  NAU_15 
REMARK    4  A    between atoms: NAU_15  and  CBA_16 
REMARK    5  A    between atoms: CBC_21  and  OAV_22 
REMARK    6  A    between atoms: OAV_22  and  CBB_23 
REMARK    7  A    between atoms: CBD_28  and  CBE_29 
REMARK    8  A    between atoms: CBE_29  and  CAC_30 
REMARK    9  A    between atoms: CBE_29  and  CAA_31 
REMARK   10  A    between atoms: CBE_29  and  CAB_32 
ROOT
ATOM      1  CBA BUR d   1     -15.808  34.701   3.625  0.00  0.00     0.090 A 
ATOM      2  CAL BUR d   1     -16.550  35.332   2.606  0.00  0.00    -0.051 A 
ATOM      3  CAJ BUR d   1     -15.928  35.768   1.430  0.00  0.00    -0.064 A 
ATOM      4  CAK BUR d   1     -14.555  35.568   1.267  0.00  0.00     0.005 A 
ATOM      5  NAS BUR d   1     -13.823  34.942   2.302  0.00  0.00    -0.235 NA
ATOM      6  CBC BUR d   1     -14.431  34.503   3.432  0.00  0.00     0.197 A 
ATOM      7  H7  BUR d   1     -17.616  35.482   2.735  0.00  0.00     0.087 H 
ATOM      8  H8  BUR d   1     -16.506  36.256   0.654  0.00  0.00     0.085 H 
ATOM      9  H9  BUR d   1     -14.057  35.889   0.359  0.00  0.00     0.114 H 
ENDROOT
BRANCH   6  10
ATOM     10  OAV BUR d   1     -13.763  33.867   4.460  0.00  0.00    -0.290 OA
BRANCH  10  11
ATOM     11  CBB BUR d   1     -12.541  33.255   4.260  0.00  0.00     0.085 A 
ATOM     12  CAM BUR d   1     -12.339  32.374   3.182  0.00  0.00    -0.050 A 
ATOM     13  CAH BUR d   1     -11.101  31.766   2.977  0.00  0.00    -0.080 A 
ATOM     14  H10 BUR d   1     -13.157  32.165   2.502  0.00  0.00     0.087 H 
ATOM     15  CAI BUR d   1     -10.071  31.974   3.890  0.00  0.00    -0.082 A 
ATOM     16  H11 BUR d   1     -10.941  31.134   2.111  0.00  0.00     0.083 H 
ATOM     17  CAN BUR d   1     -10.282  32.814   4.986  0.00  0.00    -0.073 A 
ATOM     18  H12 BUR d   1      -9.112  31.488   3.752  0.00  0.00     0.083 H 
ATOM     19  CBD BUR d   1     -11.508  33.468   5.224  0.00  0.00    -0.017 A 
ATOM     20  H13 BUR d   1      -9.467  32.970   5.684  0.00  0.00     0.084 H 
BRANCH  19  21
ATOM     21  CBE BUR d   1     -11.617  34.333   6.389  0.00  0.00    -0.021 C 
BRANCH  21  22
ATOM     22  CAC BUR d   1     -12.719  33.863   7.356  0.00  0.00    -0.066 C 
ATOM     23  H14 BUR d   1     -12.765  34.544   8.219  0.00  0.00     0.028 H 
ATOM     24  H15 BUR d   1     -12.491  32.845   7.705  0.00  0.00     0.028 H 
ATOM     25  H16 BUR d   1     -13.688  33.864   6.836  0.00  0.00     0.028 H 
ENDBRANCH  21  22
BRANCH  21  26
ATOM     26  CAA BUR d   1     -10.304  34.380   7.202  0.00  0.00    -0.066 C 
ATOM     27  H17 BUR d   1      -9.482  34.712   6.551  0.00  0.00     0.028 H 
ATOM     28  H18 BUR d   1     -10.079  33.377   7.594  0.00  0.00     0.028 H 
ATOM     29  H19 BUR d   1     -10.416  35.084   8.040  0.00  0.00     0.028 H 
ENDBRANCH  21  26
BRANCH  21  30
ATOM     30  CAB BUR d   1     -11.918  35.783   5.979  0.00  0.00    -0.066 C 
ATOM     31  H20 BUR d   1     -12.848  35.813   5.393  0.00  0.00     0.028 H 
ATOM     32  H21 BUR d   1     -11.089  36.172   5.370  0.00  0.00     0.028 H 
ATOM     33  H22 BUR d   1     -12.032  36.403   6.880  0.00  0.00     0.028 H 
ENDBRANCH  21  30
ENDBRANCH  19  21
ENDBRANCH  10  11
ENDBRANCH   6  10
BRANCH   1  34
ATOM     34  NAU BUR d   1     -16.306  34.268   4.819  0.00  0.00    -0.305 N 
ATOM     35  CAX BUR d   1     -17.344  34.868   5.473  0.00  0.00     0.325 C 
ATOM     36  NAT BUR d   1     -17.633  34.370   6.711  0.00  0.00    -0.309 N 
ATOM     37  OAD BUR d   1     -18.037  35.735   4.931  0.00  0.00    -0.247 OA
ATOM     38  H5  BUR d   1     -17.066  33.617   7.045  0.00  0.00     0.170 HD
ATOM     39  H6  BUR d   1     -15.886  33.464   5.240  0.00  0.00     0.171 HD
BRANCH  36  40
ATOM     40  CAY BUR d   1     -18.627  34.812   7.528  0.00  0.00     0.036 A 
ATOM     41  CAO BUR d   1     -18.600  34.380   8.866  0.00  0.00    -0.054 A 
ATOM     42  CAQ BUR d   1     -19.564  34.807   9.791  0.00  0.00    -0.048 A 
ATOM     43  H2  BUR d   1     -17.818  33.703   9.189  0.00  0.00     0.087 H 
ATOM     44  CAZ BUR d   1     -20.594  35.669   9.384  0.00  0.00     0.078 A 
ATOM     45  H1  BUR d   1     -19.514  34.471  10.820  0.00  0.00     0.087 H 
ATOM     46  CAR BUR d   1     -20.623  36.130   8.058  0.00  0.00    -0.048 A 
ATOM     47  CAP BUR d   1     -19.660  35.691   7.141  0.00  0.00    -0.054 A 
ATOM     48  H3  BUR d   1     -21.392  36.827   7.744  0.00  0.00     0.087 H 
ATOM     49  H4  BUR d   1     -19.709  36.033   6.114  0.00  0.00     0.087 H 
BRANCH  44  50
ATOM     50  OAW BUR d   1     -21.536  36.100  10.285  0.00  0.00    -0.255 OA
BRANCH  50  51
ATOM     51  CBF BUR d   1     -22.766  35.322  10.367  0.00  0.00     0.530 C 
ATOM     52  FAE BUR d   1     -22.516  34.054  10.798  0.00  0.00    -0.144 F 
ATOM     53  FAF BUR d   1     -23.565  35.893  11.261  0.00  0.00    -0.144 F 
ATOM     54  FAG BUR d   1     -23.428  35.265   9.109  0.00  0.00    -0.144 F 
ENDBRANCH  50  51
ENDBRANCH  44  50
ENDBRANCH  36  40
ENDBRANCH   1  34
TORSDOF 10
