REMARK  8 active torsions:
REMARK  status: ('A' for Active; 'I' for Inactive)
REMARK    1  A    between atoms: PBC_2  and  OAR_5 
REMARK    2  A    between atoms: OAR_5  and  CAW_6 
REMARK    3  A    between atoms: CBA_8  and  CAJ_9 
REMARK    4  A    between atoms: CAJ_9  and  OAQ_10 
REMARK    5  A    between atoms: OAQ_10  and  PBB_11 
REMARK    6  A    between atoms: CAX_17  and  N9_18 
REMARK    7  A    between atoms: C6_27  and  N6_28 
REMARK    8  A    between atoms: N6_28  and  CAA_29 
ROOT
ATOM      1  CAW 2ID d   1      22.171  22.773  10.156  0.00  0.00     0.063 C 
ATOM      2  CAK 2ID d   1      21.206  22.586  11.300  0.00  0.00    -0.020 C 
ATOM      3  CBA 2ID d   1      22.016  24.266   9.678  0.00  0.00     0.015 A 
ATOM      4  CAL 2ID d   1      22.064  25.395  10.646  0.00  0.00    -0.047 A 
ATOM      5  CAY 2ID d   1      20.761  24.755  10.304  0.00  0.00    -0.021 A 
ATOM      6  CAX 2ID d   1      20.126  23.662  11.110  0.00  0.00     0.026 C 
ATOM      7  H1  2ID d   1      21.938  22.085   9.330  0.00  0.00     0.085 H 
ATOM      8  H2  2ID d   1      21.720  22.724  12.262  0.00  0.00     0.040 H 
ATOM      9  H3  2ID d   1      20.758  21.582  11.264  0.00  0.00     0.040 H 
ATOM     10  H6  2ID d   1      22.287  26.413  10.294  0.00  0.00     0.035 H 
ATOM     11  H7  2ID d   1      22.505  25.247  11.643  0.00  0.00     0.035 H 
ATOM     12  H8  2ID d   1      20.001  25.342   9.767  0.00  0.00     0.044 H 
ATOM     13  H9  2ID d   1      19.795  24.041  12.088  0.00  0.00     0.074 H 
ENDROOT
BRANCH   6  14
ATOM     14  N9  2ID d   1      18.960  23.143  10.358  0.00  0.00    -0.319 N 
ATOM     15  C8  2ID d   1      18.875  22.840   9.070  0.00  0.00     0.069 A 
ATOM     16  N7  2ID d   1      17.654  22.376   8.819  0.00  0.00    -0.236 NA
ATOM     17  H10 2ID d   1      19.674  22.953   8.338  0.00  0.00     0.143 H 
ATOM     18  C5  2ID d   1      16.979  22.391   9.955  0.00  0.00     0.149 A 
ATOM     19  C4  2ID d   1      17.789  22.866  10.903  0.00  0.00     0.167 A 
ATOM     20  C6  2ID d   1      15.733  22.036  10.260  0.00  0.00     0.159 A 
ATOM     21  N3  2ID d   1      17.345  22.982  12.161  0.00  0.00    -0.203 NA
ATOM     22  C2  2ID d   1      16.081  22.617  12.458  0.00  0.00     0.195 A 
ATOM     23  I2  2ID d   1      15.369  22.781  14.426  0.00  0.00     0.001 I 
ATOM     24  N1  2ID d   1      15.265  22.146  11.501  0.00  0.00    -0.203 NA
BRANCH  20  25
ATOM     25  N6  2ID d   1      14.987  21.579   9.275  0.00  0.00    -0.377 N 
ATOM     26  H11 2ID d   1      15.221  21.772   8.291  0.00  0.00     0.160 HD
BRANCH  25  27
ATOM     27  CAA 2ID d   1      13.803  20.780   9.641  0.00  0.00    -0.019 C 
ATOM     28  H12 2ID d   1      13.276  20.466   8.728  0.00  0.00     0.056 H 
ATOM     29  H13 2ID d   1      13.129  21.387  10.263  0.00  0.00     0.056 H 
ATOM     30  H14 2ID d   1      14.121  19.891  10.205  0.00  0.00     0.056 H 
ENDBRANCH  25  27
ENDBRANCH  20  25
ENDBRANCH   6  14
BRANCH   1  31
ATOM     31  OAR 2ID d   1      23.501  22.510  10.652  0.00  0.00    -0.276 OA
BRANCH  31  32
ATOM     32  PBC 2ID d   1      24.196  21.030  10.556  0.00  0.00     0.422 P 
ATOM     33  OAF 2ID d   1      24.560  20.554  12.040  0.00  0.00    -0.617 OA
ATOM     34  OAG 2ID d   1      23.076  19.990  10.056  0.00  0.00    -0.617 OA
ATOM     35  OAC 2ID d   1      25.441  20.990   9.735  0.00  0.00    -0.617 OA
ENDBRANCH  31  32
ENDBRANCH   1  31
BRANCH   3  36
ATOM     36  CAJ 2ID d   1      21.874  24.566   8.207  0.00  0.00     0.042 C 
ATOM     37  H4  2ID d   1      22.374  25.522   7.992  0.00  0.00     0.076 H 
ATOM     38  H5  2ID d   1      20.804  24.649   7.965  0.00  0.00     0.076 H 
BRANCH  36  39
ATOM     39  OAQ 2ID d   1      22.447  23.561   7.393  0.00  0.00    -0.282 OA
BRANCH  39  40
ATOM     40  PBB 2ID d   1      22.240  23.721   5.803  0.00  0.00     0.422 P 
ATOM     41  OAD 2ID d   1      22.504  25.255   5.471  0.00  0.00    -0.617 OA
ATOM     42  OAE 2ID d   1      20.645  23.499   5.538  0.00  0.00    -0.617 OA
ATOM     43  OAB 2ID d   1      23.085  22.754   5.047  0.00  0.00    -0.617 OA
ENDBRANCH  39  40
ENDBRANCH  36  39
ENDBRANCH   3  36
TORSDOF 8
