REMARK  26 active torsions:
REMARK  status: ('A' for Active; 'I' for Inactive)
REMARK    1  A    between atoms: O3_4  and  P_1 
REMARK    2  A    between atoms: P_1  and  O10_10 
REMARK    3  A    between atoms: C26_18  and  O1_2 
REMARK    4  A    between atoms: C41_31  and  O2_3 
REMARK    5  A    between atoms: C43_33  and  O3_4 
REMARK    6  A    between atoms: C15_14  and  O8_8 
REMARK    7  A    between atoms: O9_9  and  C42_32 
REMARK    8  A    between atoms: C45_35  and  O9_9 
REMARK    9  A    between atoms: O10_10  and  C16_15 
REMARK   10  A    between atoms: C44_34  and  O11_11 
REMARK   11  A    between atoms: C20_17  and  O12_12 
REMARK   12  A    between atoms: C17_16  and  O13_13 
REMARK   13  A    between atoms: C16_15  and  C15_14 
REMARK   14  A    between atoms: C15_14  and  C45_35 
REMARK   15  A    between atoms: C30_20  and  C29_19 
REMARK   16  A    between atoms: C31_21  and  C30_20 
REMARK   17  A    between atoms: C32_22  and  C31_21 
REMARK   18  A    between atoms: C33_23  and  C32_22 
REMARK   19  A    between atoms: C34_24  and  C33_23 
REMARK   20  A    between atoms: C35_25  and  C34_24 
REMARK   21  A    between atoms: C36_26  and  C35_25 
REMARK   22  A    between atoms: C37_27  and  C36_26 
REMARK   23  A    between atoms: C38_28  and  C37_27 
REMARK   24  A    between atoms: C39_29  and  C38_28 
REMARK   25  A    between atoms: C40_30  and  C39_29 
REMARK   26  A    between atoms: C42_32  and  C40_30 
ROOT
ATOM      1  O7  LPY d   1      -6.813   2.195  15.634  0.00  0.00    -0.265 OA
ATOM      2  C42 LPY d   1      -7.849   1.557  15.578  0.00  0.00     0.258 C 
ENDROOT
BRANCH   2   3
ATOM      3  O9  LPY d   1      -8.838   1.698  16.614  0.00  0.00    -0.319 OA
BRANCH   3   4
ATOM      4  C45 LPY d   1      -8.289   1.726  17.946  0.00  0.00     0.054 C 
ATOM      5  H41 LPY d   1      -7.261   2.115  17.910  0.00  0.00     0.079 H 
ATOM      6  H42 LPY d   1      -8.281   0.707  18.361  0.00  0.00     0.079 H 
BRANCH   4   7
ATOM      7  C15 LPY d   1      -9.153   2.638  18.840  0.00  0.00     0.077 C 
ATOM      8  H7  LPY d   1      -8.730   3.653  18.844  0.00  0.00     0.089 H 
BRANCH   7   9
ATOM      9  O8  LPY d   1     -10.460   2.680  18.340  0.00  0.00    -0.391 OA
ATOM     10  H3  LPY d   1     -10.448   3.022  17.454  0.00  0.00     0.210 HD
ENDBRANCH   7   9
BRANCH   7  11
ATOM     11  C16 LPY d   1      -9.170   2.092  20.256  0.00  0.00     0.057 C 
ATOM     12  H8  LPY d   1     -10.048   1.442  20.388  0.00  0.00     0.079 H 
ATOM     13  H9  LPY d   1      -8.253   1.511  20.436  0.00  0.00     0.079 H 
BRANCH  11  14
ATOM     14  O10 LPY d   1      -9.237   3.186  21.192  0.00  0.00    -0.287 OA
BRANCH  14  15
ATOM     15  P   LPY d   1     -10.342   3.130  22.361  0.00  0.00     0.408 P 
ATOM     16  O4  LPY d   1     -10.174   4.319  23.268  0.00  0.00    -0.624 OA
ATOM     17  O5  LPY d   1     -11.719   3.154  21.752  0.00  0.00    -0.624 OA
BRANCH  15  18
ATOM     18  O3  LPY d   1     -10.158   1.787  23.206  0.00  0.00    -0.279 OA
BRANCH  18  19
ATOM     19  C43 LPY d   1     -11.200   1.393  24.088  0.00  0.00     0.105 C 
ATOM     20  C41 LPY d   1     -10.882   0.020  24.641  0.00  0.00     0.090 C 
ATOM     21  C26 LPY d   1     -11.873  -0.409  25.714  0.00  0.00     0.090 C 
ATOM     22  H38 LPY d   1      -9.873   0.040  25.079  0.00  0.00     0.091 H 
ATOM     23  C17 LPY d   1     -12.010   0.631  26.813  0.00  0.00     0.090 C 
ATOM     24  H12 LPY d   1     -12.857  -0.560  25.246  0.00  0.00     0.091 H 
ATOM     25  C20 LPY d   1     -12.326   2.004  26.260  0.00  0.00     0.090 C 
ATOM     26  H10 LPY d   1     -11.063   0.683  27.370  0.00  0.00     0.091 H 
ATOM     27  C44 LPY d   1     -11.333   2.431  25.184  0.00  0.00     0.090 C 
ATOM     28  H11 LPY d   1     -13.335   1.985  25.822  0.00  0.00     0.091 H 
ATOM     29  H40 LPY d   1     -11.681   3.374  24.737  0.00  0.00     0.091 H 
ATOM     30  H39 LPY d   1     -12.148   1.340  23.533  0.00  0.00     0.092 H 
BRANCH  20  31
ATOM     31  O2  LPY d   1     -10.917  -0.922  23.579  0.00  0.00    -0.390 OA
ATOM     32  H2  LPY d   1     -11.793  -0.953  23.213  0.00  0.00     0.210 HD
ENDBRANCH  20  31
BRANCH  21  33
ATOM     33  O1  LPY d   1     -11.433  -1.628  26.286  0.00  0.00    -0.390 OA
ATOM     34  H1  LPY d   1     -11.345  -2.283  25.604  0.00  0.00     0.210 HD
ENDBRANCH  21  33
BRANCH  23  35
ATOM     35  O13 LPY d   1     -13.060   0.235  27.698  0.00  0.00    -0.390 OA
ATOM     36  H6  LPY d   1     -12.868  -0.627  28.049  0.00  0.00     0.210 HD
ENDBRANCH  23  35
BRANCH  25  37
ATOM     37  O12 LPY d   1     -12.290   2.942  27.316  0.00  0.00    -0.390 OA
ATOM     38  H5  LPY d   1     -11.424   2.944  27.707  0.00  0.00     0.210 HD
ENDBRANCH  25  37
BRANCH  27  39
ATOM     39  O11 LPY d   1     -10.067   2.634  25.781  0.00  0.00    -0.390 OA
ATOM     40  H4  LPY d   1      -9.443   2.900  25.116  0.00  0.00     0.210 HD
ENDBRANCH  27  39
ENDBRANCH  18  19
ENDBRANCH  15  18
ENDBRANCH  14  15
ENDBRANCH  11  14
ENDBRANCH   7  11
ENDBRANCH   4   7
ENDBRANCH   3   4
ENDBRANCH   2   3
BRANCH   2  41
ATOM     41  C40 LPY d   1      -8.098   0.611  14.413  0.00  0.00     0.016 C 
ATOM     42  H36 LPY d   1      -7.293  -0.137  14.370  0.00  0.00     0.048 H 
ATOM     43  H37 LPY d   1      -9.064   0.103  14.553  0.00  0.00     0.048 H 
BRANCH  41  44
ATOM     44  C39 LPY d   1      -8.125   1.400  13.114  0.00  0.00    -0.057 C 
ATOM     45  H34 LPY d   1      -8.995   2.072  13.111  0.00  0.00     0.033 H 
ATOM     46  H35 LPY d   1      -7.203   1.993  13.026  0.00  0.00     0.033 H 
BRANCH  44  47
ATOM     47  C38 LPY d   1      -8.225   0.423  11.922  0.00  0.00    -0.065 C 
ATOM     48  H32 LPY d   1      -7.217   0.081  11.643  0.00  0.00     0.033 H 
ATOM     49  H33 LPY d   1      -8.840  -0.443  12.209  0.00  0.00     0.033 H 
BRANCH  47  50
ATOM     50  C37 LPY d   1      -8.875   1.138  10.720  0.00  0.00    -0.065 C 
ATOM     51  H30 LPY d   1      -9.927   1.361  10.951  0.00  0.00     0.033 H 
ATOM     52  H31 LPY d   1      -8.337   2.076  10.516  0.00  0.00     0.033 H 
BRANCH  50  53
ATOM     53  C36 LPY d   1      -8.802   0.212   9.464  0.00  0.00    -0.065 C 
ATOM     54  H28 LPY d   1      -7.781   0.230   9.055  0.00  0.00     0.033 H 
ATOM     55  H29 LPY d   1      -9.064  -0.817   9.752  0.00  0.00     0.033 H 
BRANCH  53  56
ATOM     56  C35 LPY d   1      -9.794   0.715   8.393  0.00  0.00    -0.065 C 
ATOM     57  H26 LPY d   1     -10.823   0.587   8.759  0.00  0.00     0.033 H 
ATOM     58  H27 LPY d   1      -9.606   1.780   8.191  0.00  0.00     0.033 H 
BRANCH  56  59
ATOM     59  C34 LPY d   1      -9.606  -0.097   7.091  0.00  0.00    -0.065 C 
ATOM     60  H24 LPY d   1      -8.770   0.324   6.514  0.00  0.00     0.033 H 
ATOM     61  H25 LPY d   1      -9.387  -1.146   7.341  0.00  0.00     0.033 H 
BRANCH  59  62
ATOM     62  C33 LPY d   1     -10.910  -0.027   6.243  0.00  0.00    -0.065 C 
ATOM     63  H22 LPY d   1     -11.564  -0.872   6.505  0.00  0.00     0.033 H 
ATOM     64  H23 LPY d   1     -11.432   0.919   6.450  0.00  0.00     0.033 H 
BRANCH  62  65
ATOM     65  C32 LPY d   1     -10.550  -0.100   4.734  0.00  0.00    -0.065 C 
ATOM     66  H20 LPY d   1      -9.462   0.009   4.611  0.00  0.00     0.033 H 
ATOM     67  H21 LPY d   1     -10.870  -1.071   4.328  0.00  0.00     0.033 H 
BRANCH  65  68
ATOM     68  C31 LPY d   1     -11.270   1.038   3.974  0.00  0.00    -0.065 C 
ATOM     69  H18 LPY d   1     -12.306   1.121   4.333  0.00  0.00     0.033 H 
ATOM     70  H19 LPY d   1     -10.744   1.988   4.151  0.00  0.00     0.033 H 
BRANCH  68  71
ATOM     71  C30 LPY d   1     -11.272   0.725   2.464  0.00  0.00    -0.069 C 
ATOM     72  H16 LPY d   1     -10.245   0.793   2.075  0.00  0.00     0.032 H 
ATOM     73  H17 LPY d   1     -11.660  -0.291   2.301  0.00  0.00     0.032 H 
BRANCH  71  74
ATOM     74  C29 LPY d   1     -12.165   1.737   1.731  0.00  0.00    -0.077 C 
ATOM     75  H13 LPY d   1     -12.166   1.513   0.654  0.00  0.00     0.027 H 
ATOM     76  H14 LPY d   1     -11.777   2.753   1.894  0.00  0.00     0.027 H 
ATOM     77  H15 LPY d   1     -13.192   1.669   2.120  0.00  0.00     0.027 H 
ENDBRANCH  71  74
ENDBRANCH  68  71
ENDBRANCH  65  68
ENDBRANCH  62  65
ENDBRANCH  59  62
ENDBRANCH  56  59
ENDBRANCH  53  56
ENDBRANCH  50  53
ENDBRANCH  47  50
ENDBRANCH  44  47
ENDBRANCH  41  44
ENDBRANCH   2  41
TORSDOF 26
