REMARK WARNING: 32 MAX_TORS EXCEEDED!!!
REMARK  48 active torsions:
REMARK  status: ('A' for Active; 'I' for Inactive)
REMARK    1  A    between atoms: OBN_1  and  CBM_2 
REMARK    2  A    between atoms: CBM_2  and  CBK_3 
REMARK    3  A    between atoms: CBK_3  and  OBL_4 
REMARK    4  A    between atoms: CBK_3  and  CBI_5 
REMARK    5  A    between atoms: CBI_5  and  OBJ_6 
REMARK    6  A    between atoms: CBI_5  and  CBC_7 
REMARK    7  A    between atoms: CAY_9  and  NAX_10 
REMARK       I    between atoms: NAX_10  and  CAV_11 
REMARK    8  A    between atoms: CAV_11  and  CAW_13 
REMARK    9  A    between atoms: CAZ_14  and  OBA_15 
REMARK   10  A    between atoms: CBE_17  and  CBF_18 
REMARK   11  A    between atoms: CBE_17  and  OCL_21 
REMARK   12  A    between atoms: OCL_21  and  CCM_22 
REMARK   13  A    between atoms: CCM_22  and  CCV_23 
REMARK   14  A    between atoms: NCS_27  and  CDH_28 
REMARK   15  A    between atoms: CDH_28  and  CDL_29 
REMARK   16  A    between atoms: CDL_29  and  NDK_30 
REMARK   17  A    between atoms: NDK_30  and  CDM_31 
REMARK   18  A    between atoms: NDK_30  and  CDJ_60 
REMARK   19  A    between atoms: CDM_31  and  CDI_32 
REMARK   20  A    between atoms: CDI_32  and  NCX_33 
REMARK   21  A    between atoms: CDA_37  and  CCP_38 
REMARK   22  A    between atoms: CCP_38  and  OCO_39 
REMARK   23  A    between atoms: OCO_39  and  CAK_40 
REMARK   24  A    between atoms: CAK_40  and  CAL_41 
REMARK   25  A    between atoms: CAF_46  and  OAG_47 
REMARK   26  A    between atoms: CAE_48  and  NAD_49 
REMARK       I    between atoms: NAD_49  and  CAB_50 
REMARK   27  A    between atoms: CAB_50  and  CAC_52 
REMARK   28  A    between atoms: CAI_53  and  CAO_54 
REMARK   29  A    between atoms: CAO_54  and  OAP_55 
REMARK   30  A    between atoms: CAO_54  and  CAQ_56 
REMARK   31  A    between atoms: CAQ_56  and  OAR_57 
REMARK   32  A    between atoms: CAQ_56  and  CAS_58 
REMARK   33  A    between atoms: CAS_58  and  OAT_59 
REMARK   34  A    between atoms: CDJ_60  and  CDG_61 
REMARK   35  A    between atoms: CDG_61  and  NDC_62 
REMARK   36  A    between atoms: CDF_66  and  CCJ_67 
REMARK   37  A    between atoms: CCJ_67  and  OCI_68 
REMARK   38  A    between atoms: OCI_68  and  CBY_69 
REMARK   39  A    between atoms: CBY_69  and  CBZ_70 
REMARK   40  A    between atoms: CBT_75  and  OBU_76 
REMARK   41  A    between atoms: CBS_77  and  NBR_78 
REMARK       I    between atoms: NBR_78  and  CBP_79 
REMARK   42  A    between atoms: CBP_79  and  CBQ_81 
REMARK   43  A    between atoms: CBW_82  and  CCC_83 
REMARK   44  A    between atoms: CCC_83  and  OCD_84 
REMARK   45  A    between atoms: CCC_83  and  CCE_85 
REMARK   46  A    between atoms: CCE_85  and  OCF_86 
REMARK   47  A    between atoms: CCE_85  and  CCG_87 
REMARK   48  A    between atoms: CCG_87  and  OCH_88 
ROOT
ATOM      1  NDK 423 d   1       3.717  10.222  -0.772  0.00  0.00    -0.066 N 
ATOM      2  H25 423 d   1       3.411   9.262  -0.776  0.00  0.00     0.280 HD
ENDROOT
BRANCH   1   3
ATOM      3  CDL 423 d   1       3.298  10.556   0.595  0.00  0.00     0.100 C 
ATOM      4  H23 423 d   1       4.173  10.483   1.258  0.00  0.00     0.078 H 
ATOM      5  H24 423 d   1       2.917  11.588   0.603  0.00  0.00     0.078 H 
BRANCH   3   6
ATOM      6  CDH 423 d   1       2.204   9.626   1.125  0.00  0.00     0.041 C 
ATOM      7  H21 423 d   1       1.950   9.906   2.158  0.00  0.00     0.070 H 
ATOM      8  H22 423 d   1       1.309   9.710   0.491  0.00  0.00     0.070 H 
BRANCH   6   9
ATOM      9  NCS 423 d   1       2.721   8.181   1.096  0.00  0.00    -0.259 N 
ATOM     10  CCR 423 d   1       2.345   7.236   0.226  0.00  0.00     0.028 A 
ATOM     11  CCV 423 d   1       3.063   6.084   0.573  0.00  0.00     0.099 A 
ATOM     12  H20 423 d   1       1.627   7.341  -0.586  0.00  0.00     0.117 H 
ATOM     13  NCU 423 d   1       3.875   6.485   1.676  0.00  0.00    -0.133 NA
ATOM     14  NCT 423 d   1       3.609   7.705   1.897  0.00  0.00    -0.066 NA
BRANCH  11  15
ATOM     15  CCM 423 d   1       2.418   4.688   0.539  0.00  0.00     0.066 C 
ATOM     16  H18 423 d   1       3.187   3.906   0.619  0.00  0.00     0.084 H 
ATOM     17  H19 423 d   1       1.695   4.577   1.361  0.00  0.00     0.084 H 
BRANCH  15  18
ATOM     18  OCL 423 d   1       1.763   4.613  -0.711  0.00  0.00    -0.340 OA
BRANCH  18  19
ATOM     19  CBE 423 d   1       1.069   3.406  -0.967  0.00  0.00     0.259 C 
ATOM     20  OBD 423 d   1       0.146   3.212   0.069  0.00  0.00    -0.336 OA
ATOM     21  CBC 423 d   1      -0.613   2.042  -0.129  0.00  0.00     0.091 C 
ATOM     22  CAY 423 d   1      -1.413   2.146  -1.444  0.00  0.00     0.064 C 
ATOM     23  H8  423 d   1       0.052   1.167  -0.177  0.00  0.00     0.090 H 
ATOM     24  CAZ 423 d   1      -0.411   2.284  -2.617  0.00  0.00     0.063 C 
ATOM     25  H9  423 d   1      -2.059   3.036  -1.416  0.00  0.00     0.080 H 
ATOM     26  CBB 423 d   1       0.354   3.548  -2.315  0.00  0.00     0.024 C 
ATOM     27  H14 423 d   1       0.247   1.405  -2.685  0.00  0.00     0.086 H 
ATOM     28  H16 423 d   1      -0.344   4.397  -2.272  0.00  0.00     0.045 H 
ATOM     29  H17 423 d   1       1.097   3.724  -3.107  0.00  0.00     0.045 H 
BRANCH  21  30
ATOM     30  CBI 423 d   1      -1.556   1.912   1.061  0.00  0.00     0.089 C 
ATOM     31  H6  423 d   1      -2.176   1.006   0.992  0.00  0.00     0.091 H 
BRANCH  30  32
ATOM     32  CBK 423 d   1      -0.613   1.879   2.267  0.00  0.00     0.083 C 
ATOM     33  H4  423 d   1      -0.124   2.862   2.337  0.00  0.00     0.090 H 
BRANCH  32  34
ATOM     34  CBM 423 d   1      -1.377   1.647   3.564  0.00  0.00     0.043 C 
ATOM     35  H2  423 d   1      -2.122   2.445   3.696  0.00  0.00     0.078 H 
ATOM     36  H3  423 d   1      -1.886   0.673   3.519  0.00  0.00     0.078 H 
BRANCH  34  37
ATOM     37  OBN 423 d   1      -0.466   1.657   4.673  0.00  0.00    -0.398 OA
ATOM     38  H1  423 d   1      -0.948   1.512   5.479  0.00  0.00     0.209 HD
ENDBRANCH  34  37
ENDBRANCH  32  34
BRANCH  32  39
ATOM     39  OBL 423 d   1       0.410   0.891   2.093  0.00  0.00    -0.391 OA
ATOM     40  H5  423 d   1       0.872   1.055   1.280  0.00  0.00     0.210 HD
ENDBRANCH  32  39
ENDBRANCH  30  32
BRANCH  30  41
ATOM     41  OBJ 423 d   1      -2.374   3.084   1.181  0.00  0.00    -0.390 OA
ATOM     42  H7  423 d   1      -1.820   3.856   1.190  0.00  0.00     0.210 HD
ENDBRANCH  30  41
ENDBRANCH  21  30
BRANCH  22  43
ATOM     43  NAX 423 d   1      -2.263   0.935  -1.585  0.00  0.00    -0.352 N 
ATOM     44  CAV 423 d   1      -3.563   0.959  -1.877  0.00  0.00     0.214 C 
ATOM     45  OAU 423 d   1      -4.251   1.967  -1.991  0.00  0.00    -0.274 OA
ATOM     46  H10 423 d   1      -1.831   0.043  -1.452  0.00  0.00     0.163 HD
BRANCH  44  47
ATOM     47  CAW 423 d   1      -4.223  -0.418  -1.969  0.00  0.00    -0.003 C 
ATOM     48  H11 423 d   1      -5.289  -0.298  -2.212  0.00  0.00     0.040 H 
ATOM     49  H12 423 d   1      -4.123  -0.938  -1.005  0.00  0.00     0.040 H 
ATOM     50  H13 423 d   1      -3.731  -1.008  -2.756  0.00  0.00     0.040 H 
ENDBRANCH  44  47
ENDBRANCH  22  43
BRANCH  24  51
ATOM     51  OBA 423 d   1      -1.106   2.511  -3.879  0.00  0.00    -0.393 OA
ATOM     52  H15 423 d   1      -1.684   1.778  -4.057  0.00  0.00     0.210 HD
ENDBRANCH  24  51
BRANCH  19  53
ATOM     53  CBF 423 d   1       2.175   2.269  -0.891  0.00  0.00     0.239 C 
ATOM     54  OBG 423 d   1       2.270   1.537   0.141  0.00  0.00    -0.644 OA
ATOM     55  OBH 423 d   1       3.009   2.207  -1.821  0.00  0.00    -0.644 OA
ENDBRANCH  19  53
ENDBRANCH  18  19
ENDBRANCH  15  18
ENDBRANCH  11  15
ENDBRANCH   6   9
ENDBRANCH   3   6
ENDBRANCH   1   3
BRANCH   1  56
ATOM     56  CDM 423 d   1       5.168  10.003  -0.848  0.00  0.00     0.100 C 
ATOM     57  H26 423 d   1       5.476   9.499   0.080  0.00  0.00     0.078 H 
ATOM     58  H27 423 d   1       5.649  10.990  -0.906  0.00  0.00     0.078 H 
BRANCH  56  59
ATOM     59  CDI 423 d   1       5.694   9.156  -2.036  0.00  0.00     0.041 C 
ATOM     60  H28 423 d   1       5.217   8.168  -1.962  0.00  0.00     0.070 H 
ATOM     61  H29 423 d   1       6.780   9.051  -1.899  0.00  0.00     0.070 H 
BRANCH  59  62
ATOM     62  NCX 423 d   1       5.477   9.638  -3.422  0.00  0.00    -0.259 N 
ATOM     63  CCW 423 d   1       4.948   9.154  -4.557  0.00  0.00     0.028 A 
ATOM     64  CDA 423 d   1       5.145  10.186  -5.369  0.00  0.00     0.099 A 
ATOM     65  H30 423 d   1       4.487   8.188  -4.756  0.00  0.00     0.117 H 
ATOM     66  NCZ 423 d   1       5.739  11.132  -4.669  0.00  0.00    -0.133 NA
ATOM     67  NCY 423 d   1       5.902  10.770  -3.607  0.00  0.00    -0.066 NA
BRANCH  64  68
ATOM     68  CCP 423 d   1       4.791  10.362  -6.838  0.00  0.00     0.066 C 
ATOM     69  H31 423 d   1       5.265   9.570  -7.436  0.00  0.00     0.084 H 
ATOM     70  H32 423 d   1       5.135  11.345  -7.192  0.00  0.00     0.084 H 
BRANCH  68  71
ATOM     71  OCO 423 d   1       3.375  10.273  -6.948  0.00  0.00    -0.340 OA
BRANCH  71  72
ATOM     72  CAK 423 d   1       2.946  10.018  -8.278  0.00  0.00     0.259 C 
ATOM     73  OAJ 423 d   1       3.608   8.879  -8.804  0.00  0.00    -0.336 OA
ATOM     74  CAI 423 d   1       3.207   8.562 -10.118  0.00  0.00     0.091 C 
ATOM     75  CAE 423 d   1       1.691   8.238 -10.101  0.00  0.00     0.064 C 
ATOM     76  H42 423 d   1       3.397   9.412 -10.790  0.00  0.00     0.090 H 
ATOM     77  CAF 423 d   1       0.936   9.483  -9.627  0.00  0.00     0.063 C 
ATOM     78  H37 423 d   1       1.487   7.396  -9.424  0.00  0.00     0.080 H 
ATOM     79  CAH 423 d   1       1.462   9.773  -8.234  0.00  0.00     0.024 C 
ATOM     80  H35 423 d   1       1.116  10.327 -10.310  0.00  0.00     0.086 H 
ATOM     81  H33 423 d   1       0.958  10.665  -7.834  0.00  0.00     0.045 H 
ATOM     82  H34 423 d   1       1.255   8.912  -7.581  0.00  0.00     0.045 H 
BRANCH  72  83
ATOM     83  CAL 423 d   1       3.409  11.296  -9.095  0.00  0.00     0.239 C 
ATOM     84  OAM 423 d   1       2.817  12.369  -8.885  0.00  0.00    -0.644 OA
ATOM     85  OAN 423 d   1       4.432  11.216  -9.831  0.00  0.00    -0.644 OA
ENDBRANCH  72  83
BRANCH  74  86
ATOM     86  CAO 423 d   1       4.015   7.346 -10.579  0.00  0.00     0.089 C 
ATOM     87  H43 423 d   1       3.762   7.067 -11.613  0.00  0.00     0.091 H 
BRANCH  86  88
ATOM     88  OAP 423 d   1       3.828   6.244  -9.690  0.00  0.00    -0.390 OA
ATOM     89  H44 423 d   1       4.115   6.490  -8.818  0.00  0.00     0.210 HD
ENDBRANCH  86  88
BRANCH  86  90
ATOM     90  CAQ 423 d   1       5.493   7.771 -10.432  0.00  0.00     0.083 C 
ATOM     91  H45 423 d   1       5.681   7.916  -9.358  0.00  0.00     0.090 H 
BRANCH  90  92
ATOM     92  OAR 423 d   1       5.751   9.034 -11.079  0.00  0.00    -0.391 OA
ATOM     93  H46 423 d   1       5.205   9.706 -10.688  0.00  0.00     0.210 HD
ENDBRANCH  90  92
BRANCH  90  94
ATOM     94  CAS 423 d   1       6.446   6.686 -10.906  0.00  0.00     0.043 C 
ATOM     95  H47 423 d   1       6.293   6.506 -11.980  0.00  0.00     0.078 H 
ATOM     96  H48 423 d   1       6.253   5.758 -10.348  0.00  0.00     0.078 H 
BRANCH  94  97
ATOM     97  OAT 423 d   1       7.794   7.108 -10.680  0.00  0.00    -0.398 OA
ATOM     98  H49 423 d   1       8.391   6.431 -10.976  0.00  0.00     0.209 HD
ENDBRANCH  94  97
ENDBRANCH  90  94
ENDBRANCH  86  90
ENDBRANCH  74  86
BRANCH  75  99
ATOM     99  NAD 423 d   1       1.288   7.890 -11.476  0.00  0.00    -0.352 N 
ATOM    100  CAB 423 d   1       0.540   6.801 -11.793  0.00  0.00     0.214 C 
ATOM    101  OAA 423 d   1       0.146   5.936 -10.997  0.00  0.00    -0.274 OA
ATOM    102  H38 423 d   1       1.583   8.491 -12.219  0.00  0.00     0.163 HD
BRANCH 100 103
ATOM    103  CAC 423 d   1       0.241   6.632 -13.274  0.00  0.00    -0.003 C 
ATOM    104  H39 423 d   1      -0.366   5.727 -13.425  0.00  0.00     0.040 H 
ATOM    105  H40 423 d   1       1.185   6.537 -13.830  0.00  0.00     0.040 H 
ATOM    106  H41 423 d   1      -0.312   7.510 -13.639  0.00  0.00     0.040 H 
ENDBRANCH 100 103
ENDBRANCH  75  99
BRANCH  77 107
ATOM    107  OAG 423 d   1      -0.485   9.234  -9.502  0.00  0.00    -0.393 OA
ATOM    108  H36 423 d   1      -0.849   9.048 -10.359  0.00  0.00     0.210 HD
ENDBRANCH  77 107
ENDBRANCH  71  72
ENDBRANCH  68  71
ENDBRANCH  64  68
ENDBRANCH  59  62
ENDBRANCH  56  59
ENDBRANCH   1  56
BRANCH   1 109
ATOM    109  CDJ 423 d   1       3.007  10.626  -1.999  0.00  0.00     0.100 C 
ATOM    110  H50 423 d   1       2.010  10.162  -1.987  0.00  0.00     0.078 H 
ATOM    111  H51 423 d   1       3.575  10.251  -2.863  0.00  0.00     0.078 H 
BRANCH 109 112
ATOM    112  CDG 423 d   1       2.826  12.151  -2.167  0.00  0.00     0.041 C 
ATOM    113  H52 423 d   1       2.467  12.329  -3.191  0.00  0.00     0.070 H 
ATOM    114  H53 423 d   1       3.815  12.616  -2.040  0.00  0.00     0.070 H 
BRANCH 112 115
ATOM    115  NDC 423 d   1       1.872  12.853  -1.225  0.00  0.00    -0.259 N 
ATOM    116  CDB 423 d   1       0.568  12.628  -1.415  0.00  0.00     0.028 A 
ATOM    117  CDF 423 d   1      -0.044  13.359  -0.496  0.00  0.00     0.099 A 
ATOM    118  H54 423 d   1       0.109  11.983  -2.163  0.00  0.00     0.117 H 
ATOM    119  NDE 423 d   1       0.902  13.965   0.186  0.00  0.00    -0.133 NA
ATOM    120  NDD 423 d   1       2.010  13.619  -0.329  0.00  0.00    -0.066 NA
BRANCH 117 121
ATOM    121  CCJ 423 d   1      -1.550  13.476  -0.227  0.00  0.00     0.066 C 
ATOM    122  H55 423 d   1      -1.945  14.376  -0.720  0.00  0.00     0.084 H 
ATOM    123  H56 423 d   1      -1.728  13.543   0.856  0.00  0.00     0.084 H 
BRANCH 121 124
ATOM    124  OCI 423 d   1      -2.197  12.324  -0.747  0.00  0.00    -0.340 OA
BRANCH 124 125
ATOM    125  CBY 423 d   1      -3.572  12.402  -0.964  0.00  0.00     0.259 C 
ATOM    126  OBX 423 d   1      -3.871  13.474  -1.807  0.00  0.00    -0.336 OA
ATOM    127  CBW 423 d   1      -5.240  13.626  -2.121  0.00  0.00     0.091 C 
ATOM    128  CBS 423 d   1      -5.746  12.326  -2.807  0.00  0.00     0.064 C 
ATOM    129  H66 423 d   1      -5.810  13.783  -1.193  0.00  0.00     0.090 H 
ATOM    130  CBT 423 d   1      -5.514  11.147  -1.827  0.00  0.00     0.063 C 
ATOM    131  H61 423 d   1      -5.187  12.147  -3.737  0.00  0.00     0.080 H 
ATOM    132  CBV 423 d   1      -4.029  11.097  -1.567  0.00  0.00     0.024 C 
ATOM    133  H59 423 d   1      -6.071  11.305  -0.892  0.00  0.00     0.086 H 
ATOM    134  H57 423 d   1      -3.808  10.275  -0.870  0.00  0.00     0.045 H 
ATOM    135  H58 423 d   1      -3.498  10.927  -2.515  0.00  0.00     0.045 H 
BRANCH 125 136
ATOM    136  CBZ 423 d   1      -4.156  12.729   0.474  0.00  0.00     0.239 C 
ATOM    137  OCA 423 d   1      -4.558  13.895   0.727  0.00  0.00    -0.644 OA
ATOM    138  OCB 423 d   1      -4.152  11.841   1.346  0.00  0.00    -0.644 OA
ENDBRANCH 125 136
BRANCH 127 139
ATOM    139  CCC 423 d   1      -5.425  14.844  -3.020  0.00  0.00     0.089 C 
ATOM    140  H67 423 d   1      -6.479  14.986  -3.300  0.00  0.00     0.091 H 
BRANCH 139 141
ATOM    141  OCD 423 d   1      -4.591  14.693  -4.176  0.00  0.00    -0.390 OA
ATOM    142  H68 423 d   1      -3.683  14.627  -3.904  0.00  0.00     0.210 HD
ENDBRANCH 139 141
BRANCH 139 143
ATOM    143  CCE 423 d   1      -4.871  16.043  -2.220  0.00  0.00     0.083 C 
ATOM    144  H69 423 d   1      -3.781  15.912  -2.149  0.00  0.00     0.090 H 
BRANCH 143 145
ATOM    145  OCF 423 d   1      -5.377  16.115  -0.864  0.00  0.00    -0.391 OA
ATOM    146  H70 423 d   1      -5.138  15.324  -0.395  0.00  0.00     0.210 HD
ENDBRANCH 143 145
BRANCH 143 147
ATOM    147  CCG 423 d   1      -5.134  17.341  -2.985  0.00  0.00     0.043 C 
ATOM    148  H71 423 d   1      -6.218  17.481  -3.112  0.00  0.00     0.078 H 
ATOM    149  H72 423 d   1      -4.653  17.290  -3.973  0.00  0.00     0.078 H 
BRANCH 147 150
ATOM    150  OCH 423 d   1      -4.587  18.451  -2.236  0.00  0.00    -0.398 OA
ATOM    151  H73 423 d   1      -4.748  19.260  -2.708  0.00  0.00     0.209 HD
ENDBRANCH 147 150
ENDBRANCH 143 147
ENDBRANCH 139 143
ENDBRANCH 127 139
BRANCH 128 152
ATOM    152  NBR 423 d   1      -7.176  12.488  -3.118  0.00  0.00    -0.352 N 
ATOM    153  CBP 423 d   1      -7.720  12.265  -4.340  0.00  0.00     0.214 C 
ATOM    154  OBO 423 d   1      -7.058  11.958  -5.349  0.00  0.00    -0.274 OA
ATOM    155  H62 423 d   1      -7.785  12.781  -2.381  0.00  0.00     0.163 HD
BRANCH 153 156
ATOM    156  CBQ 423 d   1      -9.233  12.502  -4.434  0.00  0.00    -0.003 C 
ATOM    157  H63 423 d   1      -9.573  12.295  -5.459  0.00  0.00     0.040 H 
ATOM    158  H64 423 d   1      -9.457  13.548  -4.178  0.00  0.00     0.040 H 
ATOM    159  H65 423 d   1      -9.753  11.833  -3.733  0.00  0.00     0.040 H 
ENDBRANCH 153 156
ENDBRANCH 128 152
BRANCH 130 160
ATOM    160  OBU 423 d   1      -5.910   9.933  -2.431  0.00  0.00    -0.393 OA
ATOM    161  H60 423 d   1      -6.845   9.954  -2.599  0.00  0.00     0.210 HD
ENDBRANCH 130 160
ENDBRANCH 124 125
ENDBRANCH 121 124
ENDBRANCH 117 121
ENDBRANCH 112 115
ENDBRANCH 109 112
ENDBRANCH   1 109
TORSDOF 48
