REMARK WARNING: 32 MAX_TORS EXCEEDED!!!
REMARK  51 active torsions:
REMARK  status: ('A' for Active; 'I' for Inactive)
REMARK    1  A    between atoms: OCH_1  and  CCG_2 
REMARK    2  A    between atoms: CCG_2  and  CCE_3 
REMARK    3  A    between atoms: CCE_3  and  OCF_4 
REMARK    4  A    between atoms: CCE_3  and  CCC_5 
REMARK    5  A    between atoms: CCC_5  and  OCD_6 
REMARK    6  A    between atoms: CCC_5  and  CBW_7 
REMARK    7  A    between atoms: CBS_9  and  NBR_10 
REMARK       I    between atoms: NBR_10  and  CBP_11 
REMARK    8  A    between atoms: CBP_11  and  CBQ_13 
REMARK    9  A    between atoms: CBT_14  and  OBU_15 
REMARK   10  A    between atoms: CBY_17  and  CBZ_18 
REMARK   11  A    between atoms: CBY_17  and  OCI_21 
REMARK   12  A    between atoms: OCI_21  and  CCJ_22 
REMARK   13  A    between atoms: CCJ_22  and  CCK_23 
REMARK   14  A    between atoms: CCK_23  and  CDF_24 
REMARK   15  A    between atoms: NDC_28  and  CDG_29 
REMARK   16  A    between atoms: CDG_29  and  CDJ_30 
REMARK   17  A    between atoms: CDJ_30  and  NDK_31 
REMARK   18  A    between atoms: NDK_31  and  CDM_32 
REMARK   19  A    between atoms: NDK_31  and  CDL_62 
REMARK   20  A    between atoms: CDM_32  and  CDI_33 
REMARK   21  A    between atoms: CDI_33  and  NCX_34 
REMARK   22  A    between atoms: CDA_38  and  CCQ_39 
REMARK   23  A    between atoms: CCQ_39  and  CCP_40 
REMARK   24  A    between atoms: CCP_40  and  OCO_41 
REMARK   25  A    between atoms: OCO_41  and  CAK_42 
REMARK   26  A    between atoms: CAK_42  and  CAL_43 
REMARK   27  A    between atoms: CAF_48  and  OAG_49 
REMARK   28  A    between atoms: CAE_50  and  NAD_51 
REMARK       I    between atoms: NAD_51  and  CAB_52 
REMARK   29  A    between atoms: CAB_52  and  CAC_53 
REMARK   30  A    between atoms: CAI_55  and  CAO_56 
REMARK   31  A    between atoms: CAO_56  and  OAP_57 
REMARK   32  A    between atoms: CAO_56  and  CAQ_58 
REMARK   33  A    between atoms: CAQ_58  and  OAR_59 
REMARK   34  A    between atoms: CAQ_58  and  CAS_60 
REMARK   35  A    between atoms: CAS_60  and  OAT_61 
REMARK   36  A    between atoms: CDL_62  and  CDH_63 
REMARK   37  A    between atoms: CDH_63  and  NCS_64 
REMARK   38  A    between atoms: CCV_68  and  CCN_69 
REMARK   39  A    between atoms: CCN_69  and  CCM_70 
REMARK   40  A    between atoms: CCM_70  and  OCL_71 
REMARK   41  A    between atoms: OCL_71  and  CBE_72 
REMARK   42  A    between atoms: CBE_72  and  CBF_73 
REMARK   43  A    between atoms: CAZ_78  and  OBA_79 
REMARK   44  A    between atoms: CAY_80  and  NAX_81 
REMARK       I    between atoms: NAX_81  and  CAV_82 
REMARK   45  A    between atoms: CAV_82  and  CAW_84 
REMARK   46  A    between atoms: CBC_85  and  CBI_86 
REMARK   47  A    between atoms: CBI_86  and  OBJ_87 
REMARK   48  A    between atoms: CBI_86  and  CBK_88 
REMARK   49  A    between atoms: CBK_88  and  OBL_89 
REMARK   50  A    between atoms: CBK_88  and  CBM_90 
REMARK   51  A    between atoms: CBM_90  and  OBN_91 
ROOT
ATOM      1  NDK 425 d   1     -29.239  19.045 -30.321  0.00  0.00    -0.066 N 
ATOM      2  H27 425 d   1     -28.736  18.296 -29.872  0.00  0.00     0.280 HD
ENDROOT
BRANCH   1   3
ATOM      3  CDJ 425 d   1     -29.759  18.677 -31.495  0.00  0.00     0.100 C 
ATOM      4  H25 425 d   1     -30.452  19.462 -31.833  0.00  0.00     0.078 H 
ATOM      5  H26 425 d   1     -28.941  18.572 -32.223  0.00  0.00     0.078 H 
BRANCH   3   6
ATOM      6  CDG 425 d   1     -30.524  17.346 -31.421  0.00  0.00     0.041 C 
ATOM      7  H23 425 d   1     -31.299  17.408 -30.643  0.00  0.00     0.070 H 
ATOM      8  H24 425 d   1     -30.995  17.136 -32.392  0.00  0.00     0.070 H 
BRANCH   6   9
ATOM      9  NDC 425 d   1     -29.651  16.359 -31.116  0.00  0.00    -0.259 N 
ATOM     10  CDB 425 d   1     -29.551  15.610 -30.017  0.00  0.00     0.025 A 
ATOM     11  CDF 425 d   1     -28.526  14.808 -30.267  0.00  0.00     0.077 A 
ATOM     12  H22 425 d   1     -30.169  15.649 -29.121  0.00  0.00     0.117 H 
ATOM     13  NDE 425 d   1     -28.053  15.074 -31.471  0.00  0.00    -0.135 NA
ATOM     14  NDD 425 d   1     -28.744  15.986 -31.931  0.00  0.00    -0.066 NA
BRANCH  11  15
ATOM     15  CCK 425 d   1     -27.986  13.731 -29.330  0.00  0.00    -0.002 C 
ATOM     16  H20 425 d   1     -26.913  13.899 -29.158  0.00  0.00     0.045 H 
ATOM     17  H21 425 d   1     -28.523  13.776 -28.371  0.00  0.00     0.045 H 
BRANCH  15  18
ATOM     18  CCJ 425 d   1     -28.192  12.348 -29.968  0.00  0.00     0.029 C 
ATOM     19  H18 425 d   1     -29.259  12.170 -30.166  0.00  0.00     0.075 H 
ATOM     20  H19 425 d   1     -27.626  12.270 -30.908  0.00  0.00     0.075 H 
BRANCH  18  21
ATOM     21  OCI 425 d   1     -27.701  11.416 -29.012  0.00  0.00    -0.346 OA
BRANCH  21  22
ATOM     22  CBY 425 d   1     -27.513  10.073 -29.415  0.00  0.00     0.258 C 
ATOM     23  OBX 425 d   1     -26.595  10.013 -30.511  0.00  0.00    -0.336 OA
ATOM     24  CBW 425 d   1     -26.341   8.665 -30.946  0.00  0.00     0.091 C 
ATOM     25  CBS 425 d   1     -25.718   7.894 -29.769  0.00  0.00     0.064 C 
ATOM     26  H8  425 d   1     -27.282   8.183 -31.250  0.00  0.00     0.090 H 
ATOM     27  CBT 425 d   1     -26.711   7.880 -28.582  0.00  0.00     0.063 C 
ATOM     28  H9  425 d   1     -24.815   8.433 -29.446  0.00  0.00     0.080 H 
ATOM     29  CBV 425 d   1     -26.945   9.322 -28.230  0.00  0.00     0.024 C 
ATOM     30  H14 425 d   1     -27.646   7.377 -28.867  0.00  0.00     0.086 H 
ATOM     31  H16 425 d   1     -25.990   9.782 -27.934  0.00  0.00     0.045 H 
ATOM     32  H17 425 d   1     -27.655   9.379 -27.392  0.00  0.00     0.045 H 
BRANCH  24  33
ATOM     33  CCC 425 d   1     -25.384   8.696 -32.120  0.00  0.00     0.089 C 
ATOM     34  H6  425 d   1     -25.114   7.684 -32.455  0.00  0.00     0.091 H 
BRANCH  33  35
ATOM     35  CCE 425 d   1     -26.148   9.480 -33.188  0.00  0.00     0.083 C 
ATOM     36  H4  425 d   1     -26.324  10.498 -32.810  0.00  0.00     0.090 H 
BRANCH  35  37
ATOM     37  CCG 425 d   1     -25.342   9.590 -34.484  0.00  0.00     0.043 C 
ATOM     38  H2  425 d   1     -25.129   8.582 -34.870  0.00  0.00     0.078 H 
ATOM     39  H3  425 d   1     -25.922  10.153 -35.230  0.00  0.00     0.078 H 
BRANCH  37  40
ATOM     40  OCH 425 d   1     -24.114  10.270 -34.223  0.00  0.00    -0.398 OA
ATOM     41  H1  425 d   1     -23.614   9.783 -33.579  0.00  0.00     0.209 HD
ENDBRANCH  37  40
ENDBRANCH  35  37
BRANCH  35  42
ATOM     42  OCF 425 d   1     -27.418   8.859 -33.422  0.00  0.00    -0.391 OA
ATOM     43  H5  425 d   1     -27.283   7.986 -33.772  0.00  0.00     0.210 HD
ENDBRANCH  35  42
ENDBRANCH  33  35
BRANCH  33  44
ATOM     44  OCD 425 d   1     -24.227   9.450 -31.786  0.00  0.00    -0.390 OA
ATOM     45  H7  425 d   1     -23.691   9.566 -32.562  0.00  0.00     0.210 HD
ENDBRANCH  33  44
ENDBRANCH  24  33
BRANCH  25  46
ATOM     46  NBR 425 d   1     -25.304   6.543 -30.179  0.00  0.00    -0.352 N 
ATOM     47  CBP 425 d   1     -24.112   5.997 -29.875  0.00  0.00     0.214 C 
ATOM     48  OBO 425 d   1     -23.159   6.606 -29.383  0.00  0.00    -0.274 OA
ATOM     49  H10 425 d   1     -25.947   5.997 -30.716  0.00  0.00     0.163 HD
BRANCH  47  50
ATOM     50  CBQ 425 d   1     -23.931   4.585 -30.419  0.00  0.00    -0.003 C 
ATOM     51  H11 425 d   1     -22.939   4.206 -30.132  0.00  0.00     0.040 H 
ATOM     52  H12 425 d   1     -24.015   4.601 -31.516  0.00  0.00     0.040 H 
ATOM     53  H13 425 d   1     -24.709   3.929 -30.002  0.00  0.00     0.040 H 
ENDBRANCH  47  50
ENDBRANCH  25  46
BRANCH  27  54
ATOM     54  OBU 425 d   1     -26.140   7.252 -27.413  0.00  0.00    -0.393 OA
ATOM     55  H15 425 d   1     -25.907   6.354 -27.619  0.00  0.00     0.210 HD
ENDBRANCH  27  54
BRANCH  22  56
ATOM     56  CBZ 425 d   1     -28.931   9.594 -29.881  0.00  0.00     0.239 C 
ATOM     57  OCB 425 d   1     -29.818   9.588 -29.012  0.00  0.00    -0.644 OA
ATOM     58  OCA 425 d   1     -29.143   9.358 -31.100  0.00  0.00    -0.644 OA
ENDBRANCH  22  56
ENDBRANCH  21  22
ENDBRANCH  18  21
ENDBRANCH  15  18
ENDBRANCH  11  15
ENDBRANCH   6   9
ENDBRANCH   3   6
ENDBRANCH   1   3
BRANCH   1  59
ATOM     59  CDM 425 d   1     -28.367  20.183 -30.618  0.00  0.00     0.100 C 
ATOM     60  H28 425 d   1     -28.149  20.725 -29.686  0.00  0.00     0.078 H 
ATOM     61  H29 425 d   1     -28.878  20.856 -31.322  0.00  0.00     0.078 H 
BRANCH  59  62
ATOM     62  CDI 425 d   1     -27.053  19.707 -31.241  0.00  0.00     0.041 C 
ATOM     63  H30 425 d   1     -26.440  20.579 -31.511  0.00  0.00     0.070 H 
ATOM     64  H31 425 d   1     -27.270  19.117 -32.144  0.00  0.00     0.070 H 
BRANCH  62  65
ATOM     65  NCX 425 d   1     -26.301  18.854 -30.255  0.00  0.00    -0.259 N 
ATOM     66  CCW 425 d   1     -25.860  17.602 -30.365  0.00  0.00     0.025 A 
ATOM     67  CDA 425 d   1     -25.259  17.339 -29.209  0.00  0.00     0.077 A 
ATOM     68  H32 425 d   1     -25.969  16.936 -31.220  0.00  0.00     0.117 H 
ATOM     69  NCZ 425 d   1     -25.334  18.413 -28.432  0.00  0.00    -0.135 NA
ATOM     70  NCY 425 d   1     -25.968  19.301 -29.097  0.00  0.00    -0.066 NA
BRANCH  67  71
ATOM     71  CCQ 425 d   1     -24.660  16.186 -28.897  0.00  0.00    -0.002 C 
ATOM     72  H33 425 d   1     -24.788  15.478 -29.729  0.00  0.00     0.045 H 
ATOM     73  H34 425 d   1     -25.125  15.773 -27.989  0.00  0.00     0.045 H 
BRANCH  71  74
ATOM     74  CCP 425 d   1     -23.152  16.397 -28.641  0.00  0.00     0.029 C 
ATOM     75  H35 425 d   1     -23.012  17.087 -27.796  0.00  0.00     0.075 H 
ATOM     76  H36 425 d   1     -22.679  16.818 -29.540  0.00  0.00     0.075 H 
BRANCH  74  77
ATOM     77  OCO 425 d   1     -22.586  15.185 -28.346  0.00  0.00    -0.346 OA
BRANCH  77  78
ATOM     78  CAK 425 d   1     -21.177  15.201 -28.002  0.00  0.00     0.258 C 
ATOM     79  OAJ 425 d   1     -20.966  16.027 -26.855  0.00  0.00    -0.336 OA
ATOM     80  CAI 425 d   1     -19.604  16.088 -26.419  0.00  0.00     0.091 C 
ATOM     81  CAE 425 d   1     -19.135  14.665 -26.065  0.00  0.00     0.064 C 
ATOM     82  H46 425 d   1     -18.971  16.495 -27.221  0.00  0.00     0.090 H 
ATOM     83  CAF 425 d   1     -19.235  13.752 -27.306  0.00  0.00     0.063 C 
ATOM     84  H41 425 d   1     -19.804  14.271 -25.286  0.00  0.00     0.080 H 
ATOM     85  CAH 425 d   1     -20.710  13.780 -27.680  0.00  0.00     0.024 C 
ATOM     86  H39 425 d   1     -18.590  14.116 -28.119  0.00  0.00     0.086 H 
ATOM     87  H37 425 d   1     -20.868  13.143 -28.563  0.00  0.00     0.045 H 
ATOM     88  H38 425 d   1     -21.300  13.392 -26.837  0.00  0.00     0.045 H 
BRANCH  78  89
ATOM     89  CAL 425 d   1     -20.485  15.718 -29.291  0.00  0.00     0.239 C 
ATOM     90  OAN 425 d   1     -20.703  15.051 -30.323  0.00  0.00    -0.644 OA
ATOM     91  OAM 425 d   1     -19.846  16.794 -29.272  0.00  0.00    -0.644 OA
ENDBRANCH  78  89
BRANCH  80  92
ATOM     92  CAO 425 d   1     -19.526  16.990 -25.205  0.00  0.00     0.089 C 
ATOM     93  H47 425 d   1     -18.509  17.012 -24.786  0.00  0.00     0.091 H 
BRANCH  92  94
ATOM     94  OAP 425 d   1     -20.469  16.482 -24.259  0.00  0.00    -0.390 OA
ATOM     95  H48 425 d   1     -21.339  16.500 -24.640  0.00  0.00     0.210 HD
ENDBRANCH  92  94
BRANCH  92  96
ATOM     96  CAQ 425 d   1     -19.977  18.383 -25.621  0.00  0.00     0.083 C 
ATOM     97  H49 425 d   1     -20.946  18.344 -26.141  0.00  0.00     0.090 H 
BRANCH  96  98
ATOM     98  OAR 425 d   1     -18.947  18.890 -26.466  0.00  0.00    -0.391 OA
ATOM     99  H50 425 d   1     -18.130  18.922 -25.983  0.00  0.00     0.210 HD
ENDBRANCH  96  98
BRANCH  96 100
ATOM    100  CAS 425 d   1     -20.054  19.306 -24.402  0.00  0.00     0.043 C 
ATOM    101  H51 425 d   1     -20.782  18.897 -23.686  0.00  0.00     0.078 H 
ATOM    102  H52 425 d   1     -20.381  20.305 -24.727  0.00  0.00     0.078 H 
BRANCH 100 103
ATOM    103  OAT 425 d   1     -18.786  19.416 -23.765  0.00  0.00    -0.398 OA
ATOM    104  H53 425 d   1     -18.154  19.773 -24.379  0.00  0.00     0.209 HD
ENDBRANCH 100 103
ENDBRANCH  96 100
ENDBRANCH  92  96
ENDBRANCH  80  92
BRANCH  81 105
ATOM    105  NAD 425 d   1     -17.745  14.642 -25.533  0.00  0.00    -0.352 N 
ATOM    106  CAB 425 d   1     -17.355  13.863 -24.498  0.00  0.00     0.214 C 
ATOM    107  OAA 425 d   1     -18.142  13.290 -23.741  0.00  0.00    -0.274 OA
ATOM    108  H42 425 d   1     -17.063  15.234 -25.963  0.00  0.00     0.163 HD
BRANCH 106 109
ATOM    109  CAC 425 d   1     -15.877  13.983 -24.097  0.00  0.00    -0.003 C 
ATOM    110  H43 425 d   1     -15.671  13.311 -23.251  0.00  0.00     0.040 H 
ATOM    111  H44 425 d   1     -15.660  15.020 -23.802  0.00  0.00     0.040 H 
ATOM    112  H45 425 d   1     -15.242  13.704 -24.951  0.00  0.00     0.040 H 
ENDBRANCH 106 109
ENDBRANCH  81 105
BRANCH  83 113
ATOM    113  OAG 425 d   1     -18.937  12.385 -26.991  0.00  0.00    -0.393 OA
ATOM    114  H40 425 d   1     -18.022  12.309 -26.749  0.00  0.00     0.210 HD
ENDBRANCH  83 113
ENDBRANCH  77  78
ENDBRANCH  74  77
ENDBRANCH  71  74
ENDBRANCH  67  71
ENDBRANCH  62  65
ENDBRANCH  59  62
ENDBRANCH   1  59
BRANCH   1 115
ATOM    115  CDL 425 d   1     -30.362  19.505 -29.506  0.00  0.00     0.100 C 
ATOM    116  H54 425 d   1     -31.138  18.726 -29.486  0.00  0.00     0.078 H 
ATOM    117  H55 425 d   1     -30.777  20.424 -29.947  0.00  0.00     0.078 H 
BRANCH 115 118
ATOM    118  CDH 425 d   1     -29.902  19.796 -28.073  0.00  0.00     0.041 C 
ATOM    119  H56 425 d   1     -30.746  20.212 -27.503  0.00  0.00     0.070 H 
ATOM    120  H57 425 d   1     -29.082  20.529 -28.101  0.00  0.00     0.070 H 
BRANCH 118 121
ATOM    121  NCS 425 d   1     -29.420  18.548 -27.394  0.00  0.00    -0.259 N 
ATOM    122  CCR 425 d   1     -28.255  18.266 -26.811  0.00  0.00     0.025 A 
ATOM    123  CCV 425 d   1     -28.408  17.027 -26.365  0.00  0.00     0.077 A 
ATOM    124  H58 425 d   1     -27.379  18.906 -26.722  0.00  0.00     0.117 H 
ATOM    125  NCU 425 d   1     -29.626  16.601 -26.669  0.00  0.00    -0.135 NA
ATOM    126  NCT 425 d   1     -30.193  17.545 -27.276  0.00  0.00    -0.066 NA
BRANCH 123 127
ATOM    127  CCN 425 d   1     -27.354  16.220 -25.610  0.00  0.00    -0.002 C 
ATOM    128  H59 425 d   1     -26.428  16.809 -25.539  0.00  0.00     0.045 H 
ATOM    129  H60 425 d   1     -27.153  15.286 -26.155  0.00  0.00     0.045 H 
BRANCH 127 130
ATOM    130  CCM 425 d   1     -27.851  15.885 -24.196  0.00  0.00     0.029 C 
ATOM    131  H61 425 d   1     -28.755  15.260 -24.243  0.00  0.00     0.075 H 
ATOM    132  H62 425 d   1     -28.071  16.806 -23.636  0.00  0.00     0.075 H 
BRANCH 130 133
ATOM    133  OCL 425 d   1     -26.782  15.172 -23.584  0.00  0.00    -0.346 OA
BRANCH 133 134
ATOM    134  CBE 425 d   1     -27.045  14.501 -22.356  0.00  0.00     0.258 C 
ATOM    135  OBD 425 d   1     -28.099  13.573 -22.510  0.00  0.00    -0.336 OA
ATOM    136  CBC 425 d   1     -28.379  12.863 -21.316  0.00  0.00     0.091 C 
ATOM    137  CAY 425 d   1     -27.137  12.023 -20.922  0.00  0.00     0.064 C 
ATOM    138  H72 425 d   1     -28.642  13.557 -20.505  0.00  0.00     0.090 H 
ATOM    139  CAZ 425 d   1     -25.994  13.015 -20.636  0.00  0.00     0.063 C 
ATOM    140  H67 425 d   1     -26.866  11.327 -21.729  0.00  0.00     0.080 H 
ATOM    141  CBB 425 d   1     -25.793  13.757 -21.938  0.00  0.00     0.024 C 
ATOM    142  H65 425 d   1     -26.228  13.682 -19.794  0.00  0.00     0.086 H 
ATOM    143  H63 425 d   1     -24.973  14.480 -21.814  0.00  0.00     0.045 H 
ATOM    144  H64 425 d   1     -25.529  13.034 -22.724  0.00  0.00     0.045 H 
BRANCH 134 145
ATOM    145  CBF 425 d   1     -27.470  15.639 -21.359  0.00  0.00     0.239 C 
ATOM    146  OBH 425 d   1     -28.675  15.738 -21.007  0.00  0.00    -0.644 OA
ATOM    147  OBG 425 d   1     -26.589  16.460 -21.040  0.00  0.00    -0.644 OA
ENDBRANCH 134 145
BRANCH 136 148
ATOM    148  CBI 425 d   1     -29.535  11.927 -21.615  0.00  0.00     0.089 C 
ATOM    149  H73 425 d   1     -29.797  11.304 -20.747  0.00  0.00     0.091 H 
BRANCH 148 150
ATOM    150  OBJ 425 d   1     -29.169  11.123 -22.745  0.00  0.00    -0.390 OA
ATOM    151  H74 425 d   1     -28.999  11.686 -23.491  0.00  0.00     0.210 HD
ENDBRANCH 148 150
BRANCH 148 152
ATOM    152  CBK 425 d   1     -30.693  12.843 -22.034  0.00  0.00     0.083 C 
ATOM    153  H75 425 d   1     -30.378  13.424 -22.913  0.00  0.00     0.090 H 
BRANCH 152 154
ATOM    154  OBL 425 d   1     -30.990  13.734 -20.962  0.00  0.00    -0.391 OA
ATOM    155  H76 425 d   1     -31.239  13.232 -20.195  0.00  0.00     0.210 HD
ENDBRANCH 152 154
BRANCH 152 156
ATOM    156  CBM 425 d   1     -31.965  12.062 -22.394  0.00  0.00     0.043 C 
ATOM    157  H77 425 d   1     -31.750  11.371 -23.222  0.00  0.00     0.078 H 
ATOM    158  H78 425 d   1     -32.755  12.765 -22.698  0.00  0.00     0.078 H 
BRANCH 156 159
ATOM    159  OBN 425 d   1     -32.399  11.321 -21.255  0.00  0.00    -0.398 OA
ATOM    160  H79 425 d   1     -32.583  11.919 -20.541  0.00  0.00     0.209 HD
ENDBRANCH 156 159
ENDBRANCH 152 156
ENDBRANCH 148 152
ENDBRANCH 136 148
BRANCH 137 161
ATOM    161  NAX 425 d   1     -27.410  11.287 -19.669  0.00  0.00    -0.352 N 
ATOM    162  CAV 425 d   1     -27.097   9.985 -19.497  0.00  0.00     0.214 C 
ATOM    163  OAU 425 d   1     -26.706   9.250 -20.404  0.00  0.00    -0.274 OA
ATOM    164  H68 425 d   1     -27.847  11.776 -18.914  0.00  0.00     0.163 HD
BRANCH 162 165
ATOM    165  CAW 425 d   1     -27.458   9.398 -18.127  0.00  0.00    -0.003 C 
ATOM    166  H69 425 d   1     -27.163   8.339 -18.093  0.00  0.00     0.040 H 
ATOM    167  H70 425 d   1     -28.543   9.481 -17.967  0.00  0.00     0.040 H 
ATOM    168  H71 425 d   1     -26.927   9.953 -17.339  0.00  0.00     0.040 H 
ENDBRANCH 162 165
ENDBRANCH 137 161
BRANCH 139 169
ATOM    169  OBA 425 d   1     -24.760  12.285 -20.423  0.00  0.00    -0.393 OA
ATOM    170  H66 425 d   1     -24.617  11.688 -21.148  0.00  0.00     0.210 HD
ENDBRANCH 139 169
ENDBRANCH 133 134
ENDBRANCH 130 133
ENDBRANCH 127 130
ENDBRANCH 123 127
ENDBRANCH 118 121
ENDBRANCH 115 118
ENDBRANCH   1 115
TORSDOF 51
