REMARK  24 active torsions:
REMARK  status: ('A' for Active; 'I' for Inactive)
REMARK    1  A    between atoms: C2_2  and  C1_1 
REMARK    2  A    between atoms: O3_28  and  C2_2 
REMARK    3  A    between atoms: C4_4  and  O4_15 
REMARK    4  A    between atoms: C5_5  and  N5_12 
REMARK    5  A    between atoms: C6_6  and  C7_7 
REMARK    6  A    between atoms: C7_7  and  C8_8 
REMARK    7  A    between atoms: C7_7  and  O7_17 
REMARK    8  A    between atoms: C8_8  and  C9_9 
REMARK    9  A    between atoms: C8_8  and  O8_18 
REMARK   10  A    between atoms: C9_9  and  O9_19 
REMARK   11  A    between atoms: C10_10  and  C11_11 
REMARK       I    between atoms: N5_12  and  C10_10 
REMARK   12  A    between atoms: O4_43  and  C1_21 
REMARK   13  A    between atoms: C2_22  and  O2_27 
REMARK   14  A    between atoms: C3_23  and  O3_28 
REMARK   15  A    between atoms: C4_24  and  O4_29 
REMARK   16  A    between atoms: C5_25  and  C6_26 
REMARK   17  A    between atoms: C6_26  and  O6_31 
REMARK   18  A    between atoms: C1_32  and  O1_41 
REMARK   19  A    between atoms: N2_40  and  C2_33 
REMARK   20  A    between atoms: C3_34  and  O3_42 
REMARK   21  A    between atoms: C4_35  and  O4_43 
REMARK   22  A    between atoms: C5_36  and  C6_37 
REMARK   23  A    between atoms: C6_37  and  O6_45 
REMARK   24  A    between atoms: C7_38  and  C8_39 
REMARK       I    between atoms: C7_38  and  N2_40 
ROOT
ATOM      1  H18 SIA d   1       3.990  67.295 138.262  0.00  0.00     0.133 H 
ATOM      2  H19 SIA d   1       3.911  64.368 138.882  0.00  0.00     0.094 H 
ATOM      3  H20 SIA d   1       4.941  66.688 140.568  0.00  0.00     0.091 H 
ATOM      4  H21 SIA d   1       7.160  66.124 139.965  0.00  0.00     0.091 H 
ATOM      5  H22 SIA d   1       6.165  67.582 138.340  0.00  0.00     0.090 H 
ATOM      6  C1  GAL d   1       3.881  66.263 137.898  0.00  0.00     0.159 C 
ATOM      7  C2  GAL d   1       3.862  65.425 139.182  0.00  0.00     0.110 C 
ATOM      8  C3  GAL d   1       5.058  65.698 140.102  0.00  0.00     0.099 C 
ATOM      9  C4  GAL d   1       6.380  65.691 139.321  0.00  0.00     0.090 C 
ATOM     10  C5  GAL d   1       6.298  66.531 138.045  0.00  0.00     0.089 C 
ATOM     11  O5  GAL d   1       5.164  66.140 137.254  0.00  0.00    -0.348 OA
ENDROOT
BRANCH   8  12
ATOM     12  O3  GAL d   1       5.016  64.689 141.123  0.00  0.00    -0.336 OA
BRANCH  12  13
ATOM     13  C2  SIA d   1       5.933  64.680 142.227  0.00  0.00     0.259 C 
ATOM     14  C3  SIA d   1       5.730  65.889 143.152  0.00  0.00     0.024 C 
ATOM     15  C4  SIA d   1       6.793  65.944 144.252  0.00  0.00     0.063 C 
ATOM     16  H1  SIA d   1       4.737  65.818 143.619  0.00  0.00     0.045 H 
ATOM     17  H2  SIA d   1       5.788  66.810 142.553  0.00  0.00     0.045 H 
ATOM     18  C5  SIA d   1       8.213  65.853 143.699  0.00  0.00     0.064 C 
ATOM     19  H3  SIA d   1       6.631  65.090 144.926  0.00  0.00     0.086 H 
ATOM     20  C6  SIA d   1       8.360  64.709 142.693  0.00  0.00     0.091 C 
ATOM     21  H4  SIA d   1       8.456  66.798 143.191  0.00  0.00     0.080 H 
ATOM     22  O6  SIA d   1       7.283  64.672 141.740  0.00  0.00    -0.336 OA
ATOM     23  H5  SIA d   1       8.349  63.766 143.260  0.00  0.00     0.090 H 
BRANCH  13  24
ATOM     24  C1  SIA d   1       5.598  63.397 142.959  0.00  0.00     0.239 C 
ATOM     25  O1A SIA d   1       6.283  62.373 142.739  0.00  0.00    -0.644 OA
ATOM     26  O1B SIA d   1       4.622  63.390 143.742  0.00  0.00    -0.644 OA
ENDBRANCH  13  24
BRANCH  15  27
ATOM     27  O4  SIA d   1       6.657  67.156 145.003  0.00  0.00    -0.393 OA
ATOM     28  H14 SIA d   1       5.774  67.216 145.349  0.00  0.00     0.210 HD
ENDBRANCH  15  27
BRANCH  18  29
ATOM     29  N5  SIA d   1       9.133  65.659 144.808  0.00  0.00    -0.352 N 
ATOM     30  C10 SIA d   1      10.159  66.476 145.050  0.00  0.00     0.214 C 
ATOM     31  O10 SIA d   1      11.229  66.361 144.474  0.00  0.00    -0.274 OA
ATOM     32  H13 SIA d   1       8.990  64.878 145.416  0.00  0.00     0.163 HD
BRANCH  30  33
ATOM     33  C11 SIA d   1       9.922  67.541 146.080  0.00  0.00    -0.003 C 
ATOM     34  H10 SIA d   1      10.831  68.149 146.194  0.00  0.00     0.040 H 
ATOM     35  H11 SIA d   1       9.672  67.071 147.043  0.00  0.00     0.040 H 
ATOM     36  H12 SIA d   1       9.089  68.183 145.758  0.00  0.00     0.040 H 
ENDBRANCH  30  33
ENDBRANCH  18  29
BRANCH  20  37
ATOM     37  C7  SIA d   1       9.680  64.793 141.924  0.00  0.00     0.089 C 
ATOM     38  H6  SIA d   1      10.488  64.986 142.645  0.00  0.00     0.091 H 
BRANCH  37  39
ATOM     39  C8  SIA d   1      10.002  63.493 141.181  0.00  0.00     0.083 C 
ATOM     40  H7  SIA d   1       9.320  63.404 140.322  0.00  0.00     0.090 H 
BRANCH  39  41
ATOM     41  C9  SIA d   1      11.439  63.487 140.671  0.00  0.00     0.043 C 
ATOM     42  H8  SIA d   1      12.130  63.564 141.523  0.00  0.00     0.078 H 
ATOM     43  H9  SIA d   1      11.591  64.343 139.997  0.00  0.00     0.078 H 
BRANCH  41  44
ATOM     44  O9  SIA d   1      11.693  62.269 139.960  0.00  0.00    -0.398 OA
ATOM     45  H17 SIA d   1      11.562  61.530 140.543  0.00  0.00     0.209 HD
ENDBRANCH  41  44
ENDBRANCH  39  41
BRANCH  39  46
ATOM     46  O8  SIA d   1       9.815  62.363 142.044  0.00  0.00    -0.391 OA
ATOM     47  H16 SIA d   1       9.982  61.564 141.558  0.00  0.00     0.210 HD
ENDBRANCH  39  46
ENDBRANCH  37  39
BRANCH  37  48
ATOM     48  O7  SIA d   1       9.621  65.883 140.993  0.00  0.00    -0.390 OA
ATOM     49  H15 SIA d   1       8.943  65.712 140.350  0.00  0.00     0.210 HD
ENDBRANCH  37  48
ENDBRANCH  20  37
ENDBRANCH  12  13
ENDBRANCH   8  12
BRANCH   7  50
ATOM     50  O2  GAL d   1       2.637  65.622 139.905  0.00  0.00    -0.388 OA
ATOM     51  H25 SIA d   1       1.900  65.451 139.330  0.00  0.00     0.210 HD
ENDBRANCH   7  50
BRANCH   9  52
ATOM     52  O4  GAL d   1       6.751  64.344 139.003  0.00  0.00    -0.390 OA
ATOM     53  H26 SIA d   1       6.799  63.833 139.802  0.00  0.00     0.210 HD
ENDBRANCH   9  52
BRANCH   6  54
ATOM     54  O4  NAG d   1       2.524  66.338 137.445  0.00  0.00    -0.348 OA
BRANCH  54  55
ATOM     55  C4  NAG d   1       2.573  67.487 136.578  0.00  0.00     0.095 C 
ATOM     56  C3  NAG d   1       1.636  67.007 135.488  0.00  0.00     0.087 C 
ATOM     57  C2  NAG d   1       1.000  68.143 134.719  0.00  0.00     0.086 C 
ATOM     58  H30 SIA d   1       0.829  66.431 135.964  0.00  0.00     0.090 H 
ATOM     59  C1  NAG d   1       0.258  68.983 135.722  0.00  0.00     0.151 C 
ATOM     60  H29 SIA d   1       1.778  68.744 134.225  0.00  0.00     0.084 H 
ATOM     61  O5  NAG d   1       1.277  69.594 136.508  0.00  0.00    -0.349 OA
ATOM     62  H28 SIA d   1      -0.386  68.346 136.346  0.00  0.00     0.132 H 
ATOM     63  C5  NAG d   1       1.966  68.671 137.353  0.00  0.00     0.089 C 
ATOM     64  H32 SIA d   1       1.230  68.243 138.049  0.00  0.00     0.090 H 
ATOM     65  H31 SIA d   1       3.581  67.723 136.207  0.00  0.00     0.091 H 
BRANCH  56  66
ATOM     66  O3  NAG d   1       2.344  66.143 134.601  0.00  0.00    -0.391 OA
ATOM     67  H40 SIA d   1       2.676  65.397 135.086  0.00  0.00     0.210 HD
ENDBRANCH  56  66
BRANCH  57  68
ATOM     68  N2  NAG d   1       0.092  67.638 133.731  0.00  0.00    -0.349 N 
ATOM     69  C7  NAG d   1       0.161  68.163 132.525  0.00  0.00     0.214 C 
ATOM     70  O7  NAG d   1       0.377  67.486 131.540  0.00  0.00    -0.274 OA
ATOM     71  H38 SIA d   1      -0.566  66.917 133.948  0.00  0.00     0.163 HD
BRANCH  69  72
ATOM     72  C8  NAG d   1      -0.016  69.650 132.473  0.00  0.00    -0.003 C 
ATOM     73  H35 SIA d   1       0.058  69.992 131.430  0.00  0.00     0.040 H 
ATOM     74  H36 SIA d   1       0.768  70.134 133.073  0.00  0.00     0.040 H 
ATOM     75  H37 SIA d   1      -1.004  69.916 132.877  0.00  0.00     0.040 H 
ENDBRANCH  69  72
ENDBRANCH  57  68
BRANCH  59  76
ATOM     76  O1  NAG d   1      -0.541  69.999 135.103  0.00  0.00    -0.369 OA
ATOM     77  H39 SIA d   1      -0.940  70.540 135.775  0.00  0.00     0.212 HD
ENDBRANCH  59  76
BRANCH  63  78
ATOM     78  C6  NAG d   1       2.977  69.456 138.185  0.00  0.00     0.043 C 
ATOM     79  H33 SIA d   1       2.585  69.568 139.207  0.00  0.00     0.078 H 
ATOM     80  H34 SIA d   1       3.113  70.450 137.733  0.00  0.00     0.078 H 
BRANCH  78  81
ATOM     81  O6  NAG d   1       4.247  68.800 138.247  0.00  0.00    -0.398 OA
ATOM     82  H41 SIA d   1       4.140  67.942 138.642  0.00  0.00     0.209 HD
ENDBRANCH  78  81
ENDBRANCH  63  78
ENDBRANCH  54  55
ENDBRANCH   6  54
BRANCH  10  83
ATOM     83  C6  GAL d   1       7.580  66.431 137.220  0.00  0.00     0.043 C 
ATOM     84  H23 SIA d   1       8.008  65.425 137.337  0.00  0.00     0.078 H 
ATOM     85  H24 SIA d   1       8.301  67.180 137.579  0.00  0.00     0.078 H 
BRANCH  83  86
ATOM     86  O6  GAL d   1       7.304  66.668 135.834  0.00  0.00    -0.398 OA
ATOM     87  H27 SIA d   1       6.683  66.021 135.521  0.00  0.00     0.209 HD
ENDBRANCH  83  86
ENDBRANCH  10  83
TORSDOF 24
