REMARK  9 active torsions:
REMARK  status: ('A' for Active; 'I' for Inactive)
REMARK       I    between atoms: C23_2  and  N4_3 
REMARK    1  A    between atoms: C23_2  and  C25_22 
REMARK    2  A    between atoms: N4_3  and  C5_4 
REMARK    3  A    between atoms: C5_4  and  C13_5 
REMARK    4  A    between atoms: C5_4  and  C6_15 
REMARK       I    between atoms: C13_5  and  N15_6 
REMARK    5  A    between atoms: N15_6  and  C17_7 
REMARK    6  A    between atoms: N15_6  and  C16_13 
REMARK    7  A    between atoms: C6_15  and  C7_16 
REMARK    8  A    between atoms: C25_22  and  C1_23 
REMARK    9  A    between atoms: C2_31  and  C32_32 
ROOT
ATOM      1  C5  1B0 d   1      29.261  -1.951  -1.922  0.00  0.00     0.093 C 
ATOM      2  H2  1B0 d   1      30.188  -2.524  -1.772  0.00  0.00     0.088 H 
ENDROOT
BRANCH   1   3
ATOM      3  N4  1B0 d   1      29.025  -1.057  -0.802  0.00  0.00    -0.347 N 
ATOM      4  C23 1B0 d   1      29.994  -0.493  -0.082  0.00  0.00     0.222 C 
ATOM      5  O24 1B0 d   1      31.181  -0.689  -0.287  0.00  0.00    -0.273 OA
ATOM      6  H1  1B0 d   1      28.078  -0.852  -0.556  0.00  0.00     0.163 HD
BRANCH   4   7
ATOM      7  C25 1B0 d   1      29.530   0.451   1.009  0.00  0.00     0.036 C 
ATOM      8  H18 1B0 d   1      28.431   0.425   1.041  0.00  0.00     0.054 H 
ATOM      9  H19 1B0 d   1      29.865   1.466   0.750  0.00  0.00     0.054 H 
BRANCH   7  10
ATOM     10  C1  1B0 d   1      30.049   0.120   2.383  0.00  0.00    -0.015 A 
ATOM     11  C26 1B0 d   1      31.319   0.560   2.992  0.00  0.00    -0.001 A 
ATOM     12  C31 1B0 d   1      32.339   1.343   2.465  0.00  0.00    -0.070 A 
ATOM     13  C27 1B0 d   1      31.379   0.025   4.275  0.00  0.00     0.043 A 
ATOM     14  C30 1B0 d   1      33.454   1.608   3.257  0.00  0.00    -0.082 A 
ATOM     15  H20 1B0 d   1      32.269   1.739   1.458  0.00  0.00     0.084 H 
ATOM     16  C29 1B0 d   1      33.530   1.087   4.550  0.00  0.00    -0.081 A 
ATOM     17  H21 1B0 d   1      34.262   2.218   2.870  0.00  0.00     0.083 H 
ATOM     18  C28 1B0 d   1      32.501   0.296   5.061  0.00  0.00    -0.056 A 
ATOM     19  H22 1B0 d   1      34.398   1.300   5.163  0.00  0.00     0.083 H 
ATOM     20  H23 1B0 d   1      32.572  -0.107   6.065  0.00  0.00     0.086 H 
ATOM     21  N3  1B0 d   1      30.248  -0.697   4.514  0.00  0.00    -0.359 N 
ATOM     22  C2  1B0 d   1      29.405  -0.691   3.448  0.00  0.00     0.013 A 
ATOM     23  H24 1B0 d   1      30.055  -1.189   5.398  0.00  0.00     0.166 HD
BRANCH  22  24
ATOM     24  C32 1B0 d   1      28.071  -1.383   3.361  0.00  0.00    -0.037 C 
ATOM     25  H25 1B0 d   1      27.624  -1.195   2.374  0.00  0.00     0.035 H 
ATOM     26  H26 1B0 d   1      27.405  -0.995   4.145  0.00  0.00     0.035 H 
ATOM     27  H27 1B0 d   1      28.209  -2.465   3.500  0.00  0.00     0.035 H 
ENDBRANCH  22  24
ENDBRANCH   7  10
ENDBRANCH   4   7
ENDBRANCH   1   3
BRANCH   1  28
ATOM     28  C13 1B0 d   1      29.367  -1.105  -3.174  0.00  0.00     0.247 C 
ATOM     29  N15 1B0 d   1      30.222  -1.422  -4.155  0.00  0.00    -0.321 N 
ATOM     30  O14 1B0 d   1      28.644  -0.125  -3.269  0.00  0.00    -0.271 OA
BRANCH  29  31
ATOM     31  C17 1B0 d   1      31.042  -2.551  -4.011  0.00  0.00     0.036 A 
ATOM     32  C22 1B0 d   1      30.654  -3.777  -4.556  0.00  0.00    -0.057 A 
ATOM     33  C21 1B0 d   1      31.473  -4.897  -4.408  0.00  0.00    -0.081 A 
ATOM     34  H3  1B0 d   1      29.716  -3.858  -5.094  0.00  0.00     0.086 H 
ATOM     35  C20 1B0 d   1      32.679  -4.795  -3.711  0.00  0.00    -0.083 A 
ATOM     36  H4  1B0 d   1      31.173  -5.847  -4.835  0.00  0.00     0.083 H 
ATOM     37  C19 1B0 d   1      33.067  -3.570  -3.166  0.00  0.00    -0.081 A 
ATOM     38  H5  1B0 d   1      33.313  -5.666  -3.593  0.00  0.00     0.083 H 
ATOM     39  C18 1B0 d   1      32.253  -2.445  -3.319  0.00  0.00    -0.057 A 
ATOM     40  H6  1B0 d   1      34.002  -3.491  -2.623  0.00  0.00     0.083 H 
ATOM     41  H7  1B0 d   1      32.559  -1.492  -2.902  0.00  0.00     0.086 H 
ENDBRANCH  29  31
BRANCH  29  42
ATOM     42  C16 1B0 d   1      30.371  -0.652  -5.387  0.00  0.00    -0.011 C 
ATOM     43  H8  1B0 d   1      29.675   0.200  -5.373  0.00  0.00     0.057 H 
ATOM     44  H9  1B0 d   1      30.146  -1.295  -6.251  0.00  0.00     0.057 H 
ATOM     45  H10 1B0 d   1      31.404  -0.281  -5.465  0.00  0.00     0.057 H 
ENDBRANCH  29  42
ENDBRANCH   1  28
BRANCH   1  46
ATOM     46  C6  1B0 d   1      28.066  -2.902  -2.028  0.00  0.00    -0.014 C 
ATOM     47  H11 1B0 d   1      28.136  -3.463  -2.971  0.00  0.00     0.043 H 
ATOM     48  H12 1B0 d   1      27.137  -2.313  -2.020  0.00  0.00     0.043 H 
BRANCH  46  49
ATOM     49  C7  1B0 d   1      28.042  -3.881  -0.870  0.00  0.00    -0.056 A 
ATOM     50  C12 1B0 d   1      28.700  -5.101  -0.978  0.00  0.00    -0.077 A 
ATOM     51  C11 1B0 d   1      28.676  -5.998   0.089  0.00  0.00    -0.082 A 
ATOM     52  H13 1B0 d   1      29.230  -5.354  -1.889  0.00  0.00     0.084 H 
ATOM     53  C10 1B0 d   1      28.007  -5.677   1.266  0.00  0.00    -0.083 A 
ATOM     54  H14 1B0 d   1      29.182  -6.952   0.001  0.00  0.00     0.083 H 
ATOM     55  C9  1B0 d   1      27.356  -4.453   1.381  0.00  0.00    -0.082 A 
ATOM     56  H15 1B0 d   1      27.993  -6.379   2.092  0.00  0.00     0.083 H 
ATOM     57  C8  1B0 d   1      27.373  -3.564   0.311  0.00  0.00    -0.077 A 
ATOM     58  H16 1B0 d   1      26.839  -4.194   2.298  0.00  0.00     0.083 H 
ATOM     59  H17 1B0 d   1      26.860  -2.613   0.397  0.00  0.00     0.084 H 
ENDBRANCH  46  49
ENDBRANCH   1  46
TORSDOF 9
