REMARK  13 active torsions:
REMARK  status: ('A' for Active; 'I' for Inactive)
REMARK    1  A    between atoms: C01_1  and  N07_7 
REMARK    2  A    between atoms: C03_3  and  N08_8 
REMARK    3  A    between atoms: C06_6  and  C10_10 
REMARK    4  A    between atoms: N07_7  and  C11_11 
REMARK    5  A    between atoms: N08_8  and  C20_20 
REMARK    6  A    between atoms: C12_12  and  O16_16 
REMARK    7  A    between atoms: C13_13  and  O17_17 
REMARK    8  A    between atoms: C14_14  and  C18_18 
REMARK    9  A    between atoms: C18_18  and  O19_19 
REMARK   10  A    between atoms: C20_20  and  C21_21 
REMARK   11  A    between atoms: C21_21  and  C22_22 
REMARK   12  A    between atoms: C22_22  and  O23_23 
REMARK   13  A    between atoms: O23_23  and  C24_24 
ROOT
ATOM      1  C01 42P d   1      29.915   8.890  -7.988  0.00  0.00     0.159 A 
ATOM      2  N02 42P d   1      29.405   8.181  -6.906  0.00  0.00    -0.044 NA
ATOM      3  C03 42P d   1      29.731   6.892  -6.777  0.00  0.00     0.725 A 
ATOM      4  N04 42P d   1      30.502   6.193  -7.610  0.00  0.00    -0.050 NA
ATOM      5  C05 42P d   1      31.037   6.828  -8.704  0.00  0.00     0.162 A 
ATOM      6  C06 42P d   1      30.767   8.249  -9.020  0.00  0.00     0.087 A 
ATOM      7 CL9  42P d   1      31.967   5.663  -9.607  0.00  0.00    -0.061 Cl
ENDROOT
BRANCH   1   8
ATOM      8  N07 42P d   1      29.539  10.212  -8.023  0.00  0.00    -0.366 N 
ATOM      9  H1  42P d   1      29.991  10.734  -8.787  0.00  0.00     0.161 HD
BRANCH   8  10
ATOM     10  C11 42P d   1      28.635  11.054  -7.215  0.00  0.00     0.038 C 
ATOM     11  C12 42P d   1      28.914  11.061  -5.689  0.00  0.00     0.080 C 
ATOM     12  C13 42P d   1      29.756  12.339  -5.398  0.00  0.00     0.067 C 
ATOM     13  H4  42P d   1      29.500  10.170  -5.419  0.00  0.00     0.090 H 
ATOM     14  C14 42P d   1      29.443  13.324  -6.570  0.00  0.00    -0.004 C 
ATOM     15  H5  42P d   1      30.825  12.082  -5.424  0.00  0.00     0.087 H 
ATOM     16  C15 42P d   1      28.602  12.543  -7.619  0.00  0.00    -0.036 C 
ATOM     17  H6  42P d   1      28.794  14.111  -6.157  0.00  0.00     0.047 H 
ATOM     18  H7  42P d   1      27.565  12.910  -7.619  0.00  0.00     0.036 H 
ATOM     19  H8  42P d   1      29.037  12.671  -8.621  0.00  0.00     0.036 H 
ATOM     20  H3  42P d   1      27.627  10.642  -7.368  0.00  0.00     0.076 H 
BRANCH  11  21
ATOM     21  O16 42P d   1      27.702  11.041  -4.949  0.00  0.00    -0.391 OA
ATOM     22  H9  42P d   1      27.899  11.061  -4.020  0.00  0.00     0.210 HD
ENDBRANCH  11  21
BRANCH  12  23
ATOM     23  O17 42P d   1      29.467  12.887  -4.094  0.00  0.00    -0.392 OA
ATOM     24  H10 42P d   1      29.677  12.243  -3.428  0.00  0.00     0.210 HD
ENDBRANCH  12  23
BRANCH  14  25
ATOM     25  C18 42P d   1      30.663  14.070  -7.173  0.00  0.00     0.022 C 
ATOM     26  H11 42P d   1      30.745  13.806  -8.238  0.00  0.00     0.074 H 
ATOM     27  H12 42P d   1      31.571  13.745  -6.643  0.00  0.00     0.074 H 
BRANCH  25  28
ATOM     28  O19 42P d   1      30.554  15.485  -7.063  0.00  0.00    -0.400 OA
ATOM     29  H13 42P d   1      31.323  15.891  -7.445  0.00  0.00     0.209 HD
ENDBRANCH  25  28
ENDBRANCH  14  25
ENDBRANCH   8  10
ENDBRANCH   1   8
BRANCH   6  30
ATOM     30  C10 42P d   1      31.358   9.040 -10.186  0.00  0.00     0.116 A 
ATOM     31  S25 42P d   1      32.608   8.446 -11.305  0.00  0.00    -0.067 SA
ATOM     32  C26 42P d   1      32.737   9.993 -12.126  0.00  0.00     0.035 A 
ATOM     33  C27 42P d   1      31.827  10.902 -11.497  0.00  0.00     0.075 A 
ATOM     34  C29 42P d   1      33.549  10.402 -13.234  0.00  0.00    -0.064 A 
ATOM     35  N28 42P d   1      31.117  10.352 -10.410  0.00  0.00    -0.239 NA
ATOM     36  C32 42P d   1      31.753  12.255 -12.019  0.00  0.00    -0.054 A 
ATOM     37  C31 42P d   1      32.554  12.673 -13.130  0.00  0.00    -0.081 A 
ATOM     38  H26 42P d   1      31.076  12.965 -11.557  0.00  0.00     0.087 H 
ATOM     39  C30 42P d   1      33.449  11.743 -13.732  0.00  0.00    -0.082 A 
ATOM     40  H25 42P d   1      32.480  13.686 -13.509  0.00  0.00     0.083 H 
ATOM     41  H24 42P d   1      34.059  12.051 -14.573  0.00  0.00     0.083 H 
ATOM     42  H23 42P d   1      34.236   9.700 -13.694  0.00  0.00     0.085 H 
ENDBRANCH   6  30
BRANCH   3  43
ATOM     43  N08 42P d   1      29.231   6.208  -5.699  0.00  0.00    -0.222 N 
ATOM     44  H2  42P d   1      29.741   5.346  -5.459  0.00  0.00     0.177 HD
BRANCH  43  45
ATOM     45  C20 42P d   1      28.102   6.504  -4.846  0.00  0.00     0.011 C 
ATOM     46  H14 42P d   1      27.167   6.339  -5.402  0.00  0.00     0.065 H 
ATOM     47  H15 42P d   1      28.153   7.552  -4.517  0.00  0.00     0.065 H 
BRANCH  45  48
ATOM     48  C21 42P d   1      28.143   5.581  -3.626  0.00  0.00    -0.030 C 
ATOM     49  H16 42P d   1      29.048   5.798  -3.039  0.00  0.00     0.038 H 
ATOM     50  H17 42P d   1      28.168   4.535  -3.965  0.00  0.00     0.038 H 
BRANCH  48  51
ATOM     51  C22 42P d   1      26.907   5.794  -2.743  0.00  0.00     0.020 C 
ATOM     52  H18 42P d   1      26.077   6.175  -3.357  0.00  0.00     0.074 H 
ATOM     53  H19 42P d   1      27.141   6.521  -1.951  0.00  0.00     0.074 H 
BRANCH  51  54
ATOM     54  O23 42P d   1      26.535   4.553  -2.156  0.00  0.00    -0.396 OA
BRANCH  54  55
ATOM     55  C24 42P d   1      25.155   4.245  -2.345  0.00  0.00     0.004 C 
ATOM     56  H20 42P d   1      24.927   3.279  -1.872  0.00  0.00     0.066 H 
ATOM     57  H21 42P d   1      24.936   4.187  -3.421  0.00  0.00     0.066 H 
ATOM     58  H22 42P d   1      24.538   5.032  -1.887  0.00  0.00     0.066 H 
ENDBRANCH  54  55
ENDBRANCH  51  54
ENDBRANCH  48  51
ENDBRANCH  45  48
ENDBRANCH  43  45
ENDBRANCH   3  43
TORSDOF 13
