REMARK  5 active torsions:
REMARK  status: ('A' for Active; 'I' for Inactive)
REMARK    1  A    between atoms: C04_4  and  N07_7 
REMARK    2  A    between atoms: N07_7  and  C08_8 
REMARK    3  A    between atoms: C08_8  and  C09_9 
REMARK    4  A    between atoms: C11_11  and  C15_15 
REMARK    5  A    between atoms: N19_19  and  O20_20 
ROOT
ATOM      1  C08 42S d   1      34.434-100.677  -8.183  0.00  0.00     0.165 C 
ATOM      2  N19 42S d   1      34.255-101.856  -8.702  0.00  0.00    -0.117 NA
ENDROOT
BRANCH   1   3
ATOM      3  N07 42S d   1      35.148-100.234  -7.093  0.00  0.00    -0.339 N 
ATOM      4  H   42S d   1      35.642-100.975  -6.575  0.00  0.00     0.167 HD
BRANCH   3   5
ATOM      5  C04 42S d   1      35.316 -98.960  -6.573  0.00  0.00     0.033 A 
ATOM      6  C03 42S d   1      35.267 -98.690  -5.241  0.00  0.00    -0.057 A 
ATOM      7  C02 42S d   1      35.439 -97.441  -4.719  0.00  0.00    -0.081 A 
ATOM      8  H   42S d   1      35.081 -99.511  -4.558  0.00  0.00     0.086 H 
ATOM      9  C01 42S d   1      35.683 -96.377  -5.535  0.00  0.00    -0.083 A 
ATOM     10  H   42S d   1      35.381 -97.294  -3.647  0.00  0.00     0.083 H 
ATOM     11  C06 42S d   1      35.745 -96.611  -6.881  0.00  0.00    -0.081 A 
ATOM     12  H   42S d   1      35.823 -95.381  -5.131  0.00  0.00     0.083 H 
ATOM     13  C05 42S d   1      35.571 -97.878  -7.398  0.00  0.00    -0.057 A 
ATOM     14  H   42S d   1      35.935 -95.784  -7.556  0.00  0.00     0.083 H 
ATOM     15  H   42S d   1      35.635 -98.029  -8.470  0.00  0.00     0.086 H 
ENDBRANCH   3   5
ENDBRANCH   1   3
BRANCH   1  16
ATOM     16  C09 42S d   1      33.640 -99.799  -9.087  0.00  0.00     0.013 A 
ATOM     17  C10 42S d   1      32.568 -99.070  -8.623  0.00  0.00    -0.055 A 
ATOM     18  C11 42S d   1      31.848 -98.269  -9.470  0.00  0.00     0.048 A 
ATOM     19  H   42S d   1      32.291 -99.130  -7.577  0.00  0.00     0.086 H 
ATOM     20  C12 42S d   1      32.159 -98.166 -10.812  0.00  0.00    -0.068 A 
ATOM     21  C13 42S d   1      33.230 -98.897 -11.288  0.00  0.00    -0.081 A 
ATOM     22  H   42S d   1      31.580 -97.530 -11.472  0.00  0.00     0.084 H 
ATOM     23  C14 42S d   1      33.967 -99.708 -10.440  0.00  0.00    -0.069 A 
ATOM     24  H   42S d   1      33.497 -98.835 -12.337  0.00  0.00     0.083 H 
ATOM     25  H   42S d   1      34.804-100.276 -10.831  0.00  0.00     0.085 H 
BRANCH  18  26
ATOM     26  C15 42S d   1      30.705 -97.502  -8.921  0.00  0.00     0.417 C 
ATOM     27  F16 42S d   1      29.550 -97.829  -9.441  0.00  0.00    -0.166 F 
ATOM     28  F17 42S d   1      30.799 -96.227  -9.179  0.00  0.00    -0.166 F 
ATOM     29  F18 42S d   1      30.547 -97.588  -7.644  0.00  0.00    -0.166 F 
ENDBRANCH  18  26
ENDBRANCH   1  16
BRANCH   2  30
ATOM     30  O20 42S d   1      34.827-102.891  -8.139  0.00  0.00    -0.264 OA
ATOM     31  H1  42S d   1      35.769-102.770  -8.140  0.00  0.00     0.247 HD
ENDBRANCH   2  30
TORSDOF 5
