REMARK  7 active torsions:
REMARK  status: ('A' for Active; 'I' for Inactive)
REMARK    1  A    between atoms: C04_4  and  N07_7 
REMARK    2  A    between atoms: N07_7  and  C08_8 
REMARK    3  A    between atoms: C08_8  and  C09_9 
REMARK    4  A    between atoms: C11_11  and  C07_15 
REMARK    5  A    between atoms: C13_13  and  N14_21 
REMARK    6  A    between atoms: N19_19  and  O20_20 
REMARK       I    between atoms: N14_21  and  C15_22 
REMARK       I    between atoms: C15_22  and  N17_24 
REMARK    7  A    between atoms: N17_24  and  C18_25 
ROOT
ATOM      1  C09 42T d   1      32.990-100.077  -8.994  0.00  0.00     0.015 A 
ATOM      2  C10 42T d   1      31.940 -99.297  -8.565  0.00  0.00    -0.054 A 
ATOM      3  C11 42T d   1      31.229 -98.545  -9.465  0.00  0.00     0.051 A 
ATOM      4  C12 42T d   1      31.530 -98.533 -10.810  0.00  0.00    -0.042 A 
ATOM      5  C13 42T d   1      32.576 -99.314 -11.258  0.00  0.00     0.038 A 
ATOM      6  C14 42T d   1      33.304-100.077 -10.358  0.00  0.00    -0.043 A 
ATOM      7  H6  42T d   1      31.675 -99.277  -7.514  0.00  0.00     0.086 H 
ATOM      8  H7  42T d   1      30.958 -97.924 -11.501  0.00  0.00     0.088 H 
ATOM      9  H8  42T d   1      34.129-100.683 -10.716  0.00  0.00     0.088 H 
ENDROOT
BRANCH   1  10
ATOM     10  C08 42T d   1      33.775-100.910  -8.043  0.00  0.00     0.158 C 
ATOM     11  N19 42T d   1      33.615-102.114  -8.512  0.00  0.00    -0.251 N 
ATOM     12  H9  42T d   1      33.043-102.266  -9.355  0.00  0.00     0.196 HD
BRANCH  10  13
ATOM     13  N07 42T d   1      34.459-100.405  -6.960  0.00  0.00    -0.229 NA
BRANCH  13  14
ATOM     14  C04 42T d   1      34.622 -99.106  -6.490  0.00  0.00     0.059 A 
ATOM     15  C03 42T d   1      34.495 -98.744  -5.182  0.00  0.00    -0.055 A 
ATOM     16  C02 42T d   1      34.674 -97.469  -4.735  0.00  0.00    -0.081 A 
ATOM     17  H3  42T d   1      34.238 -99.510  -4.460  0.00  0.00     0.087 H 
ATOM     18  C01 42T d   1      35.006 -96.478  -5.610  0.00  0.00    -0.083 A 
ATOM     19  H2  42T d   1      34.552 -97.243  -3.682  0.00  0.00     0.083 H 
ATOM     20  C06 42T d   1      35.150 -96.808  -6.931  0.00  0.00    -0.081 A 
ATOM     21  H1  42T d   1      35.152 -95.459  -5.270  0.00  0.00     0.083 H 
ATOM     22  C05 42T d   1      34.968 -98.097  -7.372  0.00  0.00    -0.055 A 
ATOM     23  H5  42T d   1      35.413 -96.036  -7.645  0.00  0.00     0.083 H 
ATOM     24  H4  42T d   1      35.097 -98.326  -8.424  0.00  0.00     0.087 H 
ENDBRANCH  13  14
ENDBRANCH  10  13
BRANCH  11  25
ATOM     25  O20 42T d   1      34.181-103.135  -7.912  0.00  0.00    -0.288 OA
ATOM     26  H10 42T d   1      33.966-103.934  -8.378  0.00  0.00     0.244 HD
ENDBRANCH  11  25
ENDBRANCH   1  10
BRANCH   3  27
ATOM     27  C07 42T d   1      30.109 -97.709  -8.983  0.00  0.00     0.417 C 
ATOM     28  F16 42T d   1      28.982 -98.340  -8.800  0.00  0.00    -0.166 F 
ATOM     29  F17 42T d   1      29.775 -96.807  -9.860  0.00  0.00    -0.166 F 
ATOM     30  F18 42T d   1      30.333 -97.071  -7.888  0.00  0.00    -0.166 F 
ENDBRANCH   3  27
BRANCH   5  31
ATOM     31  N14 42T d   1      32.925 -99.350 -12.489  0.00  0.00    -0.309 N 
ATOM     32  C15 42T d   1      32.895 -98.341 -13.439  0.00  0.00     0.325 C 
ATOM     33  O16 42T d   1      32.489 -97.196 -13.267  0.00  0.00    -0.247 OA
ATOM     34  N17 42T d   1      33.369 -98.636 -14.763  0.00  0.00    -0.305 N 
ATOM     35  H12 42T d   1      33.717 -99.539 -15.016  0.00  0.00     0.171 HD
ATOM     36  H11 42T d   1      33.268-100.232 -12.812  0.00  0.00     0.170 HD
BRANCH  34  37
ATOM     37  C18 42T d   1      33.311 -97.575 -15.676  0.00  0.00     0.080 A 
ATOM     38  C19 42T d   1      32.152 -97.026 -16.230  0.00  0.00     0.062 A 
ATOM     39 CL1  42T d   1      30.546 -97.551 -15.926  0.00  0.00    -0.082 Cl
ATOM     40  C21 42T d   1      32.180 -95.958 -17.127  0.00  0.00    -0.060 A 
ATOM     41  C22 42T d   1      33.378 -95.380 -17.509  0.00  0.00    -0.080 A 
ATOM     42  H13 42T d   1      31.250 -95.575 -17.531  0.00  0.00     0.086 H 
ATOM     43  C23 42T d   1      34.564 -95.889 -16.977  0.00  0.00    -0.060 A 
ATOM     44  H14 42T d   1      33.395 -94.550 -18.206  0.00  0.00     0.083 H 
ATOM     45  C24 42T d   1      34.518 -96.949 -16.087  0.00  0.00     0.062 A 
ATOM     46  H15 42T d   1      35.517 -95.456 -17.259  0.00  0.00     0.086 H 
ATOM     47 CL2  42T d   1      36.039 -97.497 -15.494  0.00  0.00    -0.082 Cl
ENDBRANCH  34  37
ENDBRANCH   5  31
TORSDOF 7
