REMARK  7 active torsions:
REMARK  status: ('A' for Active; 'I' for Inactive)
REMARK    1  A    between atoms: C05_5  and  C08_8 
REMARK    2  A    between atoms: C09_9  and  C10_10 
REMARK    3  A    between atoms: C13_13  and  N14_14 
REMARK    4  A    between atoms: N14_14  and  C15_15 
REMARK    5  A    between atoms: C15_15  and  C16_16 
REMARK    6  A    between atoms: C16_16  and  N17_17 
REMARK    7  A    between atoms: C23_23  and  C25_25 
ROOT
ATOM      1  C10 42U d   1      32.964 -99.914 -10.206  0.00  0.00    -0.021 A 
ATOM      2  C11 42U d   1      33.146 -99.917 -11.598  0.00  0.00    -0.070 A 
ATOM      3  C12 42U d   1      32.543 -99.045 -12.482  0.00  0.00    -0.056 A 
ATOM      4  C13 42U d   1      31.642 -98.004 -12.100  0.00  0.00     0.043 A 
ATOM      5  C23 42U d   1      31.445 -97.988 -10.680  0.00  0.00     0.075 A 
ATOM      6  C24 42U d   1      32.083 -98.895  -9.822  0.00  0.00    -0.055 A 
ATOM      7  H5  42U d   1      33.814-100.664 -12.012  0.00  0.00     0.084 H 
ATOM      8  H6  42U d   1      32.768 -99.157 -13.536  0.00  0.00     0.087 H 
ATOM      9  H23 42U d   1      31.875 -98.799  -8.762  0.00  0.00     0.086 H 
ENDROOT
BRANCH   4  10
ATOM     10  N14 42U d   1      31.072 -97.157 -13.045  0.00  0.00    -0.388 N 
ATOM     11  H7  42U d   1      30.290 -96.588 -12.691  0.00  0.00     0.159 HD
BRANCH  10  12
ATOM     12  C15 42U d   1      31.400 -96.930 -14.490  0.00  0.00     0.015 C 
ATOM     13  H8  42U d   1      30.659 -96.224 -14.893  0.00  0.00     0.066 H 
ATOM     14  H9  42U d   1      31.305 -97.895 -15.008  0.00  0.00     0.066 H 
BRANCH  12  15
ATOM     15  C16 42U d   1      32.830 -96.355 -14.811  0.00  0.00     0.098 C 
ATOM     16  H10 42U d   1      33.482 -96.488 -13.935  0.00  0.00     0.078 H 
ATOM     17  H11 42U d   1      32.748 -95.284 -15.047  0.00  0.00     0.078 H 
BRANCH  15  18
ATOM     18  N17 42U d   1      33.426 -97.088 -15.998  0.00  0.00    -0.066 N 
ATOM     19  C18 42U d   1      34.758 -96.461 -16.358  0.00  0.00     0.106 C 
ATOM     20  C19 42U d   1      34.709 -95.475 -17.569  0.00  0.00     0.104 C 
ATOM     21  H13 42U d   1      35.462 -97.270 -16.603  0.00  0.00     0.078 H 
ATOM     22  H14 42U d   1      35.125 -95.908 -15.481  0.00  0.00     0.078 H 
ATOM     23  N20 42U d   1      33.455 -94.718 -17.639  0.00  0.00    -0.072 N 
ATOM     24  H15 42U d   1      34.822 -96.054 -18.498  0.00  0.00     0.078 H 
ATOM     25  H16 42U d   1      35.543 -94.764 -17.477  0.00  0.00     0.078 H 
ATOM     26  C21 42U d   1      32.293 -95.610 -17.816  0.00  0.00     0.104 C 
ATOM     27  H17 42U d   1      33.500 -94.081 -18.419  0.00  0.00     0.277 HD
ATOM     28  H18 42U d   1      33.340 -94.196 -16.785  0.00  0.00     0.277 HD
ATOM     29  C22 42U d   1      32.453 -96.980 -17.148  0.00  0.00     0.106 C 
ATOM     30  H19 42U d   1      32.138 -95.766 -18.894  0.00  0.00     0.078 H 
ATOM     31  H20 42U d   1      31.409 -95.116 -17.386  0.00  0.00     0.078 H 
ATOM     32  H21 42U d   1      31.464 -97.280 -16.771  0.00  0.00     0.078 H 
ATOM     33  H22 42U d   1      32.780 -97.688 -17.924  0.00  0.00     0.078 H 
ATOM     34  H12 42U d   1      33.567 -98.059 -15.765  0.00  0.00     0.280 HD
ENDBRANCH  15  18
ENDBRANCH  12  15
ENDBRANCH  10  12
ENDBRANCH   4  10
BRANCH   5  35
ATOM     35  C25 42U d   1      30.503 -96.909 -10.072  0.00  0.00     0.419 C 
ATOM     36  F26 42U d   1      29.324 -97.358  -9.686  0.00  0.00    -0.166 F 
ATOM     37  F27 42U d   1      30.974 -96.255  -9.026  0.00  0.00    -0.166 F 
ATOM     38  F28 42U d   1      30.249 -95.978 -10.968  0.00  0.00    -0.166 F 
ENDBRANCH   5  35
BRANCH   1  39
ATOM     39  C09 42U d   1      33.593-100.841  -9.174  0.00  0.00     0.022 A 
ATOM     40  C08 42U d   1      34.178-100.487  -7.863  0.00  0.00     0.072 A 
ATOM     41  N31 42U d   1      34.639-101.623  -7.246  0.00  0.00    -0.277 N 
ATOM     42  N30 42U d   1      34.364-102.629  -8.093  0.00  0.00    -0.186 NA
ATOM     43  H25 42U d   1      35.099-101.690  -6.327  0.00  0.00     0.189 HD
ATOM     44  C29 42U d   1      33.757-102.210  -9.226  0.00  0.00     0.035 A 
ATOM     45  H24 42U d   1      33.447-102.852 -10.049  0.00  0.00     0.118 H 
BRANCH  40  46
ATOM     46  C05 42U d   1      34.433 -99.264  -7.025  0.00  0.00    -0.007 A 
ATOM     47  C04 42U d   1      34.376 -99.078  -5.644  0.00  0.00    -0.068 A 
ATOM     48  C03 42U d   1      34.643 -97.874  -5.006  0.00  0.00    -0.045 A 
ATOM     49  H2  42U d   1      34.106 -99.929  -5.029  0.00  0.00     0.085 H 
ATOM     50  C01 42U d   1      34.993 -96.750  -5.762  0.00  0.00     0.116 A 
ATOM     51  H1  42U d   1      34.581 -97.805  -3.926  0.00  0.00     0.088 H 
ATOM     52  F02 42U d   1      35.253 -95.582  -5.186  0.00  0.00    -0.206 F 
ATOM     53  C07 42U d   1      35.060 -96.894  -7.143  0.00  0.00    -0.045 A 
ATOM     54  C06 42U d   1      34.788 -98.109  -7.728  0.00  0.00    -0.068 A 
ATOM     55  H4  42U d   1      35.328 -96.045  -7.762  0.00  0.00     0.088 H 
ATOM     56  H3  42U d   1      34.853 -98.175  -8.808  0.00  0.00     0.085 H 
ENDBRANCH  40  46
ENDBRANCH   1  39
TORSDOF 7
