REMARK  7 active torsions:
REMARK  status: ('A' for Active; 'I' for Inactive)
REMARK       I    between atoms: N1_1  and  C8_6 
REMARK    1  A    between atoms: C7_5  and  C6_4 
REMARK    2  A    between atoms: C8_6  and  C7_5 
REMARK    3  A    between atoms: C18_30  and  C10_7 
REMARK    4  A    between atoms: C2_16  and  C1_15 
REMARK    5  A    between atoms: S1_17  and  C2_16 
REMARK    6  A    between atoms: C3_20  and  S1_17 
REMARK    7  A    between atoms: C11_26  and  C12_27 
ROOT
ATOM      1  N1  43V d   1      -3.362  27.163  12.208  0.00  0.00    -0.305 N 
ATOM      2  C8  43V d   1      -2.631  26.369  11.430  0.00  0.00     0.227 C 
ATOM      3  C10 43V d   1      -6.174  26.944  14.360  0.00  0.00     0.089 A 
ATOM      4  O3  43V d   1      -2.915  25.208  11.159  0.00  0.00    -0.273 OA
ATOM      5  C9  43V d   1      -4.468  26.746  12.846  0.00  0.00     0.174 A 
ATOM      6  N2  43V d   1      -5.083  27.489  13.771  0.00  0.00    -0.222 NA
ATOM      7  S2  43V d   1      -5.268  25.250  12.737  0.00  0.00    -0.049 SA
ATOM      8  C11 43V d   1      -6.442  25.634  13.904  0.00  0.00     0.048 A 
ATOM      9  H1  43V d   1      -3.075  28.114  12.323  0.00  0.00     0.171 HD
ENDROOT
BRANCH   2  10
ATOM     10  C7  43V d   1      -1.318  26.990  10.921  0.00  0.00     0.033 C 
ATOM     11  H4  43V d   1      -1.137  26.711   9.872  0.00  0.00     0.054 H 
ATOM     12  H5  43V d   1      -1.346  28.086  11.010  0.00  0.00     0.054 H 
BRANCH  10  13
ATOM     13  C6  43V d   1      -0.230  26.397  11.838  0.00  0.00    -0.049 A 
ATOM     14  C5  43V d   1      -0.241  26.724  13.193  0.00  0.00    -0.075 A 
ATOM     15  C4  43V d   1       0.706  26.189  14.058  0.00  0.00    -0.062 A 
ATOM     16  H3  43V d   1      -0.995  27.402  13.576  0.00  0.00     0.084 H 
ATOM     17  C3  43V d   1       1.681  25.323  13.579  0.00  0.00     0.059 A 
ATOM     18  H2  43V d   1       0.684  26.448  15.110  0.00  0.00     0.085 H 
ATOM     19  C25 43V d   1       1.688  24.980  12.219  0.00  0.00    -0.062 A 
ATOM     20  C24 43V d   1       0.734  25.511  11.349  0.00  0.00    -0.075 A 
ATOM     21  H17 43V d   1       2.440  24.297  11.841  0.00  0.00     0.085 H 
ATOM     22  H11 43V d   1       0.741  25.238  10.300  0.00  0.00     0.084 H 
BRANCH  17  23
ATOM     23  S1  43V d   1       2.865  24.646  14.706  0.00  0.00     0.175 S 
ATOM     24  O1  43V d   1       4.169  24.430  14.004  0.00  0.00    -0.223 OA
ATOM     25  O2  43V d   1       3.032  25.524  15.914  0.00  0.00    -0.223 OA
BRANCH  23  26
ATOM     26  C2  43V d   1       2.217  23.039  15.296  0.00  0.00     0.030 C 
ATOM     27  H15 43V d   1       2.236  22.317  14.466  0.00  0.00     0.056 H 
ATOM     28  H16 43V d   1       2.854  22.674  16.115  0.00  0.00     0.056 H 
BRANCH  26  29
ATOM     29  C1  43V d   1       0.774  23.177  15.807  0.00  0.00    -0.064 C 
ATOM     30  H12 43V d   1       0.413  22.198  16.154  0.00  0.00     0.028 H 
ATOM     31  H13 43V d   1       0.129  23.538  14.992  0.00  0.00     0.028 H 
ATOM     32  H14 43V d   1       0.747  23.894  16.641  0.00  0.00     0.028 H 
ENDBRANCH  26  29
ENDBRANCH  23  26
ENDBRANCH  17  23
ENDBRANCH  10  13
ENDBRANCH   2  10
BRANCH   3  33
ATOM     33  C18 43V d   1      -6.879  27.637  15.355  0.00  0.00     0.018 A 
ATOM     34  C19 43V d   1      -6.100  28.168  16.385  0.00  0.00    -0.048 A 
ATOM     35  C20 43V d   1      -6.653  28.883  17.444  0.00  0.00     0.035 A 
ATOM     36  H20 43V d   1      -5.027  28.018  16.359  0.00  0.00     0.087 H 
ATOM     37  C21 43V d   1      -8.028  29.079  17.470  0.00  0.00    -0.060 A 
ATOM     38 CL1  43V d   1      -5.635  29.522  18.703  0.00  0.00    -0.084 Cl
ATOM     39  C22 43V d   1      -8.821  28.564  16.445  0.00  0.00    -0.059 A 
ATOM     40  H9  43V d   1      -8.483  29.631  18.285  0.00  0.00     0.086 H 
ATOM     41  C23 43V d   1      -8.262  27.848  15.388  0.00  0.00     0.046 A 
ATOM     42  H10 43V d   1      -9.893  28.724  16.471  0.00  0.00     0.086 H 
ATOM     43 CL2  43V d   1      -9.332  27.255  14.168  0.00  0.00    -0.083 Cl
ENDBRANCH   3  33
BRANCH   8  44
ATOM     44  C12 43V d   1      -7.463  24.753  14.289  0.00  0.00    -0.017 A 
ATOM     45  C13 43V d   1      -7.713  24.485  15.639  0.00  0.00    -0.072 A 
ATOM     46  C14 43V d   1      -8.730  23.598  16.008  0.00  0.00    -0.082 A 
ATOM     47  H6  43V d   1      -7.115  24.968  16.404  0.00  0.00     0.084 H 
ATOM     48  C15 43V d   1      -9.502  22.960  15.033  0.00  0.00    -0.083 A 
ATOM     49  H19 43V d   1      -8.921  23.404  17.057  0.00  0.00     0.083 H 
ATOM     50  C16 43V d   1      -9.248  23.217  13.685  0.00  0.00    -0.082 A 
ATOM     51  H7  43V d   1     -10.290  22.273  15.321  0.00  0.00     0.083 H 
ATOM     52  C17 43V d   1      -8.228  24.104  13.323  0.00  0.00    -0.072 A 
ATOM     53  H18 43V d   1      -9.840  22.730  12.919  0.00  0.00     0.083 H 
ATOM     54  H8  43V d   1      -8.030  24.289  12.273  0.00  0.00     0.084 H 
ENDBRANCH   8  44
TORSDOF 7
