REMARK  4 active torsions:
REMARK  status: ('A' for Active; 'I' for Inactive)
REMARK    1  A    between atoms: C3_4  and  N1_9 
REMARK    2  A    between atoms: N1_9  and  C8_11 
REMARK    3  A    between atoms: C7_10  and  C13_16 
REMARK    4  A    between atoms: C13_16  and  C14_17 
ROOT
ATOM      1  C7  DIF d   1     -14.723   6.048 -11.606  0.00  0.00    -0.021 A 
ATOM      2  C8  DIF d   1     -13.833   5.838 -12.661  0.00  0.00     0.039 A 
ATOM      3  C9  DIF d   1     -14.241   6.123 -13.956  0.00  0.00    -0.057 A 
ATOM      4  C10 DIF d   1     -15.520   6.615 -14.189  0.00  0.00    -0.081 A 
ATOM      5  C11 DIF d   1     -16.399   6.824 -13.134  0.00  0.00    -0.082 A 
ATOM      6  C12 DIF d   1     -15.998   6.544 -11.837  0.00  0.00    -0.074 A 
ATOM      7  H5  DIF d   1     -13.562   5.962 -14.786  0.00  0.00     0.086 H 
ATOM      8  H6  DIF d   1     -15.834   6.837 -15.202  0.00  0.00     0.083 H 
ATOM      9  H7  DIF d   1     -17.396   7.205 -13.324  0.00  0.00     0.083 H 
ATOM     10  H8  DIF d   1     -16.676   6.712 -11.008  0.00  0.00     0.084 H 
ENDROOT
BRANCH   2  11
ATOM     11  N1  DIF d   1     -12.523   5.330 -12.383  0.00  0.00    -0.353 N 
ATOM     12  H4  DIF d   1     -12.194   5.380 -11.408  0.00  0.00     0.166 HD
BRANCH  11  13
ATOM     13  C3  DIF d   1     -11.632   4.758 -13.347  0.00  0.00     0.076 A 
ATOM     14  C2  DIF d   1     -10.492   5.459 -13.726  0.00  0.00     0.062 A 
ATOM     15  C1  DIF d   1      -9.609   4.916 -14.653  0.00  0.00    -0.060 A 
ATOM     16 CL2  DIF d   1     -10.166   7.032 -13.052  0.00  0.00    -0.082 Cl
ATOM     17  C6  DIF d   1      -9.849   3.667 -15.207  0.00  0.00    -0.080 A 
ATOM     18  H1  DIF d   1      -8.726   5.473 -14.945  0.00  0.00     0.086 H 
ATOM     19  C5  DIF d   1     -10.979   2.963 -14.826  0.00  0.00    -0.060 A 
ATOM     20  H3  DIF d   1      -9.159   3.247 -15.930  0.00  0.00     0.083 H 
ATOM     21  C4  DIF d   1     -11.865   3.501 -13.899  0.00  0.00     0.062 A 
ATOM     22  H2  DIF d   1     -11.174   1.986 -15.253  0.00  0.00     0.086 H 
ATOM     23 CL4  DIF d   1     -13.269   2.580 -13.452  0.00  0.00    -0.082 Cl
ENDBRANCH  11  13
ENDBRANCH   2  11
BRANCH   1  24
ATOM     24  C13 DIF d   1     -14.288   5.749 -10.190  0.00  0.00     0.042 C 
ATOM     25  H9  DIF d   1     -13.667   4.841 -10.165  0.00  0.00     0.056 H 
ATOM     26  H10 DIF d   1     -15.166   5.611  -9.542  0.00  0.00     0.056 H 
BRANCH  24  27
ATOM     27  C14 DIF d   1     -13.487   6.942  -9.736  0.00  0.00     0.177 C 
ATOM     28  O1  DIF d   1     -14.079   7.999  -9.395  0.00  0.00    -0.648 OA
ATOM     29  O2  DIF d   1     -12.231   6.882  -9.719  0.00  0.00    -0.648 OA
ENDBRANCH  24  27
ENDBRANCH   1  24
TORSDOF 4
