REMARK  11 active torsions:
REMARK  status: ('A' for Active; 'I' for Inactive)
REMARK    1  A    between atoms: C_2  and  CA_4 
REMARK    2  A    between atoms: CA_4  and  N_5 
REMARK    3  A    between atoms: CA_4  and  CB_6 
REMARK    4  A    between atoms: CB_6  and  O1_7 
REMARK    5  A    between atoms: O1_7  and  C1_8 
REMARK    6  A    between atoms: C2_9  and  N2_10 
REMARK       I    between atoms: N2_10  and  C7_11 
REMARK    7  A    between atoms: C7_11  and  C8_12 
REMARK    8  A    between atoms: C3_14  and  O3_15 
REMARK    9  A    between atoms: C4_16  and  O4_17 
REMARK   10  A    between atoms: C5_18  and  C6_20 
REMARK   11  A    between atoms: C6_20  and  O6_21 
ROOT
ATOM      1  C1  TNR d   1     -21.143 -27.702 -33.007  0.00  0.00     0.153 C 
ATOM      2  C2  TNR d   1     -22.022 -27.127 -31.901  0.00  0.00     0.087 C 
ATOM      3  C3  TNR d   1     -21.987 -25.601 -31.911  0.00  0.00     0.086 C 
ATOM      4  C4  TNR d   1     -20.562 -25.104 -31.953  0.00  0.00     0.089 C 
ATOM      5  C5  TNR d   1     -19.767 -25.788 -33.061  0.00  0.00     0.089 C 
ATOM      6  O5  TNR d   1     -19.808 -27.204 -32.876  0.00  0.00    -0.349 OA
ATOM      7  H7  TNR d   1     -21.127 -28.799 -32.924  0.00  0.00     0.132 H 
ATOM      8  H8  TNR d   1     -21.642 -27.486 -30.933  0.00  0.00     0.084 H 
ATOM      9  H13 TNR d   1     -22.517 -25.243 -32.806  0.00  0.00     0.090 H 
ATOM     10  H15 TNR d   1     -20.565 -24.019 -32.133  0.00  0.00     0.091 H 
ATOM     11  H17 TNR d   1     -20.220 -25.536 -34.031  0.00  0.00     0.090 H 
ENDROOT
BRANCH   1  12
ATOM     12  O1  TNR d   1     -21.685 -27.336 -34.275  0.00  0.00    -0.356 OA
BRANCH  12  13
ATOM     13  CB  TNR d   1     -20.917 -27.856 -35.358  0.00  0.00     0.059 C 
ATOM     14  H5  TNR d   1     -19.857 -27.602 -35.214  0.00  0.00     0.078 H 
ATOM     15  H6  TNR d   1     -21.030 -28.950 -35.398  0.00  0.00     0.078 H 
BRANCH  13  16
ATOM     16  CA  TNR d   1     -21.415 -27.245 -36.655  0.00  0.00     0.202 C 
ATOM     17  H1  TNR d   1     -21.409 -26.147 -36.584  0.00  0.00     0.104 H 
BRANCH  16  18
ATOM     18  C   TNR d   1     -20.535 -27.684 -37.778  0.00  0.00     0.206 C 
ATOM     19  OXT TNR d   1     -19.305 -27.483 -37.697  0.00  0.00    -0.646 OA
ATOM     20  O   TNR d   1     -21.045 -28.244 -38.770  0.00  0.00    -0.646 OA
ENDBRANCH  16  18
BRANCH  16  21
ATOM     21  N   TNR d   1     -22.767 -27.723 -36.878  0.00  0.00    -0.063 N 
ATOM     22  H2  TNR d   1     -23.358 -27.425 -36.118  0.00  0.00     0.275 HD
ATOM     23  H3  TNR d   1     -22.764 -28.730 -36.926  0.00  0.00     0.275 HD
ATOM     24  H4  TNR d   1     -23.118 -27.346 -37.745  0.00  0.00     0.275 HD
ENDBRANCH  16  21
ENDBRANCH  13  16
ENDBRANCH  12  13
ENDBRANCH   1  12
BRANCH   2  25
ATOM     25  N2  TNR d   1     -23.399 -27.555 -32.055  0.00  0.00    -0.349 N 
ATOM     26  C7  TNR d   1     -24.202 -27.741 -31.012  0.00  0.00     0.214 C 
ATOM     27  O7  TNR d   1     -23.806 -27.754 -29.859  0.00  0.00    -0.274 OA
ATOM     28  H9  TNR d   1     -23.756 -27.715 -32.975  0.00  0.00     0.163 HD
BRANCH  26  29
ATOM     29  C8  TNR d   1     -25.637 -27.935 -31.363  0.00  0.00    -0.003 C 
ATOM     30  H10 TNR d   1     -26.223 -28.081 -30.444  0.00  0.00     0.040 H 
ATOM     31  H11 TNR d   1     -25.740 -28.820 -32.008  0.00  0.00     0.040 H 
ATOM     32  H12 TNR d   1     -26.007 -27.047 -31.897  0.00  0.00     0.040 H 
ENDBRANCH  26  29
ENDBRANCH   2  25
BRANCH   3  33
ATOM     33  O3  TNR d   1     -22.631 -25.074 -30.747  0.00  0.00    -0.391 OA
ATOM     34  H14 TNR d   1     -22.599 -24.125 -30.771  0.00  0.00     0.210 HD
ENDBRANCH   3  33
BRANCH   5  35
ATOM     35  C6  TNR d   1     -18.319 -25.329 -33.059  0.00  0.00     0.043 C 
ATOM     36  H18 TNR d   1     -17.948 -25.291 -32.024  0.00  0.00     0.078 H 
ATOM     37  H19 TNR d   1     -18.251 -24.328 -33.510  0.00  0.00     0.078 H 
BRANCH  35  38
ATOM     38  O6  TNR d   1     -17.521 -26.253 -33.820  0.00  0.00    -0.398 OA
ATOM     39  H20 TNR d   1     -17.842 -26.285 -34.714  0.00  0.00     0.209 HD
ENDBRANCH  35  38
ENDBRANCH   5  35
BRANCH   4  40
ATOM     40  O4  TNR d   1     -19.943 -25.378 -30.685  0.00  0.00    -0.390 OA
ATOM     41  H16 TNR d   1     -20.422 -24.931 -29.997  0.00  0.00     0.210 HD
ENDBRANCH   4  40
TORSDOF 11
