REMARK  6 active torsions:
REMARK  status: ('A' for Active; 'I' for Inactive)
REMARK    1  A    between atoms: C2'_10  and  O2'_11 
REMARK    2  A    between atoms: C1'_12  and  N9_13 
REMARK    3  A    between atoms: C6_17  and  N6_18 
REMARK    4  A    between atoms: C2'1_32  and  O2'1_33 
REMARK    5  A    between atoms: C1'1_34  and  N91_35 
REMARK    6  A    between atoms: C61_39  and  N61_40 
ROOT
ATOM      1  P   2BA d   1       1.808 -37.904  10.510  0.00  0.00     0.408 P 
ATOM      2  O1P 2BA d   1       1.039 -36.691  10.867  0.00  0.00    -0.624 OA
ATOM      3  O2P 2BA d   1       2.573 -38.318  11.728  0.00  0.00    -0.624 OA
ATOM      4  O5' 2BA d   1       0.778 -39.079  10.145  0.00  0.00    -0.287 OA
ATOM      5  C5' 2BA d   1       1.292 -40.368   9.763  0.00  0.00     0.058 C 
ATOM      6  C4' 2BA d   1       0.189 -41.202   9.247  0.00  0.00     0.090 C 
ATOM      7  O4' 2BA d   1      -1.001 -41.191  10.154  0.00  0.00    -0.353 OA
ATOM      8  C3' 2BA d   1      -0.276 -40.661   7.973  0.00  0.00     0.106 C 
ATOM      9  O3' 2BA d   1       0.460 -41.278   6.881  0.00  0.00    -0.279 OA
ATOM     10  C2' 2BA d   1      -1.673 -41.030   7.878  0.00  0.00     0.106 C 
ATOM     11  C1' 2BA d   1      -2.176 -41.020   9.269  0.00  0.00     0.140 C 
ATOM     12  P1  2BA d   1       0.834 -40.319   5.643  0.00  0.00     0.408 P 
ATOM     13  O1P 2BA d   1      -0.463 -39.887   5.055  0.00  0.00    -0.624 OA
ATOM     14  O2P 2BA d   1       1.558 -41.138   4.629  0.00  0.00    -0.624 OA
ATOM     15  O5' 2BA d   1       1.661 -38.982   5.951  0.00  0.00    -0.287 OA
ATOM     16  C5' 2BA d   1       2.918 -39.035   6.606  0.00  0.00     0.058 C 
ATOM     17  C4' 2BA d   1       3.269 -37.658   7.016  0.00  0.00     0.090 C 
ATOM     18  O4' 2BA d   1       3.098 -36.720   5.874  0.00  0.00    -0.353 OA
ATOM     19  C3' 2BA d   1       2.344 -37.183   8.057  0.00  0.00     0.106 C 
ATOM     20  O3' 2BA d   1       2.855 -37.466   9.384  0.00  0.00    -0.279 OA
ATOM     21  C2' 2BA d   1       2.245 -35.745   7.869  0.00  0.00     0.106 C 
ATOM     22  C1' 2BA d   1       2.405 -35.519   6.422  0.00  0.00     0.140 C 
ATOM     23  H1  2BA d   1       1.744 -40.857  10.639  0.00  0.00     0.079 H 
ATOM     24  H2  2BA d   1       2.054 -40.242   8.980  0.00  0.00     0.079 H 
ATOM     25  H3  2BA d   1       0.548 -42.233   9.117  0.00  0.00     0.090 H 
ATOM     26  H4  2BA d   1      -0.154 -39.568   7.943  0.00  0.00     0.092 H 
ATOM     27  H5  2BA d   1      -2.222 -40.301   7.264  0.00  0.00     0.093 H 
ATOM     28  H7  2BA d   1      -2.902 -41.833   9.422  0.00  0.00     0.122 H 
ATOM     29  H12 2BA d   1       3.682 -39.428   5.919  0.00  0.00     0.079 H 
ATOM     30  H13 2BA d   1       2.852 -39.684   7.491  0.00  0.00     0.079 H 
ATOM     31  H14 2BA d   1       4.306 -37.635   7.382  0.00  0.00     0.090 H 
ATOM     32  H15 2BA d   1       1.359 -37.657   7.935  0.00  0.00     0.092 H 
ATOM     33  H16 2BA d   1       1.274 -35.365   8.221  0.00  0.00     0.093 H 
ATOM     34  H18 2BA d   1       3.014 -34.620   6.248  0.00  0.00     0.122 H 
ENDROOT
BRANCH  11  35
ATOM     35  N9  2BA d   1      -2.765 -39.789   9.554  0.00  0.00    -0.294 N 
ATOM     36  C8  2BA d   1      -2.168 -39.044  10.282  0.00  0.00     0.071 A 
ATOM     37  N7  2BA d   1      -2.892 -37.900  10.448  0.00  0.00    -0.236 NA
ATOM     38  H8  2BA d   1      -1.201 -39.249  10.738  0.00  0.00     0.144 H 
ATOM     39  C5  2BA d   1      -4.078 -38.225   9.583  0.00  0.00     0.149 A 
ATOM     40  C6  2BA d   1      -5.276 -37.655   9.177  0.00  0.00     0.155 A 
ATOM     41  C4  2BA d   1      -3.839 -39.539   9.050  0.00  0.00     0.167 A 
ATOM     42  N1  2BA d   1      -6.138 -38.276   8.356  0.00  0.00    -0.222 NA
ATOM     43  C2  2BA d   1      -5.870 -39.474   7.902  0.00  0.00     0.091 A 
ATOM     44  N3  2BA d   1      -4.753 -40.098   8.227  0.00  0.00    -0.222 NA
ATOM     45  H11 2BA d   1      -6.580 -39.964   7.245  0.00  0.00     0.146 H 
BRANCH  40  46
ATOM     46  N6  2BA d   1      -5.592 -36.378   9.646  0.00  0.00    -0.382 N 
ATOM     47  H9  2BA d   1      -6.474 -35.929   9.362  0.00  0.00     0.157 HD
ATOM     48  H10 2BA d   1      -4.943 -35.885  10.276  0.00  0.00     0.157 HD
ENDBRANCH  40  46
ENDBRANCH  11  35
BRANCH  10  49
ATOM     49  O2' 2BA d   1      -1.815 -42.358   7.299  0.00  0.00    -0.388 OA
ATOM     50  H6  2BA d   1      -1.366 -42.991   7.847  0.00  0.00     0.210 HD
ENDBRANCH  10  49
BRANCH  21  51
ATOM     51  O2' 2BA d   1       3.327 -35.105   8.590  0.00  0.00    -0.388 OA
ATOM     52  H17 2BA d   1       4.159 -35.418   8.254  0.00  0.00     0.210 HD
ENDBRANCH  21  51
BRANCH  22  53
ATOM     53  N91 2BA d   1       1.151 -35.359   5.801  0.00  0.00    -0.294 N 
ATOM     54  C81 2BA d   1       0.747 -36.227   5.041  0.00  0.00     0.071 A 
ATOM     55  N71 2BA d   1      -0.486 -35.922   4.525  0.00  0.00    -0.236 NA
ATOM     56  H19 2BA d   1       1.300 -37.134   4.802  0.00  0.00     0.144 H 
ATOM     57  C51 2BA d   1      -0.669 -34.598   5.229  0.00  0.00     0.149 A 
ATOM     58  C61 2BA d   1      -1.632 -33.585   5.292  0.00  0.00     0.155 A 
ATOM     59  C41 2BA d   1       0.523 -34.366   6.048  0.00  0.00     0.167 A 
ATOM     60  N11 2BA d   1      -1.481 -32.514   6.033  0.00  0.00    -0.222 NA
ATOM     61  C21 2BA d   1      -0.388 -32.336   6.763  0.00  0.00     0.091 A 
ATOM     62  N31 2BA d   1       0.607 -33.231   6.788  0.00  0.00    -0.222 NA
ATOM     63  H22 2BA d   1      -0.297 -31.435   7.359  0.00  0.00     0.146 H 
BRANCH  58  64
ATOM     64  N61 2BA d   1      -2.833 -33.701   4.532  0.00  0.00    -0.382 N 
ATOM     65  H20 2BA d   1      -3.544 -32.957   4.576  0.00  0.00     0.157 HD
ATOM     66  H21 2BA d   1      -2.989 -34.529   3.939  0.00  0.00     0.157 HD
ENDBRANCH  58  64
ENDBRANCH  22  53
TORSDOF 6
