REMARK  6 active torsions:
REMARK  status: ('A' for Active; 'I' for Inactive)
REMARK    1  A    between atoms: CAA_1  and  CAT_2 
REMARK    2  A    between atoms: NAZ_6  and  CAO_7 
REMARK    3  A    between atoms: CAO_7  and  CAP_8 
REMARK    4  A    between atoms: CAP_8  and  NBA_9 
REMARK    5  A    between atoms: CAX_12  and  CAV_13 
REMARK    6  A    between atoms: CAY_19  and  CAW_20 
ROOT
ATOM      1  CAW 43C d   1      70.441  38.006  -0.001  0.00  0.00    -0.007 A 
ATOM      2  CAK 43C d   1      69.806  37.627   1.207  0.00  0.00    -0.069 A 
ATOM      3  CAI 43C d   1      70.007  36.365   1.757  0.00  0.00    -0.062 A 
ATOM      4  CAU 43C d   1      70.834  35.457   1.125  0.00  0.00     0.044 A 
ATOM      5  CAC 43C d   1      71.028  34.110   1.674  0.00  0.00     0.099 C 
ATOM      6  NAB 43C d   1      71.167  33.091   2.099  0.00  0.00    -0.191 NA
ATOM      7  CAJ 43C d   1      71.451  35.804  -0.085  0.00  0.00    -0.062 A 
ATOM      8  CAL 43C d   1      71.252  37.075  -0.639  0.00  0.00    -0.069 A 
ATOM      9  H15 43C d   1      69.153  38.331   1.711  0.00  0.00     0.085 H 
ATOM     10  H16 43C d   1      69.514  36.094   2.683  0.00  0.00     0.085 H 
ATOM     11  H17 43C d   1      72.084  35.086  -0.594  0.00  0.00     0.085 H 
ATOM     12  H18 43C d   1      71.735  37.335  -1.574  0.00  0.00     0.085 H 
ENDROOT
BRANCH   1  13
ATOM     13  CAY 43C d   1      70.229  39.253  -0.511  0.00  0.00     0.075 A 
ATOM     14  NBA 43C d   1      71.224  40.148  -0.853  0.00  0.00    -0.337 N 
ATOM     15  CAM 43C d   1      70.638  41.233  -1.308  0.00  0.00     0.067 A 
ATOM     16  NAQ 43C d   1      69.296  41.075  -1.300  0.00  0.00    -0.241 NA
ATOM     17  H9  43C d   1      71.158  42.129  -1.643  0.00  0.00     0.143 H 
ATOM     18  CAX 43C d   1      69.042  39.831  -0.814  0.00  0.00     0.096 A 
BRANCH  14  19
ATOM     19  CAP 43C d   1      72.707  40.042  -0.714  0.00  0.00     0.018 C 
ATOM     20  H7  43C d   1      73.011  38.985  -0.727  0.00  0.00     0.067 H 
ATOM     21  H8  43C d   1      73.201  40.576  -1.539  0.00  0.00     0.067 H 
BRANCH  19  22
ATOM     22  CAO 43C d   1      73.088  40.678   0.622  0.00  0.00     0.033 C 
ATOM     23  H5  43C d   1      74.175  40.841   0.652  0.00  0.00     0.070 H 
ATOM     24  H6  43C d   1      72.570  41.642   0.729  0.00  0.00     0.070 H 
BRANCH  22  25
ATOM     25  NAZ 43C d   1      72.693  39.780   1.736  0.00  0.00    -0.259 N 
ATOM     26  CAN 43C d   1      73.153  38.595   2.135  0.00  0.00     0.025 A 
ATOM     27  CAT 43C d   1      72.418  38.307   3.206  0.00  0.00     0.071 A 
ATOM     28  H4  43C d   1      73.947  37.999   1.688  0.00  0.00     0.117 H 
ATOM     29  NAR 43C d   1      71.548  39.294   3.446  0.00  0.00    -0.136 NA
ATOM     30  NAS 43C d   1      71.723  40.146   2.573  0.00  0.00    -0.066 NA
BRANCH  27  31
ATOM     31  CAA 43C d   1      72.537  37.025   4.001  0.00  0.00    -0.032 C 
ATOM     32  H1  43C d   1      73.337  36.402   3.575  0.00  0.00     0.035 H 
ATOM     33  H2  43C d   1      71.584  36.477   3.958  0.00  0.00     0.035 H 
ATOM     34  H3  43C d   1      72.776  37.264   5.048  0.00  0.00     0.035 H 
ENDBRANCH  27  31
ENDBRANCH  22  25
ENDBRANCH  19  22
ENDBRANCH  14  19
BRANCH  18  35
ATOM     35  CAV 43C d   1      67.768  39.371  -0.706  0.00  0.00    -0.005 A 
ATOM     36  CAG 43C d   1      66.739  40.278  -0.683  0.00  0.00    -0.071 A 
ATOM     37  CAE 43C d   1      65.412  39.932  -0.640  0.00  0.00    -0.082 A 
ATOM     38  H10 43C d   1      66.990  41.333  -0.700  0.00  0.00     0.084 H 
ATOM     39  CAD 43C d   1      65.100  38.590  -0.540  0.00  0.00    -0.083 A 
ATOM     40  H11 43C d   1      64.635  40.686  -0.683  0.00  0.00     0.083 H 
ATOM     41  CAF 43C d   1      66.121  37.660  -0.526  0.00  0.00    -0.082 A 
ATOM     42  H12 43C d   1      64.066  38.271  -0.473  0.00  0.00     0.083 H 
ATOM     43  CAH 43C d   1      67.426  38.006  -0.644  0.00  0.00    -0.071 A 
ATOM     44  H13 43C d   1      65.868  36.612  -0.416  0.00  0.00     0.083 H 
ATOM     45  H14 43C d   1      68.195  37.244  -0.690  0.00  0.00     0.084 H 
ENDBRANCH  18  35
ENDBRANCH   1  13
TORSDOF 6
