REMARK  8 active torsions:
REMARK  status: ('A' for Active; 'I' for Inactive)
REMARK    1  A    between atoms: CAA_1  and  CAS_2 
REMARK    2  A    between atoms: NAZ_6  and  CAM_7 
REMARK    3  A    between atoms: CAM_7  and  CAN_8 
REMARK    4  A    between atoms: CAN_8  and  NBA_9 
REMARK    5  A    between atoms: CAW_12  and  CAV_13 
REMARK    6  A    between atoms: NAY_17  and  CAB_18 
REMARK    7  A    between atoms: CAX_19  and  CAU_20 
REMARK    8  A    between atoms: CAT_23  and  CAD_24 
ROOT
ATOM      1  NBA 43D d   1      70.823  40.536  -0.665  0.00  0.00    -0.337 N 
ATOM      2  CAJ 43D d   1      70.210  41.642  -1.087  0.00  0.00     0.067 A 
ATOM      3  NAO 43D d   1      68.879  41.432  -1.151  0.00  0.00    -0.241 NA
ATOM      4  CAW 43D d   1      68.660  40.180  -0.692  0.00  0.00     0.099 A 
ATOM      5  CAX 43D d   1      69.861  39.617  -0.400  0.00  0.00     0.075 A 
ATOM      6  H9  43D d   1      70.709  42.576  -1.342  0.00  0.00     0.143 H 
ENDROOT
BRANCH   1   7
ATOM      7  CAN 43D d   1      72.335  40.486  -0.456  0.00  0.00     0.018 C 
ATOM      8  H7  43D d   1      72.690  39.449  -0.543  0.00  0.00     0.067 H 
ATOM      9  H8  43D d   1      72.837  41.111  -1.209  0.00  0.00     0.067 H 
BRANCH   7  10
ATOM     10  CAM 43D d   1      72.639  41.032   0.974  0.00  0.00     0.033 C 
ATOM     11  H5  43D d   1      73.720  41.221   1.052  0.00  0.00     0.070 H 
ATOM     12  H6  43D d   1      72.090  41.976   1.111  0.00  0.00     0.070 H 
BRANCH  10  13
ATOM     13  NAZ 43D d   1      72.244  40.094   2.064  0.00  0.00    -0.259 N 
ATOM     14  CAK 43D d   1      72.720  38.896   2.468  0.00  0.00     0.025 A 
ATOM     15  CAS 43D d   1      71.959  38.544   3.501  0.00  0.00     0.071 A 
ATOM     16  H4  43D d   1      73.550  38.337   2.039  0.00  0.00     0.117 H 
ATOM     17  NAQ 43D d   1      71.048  39.500   3.711  0.00  0.00    -0.136 NA
ATOM     18  NAR 43D d   1      71.250  40.443   2.830  0.00  0.00    -0.066 NA
BRANCH  15  19
ATOM     19  CAA 43D d   1      72.060  37.256   4.328  0.00  0.00    -0.032 C 
ATOM     20  H1  43D d   1      72.891  36.642   3.951  0.00  0.00     0.035 H 
ATOM     21  H2  43D d   1      71.120  36.691   4.244  0.00  0.00     0.035 H 
ATOM     22  H3  43D d   1      72.242  37.511   5.383  0.00  0.00     0.035 H 
ENDBRANCH  15  19
ENDBRANCH  10  13
ENDBRANCH   7  10
ENDBRANCH   1   7
BRANCH   5  23
ATOM     23  CAU 43D d   1      70.105  38.354   0.090  0.00  0.00    -0.007 A 
ATOM     24  CAG 43D d   1      69.447  37.943   1.247  0.00  0.00    -0.070 A 
ATOM     25  CAE 43D d   1      69.611  36.693   1.822  0.00  0.00    -0.071 A 
ATOM     26  H15 43D d   1      68.768  38.641   1.724  0.00  0.00     0.084 H 
ATOM     27  CAT 43D d   1      70.470  35.798   1.238  0.00  0.00    -0.019 A 
ATOM     28  H16 43D d   1      69.068  36.426   2.721  0.00  0.00     0.084 H 
ATOM     29  CAF 43D d   1      71.192  36.180   0.074  0.00  0.00    -0.071 A 
ATOM     30  CAH 43D d   1      71.011  37.462  -0.479  0.00  0.00    -0.070 A 
ATOM     31  H19 43D d   1      71.882  35.483  -0.388  0.00  0.00     0.084 H 
ATOM     32  H20 43D d   1      71.580  37.757  -1.353  0.00  0.00     0.084 H 
BRANCH  27  33
ATOM     33  CAD 43D d   1      70.685  34.531   1.756  0.00  0.00     0.004 C 
ATOM     34  NAC 43D d   1      70.852  33.406   2.239  0.00  0.00    -0.311 NA
ATOM     35  H18 43D d   1      71.579  32.807   1.881  0.00  0.00     0.186 HD
ATOM     36  H17 43D d   1      71.505  34.369   1.058  0.00  0.00     0.115 H 
ENDBRANCH  27  33
ENDBRANCH   5  23
BRANCH   4  37
ATOM     37  CAV 43D d   1      67.391  39.648  -0.697  0.00  0.00     0.031 A 
ATOM     38  CAL 43D d   1      67.106  38.350  -0.821  0.00  0.00     0.012 A 
ATOM     39  NAY 43D d   1      65.796  38.221  -0.874  0.00  0.00    -0.285 N 
ATOM     40  H10 43D d   1      67.831  37.538  -0.870  0.00  0.00     0.115 H 
ATOM     41  NAP 43D d   1      65.221  39.447  -0.812  0.00  0.00    -0.185 NA
ATOM     42  CAI 43D d   1      66.244  40.325  -0.725  0.00  0.00     0.035 A 
ATOM     43  H11 43D d   1      66.147  41.409  -0.684  0.00  0.00     0.118 H 
BRANCH  39  44
ATOM     44  CAB 43D d   1      65.056  36.970  -0.986  0.00  0.00     0.002 C 
ATOM     45  H12 43D d   1      63.977  37.183  -1.007  0.00  0.00     0.059 H 
ATOM     46  H13 43D d   1      65.286  36.329  -0.122  0.00  0.00     0.059 H 
ATOM     47  H14 43D d   1      65.346  36.454  -1.913  0.00  0.00     0.059 H 
ENDBRANCH  39  44
ENDBRANCH   4  37
TORSDOF 8
