REMARK  4 active torsions:
REMARK  status: ('A' for Active; 'I' for Inactive)
REMARK    1  A    between atoms: C_1  and  O5_8 
REMARK    2  A    between atoms: N_3  and  C6_9 
REMARK    3  A    between atoms: C4_6  and  O_7 
REMARK    4  A    between atoms: C8_11  and  C12_15 
ROOT
ATOM      1  C6  43G d   1      -7.355   1.544 -25.607  0.00  0.00     0.039 A 
ATOM      2  C7  43G d   1      -7.352   1.982 -26.937  0.00  0.00    -0.046 A 
ATOM      3  C8  43G d   1      -7.490   1.108 -28.008  0.00  0.00    -0.024 A 
ATOM      4  C9  43G d   1      -7.654  -0.250 -27.727  0.00  0.00    -0.072 A 
ATOM      5  C10 43G d   1      -7.700  -0.737 -26.420  0.00  0.00    -0.080 A 
ATOM      6  C11 43G d   1      -7.558   0.172 -25.378  0.00  0.00    -0.057 A 
ATOM      7  H7  43G d   1      -7.238   3.041 -27.138  0.00  0.00     0.088 H 
ATOM      8  H8  43G d   1      -7.749  -0.948 -28.551  0.00  0.00     0.084 H 
ATOM      9  H9  43G d   1      -7.842  -1.793 -26.223  0.00  0.00     0.083 H 
ATOM     10  H10 43G d   1      -7.605  -0.188 -24.357  0.00  0.00     0.086 H 
ENDROOT
BRANCH   1  11
ATOM     11  N   43G d   1      -7.267   2.363 -24.539  0.00  0.00    -0.331 N 
ATOM     12  C1  43G d   1      -8.018   3.503 -24.486  0.00  0.00     0.015 A 
ATOM     13  C   43G d   1      -7.999   4.367 -23.379  0.00  0.00     0.091 A 
ATOM     14  H1  43G d   1      -8.655   3.751 -25.334  0.00  0.00     0.116 H 
ATOM     15  C4  43G d   1      -7.208   4.013 -22.270  0.00  0.00     0.100 A 
ATOM     16  C3  43G d   1      -6.422   2.853 -22.296  0.00  0.00    -0.054 A 
ATOM     17  H4  43G d   1      -8.047   3.443 -21.846  0.00  0.00     0.100 H 
ATOM     18  C2  43G d   1      -6.511   2.055 -23.450  0.00  0.00    -0.016 A 
ATOM     19  H3  43G d   1      -5.774   2.583 -21.463  0.00  0.00     0.083 H 
ATOM     20  H2  43G d   1      -5.937   1.130 -23.474  0.00  0.00     0.111 H 
BRANCH  13  21
ATOM     21  O5  43G d   1      -8.742   5.505 -23.364  0.00  0.00    -0.361 OA
ATOM     22  H6  43G d   1      -9.364   5.466 -22.647  0.00  0.00     0.217 HD
ENDBRANCH  13  21
BRANCH  15  23
ATOM     23  O   43G d   1      -7.185   4.798 -21.200  0.00  0.00    -0.385 OA
ATOM     24  H5  43G d   1      -7.767   5.536 -21.338  0.00  0.00     0.210 HD
ENDBRANCH  15  23
ENDBRANCH   1  11
BRANCH   3  25
ATOM     25  C12 43G d   1      -7.475   1.601 -29.412  0.00  0.00    -0.026 A 
ATOM     26  C13 43G d   1      -8.360   1.029 -30.338  0.00  0.00    -0.072 A 
ATOM     27  C14 43G d   1      -8.413   1.466 -31.660  0.00  0.00    -0.082 A 
ATOM     28  H11 43G d   1      -9.018   0.229 -30.018  0.00  0.00     0.084 H 
ATOM     29  C15 43G d   1      -7.566   2.494 -32.055  0.00  0.00    -0.083 A 
ATOM     30  H12 43G d   1      -9.101   1.014 -32.365  0.00  0.00     0.083 H 
ATOM     31  C16 43G d   1      -6.679   3.070 -31.153  0.00  0.00    -0.082 A 
ATOM     32  H13 43G d   1      -7.597   2.851 -33.078  0.00  0.00     0.083 H 
ATOM     33  C17 43G d   1      -6.630   2.623 -29.819  0.00  0.00    -0.072 A 
ATOM     34  H14 43G d   1      -6.021   3.868 -31.479  0.00  0.00     0.083 H 
ATOM     35  H15 43G d   1      -5.938   3.073 -29.116  0.00  0.00     0.084 H 
ENDBRANCH   3  25
TORSDOF 4
