REMARK  5 active torsions:
REMARK  status: ('A' for Active; 'I' for Inactive)
REMARK    1  A    between atoms: C9_8  and  C13_2 
REMARK    2  A    between atoms: C1_9  and  O5_17 
REMARK    3  A    between atoms: C4_11  and  C6_10 
REMARK    4  A    between atoms: C2_14  and  O_16 
REMARK    5  A    between atoms: N3_15  and  C7_18 
ROOT
ATOM      1  C12 43J d   1      14.256  -7.382  -3.981  0.00  0.00    -0.069 A 
ATOM      2  C11 43J d   1      13.684  -6.786  -2.840  0.00  0.00    -0.081 A 
ATOM      3  C9  43J d   1      13.467  -8.959  -1.736  0.00  0.00    -0.025 A 
ATOM      4  C6  43J d   1      14.424  -8.777  -3.989  0.00  0.00     0.011 A 
ATOM      5  C8  43J d   1      14.037  -9.538  -2.876  0.00  0.00    -0.059 A 
ATOM      6  C10 43J d   1      13.309  -7.572  -1.745  0.00  0.00    -0.072 A 
ATOM      7  H1  43J d   1      14.559  -6.780  -4.830  0.00  0.00     0.085 H 
ATOM      8  H6  43J d   1      13.534  -5.713  -2.810  0.00  0.00     0.083 H 
ATOM      9  H14 43J d   1      14.184 -10.612  -2.900  0.00  0.00     0.086 H 
ATOM     10  H15 43J d   1      12.882  -7.088  -0.875  0.00  0.00     0.084 H 
ENDROOT
BRANCH   4  11
ATOM     11  C4  43J d   1      15.034  -9.521  -5.150  0.00  0.00     0.137 A 
ATOM     12  N   43J d   1      16.288  -9.178  -5.513  0.00  0.00    -0.240 NA
ATOM     13  C   43J d   1      16.869  -9.829  -6.542  0.00  0.00     0.037 A 
ATOM     14  C1  43J d   1      16.203 -10.844  -7.220  0.00  0.00     0.109 A 
ATOM     15  H7  43J d   1      17.878  -9.555  -6.847  0.00  0.00     0.118 H 
ATOM     16  C2  43J d   1      14.908 -11.191  -6.820  0.00  0.00     0.151 A 
ATOM     17  N3  43J d   1      14.343 -10.502  -5.782  0.00  0.00    -0.338 N 
ATOM     18  H8  43J d   1      15.302 -11.924  -6.100  0.00  0.00     0.129 H 
BRANCH  14  19
ATOM     19  O5  43J d   1      16.760 -11.524  -8.233  0.00  0.00    -0.359 OA
ATOM     20  H10 43J d   1      16.227 -11.421  -9.013  0.00  0.00     0.217 HD
ENDBRANCH  14  19
BRANCH  16  21
ATOM     21  O   43J d   1      14.331 -12.176  -7.495  0.00  0.00    -0.370 OA
ATOM     22  H9  43J d   1      14.926 -12.490  -8.165  0.00  0.00     0.212 HD
ENDBRANCH  16  21
BRANCH  17  23
ATOM     23  C7  43J d   1      12.977 -10.875  -5.407  0.00  0.00    -0.014 C 
ATOM     24  H11 43J d   1      12.644 -10.250  -4.566  0.00  0.00     0.056 H 
ATOM     25  H12 43J d   1      12.955 -11.933  -5.108  0.00  0.00     0.056 H 
ATOM     26  H13 43J d   1      12.306 -10.722  -6.265  0.00  0.00     0.056 H 
ENDBRANCH  17  23
ENDBRANCH   4  11
BRANCH   3  27
ATOM     27  C13 43J d   1      13.073  -9.807  -0.543  0.00  0.00    -0.026 A 
ATOM     28  C18 43J d   1      13.951 -10.765  -0.027  0.00  0.00    -0.072 A 
ATOM     29  C17 43J d   1      13.630 -11.561   1.082  0.00  0.00    -0.082 A 
ATOM     30  H2  43J d   1      14.916 -10.897  -0.502  0.00  0.00     0.084 H 
ATOM     31  C16 43J d   1      12.388 -11.406   1.708  0.00  0.00    -0.083 A 
ATOM     32  H16 43J d   1      14.340 -12.292   1.452  0.00  0.00     0.083 H 
ATOM     33  C15 43J d   1      11.485 -10.451   1.216  0.00  0.00    -0.082 A 
ATOM     34  H5  43J d   1      12.126 -12.017   2.564  0.00  0.00     0.083 H 
ATOM     35  C14 43J d   1      11.838  -9.663   0.113  0.00  0.00    -0.072 A 
ATOM     36  H4  43J d   1      10.518 -10.324   1.688  0.00  0.00     0.083 H 
ATOM     37  H3  43J d   1      11.137  -8.919  -0.246  0.00  0.00     0.084 H 
ENDBRANCH   3  27
TORSDOF 5
