REMARK  7 active torsions:
REMARK  status: ('A' for Active; 'I' for Inactive)
REMARK    1  A    between atoms: C19_23  and  S_2 
REMARK    2  A    between atoms: S_2  and  C20_24 
REMARK    3  A    between atoms: C1_3  and  C6_10 
REMARK    4  A    between atoms: C3_7  and  C10_14 
REMARK    5  A    between atoms: C9_13  and  C5_9 
REMARK    6  A    between atoms: C6_10  and  C14_18 
REMARK    7  A    between atoms: C13_17  and  C9_13 
ROOT
ATOM      1  F   SFI d   1      17.732   5.573  10.240  0.00  0.00    -0.206 F 
ATOM      2  C1  SFI d   1      15.645  10.225   9.351  0.00  0.00    -0.030 A 
ATOM      3  C2  SFI d   1      16.530   9.003   9.403  0.00  0.00    -0.015 A 
ATOM      4  C3  SFI d   1      16.140  11.240   8.643  0.00  0.00    -0.043 A 
ATOM      5  C4  SFI d   1      17.727   9.407   8.574  0.00  0.00    -0.014 A 
ATOM      6  C5  SFI d   1      17.405  10.964   8.076  0.00  0.00    -0.018 A 
ATOM      7  C7  SFI d   1      16.501   7.748   9.967  0.00  0.00    -0.034 A 
ATOM      8  C8  SFI d   1      18.764   8.538   8.389  0.00  0.00    -0.069 A 
ATOM      9  C11 SFI d   1      17.586   6.849   9.767  0.00  0.00     0.117 A 
ATOM     10  C12 SFI d   1      18.731   7.246   8.973  0.00  0.00    -0.045 A 
ATOM     11  H3  SFI d   1      15.650   7.444  10.565  0.00  0.00     0.089 H 
ATOM     12  H4  SFI d   1      19.618   8.838   7.792  0.00  0.00     0.085 H 
ATOM     13  H9  SFI d   1      19.557   6.560   8.826  0.00  0.00     0.088 H 
ENDROOT
BRANCH   6  14
ATOM     14  C9  SFI d   1      18.255  11.645   7.319  0.00  0.00    -0.062 C 
ATOM     15  H5  SFI d   1      19.168  11.101   7.082  0.00  0.00     0.086 H 
BRANCH  14  16
ATOM     16  C13 SFI d   1      18.197  13.051   6.715  0.00  0.00    -0.035 A 
ATOM     17  C15 SFI d   1      17.580  13.367   5.522  0.00  0.00    -0.072 A 
ATOM     18  C17 SFI d   1      17.658  14.688   5.101  0.00  0.00    -0.066 A 
ATOM     19  H10 SFI d   1      17.057  12.617   4.939  0.00  0.00     0.084 H 
ATOM     20  C19 SFI d   1      18.358  15.621   5.855  0.00  0.00    -0.000 A 
ATOM     21  H12 SFI d   1      17.171  14.992   4.181  0.00  0.00     0.085 H 
ATOM     22  C18 SFI d   1      18.990  15.253   7.039  0.00  0.00    -0.066 A 
ATOM     23  C16 SFI d   1      18.925  13.939   7.483  0.00  0.00    -0.072 A 
ATOM     24  H13 SFI d   1      19.534  15.993   7.615  0.00  0.00     0.085 H 
ATOM     25  H11 SFI d   1      19.424  13.624   8.392  0.00  0.00     0.084 H 
BRANCH  20  26
ATOM     26  S   SFI d   1      18.511  17.367   5.367  0.00  0.00    -0.134 SA
BRANCH  26  27
ATOM     27  C20 SFI d   1      16.908  17.986   4.780  0.00  0.00    -0.030 C 
ATOM     28  H14 SFI d   1      17.008  19.041   4.487  0.00  0.00     0.042 H 
ATOM     29  H15 SFI d   1      16.164  17.898   5.585  0.00  0.00     0.042 H 
ATOM     30  H16 SFI d   1      16.582  17.394   3.913  0.00  0.00     0.042 H 
ENDBRANCH  26  27
ENDBRANCH  20  26
ENDBRANCH  14  16
ENDBRANCH   6  14
BRANCH   4  31
ATOM     31  C10 SFI d   1      15.379  12.559   8.487  0.00  0.00    -0.050 C 
ATOM     32  H6  SFI d   1      14.425  12.498   9.031  0.00  0.00     0.033 H 
ATOM     33  H7  SFI d   1      15.182  12.745   7.421  0.00  0.00     0.033 H 
ATOM     34  H8  SFI d   1      15.983  13.382   8.897  0.00  0.00     0.033 H 
ENDBRANCH   4  31
BRANCH   2  35
ATOM     35  C6  SFI d   1      14.289  10.307  10.059  0.00  0.00     0.041 C 
ATOM     36  H1  SFI d   1      13.904  11.334   9.968  0.00  0.00     0.056 H 
ATOM     37  H2  SFI d   1      14.430  10.061  11.122  0.00  0.00     0.056 H 
BRANCH  35  38
ATOM     38  C14 SFI d   1      13.261   9.342   9.463  0.00  0.00     0.177 C 
ATOM     39  O1  SFI d   1      12.065   9.709   9.313  0.00  0.00    -0.648 OA
ATOM     40  O2  SFI d   1      13.592   8.175   9.132  0.00  0.00    -0.648 OA
ENDBRANCH  35  38
ENDBRANCH   2  35
TORSDOF 7
