REMARK  6 active torsions:
REMARK  status: ('A' for Active; 'I' for Inactive)
REMARK    1  A    between atoms: C3_4  and  O_21 
REMARK    2  A    between atoms: O_21  and  C6_7 
REMARK    3  A    between atoms: C7_8  and  C17_18 
REMARK    4  A    between atoms: C8_9  and  C16_17 
REMARK    5  A    between atoms: C9_10  and  C10_11 
REMARK       I    between atoms: C9_10  and  N_20 
REMARK    6  A    between atoms: C17_18  and  C18_19 
ROOT
ATOM      1  C   IMN d   1      21.097   7.764  16.159  0.00  0.00     0.053 A 
ATOM      2  C1  IMN d   1      20.086   7.508  17.056  0.00  0.00     0.003 A 
ATOM      3  C2  IMN d   1      19.295   6.338  16.903  0.00  0.00    -0.038 A 
ATOM      4  C3  IMN d   1      19.530   5.467  15.869  0.00  0.00     0.069 A 
ATOM      5  C4  IMN d   1      20.535   5.709  14.959  0.00  0.00    -0.049 A 
ATOM      6  C5  IMN d   1      21.312   6.858  15.118  0.00  0.00    -0.053 A 
ATOM      7  C7  IMN d   1      20.079   8.533  17.981  0.00  0.00    -0.013 A 
ATOM      8  C8  IMN d   1      21.092   9.431  17.627  0.00  0.00     0.024 A 
ATOM      9  C9  IMN d   1      22.858   9.699  15.931  0.00  0.00     0.263 C 
ATOM     10  N   IMN d   1      21.733   8.988  16.533  0.00  0.00    -0.281 N 
ATOM     11  O1  IMN d   1      23.196  10.697  16.410  0.00  0.00    -0.267 OA
ATOM     12  H1  IMN d   1      18.499   6.131  17.609  0.00  0.00     0.089 H 
ATOM     13  H2  IMN d   1      20.718   5.024  14.139  0.00  0.00     0.087 H 
ATOM     14  H3  IMN d   1      22.109   7.053  14.410  0.00  0.00     0.087 H 
ENDROOT
BRANCH   8  15
ATOM     15  C16 IMN d   1      21.145  10.569  18.571  0.00  0.00    -0.036 C 
ATOM     16  H11 IMN d   1      20.359  10.452  19.331  0.00  0.00     0.035 H 
ATOM     17  H12 IMN d   1      20.987  11.509  18.022  0.00  0.00     0.035 H 
ATOM     18  H13 IMN d   1      22.129  10.593  19.062  0.00  0.00     0.035 H 
ENDBRANCH   8  15
BRANCH   9  19
ATOM     19  C10 IMN d   1      23.568   9.281  14.660  0.00  0.00     0.033 A 
ATOM     20  C11 IMN d   1      24.947   9.242  14.509  0.00  0.00    -0.066 A 
ATOM     21  C12 IMN d   1      25.488   8.884  13.267  0.00  0.00    -0.061 A 
ATOM     22  H7  IMN d   1      25.597   9.485  15.341  0.00  0.00     0.085 H 
ATOM     23  C13 IMN d   1      24.686   8.597  12.210  0.00  0.00     0.034 A 
ATOM     24  H8  IMN d   1      26.564   8.835  13.148  0.00  0.00     0.086 H 
ATOM     25  C14 IMN d   1      23.299   8.671  12.356  0.00  0.00    -0.061 A 
ATOM     26 CL   IMN d   1      25.344   8.137  10.639  0.00  0.00    -0.084 Cl
ATOM     27  C15 IMN d   1      22.778   9.047  13.586  0.00  0.00    -0.066 A 
ATOM     28  H9  IMN d   1      22.642   8.439  11.525  0.00  0.00     0.086 H 
ATOM     29  H10 IMN d   1      21.705   9.157  13.690  0.00  0.00     0.085 H 
ENDBRANCH   9  19
BRANCH   7  30
ATOM     30  C17 IMN d   1      19.026   8.558  19.138  0.00  0.00     0.042 C 
ATOM     31  H14 IMN d   1      18.026   8.633  18.687  0.00  0.00     0.056 H 
ATOM     32  H15 IMN d   1      19.218   9.448  19.755  0.00  0.00     0.056 H 
BRANCH  30  33
ATOM     33  C18 IMN d   1      19.042   7.378  20.021  0.00  0.00     0.177 C 
ATOM     34  O2  IMN d   1      17.929   6.877  20.349  0.00  0.00    -0.648 OA
ATOM     35  O3  IMN d   1      20.124   6.898  20.433  0.00  0.00    -0.648 OA
ENDBRANCH  30  33
ENDBRANCH   7  30
BRANCH   4  36
ATOM     36  O   IMN d   1      18.599   4.415  15.976  0.00  0.00    -0.356 OA
BRANCH  36  37
ATOM     37  C6  IMN d   1      17.296   4.757  15.504  0.00  0.00     0.010 C 
ATOM     38  H4  IMN d   1      16.626   3.892  15.618  0.00  0.00     0.066 H 
ATOM     39  H5  IMN d   1      17.353   5.039  14.442  0.00  0.00     0.066 H 
ATOM     40  H6  IMN d   1      16.905   5.603  16.088  0.00  0.00     0.066 H 
ENDBRANCH  36  37
ENDBRANCH   4  36
TORSDOF 6
