REMARK  6 active torsions:
REMARK  status: ('A' for Active; 'I' for Inactive)
REMARK    1  A    between atoms: C6_18  and  C3_2 
REMARK       I    between atoms: N9_16  and  C7_4 
REMARK    2  A    between atoms: C7_4  and  C6_18 
REMARK    3  A    between atoms: C14_7  and  C17_8 
REMARK    4  A    between atoms: C17_8  and  C18_10 
REMARK    5  A    between atoms: B15_13  and  O27_14 
REMARK    6  A    between atoms: C34_15  and  N9_16 
ROOT
ATOM      1  C11 4D6 d   1      37.553  44.967  12.714  0.00  0.00    -0.046 C 
ATOM      2  C12 4D6 d   1      37.007  44.276  11.460  0.00  0.00    -0.041 C 
ATOM      3  C14 4D6 d   1      37.138  42.790  11.535  0.00  0.00     0.031 C 
ATOM      4  O16 4D6 d   1      38.389  42.337  11.912  0.00  0.00    -0.421 OA
ATOM      5  B15 4D6 d   1      39.107  42.948  12.960  0.00  0.00     0.517 B 
ATOM      6  C34 4D6 d   1      38.942  44.542  12.908  0.00  0.00     0.046 C 
ATOM      7  H   4D6 d   1      36.951  44.680  13.589  0.00  0.00     0.035 H 
ATOM      8  H   4D6 d   1      37.513  46.059  12.584  0.00  0.00     0.035 H 
ATOM      9  H   4D6 d   1      37.566  44.638  10.584  0.00  0.00     0.036 H 
ATOM     10  H   4D6 d   1      35.943  44.533  11.348  0.00  0.00     0.036 H 
ATOM     11  H   4D6 d   1      36.482  42.501  12.369  0.00  0.00     0.081 H 
ATOM     12  H   4D6 d   1      39.244  44.802  13.933  0.00  0.00     0.064 H 
ENDROOT
BRANCH   6  13
ATOM     13  N9  4D6 d   1      39.855  45.143  12.008  0.00  0.00    -0.360 N 
ATOM     14  C7  4D6 d   1      40.107  46.453  11.916  0.00  0.00     0.222 C 
ATOM     15  O8  4D6 d   1      39.721  47.280  12.715  0.00  0.00    -0.273 OA
ATOM     16  H   4D6 d   1      40.354  44.536  11.389  0.00  0.00     0.162 HD
BRANCH  14  17
ATOM     17  C6  4D6 d   1      40.904  46.884  10.675  0.00  0.00     0.039 C 
ATOM     18  H   4D6 d   1      41.208  45.986  10.117  0.00  0.00     0.055 H 
ATOM     19  H   4D6 d   1      40.261  47.511  10.039  0.00  0.00     0.055 H 
BRANCH  17  20
ATOM     20  C3  4D6 d   1      42.142  47.671  11.048  0.00  0.00    -0.009 A 
ATOM     21  S2  4D6 d   1      43.476  47.434  10.054  0.00  0.00    -0.106 SA
ATOM     22  S   4D6 d   1      44.494  48.472  10.851  0.00  0.00    -0.045 A 
ATOM     23  C5  4D6 d   1      43.847  49.082  11.934  0.00  0.00    -0.076 A 
ATOM     24  H   4D6 d   1      45.530  48.656  10.570  0.00  0.00     0.095 H 
ATOM     25  C4  4D6 d   1      42.461  48.631  12.065  0.00  0.00    -0.069 A 
ATOM     26  H   4D6 d   1      44.319  49.805  12.598  0.00  0.00     0.084 H 
ATOM     27  H   4D6 d   1      41.767  48.977  12.830  0.00  0.00     0.085 H 
ENDBRANCH  17  20
ENDBRANCH  14  17
ENDBRANCH   6  13
BRANCH   5  28
ATOM     28  O27 4D6 d   1      40.521  42.554  12.844  0.00  0.00    -0.436 OA
ATOM     29  H   4D6 d   1      40.861  42.842  12.005  0.00  0.00     0.184 HD
ENDBRANCH   5  28
BRANCH   3  30
ATOM     30  C17 4D6 d   1      36.567  42.077  10.343  0.00  0.00     0.038 C 
ATOM     31  H   4D6 d   1      37.207  42.285   9.473  0.00  0.00     0.052 H 
ATOM     32  H   4D6 d   1      35.555  42.466  10.156  0.00  0.00     0.052 H 
BRANCH  30  33
ATOM     33  C18 4D6 d   1      36.477  40.563  10.527  0.00  0.00     0.174 C 
ATOM     34  O20 4D6 d   1      36.776  39.826   9.545  0.00  0.00    -0.648 OA
ATOM     35  O19 4D6 d   1      36.073  40.100  11.602  0.00  0.00    -0.648 OA
ENDBRANCH  30  33
ENDBRANCH   3  30
TORSDOF 6
