REMARK  10 active torsions:
REMARK  status: ('A' for Active; 'I' for Inactive)
REMARK    1  A    between atoms: N6_6  and  S1_1 
REMARK    2  A    between atoms: S1_1  and  N24_19 
REMARK    3  A    between atoms: C2_2  and  C3_3 
REMARK    4  A    between atoms: C3_3  and  C4_4 
REMARK    5  A    between atoms: C10_8  and  N6_6 
REMARK    6  A    between atoms: C15_12  and  C21_17 
REMARK    7  A    between atoms: C31_22  and  C23_18 
REMARK    8  A    between atoms: N24_19  and  C48_34 
REMARK    9  A    between atoms: N24_19  and  C51_35 
REMARK   10  A    between atoms: C48_34  and  C55_36 
ROOT
ATOM      1  C2  904 d   1       2.240  -1.697 -19.581  0.00  0.00     0.044 A 
ATOM      2  C5  904 d   1       3.661  -1.754 -19.421  0.00  0.00     0.026 A 
ATOM      3  C8  904 d   1       1.736  -1.191 -18.399  0.00  0.00    -0.006 A 
ATOM      4  C12 904 d   1       3.951  -1.278 -18.152  0.00  0.00     0.138 A 
ATOM      5  N13 904 d   1       2.777  -0.943 -17.549  0.00  0.00    -0.349 N 
ATOM      6  C16 904 d   1       4.757  -2.157 -20.208  0.00  0.00    -0.056 A 
ATOM      7  N18 904 d   1       5.155  -1.153 -17.581  0.00  0.00    -0.242 NA
ATOM      8  C23 904 d   1       6.055  -2.059 -19.684  0.00  0.00    -0.004 A 
ATOM      9  C40 904 d   1       6.163  -1.556 -18.386  0.00  0.00     0.015 A 
ATOM     10  H2  904 d   1       0.683  -1.018 -18.180  0.00  0.00     0.112 H 
ATOM     11  H3  904 d   1       2.687  -0.561 -16.597  0.00  0.00     0.167 HD
ATOM     12  H4  904 d   1       4.599  -2.540 -21.210  0.00  0.00     0.086 H 
ATOM     13  H12 904 d   1       7.165  -1.480 -17.979  0.00  0.00     0.116 H 
ENDROOT
BRANCH   1  14
ATOM     14  C3  904 d   1       1.460  -2.091 -20.742  0.00  0.00     0.200 C 
ATOM     15  O35 904 d   1       1.960  -2.603 -21.733  0.00  0.00    -0.286 OA
BRANCH  14  16
ATOM     16  C4  904 d   1       0.005  -1.884 -20.742  0.00  0.00     0.094 A 
ATOM     17  C11 904 d   1      -0.858  -2.971 -20.674  0.00  0.00     0.161 A 
ATOM     18  C10 904 d   1      -2.237  -2.790 -20.671  0.00  0.00     0.083 A 
ATOM     19  F46 904 d   1      -0.359  -4.208 -20.609  0.00  0.00    -0.203 F 
ATOM     20  C42 904 d   1      -2.754  -1.496 -20.740  0.00  0.00    -0.051 A 
ATOM     21  C44 904 d   1      -1.894  -0.399 -20.809  0.00  0.00    -0.042 A 
ATOM     22  H13 904 d   1      -3.827  -1.342 -20.740  0.00  0.00     0.087 H 
ATOM     23  C32 904 d   1      -0.521  -0.599 -20.809  0.00  0.00     0.133 A 
ATOM     24  H14 904 d   1      -2.297   0.606 -20.862  0.00  0.00     0.088 H 
ATOM     25  F47 904 d   1       0.287   0.463 -20.876  0.00  0.00    -0.205 F 
BRANCH  18  26
ATOM     26  N6  904 d   1      -3.072  -3.953 -20.599  0.00  0.00    -0.265 N 
ATOM     27  H1  904 d   1      -2.667  -4.866 -20.648  0.00  0.00     0.180 HD
BRANCH  26  28
ATOM     28  S1  904 d   1      -4.763  -3.770 -20.429  0.00  0.00     0.321 S 
ATOM     29  O33 904 d   1      -5.325  -5.102 -20.343  0.00  0.00    -0.182 OA
ATOM     30  O34 904 d   1      -5.272  -2.865 -21.433  0.00  0.00    -0.182 OA
BRANCH  28  31
ATOM     31  N24 904 d   1      -4.913  -3.028 -18.896  0.00  0.00    -0.299 N 
BRANCH  31  32
ATOM     32  C48 904 d   1      -4.366  -3.671 -17.674  0.00  0.00     0.003 C 
ATOM     33  H15 904 d   1      -3.400  -4.136 -17.922  0.00  0.00     0.064 H 
ATOM     34  H16 904 d   1      -5.070  -4.446 -17.338  0.00  0.00     0.064 H 
BRANCH  32  35
ATOM     35  C55 904 d   1      -4.154  -2.685 -16.544  0.00  0.00    -0.060 C 
ATOM     36  H20 904 d   1      -3.749  -3.213 -15.668  0.00  0.00     0.029 H 
ATOM     37  H21 904 d   1      -5.114  -2.218 -16.280  0.00  0.00     0.029 H 
ATOM     38  H22 904 d   1      -3.444  -1.908 -16.864  0.00  0.00     0.029 H 
ENDBRANCH  32  35
ENDBRANCH  31  32
BRANCH  31  39
ATOM     39  C51 904 d   1      -5.988  -2.047 -18.638  0.00  0.00    -0.007 C 
ATOM     40  H17 904 d   1      -5.915  -1.687 -17.601  0.00  0.00     0.057 H 
ATOM     41  H18 904 d   1      -6.966  -2.526 -18.792  0.00  0.00     0.057 H 
ATOM     42  H19 904 d   1      -5.883  -1.198 -19.329  0.00  0.00     0.057 H 
ENDBRANCH  31  39
ENDBRANCH  28  31
ENDBRANCH  26  28
ENDBRANCH  18  26
ENDBRANCH  14  16
ENDBRANCH   1  14
BRANCH   8  43
ATOM     43  C31 904 d   1       7.242  -2.458 -20.449  0.00  0.00     0.011 A 
ATOM     44  C36 904 d   1       7.307  -3.595 -21.235  0.00  0.00     0.016 A 
ATOM     45  N20 904 d   1       8.391  -3.979 -21.945  0.00  0.00    -0.244 NA
ATOM     46  H10 904 d   1       6.425  -4.223 -21.285  0.00  0.00     0.116 H 
ATOM     47  C15 904 d   1       9.484  -3.188 -21.871  0.00  0.00     0.129 A 
ATOM     48  N19 904 d   1       9.531  -2.058 -21.136  0.00  0.00    -0.244 NA
ATOM     49  C38 904 d   1       8.416  -1.728 -20.449  0.00  0.00     0.016 A 
ATOM     50  H11 904 d   1       8.444  -0.823 -19.853  0.00  0.00     0.116 H 
BRANCH  47  51
ATOM     51  C21 904 d   1      10.712  -3.578 -22.646  0.00  0.00     0.005 A 
ATOM     52  C25 904 d   1      12.025  -3.767 -21.928  0.00  0.00    -0.054 A 
ATOM     53  C28 904 d   1      11.830  -2.580 -22.819  0.00  0.00    -0.054 A 
ATOM     54  H6  904 d   1      12.706  -4.576 -22.232  0.00  0.00     0.034 H 
ATOM     55  H7  904 d   1      12.079  -3.632 -20.838  0.00  0.00     0.034 H 
ATOM     56  H8  904 d   1      11.741  -1.574 -22.383  0.00  0.00     0.034 H 
ATOM     57  H9  904 d   1      12.368  -2.518 -23.777  0.00  0.00     0.034 H 
ATOM     58  H5  904 d   1      10.432  -4.247 -23.473  0.00  0.00     0.052 H 
ENDBRANCH  47  51
ENDBRANCH   8  43
TORSDOF 10
