REMARK  10 active torsions:
REMARK  status: ('A' for Active; 'I' for Inactive)
REMARK    1  A    between atoms: C1_1  and  N9_7 
REMARK    2  A    between atoms: C2_2  and  C12_8 
REMARK    3  A    between atoms: C14_10  and  C17_13 
REMARK    4  A    between atoms: C16_12  and  C30_17 
REMARK    5  A    between atoms: C17_13  and  C18_14 
REMARK    6  A    between atoms: C17_13  and  C22_15 
REMARK    7  A    between atoms: C17_13  and  C26_16 
REMARK    8  A    between atoms: C31_18  and  N40_24 
REMARK    9  A    between atoms: N40_24  and  S42_25 
REMARK   10  A    between atoms: S42_25  and  C43_26 
ROOT
ATOM      1  C12 P06 d   1       2.772  -2.790 -21.310  0.00  0.00     0.066 A 
ATOM      2  S13 P06 d   1       4.038  -3.420 -22.297  0.00  0.00    -0.069 SA
ATOM      3  C14 P06 d   1       2.915  -3.928 -23.495  0.00  0.00     0.084 A 
ATOM      4  N15 P06 d   1       1.665  -3.653 -23.194  0.00  0.00    -0.243 NA
ATOM      5  C16 P06 d   1       1.571  -3.020 -21.970  0.00  0.00     0.090 A 
ENDROOT
BRANCH   5   6
ATOM      6  C30 P06 d   1       0.237  -2.653 -21.530  0.00  0.00     0.035 A 
ATOM      7  C32 P06 d   1      -0.735  -3.643 -21.375  0.00  0.00     0.156 A 
ATOM      8  C31 P06 d   1      -2.030  -3.330 -20.975  0.00  0.00     0.082 A 
ATOM      9  F39 P06 d   1      -0.433  -4.927 -21.607  0.00  0.00    -0.203 F 
ATOM     10  C33 P06 d   1      -2.379  -2.001 -20.725  0.00  0.00    -0.053 A 
ATOM     11  C37 P06 d   1      -1.420  -1.000 -20.884  0.00  0.00    -0.080 A 
ATOM     12  H14 P06 d   1      -3.385  -1.750 -20.410  0.00  0.00     0.087 H 
ATOM     13  C35 P06 d   1      -0.122  -1.318 -21.287  0.00  0.00    -0.068 A 
ATOM     14  H16 P06 d   1      -1.685   0.034 -20.693  0.00  0.00     0.083 H 
ATOM     15  H15 P06 d   1       0.612  -0.530 -21.413  0.00  0.00     0.085 H 
BRANCH   8  16
ATOM     16  N40 P06 d   1      -2.939  -4.430 -20.841  0.00  0.00    -0.277 N 
ATOM     17  H17 P06 d   1      -2.575  -5.348 -20.683  0.00  0.00     0.179 HD
BRANCH  16  18
ATOM     18  S42 P06 d   1      -4.635  -4.209 -20.945  0.00  0.00     0.269 S 
ATOM     19  O54 P06 d   1      -4.959  -3.126 -21.852  0.00  0.00    -0.200 OA
ATOM     20  O55 P06 d   1      -5.266  -5.497 -21.163  0.00  0.00    -0.200 OA
BRANCH  18  21
ATOM     21  C43 P06 d   1      -5.065  -3.771 -19.280  0.00  0.00     0.156 A 
ATOM     22  C46 P06 d   1      -5.584  -2.525 -18.928  0.00  0.00     0.142 A 
ATOM     23  C44 P06 d   1      -5.913  -2.250 -17.601  0.00  0.00    -0.044 A 
ATOM     24  F53 P06 d   1      -5.786  -1.565 -19.836  0.00  0.00    -0.204 F 
ATOM     25  C47 P06 d   1      -5.721  -3.220 -16.614  0.00  0.00    -0.077 A 
ATOM     26  H18 P06 d   1      -6.319  -1.281 -17.334  0.00  0.00     0.088 H 
ATOM     27  C50 P06 d   1      -5.202  -4.468 -16.960  0.00  0.00    -0.044 A 
ATOM     28  H19 P06 d   1      -5.974  -3.004 -15.582  0.00  0.00     0.083 H 
ATOM     29  C49 P06 d   1      -4.879  -4.733 -18.289  0.00  0.00     0.142 A 
ATOM     30  H20 P06 d   1      -5.051  -5.226 -16.200  0.00  0.00     0.088 H 
ATOM     31  F52 P06 d   1      -4.380  -5.935 -18.606  0.00  0.00    -0.204 F 
ENDBRANCH  18  21
ENDBRANCH  16  18
ENDBRANCH   8  16
ENDBRANCH   5   6
BRANCH   1  32
ATOM     32  C2  P06 d   1       3.131  -2.184 -20.021  0.00  0.00     0.097 A 
ATOM     33  N3  P06 d   1       4.453  -1.924 -19.865  0.00  0.00    -0.062 NA
ATOM     34  C1  P06 d   1       4.855  -1.379 -18.689  0.00  0.00     0.720 A 
ATOM     35  N6  P06 d   1       4.012  -1.088 -17.672  0.00  0.00    -0.075 NA
ATOM     36  C7  P06 d   1       2.708  -1.371 -17.865  0.00  0.00     0.023 A 
ATOM     37  C4  P06 d   1       2.208  -1.928 -19.020  0.00  0.00    -0.036 A 
ATOM     38  H2  P06 d   1       2.013  -1.147 -17.064  0.00  0.00     0.115 H 
ATOM     39  H1  P06 d   1       1.154  -2.153 -19.139  0.00  0.00     0.089 H 
BRANCH  34  40
ATOM     40  N9  P06 d   1       6.201  -1.099 -18.519  0.00  0.00    -0.231 N 
ATOM     41  H3  P06 d   1       6.870  -1.308 -19.274  0.00  0.00     0.174 HD
ATOM     42  H4  P06 d   1       6.533  -0.682 -17.638  0.00  0.00     0.174 HD
ENDBRANCH  34  40
ENDBRANCH   1  32
BRANCH   3  43
ATOM     43  C17 P06 d   1       3.358  -4.625 -24.782  0.00  0.00     0.000 C 
BRANCH  43  44
ATOM     44  C18 P06 d   1       3.111  -3.712 -25.997  0.00  0.00    -0.064 C 
ATOM     45  H5  P06 d   1       3.434  -4.226 -26.914  0.00  0.00     0.028 H 
ATOM     46  H6  P06 d   1       3.684  -2.780 -25.878  0.00  0.00     0.028 H 
ATOM     47  H7  P06 d   1       2.039  -3.477 -26.067  0.00  0.00     0.028 H 
ENDBRANCH  43  44
BRANCH  43  48
ATOM     48  C22 P06 d   1       2.534  -5.916 -24.976  0.00  0.00    -0.064 C 
ATOM     49  H8  P06 d   1       2.695  -6.586 -24.118  0.00  0.00     0.028 H 
ATOM     50  H9  P06 d   1       2.854  -6.420 -25.900  0.00  0.00     0.028 H 
ATOM     51  H10 P06 d   1       1.466  -5.662 -25.048  0.00  0.00     0.028 H 
ENDBRANCH  43  48
BRANCH  43  52
ATOM     52  C26 P06 d   1       4.841  -5.035 -24.730  0.00  0.00    -0.064 C 
ATOM     53  H11 P06 d   1       5.464  -4.139 -24.592  0.00  0.00     0.028 H 
ATOM     54  H12 P06 d   1       5.117  -5.532 -25.671  0.00  0.00     0.028 H 
ATOM     55  H13 P06 d   1       5.001  -5.726 -23.889  0.00  0.00     0.028 H 
ENDBRANCH  43  52
ENDBRANCH   3  43
TORSDOF 10
