REMARK  13 active torsions:
REMARK  status: ('A' for Active; 'I' for Inactive)
REMARK    1  A    between atoms: C9_3  and  C1_1 
REMARK    2  A    between atoms: N14_6  and  C5_2 
REMARK    3  A    between atoms: N14_6  and  C9_3 
REMARK    4  A    between atoms: S15_7  and  N14_6 
REMARK    5  A    between atoms: N32_19  and  S15_7 
REMARK    6  A    between atoms: C19_9  and  N16_8 
REMARK    7  A    between atoms: C22_12  and  C21_11 
REMARK    8  A    between atoms: C24_14  and  C23_13 
REMARK    9  A    between atoms: C31_18  and  N32_19 
REMARK   10  A    between atoms: C37_23  and  C38_24 
REMARK   11  A    between atoms: C38_24  and  C39_25 
REMARK   12  A    between atoms: C38_24  and  C43_26 
REMARK   13  A    between atoms: C38_24  and  C47_27 
ROOT
ATOM      1  C22 P02 d   1       2.553  -2.844 -21.392  0.00  0.00     0.066 A 
ATOM      2  C23 P02 d   1       1.248  -2.889 -21.866  0.00  0.00     0.090 A 
ATOM      3  N36 P02 d   1       1.036  -3.598 -23.023  0.00  0.00    -0.243 NA
ATOM      4  C37 P02 d   1       2.148  -4.104 -23.475  0.00  0.00     0.084 A 
ATOM      5  S51 P02 d   1       3.526  -3.751 -22.496  0.00  0.00    -0.069 SA
ENDROOT
BRANCH   2   6
ATOM      6  C24 P02 d   1       0.034  -2.321 -21.340  0.00  0.00     0.035 A 
ATOM      7  C25 P02 d   1      -0.218  -0.950 -21.218  0.00  0.00    -0.068 A 
ATOM      8  C27 P02 d   1      -1.456  -0.528 -20.725  0.00  0.00    -0.080 A 
ATOM      9  H11 P02 d   1       0.536  -0.225 -21.502  0.00  0.00     0.085 H 
ATOM     10  C29 P02 d   1      -2.436  -1.459 -20.373  0.00  0.00    -0.053 A 
ATOM     11  H12 P02 d   1      -1.657   0.531 -20.615  0.00  0.00     0.083 H 
ATOM     12  C31 P02 d   1      -2.183  -2.825 -20.524  0.00  0.00     0.083 A 
ATOM     13  H13 P02 d   1      -3.390  -1.123 -19.984  0.00  0.00     0.087 H 
ATOM     14  C34 P02 d   1      -0.954  -3.237 -21.006  0.00  0.00     0.156 A 
ATOM     15  F35 P02 d   1      -0.717  -4.550 -21.140  0.00  0.00    -0.203 F 
BRANCH  12  16
ATOM     16  N32 P02 d   1      -3.132  -3.856 -20.183  0.00  0.00    -0.269 N 
ATOM     17  H14 P02 d   1      -2.842  -4.679 -19.694  0.00  0.00     0.180 HD
BRANCH  16  18
ATOM     18  S15 P02 d   1      -4.786  -3.632 -20.643  0.00  0.00     0.303 S 
ATOM     19  O12 P02 d   1      -5.333  -4.893 -21.100  0.00  0.00    -0.188 OA
ATOM     20  O13 P02 d   1      -4.946  -2.452 -21.473  0.00  0.00    -0.188 OA
BRANCH  18  21
ATOM     21  N14 P02 d   1      -5.402  -3.324 -19.043  0.00  0.00    -0.198 NA
BRANCH  21  22
ATOM     22  C5  P02 d   1      -5.623  -1.897 -18.668  0.00  0.00    -0.018 C 
ATOM     23  H4  P02 d   1      -6.011  -1.844 -17.640  0.00  0.00     0.050 H 
ATOM     24  H5  P02 d   1      -6.351  -1.445 -19.358  0.00  0.00     0.050 H 
ATOM     25  H6  P02 d   1      -4.671  -1.350 -18.730  0.00  0.00     0.050 H 
ENDBRANCH  21  22
BRANCH  21  26
ATOM     26  C9  P02 d   1      -4.708  -4.059 -17.933  0.00  0.00    -0.009 C 
ATOM     27  H7  P02 d   1      -4.857  -5.141 -18.063  0.00  0.00     0.056 H 
ATOM     28  H8  P02 d   1      -3.632  -3.831 -17.961  0.00  0.00     0.056 H 
BRANCH  26  29
ATOM     29  C1  P02 d   1      -5.279  -3.629 -16.596  0.00  0.00    -0.064 C 
ATOM     30  H1  P02 d   1      -4.767  -4.171 -15.787  0.00  0.00     0.029 H 
ATOM     31  H2  P02 d   1      -6.355  -3.857 -16.566  0.00  0.00     0.029 H 
ATOM     32  H3  P02 d   1      -5.130  -2.547 -16.464  0.00  0.00     0.029 H 
ENDBRANCH  26  29
ENDBRANCH  21  26
ENDBRANCH  18  21
ENDBRANCH  16  18
ENDBRANCH  12  16
ENDBRANCH   2   6
BRANCH   1  33
ATOM     33  C21 P02 d   1       3.183  -2.231 -20.220  0.00  0.00     0.097 A 
ATOM     34  N20 P02 d   1       4.539  -2.171 -20.240  0.00  0.00    -0.062 NA
ATOM     35  C19 P02 d   1       5.156  -1.621 -19.164  0.00  0.00     0.720 A 
ATOM     36  N56 P02 d   1       4.498  -1.145 -18.086  0.00  0.00    -0.075 NA
ATOM     37  C54 P02 d   1       3.153  -1.235 -18.107  0.00  0.00     0.023 A 
ATOM     38  C52 P02 d   1       2.439  -1.775 -19.150  0.00  0.00    -0.036 A 
ATOM     39  H25 P02 d   1       2.603  -0.860 -17.252  0.00  0.00     0.115 H 
ATOM     40  H24 P02 d   1       1.357  -1.839 -19.134  0.00  0.00     0.089 H 
BRANCH  35  41
ATOM     41  N16 P02 d   1       6.538  -1.538 -19.161  0.00  0.00    -0.231 N 
ATOM     42  H9  P02 d   1       7.077  -1.890 -19.965  0.00  0.00     0.174 HD
ATOM     43  H10 P02 d   1       7.027  -1.124 -18.355  0.00  0.00     0.174 HD
ENDBRANCH  35  41
ENDBRANCH   1  33
BRANCH   4  44
ATOM     44  C38 P02 d   1       2.181  -4.942 -24.745  0.00  0.00     0.000 C 
BRANCH  44  45
ATOM     45  C39 P02 d   1       2.775  -4.167 -25.937  0.00  0.00    -0.064 C 
ATOM     46  H15 P02 d   1       2.778  -4.811 -26.828  0.00  0.00     0.028 H 
ATOM     47  H16 P02 d   1       3.806  -3.864 -25.700  0.00  0.00     0.028 H 
ATOM     48  H17 P02 d   1       2.166  -3.272 -26.133  0.00  0.00     0.028 H 
ENDBRANCH  44  45
BRANCH  44  49
ATOM     49  C43 P02 d   1       0.727  -5.330 -25.099  0.00  0.00    -0.064 C 
ATOM     50  H18 P02 d   1       0.281  -5.886 -24.261  0.00  0.00     0.028 H 
ATOM     51  H19 P02 d   1       0.725  -5.961 -26.000  0.00  0.00     0.028 H 
ATOM     52  H20 P02 d   1       0.140  -4.419 -25.288  0.00  0.00     0.028 H 
ENDBRANCH  44  49
BRANCH  44  53
ATOM     53  C47 P02 d   1       2.955  -6.246 -24.484  0.00  0.00    -0.064 C 
ATOM     54  H21 P02 d   1       3.998  -6.008 -24.228  0.00  0.00     0.028 H 
ATOM     55  H22 P02 d   1       2.933  -6.873 -25.388  0.00  0.00     0.028 H 
ATOM     56  H23 P02 d   1       2.487  -6.789 -23.650  0.00  0.00     0.028 H 
ENDBRANCH  44  53
ENDBRANCH   4  44
TORSDOF 13
