REMARK  6 active torsions:
REMARK  status: ('A' for Active; 'I' for Inactive)
REMARK    1  A    between atoms: C30_2  and  C27_5 
REMARK    2  A    between atoms: C24_10  and  S21_11 
REMARK    3  A    between atoms: S21_11  and  N20_14 
REMARK    4  A    between atoms: N20_14  and  C19_15 
REMARK    5  A    between atoms: C11_22  and  C10_23 
REMARK    6  A    between atoms: C10_23  and  C09_25 
ROOT
ATOM      1  C19 1OO d   1      76.165  24.614  -9.122  0.00  0.00     0.082 A 
ATOM      2  C13 1OO d   1      76.985  23.395  -9.327  0.00  0.00     0.160 A 
ATOM      3  F17 1OO d   1      77.443  22.660  -8.298  0.00  0.00    -0.203 F 
ATOM      4  C34 1OO d   1      75.735  25.343 -10.243  0.00  0.00    -0.051 A 
ATOM      5  C18 1OO d   1      76.043  24.949 -11.553  0.00  0.00    -0.042 A 
ATOM      6  C12 1OO d   1      76.803  23.812 -11.825  0.00  0.00     0.133 A 
ATOM      7  F16 1OO d   1      77.083  23.449 -13.088  0.00  0.00    -0.205 F 
ATOM      8  C11 1OO d   1      77.291  22.979 -10.705  0.00  0.00     0.094 A 
ATOM      9  H6  1OO d   1      75.146  26.240 -10.090  0.00  0.00     0.087 H 
ATOM     10  H7  1OO d   1      75.679  25.547 -12.380  0.00  0.00     0.088 H 
ENDROOT
BRANCH   1  11
ATOM     11  N20 1OO d   1      75.935  24.978  -7.834  0.00  0.00    -0.278 N 
ATOM     12  H5  1OO d   1      76.154  24.316  -7.117  0.00  0.00     0.179 HD
BRANCH  11  13
ATOM     13  S21 1OO d   1      75.339  26.390  -7.385  0.00  0.00     0.263 S 
ATOM     14  O22 1OO d   1      76.008  27.432  -8.111  0.00  0.00    -0.200 OA
ATOM     15  O23 1OO d   1      73.935  26.461  -7.677  0.00  0.00    -0.200 OA
BRANCH  13  16
ATOM     16  C24 1OO d   1      75.588  26.623  -5.812  0.00  0.00     0.079 A 
ATOM     17  C29 1OO d   1      74.591  26.341  -4.871  0.00  0.00    -0.059 A 
ATOM     18  C28 1OO d   1      74.811  26.563  -3.509  0.00  0.00    -0.067 A 
ATOM     19  H2  1OO d   1      73.638  25.946  -5.202  0.00  0.00     0.085 H 
ATOM     20  C27 1OO d   1      76.035  27.072  -3.061  0.00  0.00     0.048 A 
ATOM     21  H1  1OO d   1      74.028  26.339  -2.794  0.00  0.00     0.084 H 
ATOM     22  C26 1OO d   1      77.026  27.363  -4.002  0.00  0.00    -0.067 A 
ATOM     23  C25 1OO d   1      76.803  27.138  -5.362  0.00  0.00    -0.059 A 
ATOM     24  H3  1OO d   1      77.977  27.767  -3.673  0.00  0.00     0.084 H 
ATOM     25  H4  1OO d   1      77.585  27.367  -6.077  0.00  0.00     0.085 H 
BRANCH  20  26
ATOM     26  C30 1OO d   1      76.294  27.342  -1.597  0.00  0.00     0.417 C 
ATOM     27  F33 1OO d   1      77.344  26.664  -1.170  0.00  0.00    -0.166 F 
ATOM     28  F31 1OO d   1      76.537  28.632  -1.437  0.00  0.00    -0.166 F 
ATOM     29  F32 1OO d   1      75.239  27.044  -0.860  0.00  0.00    -0.166 F 
ENDBRANCH  20  26
ENDBRANCH  13  16
ENDBRANCH  11  13
ENDBRANCH   1  11
BRANCH   8  30
ATOM     30  C10 1OO d   1      78.128  21.768 -10.939  0.00  0.00     0.200 C 
ATOM     31  O15 1OO d   1      77.659  20.641 -10.899  0.00  0.00    -0.286 OA
BRANCH  30  32
ATOM     32  C09 1OO d   1      79.554  22.098 -11.200  0.00  0.00     0.044 A 
ATOM     33  C08 1OO d   1      80.228  23.342 -11.123  0.00  0.00    -0.006 A 
ATOM     34  N07 1OO d   1      81.549  23.193 -11.462  0.00  0.00    -0.349 N 
ATOM     35  H8  1OO d   1      79.763  24.284 -10.835  0.00  0.00     0.112 H 
ATOM     36  C06 1OO d   1      81.749  21.872 -11.764  0.00  0.00     0.138 A 
ATOM     37  H9  1OO d   1      82.260  23.938 -11.485  0.00  0.00     0.167 HD
ATOM     38  C05 1OO d   1      80.545  21.089 -11.634  0.00  0.00     0.027 A 
ATOM     39  N04 1OO d   1      82.905  21.310 -12.142  0.00  0.00    -0.241 NA
ATOM     40  C01 1OO d   1      80.542  19.732 -11.891  0.00  0.00    -0.046 A 
ATOM     41  C02 1OO d   1      81.779  19.206 -12.282  0.00  0.00     0.052 A 
ATOM     42  H11 1OO d   1      79.651  19.122 -11.797  0.00  0.00     0.087 H 
ATOM     43  C03 1OO d   1      82.925  19.998 -12.398  0.00  0.00     0.025 A 
ATOM     44 CL   1OO d   1      81.972  17.476 -12.653  0.00  0.00    -0.083 Cl
ATOM     45  H10 1OO d   1      83.856  19.535 -12.704  0.00  0.00     0.117 H 
ENDBRANCH  30  32
ENDBRANCH   8  30
TORSDOF 6
