REMARK  2 active torsions:
REMARK  status: ('A' for Active; 'I' for Inactive)
REMARK    1  A    between atoms: CAA_9  and  OAJ_10 
REMARK    2  A    between atoms: OAJ_10  and  CAK_11 
ROOT
ATOM      1  OAJ 4C8 d   1      78.323  -3.084  -5.174  0.00  0.00    -0.307 OA
ENDROOT
BRANCH   1   2
ATOM      2  CAA 4C8 d   1      78.345  -1.734  -4.728  0.00  0.00     0.111 A 
ATOM      3  CAF 4C8 d   1      77.786  -0.727  -5.548  0.00  0.00     0.047 A 
ATOM      4 BR2  4C8 d   1      76.998  -1.188  -7.255  0.00  0.00    -0.048 Br
ATOM      5  CAE 4C8 d   1      77.802   0.591  -5.133  0.00  0.00    -0.046 A 
ATOM      6  CAD 4C8 d   1      78.395   0.941  -3.846  0.00  0.00     0.013 A 
ATOM      7  H1  4C8 d   1      77.375   1.364  -5.762  0.00  0.00     0.087 H 
ATOM      8 BR1  4C8 d   1      78.402   2.746  -3.307  0.00  0.00    -0.051 Br
ATOM      9  CAC 4C8 d   1      78.940  -0.037  -3.041  0.00  0.00    -0.046 A 
ATOM     10  CAB 4C8 d   1      78.924  -1.385  -3.465  0.00  0.00     0.047 A 
ATOM     11  H2  4C8 d   1      79.379   0.227  -2.086  0.00  0.00     0.087 H 
ATOM     12 BR3  4C8 d   1      79.692  -2.775  -2.335  0.00  0.00    -0.048 Br
ENDBRANCH   1   2
BRANCH   1  13
ATOM     13  CAK 4C8 d   1      79.597  -3.530  -5.652  0.00  0.00     0.093 A 
ATOM     14  CAP 4C8 d   1      79.895  -4.890  -5.614  0.00  0.00     0.046 A 
ATOM     15 BR4  4C8 d   1      78.630  -6.138  -4.934  0.00  0.00    -0.048 Br
ATOM     16  CAO 4C8 d   1      81.144  -5.358  -6.083  0.00  0.00    -0.047 A 
ATOM     17  CAN 4C8 d   1      82.032  -4.496  -6.560  0.00  0.00     0.012 A 
ATOM     18  H3  4C8 d   1      81.375  -6.417  -6.053  0.00  0.00     0.087 H 
ATOM     19 BR5  4C8 d   1      83.695  -5.125  -7.181  0.00  0.00    -0.051 Br
ATOM     20  CAM 4C8 d   1      81.732  -3.105  -6.605  0.00  0.00    -0.063 A 
ATOM     21  CAL 4C8 d   1      80.512  -2.649  -6.146  0.00  0.00    -0.048 A 
ATOM     22  H4  4C8 d   1      82.460  -2.405  -6.999  0.00  0.00     0.085 H 
ATOM     23  H5  4C8 d   1      80.282  -1.590  -6.179  0.00  0.00     0.087 H 
ENDBRANCH   1  13
TORSDOF 2
