REMARK  10 active torsions:
REMARK  status: ('A' for Active; 'I' for Inactive)
REMARK    1  A    between atoms: C23_7  and  C24_6 
REMARK    2  A    between atoms: N22_29  and  C23_7 
REMARK    3  A    between atoms: C9_23  and  C14_8 
REMARK    4  A    between atoms: C16_10  and  C20_14 
REMARK       I    between atoms: C20_14  and  N22_29 
REMARK    5  A    between atoms: C2_16  and  C10_24 
REMARK    6  A    between atoms: C2_16  and  C11_25 
REMARK    7  A    between atoms: N5_19  and  C9_23 
REMARK    8  A    between atoms: C6_20  and  N7_21 
REMARK    9  A    between atoms: C10_24  and  C12_26 
REMARK   10  A    between atoms: C10_24  and  C13_27 
ROOT
ATOM      1  C9  70X d   1      35.123  61.778  42.027  0.00  0.00     0.043 C 
ATOM      2  H17 70X d   1      35.356  61.708  40.954  0.00  0.00     0.073 H 
ATOM      3  H18 70X d   1      34.690  62.765  42.244  0.00  0.00     0.073 H 
ENDROOT
BRANCH   1   4
ATOM      4  C14 70X d   1      36.403  61.660  42.785  0.00  0.00    -0.038 A 
ATOM      5  C15 70X d   1      36.476  61.153  44.077  0.00  0.00    -0.060 A 
ATOM      6  C16 70X d   1      37.688  61.087  44.741  0.00  0.00     0.032 A 
ATOM      7  H8  70X d   1      35.575  60.806  44.569  0.00  0.00     0.086 H 
ATOM      8  C17 70X d   1      38.826  61.554  44.113  0.00  0.00    -0.068 A 
ATOM      9  C18 70X d   1      38.761  62.051  42.822  0.00  0.00    -0.081 A 
ATOM     10  H9  70X d   1      39.776  61.531  44.634  0.00  0.00     0.085 H 
ATOM     11  C19 70X d   1      37.549  62.096  42.156  0.00  0.00    -0.075 A 
ATOM     12  H10 70X d   1      39.661  62.405  42.333  0.00  0.00     0.083 H 
ATOM     13  H11 70X d   1      37.501  62.474  41.141  0.00  0.00     0.084 H 
BRANCH   6  14
ATOM     14  C20 70X d   1      37.821  60.561  46.116  0.00  0.00     0.251 C 
ATOM     15  O21 70X d   1      38.938  60.267  46.525  0.00  0.00    -0.268 OA
ATOM     16  N22 70X d   1      36.653  60.484  46.848  0.00  0.00    -0.353 N 
ATOM     17  H29 70X d   1      35.778  60.566  46.371  0.00  0.00     0.163 HD
BRANCH  16  18
ATOM     18  C23 70X d   1      36.651  60.289  48.284  0.00  0.00     0.019 C 
ATOM     19  H6  70X d   1      36.407  59.235  48.482  0.00  0.00     0.071 H 
ATOM     20  H7  70X d   1      37.663  60.507  48.656  0.00  0.00     0.071 H 
BRANCH  18  21
ATOM     21  C24 70X d   1      35.672  61.149  49.062  0.00  0.00    -0.041 A 
ATOM     22  C29 70X d   1      35.764  62.531  49.081  0.00  0.00    -0.075 A 
ATOM     23  C28 70X d   1      34.892  63.322  49.819  0.00  0.00    -0.082 A 
ATOM     24  H3  70X d   1      36.543  63.012  48.500  0.00  0.00     0.084 H 
ATOM     25  C27 70X d   1      33.888  62.738  50.565  0.00  0.00    -0.083 A 
ATOM     26  H2  70X d   1      35.000  64.400  49.809  0.00  0.00     0.083 H 
ATOM     27  C26 70X d   1      33.786  61.363  50.557  0.00  0.00    -0.082 A 
ATOM     28  H1  70X d   1      33.199  63.344  51.142  0.00  0.00     0.083 H 
ATOM     29  C25 70X d   1      34.661  60.581  49.823  0.00  0.00    -0.075 A 
ATOM     30  H4  70X d   1      33.005  60.885  51.137  0.00  0.00     0.083 H 
ATOM     31  H5  70X d   1      34.554  59.502  49.843  0.00  0.00     0.084 H 
ENDBRANCH  18  21
ENDBRANCH  16  18
ENDBRANCH   6  14
ENDBRANCH   1   4
BRANCH   1  32
ATOM     32  N5  70X d   1      34.127  60.776  42.334  0.00  0.00    -0.147 N 
ATOM     33  C4  70X d   1      34.373  59.493  41.903  0.00  0.00     0.240 C 
ATOM     34  C3  70X d   1      33.384  58.459  42.379  0.00  0.00     0.034 C 
ATOM     35  O8  70X d   1      35.307  59.167  41.184  0.00  0.00    -0.272 OA
ATOM     36  C2  70X d   1      32.644  58.777  43.665  0.00  0.00     0.054 C 
ATOM     37  H13 70X d   1      32.634  58.323  41.586  0.00  0.00     0.051 H 
ATOM     38  H14 70X d   1      33.931  57.517  42.532  0.00  0.00     0.051 H 
ATOM     39  N1  70X d   1      32.191  60.145  43.578  0.00  0.00    -0.217 N 
ATOM     40  C6  70X d   1      32.892  61.117  42.895  0.00  0.00     0.677 C 
ATOM     41  H12 70X d   1      31.310  60.405  44.044  0.00  0.00     0.178 HD
BRANCH  36  42
ATOM     42  C10 70X d   1      33.534  58.550  44.906  0.00  0.00    -0.036 C 
ATOM     43  H19 70X d   1      34.434  59.154  44.717  0.00  0.00     0.042 H 
BRANCH  42  44
ATOM     44  C12 70X d   1      32.974  59.056  46.220  0.00  0.00    -0.071 C 
ATOM     45  H23 70X d   1      33.688  58.842  47.029  0.00  0.00     0.028 H 
ATOM     46  H24 70X d   1      32.019  58.552  46.430  0.00  0.00     0.028 H 
ATOM     47  H25 70X d   1      32.809  60.142  46.154  0.00  0.00     0.028 H 
ENDBRANCH  42  44
BRANCH  42  48
ATOM     48  C13 70X d   1      34.026  57.110  45.073  0.00  0.00    -0.071 C 
ATOM     49  H26 70X d   1      34.431  56.748  44.117  0.00  0.00     0.028 H 
ATOM     50  H27 70X d   1      33.187  56.469  45.382  0.00  0.00     0.028 H 
ATOM     51  H28 70X d   1      34.813  57.078  45.840  0.00  0.00     0.028 H 
ENDBRANCH  42  48
ENDBRANCH  36  42
BRANCH  36  52
ATOM     52  C11 70X d   1      31.382  57.932  43.646  0.00  0.00    -0.052 C 
ATOM     53  H20 70X d   1      31.652  56.868  43.710  0.00  0.00     0.030 H 
ATOM     54  H21 70X d   1      30.832  58.115  42.711  0.00  0.00     0.030 H 
ATOM     55  H22 70X d   1      30.748  58.201  44.503  0.00  0.00     0.030 H 
ENDBRANCH  36  52
BRANCH  40  56
ATOM     56  N7  70X d   1      32.413  62.309  42.764  0.00  0.00    -0.234 N 
ATOM     57  H15 70X d   1      31.502  62.547  43.182  0.00  0.00     0.174 HD
ATOM     58  H16 70X d   1      32.942  63.022  42.241  0.00  0.00     0.174 HD
ENDBRANCH  40  56
ENDBRANCH   1  32
TORSDOF 10
