REMARK  9 active torsions:
REMARK  status: ('A' for Active; 'I' for Inactive)
REMARK    1  A    between atoms: C10_26  and  C31_5 
REMARK    2  A    between atoms: C22_9  and  C24_7 
REMARK    3  A    between atoms: C2_12  and  C11_14 
REMARK    4  A    between atoms: C2_12  and  C10_26 
REMARK    5  A    between atoms: C15_17  and  N19_29 
REMARK    6  A    between atoms: C10_26  and  C12_19 
REMARK    7  A    between atoms: C9_25  and  N5_21 
REMARK    8  A    between atoms: C6_22  and  N7_23 
REMARK    9  A    between atoms: C9_25  and  C13_27 
ROOT
ATOM      1  C17 70Y d   1      38.899  62.850  43.552  0.00  0.00    -0.080 A 
ATOM      2  C16 70Y d   1      38.987  62.119  44.714  0.00  0.00    -0.057 A 
ATOM      3  C15 70Y d   1      37.925  61.344  45.144  0.00  0.00     0.037 A 
ATOM      4  C14 70Y d   1      36.746  61.346  44.406  0.00  0.00    -0.049 A 
ATOM      5  C13 70Y d   1      36.639  62.096  43.242  0.00  0.00    -0.037 A 
ATOM      6  C18 70Y d   1      37.728  62.828  42.819  0.00  0.00    -0.075 A 
ATOM      7  H17 70Y d   1      39.743  63.440  43.214  0.00  0.00     0.083 H 
ATOM      8  H18 70Y d   1      39.899  62.151  45.299  0.00  0.00     0.086 H 
ATOM      9  H19 70Y d   1      35.901  60.756  44.743  0.00  0.00     0.087 H 
ATOM     10  H29 70Y d   1      37.665  63.395  41.897  0.00  0.00     0.084 H 
ENDROOT
BRANCH   5  11
ATOM     11  C9  70Y d   1      35.417  62.196  42.383  0.00  0.00     0.043 C 
ATOM     12  H26 70Y d   1      34.968  63.185  42.555  0.00  0.00     0.073 H 
ATOM     13  H27 70Y d   1      35.739  62.116  41.334  0.00  0.00     0.073 H 
BRANCH  11  14
ATOM     14  N5  70Y d   1      34.391  61.204  42.604  0.00  0.00    -0.147 N 
ATOM     15  C4  70Y d   1      34.625  59.897  42.215  0.00  0.00     0.240 C 
ATOM     16  C3  70Y d   1      33.626  58.888  42.728  0.00  0.00     0.034 C 
ATOM     17  O8  70Y d   1      35.552  59.531  41.505  0.00  0.00    -0.272 OA
ATOM     18  C2  70Y d   1      32.847  59.258  43.980  0.00  0.00     0.054 C 
ATOM     19  H12 70Y d   1      34.174  57.959  42.942  0.00  0.00     0.051 H 
ATOM     20  H13 70Y d   1      32.896  58.707  41.925  0.00  0.00     0.051 H 
ATOM     21  N1  70Y d   1      32.498  60.668  43.914  0.00  0.00    -0.217 N 
ATOM     22  C6  70Y d   1      33.141  61.569  43.089  0.00  0.00     0.677 C 
ATOM     23  H23 70Y d   1      31.733  61.012  44.512  0.00  0.00     0.178 HD
BRANCH  18  24
ATOM     24  C11 70Y d   1      31.541  58.504  43.870  0.00  0.00    -0.052 C 
ATOM     25  H14 70Y d   1      30.916  58.723  44.749  0.00  0.00     0.030 H 
ATOM     26  H15 70Y d   1      31.744  57.424  43.824  0.00  0.00     0.030 H 
ATOM     27  H16 70Y d   1      31.013  58.817  42.957  0.00  0.00     0.030 H 
ENDBRANCH  18  24
BRANCH  18  28
ATOM     28  C10 70Y d   1      33.623  58.922  45.276  0.00  0.00    -0.036 C 
ATOM     29  H28 70Y d   1      34.558  59.494  45.186  0.00  0.00     0.042 H 
BRANCH  28  30
ATOM     30  C31 70Y d   1      34.049  57.461  45.439  0.00  0.00    -0.071 C 
ATOM     31  H5  70Y d   1      34.589  57.340  46.390  0.00  0.00     0.028 H 
ATOM     32  H6  70Y d   1      34.707  57.176  44.605  0.00  0.00     0.028 H 
ATOM     33  H7  70Y d   1      33.157  56.817  45.440  0.00  0.00     0.028 H 
ENDBRANCH  28  30
BRANCH  28  34
ATOM     34  C12 70Y d   1      32.986  59.386  46.572  0.00  0.00    -0.071 C 
ATOM     35  H20 70Y d   1      33.623  59.093  47.419  0.00  0.00     0.028 H 
ATOM     36  H21 70Y d   1      31.995  58.921  46.681  0.00  0.00     0.028 H 
ATOM     37  H22 70Y d   1      32.878  60.480  46.556  0.00  0.00     0.028 H 
ENDBRANCH  28  34
ENDBRANCH  18  28
BRANCH  22  38
ATOM     38  N7  70Y d   1      32.619  62.698  42.740  0.00  0.00    -0.234 N 
ATOM     39  H24 70Y d   1      31.692  62.970  43.099  0.00  0.00     0.174 HD
ATOM     40  H25 70Y d   1      33.129  63.326  42.103  0.00  0.00     0.174 HD
ENDBRANCH  22  38
ENDBRANCH  11  14
ENDBRANCH   5  11
BRANCH   3  41
ATOM     41  N19 70Y d   1      38.081  60.613  46.351  0.00  0.00    -0.317 N 
ATOM     42  C23 70Y d   1      36.993  59.919  46.992  0.00  0.00     0.010 C 
ATOM     43  C22 70Y d   1      37.634  59.218  48.183  0.00  0.00    -0.005 C 
ATOM     44  H9  70Y d   1      36.223  60.629  47.328  0.00  0.00     0.066 H 
ATOM     45  H10 70Y d   1      36.542  59.186  46.306  0.00  0.00     0.066 H 
ATOM     46  C21 70Y d   1      38.992  59.860  48.327  0.00  0.00     0.018 C 
ATOM     47  H11 70Y d   1      37.023  59.399  49.079  0.00  0.00     0.050 H 
ATOM     48  C20 70Y d   1      39.302  60.373  46.961  0.00  0.00     0.225 C 
ATOM     49  H30 70Y d   1      39.741  59.120  48.645  0.00  0.00     0.048 H 
ATOM     50  H31 70Y d   1      38.959  60.684  49.055  0.00  0.00     0.048 H 
ATOM     51  O30 70Y d   1      40.451  60.477  46.532  0.00  0.00    -0.273 OA
BRANCH  43  52
ATOM     52  C24 70Y d   1      37.833  57.725  48.030  0.00  0.00    -0.052 A 
ATOM     53  C25 70Y d   1      37.334  57.010  46.951  0.00  0.00    -0.076 A 
ATOM     54  C26 70Y d   1      37.506  55.645  46.847  0.00  0.00    -0.082 A 
ATOM     55  H1  70Y d   1      36.796  57.536  46.171  0.00  0.00     0.084 H 
ATOM     56  C27 70Y d   1      38.197  54.975  47.832  0.00  0.00    -0.083 A 
ATOM     57  H2  70Y d   1      37.101  55.105  45.998  0.00  0.00     0.083 H 
ATOM     58  C28 70Y d   1      38.727  55.668  48.898  0.00  0.00    -0.082 A 
ATOM     59  H3  70Y d   1      38.324  53.900  47.768  0.00  0.00     0.083 H 
ATOM     60  C29 70Y d   1      38.537  57.031  48.999  0.00  0.00    -0.076 A 
ATOM     61  H4  70Y d   1      39.294  55.142  49.658  0.00  0.00     0.083 H 
ATOM     62  H8  70Y d   1      38.945  57.566  49.849  0.00  0.00     0.084 H 
ENDBRANCH  43  52
ENDBRANCH   3  41
TORSDOF 9
