REMARK  9 active torsions:
REMARK  status: ('A' for Active; 'I' for Inactive)
REMARK    1  A    between atoms: C01_1  and  C09_9 
REMARK    2  A    between atoms: C05_5  and  C10_10 
REMARK    3  A    between atoms: C06_6  and  O07_7 
REMARK    4  A    between atoms: O07_7  and  C08_8 
REMARK    5  A    between atoms: C08_8  and  C11_11 
REMARK    6  A    between atoms: C11_11  and  S12_12 
REMARK    7  A    between atoms: S12_12  and  C13_13 
REMARK    8  A    between atoms: N14_14  and  C22_22 
REMARK    9  A    between atoms: C22_22  and  C23_23 
ROOT
ATOM      1  C11 RF4 d   1      -9.595  18.932 -10.553  0.00  0.00     0.004 C 
ATOM      2  H12 RF4 d   1     -10.071  19.709  -9.937  0.00  0.00     0.052 H 
ATOM      3  H13 RF4 d   1      -8.889  19.401 -11.254  0.00  0.00     0.052 H 
ENDROOT
BRANCH   1   4
ATOM      4  C08 RF4 d   1     -10.719  18.202 -11.391  0.00  0.00     0.034 C 
ATOM      5  H4  RF4 d   1     -10.335  17.933 -12.386  0.00  0.00     0.076 H 
ATOM      6  H5  RF4 d   1     -11.051  17.293 -10.868  0.00  0.00     0.076 H 
BRANCH   4   7
ATOM      7  O07 RF4 d   1     -11.816  19.133 -11.516  0.00  0.00    -0.349 OA
BRANCH   7   8
ATOM      8  C06 RF4 d   1     -13.004  18.656 -12.219  0.00  0.00     0.080 A 
ATOM      9  C01 RF4 d   1     -13.187  18.998 -13.571  0.00  0.00    -0.028 A 
ATOM     10  C02 RF4 d   1     -14.287  18.573 -14.227  0.00  0.00    -0.074 A 
ATOM     11  C03 RF4 d   1     -15.252  17.770 -13.568  0.00  0.00    -0.082 A 
ATOM     12  H1  RF4 d   1     -14.434  18.848 -15.265  0.00  0.00     0.084 H 
ATOM     13  C04 RF4 d   1     -15.081  17.434 -12.224  0.00  0.00    -0.074 A 
ATOM     14  H2  RF4 d   1     -16.123  17.417 -14.108  0.00  0.00     0.083 H 
ATOM     15  C05 RF4 d   1     -13.983  17.864 -11.555  0.00  0.00    -0.028 A 
ATOM     16  H3  RF4 d   1     -15.825  16.831 -11.716  0.00  0.00     0.084 H 
BRANCH   9  17
ATOM     17  C09 RF4 d   1     -12.142  19.857 -14.291  0.00  0.00    -0.049 C 
ATOM     18  H6  RF4 d   1     -12.455  20.019 -15.333  0.00  0.00     0.033 H 
ATOM     19  H7  RF4 d   1     -11.170  19.342 -14.276  0.00  0.00     0.033 H 
ATOM     20  H8  RF4 d   1     -12.050  20.827 -13.781  0.00  0.00     0.033 H 
ENDBRANCH   9  17
BRANCH  15  21
ATOM     21  C10 RF4 d   1     -13.798  17.465 -10.060  0.00  0.00    -0.049 C 
ATOM     22  H9  RF4 d   1     -14.655  16.858  -9.734  0.00  0.00     0.033 H 
ATOM     23  H10 RF4 d   1     -13.736  18.373  -9.443  0.00  0.00     0.033 H 
ATOM     24  H11 RF4 d   1     -12.872  16.882  -9.948  0.00  0.00     0.033 H 
ENDBRANCH  15  21
ENDBRANCH   7   8
ENDBRANCH   4   7
ENDBRANCH   1   4
BRANCH   1  25
ATOM     25  S12 RF4 d   1      -8.670  17.832  -9.465  0.00  0.00    -0.090 SA
BRANCH  25  26
ATOM     26  C13 RF4 d   1      -9.488  16.228  -9.249  0.00  0.00     0.170 A 
ATOM     27  N14 RF4 d   1      -8.996  15.094  -9.761  0.00  0.00    -0.314 N 
ATOM     28  C15 RF4 d   1      -9.865  14.085  -9.416  0.00  0.00     0.066 A 
ATOM     29  C16 RF4 d   1     -10.924  14.702  -8.683  0.00  0.00     0.086 A 
ATOM     30  C18 RF4 d   1      -9.864  12.720  -9.666  0.00  0.00    -0.055 A 
ATOM     31  N17 RF4 d   1     -10.645  16.038  -8.598  0.00  0.00    -0.222 NA
ATOM     32  C21 RF4 d   1     -12.008  13.927  -8.185  0.00  0.00    -0.053 A 
ATOM     33  C20 RF4 d   1     -11.998  12.573  -8.426  0.00  0.00    -0.081 A 
ATOM     34  H17 RF4 d   1     -12.818  14.390  -7.632  0.00  0.00     0.087 H 
ATOM     35  C19 RF4 d   1     -10.928  11.951  -9.152  0.00  0.00    -0.081 A 
ATOM     36  H16 RF4 d   1     -12.816  11.963  -8.060  0.00  0.00     0.083 H 
ATOM     37  H15 RF4 d   1     -10.938  10.878  -9.307  0.00  0.00     0.083 H 
ATOM     38  H14 RF4 d   1      -9.068  12.258 -10.240  0.00  0.00     0.087 H 
BRANCH  27  39
ATOM     39  C22 RF4 d   1      -7.764  14.974 -10.485  0.00  0.00     0.082 C 
ATOM     40  H18 RF4 d   1      -7.517  15.938 -10.954  0.00  0.00     0.081 H 
ATOM     41  H19 RF4 d   1      -7.868  14.204 -11.264  0.00  0.00     0.081 H 
BRANCH  39  42
ATOM     42  C23 RF4 d   1      -6.636  14.571  -9.507  0.00  0.00     0.191 C 
ATOM     43  O24 RF4 d   1      -5.428  14.450  -9.930  0.00  0.00    -0.647 OA
ATOM     44  O25 RF4 d   1      -6.897  14.338  -8.260  0.00  0.00    -0.647 OA
ENDBRANCH  39  42
ENDBRANCH  27  39
ENDBRANCH  25  26
ENDBRANCH   1  25
TORSDOF 9
