REMARK  3 active torsions:
REMARK  status: ('A' for Active; 'I' for Inactive)
REMARK    1  A    between atoms: C11_14  and  C1_1 
REMARK    2  A    between atoms: C8_10  and  C10_12 
REMARK    3  A    between atoms: N4_23  and  C17_25 
ROOT
ATOM      1  C7  SI5 d   1      17.643 -37.011   8.980  0.00  0.00     0.048 C 
ATOM      2  O1  SI5 d   1      16.372 -36.729   9.575  0.00  0.00    -0.378 OA
ATOM      3  C8  SI5 d   1      16.084 -37.512  10.737  0.00  0.00     0.067 C 
ATOM      4  C9  SI5 d   1      16.116 -39.008  10.447  0.00  0.00    -0.030 C 
ATOM      5  C11 SI5 d   1      17.818 -38.517   8.592  0.00  0.00     0.088 C 
ATOM      6  C12 SI5 d   1      17.461 -39.436   9.828  0.00  0.00    -0.012 C 
ATOM      7  C13 SI5 d   1      17.554 -40.903   9.414  0.00  0.00    -0.010 C 
ATOM      8  S1  SI5 d   1      16.419 -41.301   8.061  0.00  0.00    -0.094 SA
ATOM      9  C14 SI5 d   1      16.273 -39.807   7.150  0.00  0.00     0.134 C 
ATOM     10  N1  SI5 d   1      16.840 -38.668   7.476  0.00  0.00    -0.355 N 
ATOM     11  N2  SI5 d   1      15.436 -39.903   6.101  0.00  0.00    -0.380 N 
ATOM     12  H4  SI5 d   1      18.433 -36.740   9.696  0.00  0.00     0.078 H 
ATOM     13  H5  SI5 d   1      17.747 -36.401   8.071  0.00  0.00     0.078 H 
ATOM     14  H6  SI5 d   1      16.831 -37.301  11.516  0.00  0.00     0.091 H 
ATOM     15  H7  SI5 d   1      15.306 -39.253   9.745  0.00  0.00     0.037 H 
ATOM     16  H8  SI5 d   1      15.965 -39.558  11.388  0.00  0.00     0.037 H 
ATOM     17  H9  SI5 d   1      18.228 -39.274  10.600  0.00  0.00     0.045 H 
ATOM     18  H10 SI5 d   1      17.307 -41.533  10.281  0.00  0.00     0.050 H 
ATOM     19  H11 SI5 d   1      18.583 -41.115   9.088  0.00  0.00     0.050 H 
ATOM     20  H12 SI5 d   1      16.595 -37.830   6.929  0.00  0.00     0.162 HD
ATOM     21  H13 SI5 d   1      15.274 -39.086   5.495  0.00  0.00     0.158 HD
ATOM     22  H14 SI5 d   1      14.957 -40.794   5.904  0.00  0.00     0.158 HD
ENDROOT
BRANCH   3  23
ATOM     23  C10 SI5 d   1      14.739 -37.044  11.197  0.00  0.00     0.007 A 
ATOM     24  C15 SI5 d   1      14.411 -36.340  12.425  0.00  0.00     0.032 A 
ATOM     25  N3  SI5 d   1      13.114 -36.090  12.482  0.00  0.00    -0.185 NA
ATOM     26  H15 SI5 d   1      15.132 -36.058  13.191  0.00  0.00     0.118 H 
ATOM     27  N4  SI5 d   1      12.586 -36.628  11.303  0.00  0.00    -0.285 N 
ATOM     28  C16 SI5 d   1      13.528 -37.191  10.539  0.00  0.00     0.008 A 
ATOM     29  H16 SI5 d   1      13.372 -37.676   9.576  0.00  0.00     0.115 H 
BRANCH  27  30
ATOM     30  C17 SI5 d   1      11.154 -36.552  11.041  0.00  0.00     0.002 C 
ATOM     31  H17 SI5 d   1      10.933 -37.025  10.073  0.00  0.00     0.059 H 
ATOM     32  H18 SI5 d   1      10.842 -35.498  11.014  0.00  0.00     0.059 H 
ATOM     33  H19 SI5 d   1      10.607 -37.076  11.839  0.00  0.00     0.059 H 
ENDBRANCH  27  30
ENDBRANCH   3  23
BRANCH   5  34
ATOM     34  C1  SI5 d   1      19.279 -38.714   8.100  0.00  0.00     0.011 A 
ATOM     35  C2  SI5 d   1      19.493 -39.134   6.789  0.00  0.00    -0.069 A 
ATOM     36  C3  SI5 d   1      20.765 -39.328   6.288  0.00  0.00    -0.045 A 
ATOM     37  H1  SI5 d   1      18.639 -39.313   6.146  0.00  0.00     0.084 H 
ATOM     38  C4  SI5 d   1      21.827 -39.079   7.112  0.00  0.00     0.119 A 
ATOM     39  H2  SI5 d   1      20.917 -39.668   5.270  0.00  0.00     0.088 H 
ATOM     40  C5  SI5 d   1      21.692 -38.637   8.406  0.00  0.00    -0.008 A 
ATOM     41  F2  SI5 d   1      23.063 -39.319   6.640  0.00  0.00    -0.206 F 
ATOM     42  C6  SI5 d   1      20.412 -38.485   8.871  0.00  0.00     0.128 A 
ATOM     43  H3  SI5 d   1      22.554 -38.420   9.027  0.00  0.00     0.093 H 
ATOM     44  F1  SI5 d   1      20.246 -38.122  10.168  0.00  0.00    -0.205 F 
ENDBRANCH   5  34
TORSDOF 3
