REMARK  8 active torsions:
REMARK  status: ('A' for Active; 'I' for Inactive)
REMARK    1  A    between atoms: N5_28  and  C7_2 
REMARK    2  A    between atoms: C3_16  and  C8_3 
REMARK    3  A    between atoms: C18_15  and  C22_8 
REMARK    4  A    between atoms: O15_32  and  C16_18 
REMARK    5  A    between atoms: C1_25  and  C2_19 
REMARK    6  A    between atoms: N30_29  and  C31_23 
REMARK    7  A    between atoms: N13_30  and  C14_24 
REMARK    8  A    between atoms: C1_25  and  O15_32 
ROOT
ATOM      1  C1  490 d   1      17.747   4.189  60.800  0.00  0.00     0.068 C 
ATOM      2  H24 490 d   1      18.197   4.996  61.397  0.00  0.00     0.085 H 
ATOM      3  H25 490 d   1      17.190   4.623  59.956  0.00  0.00     0.085 H 
ENDROOT
BRANCH   1   4
ATOM      4  C2  490 d   1      16.856   3.365  61.636  0.00  0.00     0.091 A 
ATOM      5  C3  490 d   1      15.857   2.463  61.164  0.00  0.00     0.017 A 
ATOM      6  C4  490 d   1      15.296   1.931  62.286  0.00  0.00     0.011 A 
ATOM      7  N5  490 d   1      15.978   2.511  63.316  0.00  0.00    -0.284 N 
ATOM      8  H1  490 d   1      14.486   1.206  62.347  0.00  0.00     0.115 H 
ATOM      9  N6  490 d   1      16.940   3.390  62.973  0.00  0.00    -0.175 NA
BRANCH   5  10
ATOM     10  C8  490 d   1      15.451   2.180  59.826  0.00  0.00    -0.030 A 
ATOM     11  C12 490 d   1      14.094   1.771  59.600  0.00  0.00    -0.086 A 
ATOM     12  C11 490 d   1      13.536   1.553  58.413  0.00  0.00     0.025 A 
ATOM     13  H13 490 d   1      13.466   1.627  60.478  0.00  0.00     0.078 H 
ATOM     14  C10 490 d   1      14.435   1.733  57.255  0.00  0.00     0.223 A 
ATOM     15  H14 490 d   1      13.163   0.518  58.397  0.00  0.00     0.053 H 
ATOM     16  H15 490 d   1      12.692   2.249  58.300  0.00  0.00     0.053 H 
ATOM     17  N13 490 d   1      15.764   2.105  57.504  0.00  0.00    -0.352 N 
ATOM     18  O32 490 d   1      13.956   1.536  56.164  0.00  0.00    -0.273 OA
ATOM     19  C9  490 d   1      16.243   2.343  58.763  0.00  0.00     0.021 A 
ATOM     20  H16 490 d   1      17.105   1.675  58.905  0.00  0.00     0.071 H 
ATOM     21  H17 490 d   1      16.583   3.389  58.779  0.00  0.00     0.071 H 
BRANCH  17  22
ATOM     22  C14 490 d   1      16.650   2.319  56.403  0.00  0.00    -0.016 C 
ATOM     23  H21 490 d   1      16.128   2.088  55.462  0.00  0.00     0.056 H 
ATOM     24  H22 490 d   1      17.528   1.664  56.506  0.00  0.00     0.056 H 
ATOM     25  H23 490 d   1      16.976   3.370  56.393  0.00  0.00     0.056 H 
ENDBRANCH  17  22
ENDBRANCH   5  10
BRANCH   7  26
ATOM     26  C7  490 d   1      15.703   2.238  64.715  0.00  0.00     0.002 C 
ATOM     27  H2  490 d   1      16.386   2.827  65.345  0.00  0.00     0.059 H 
ATOM     28  H3  490 d   1      15.852   1.167  64.916  0.00  0.00     0.059 H 
ATOM     29  H4  490 d   1      14.663   2.513  64.945  0.00  0.00     0.059 H 
ENDBRANCH   7  26
ENDBRANCH   1   4
BRANCH   1  30
ATOM     30  O15 490 d   1      18.762   3.290  60.323  0.00  0.00    -0.345 OA
BRANCH  30  31
ATOM     31  C16 490 d   1      19.516   3.852  59.277  0.00  0.00     0.069 A 
ATOM     32  C17 490 d   1      20.331   2.998  58.547  0.00  0.00    -0.050 A 
ATOM     33  C20 490 d   1      21.082   3.514  57.500  0.00  0.00    -0.070 A 
ATOM     34  H5  490 d   1      20.380   1.943  58.791  0.00  0.00     0.087 H 
ATOM     35  C18 490 d   1      21.081   4.859  57.139  0.00  0.00    -0.023 A 
ATOM     36  H6  490 d   1      21.704   2.832  56.932  0.00  0.00     0.085 H 
ATOM     37  C19 490 d   1      20.262   5.689  57.906  0.00  0.00    -0.070 A 
ATOM     38  C21 490 d   1      19.492   5.200  58.965  0.00  0.00    -0.050 A 
ATOM     39  H10 490 d   1      20.222   6.747  57.673  0.00  0.00     0.085 H 
ATOM     40  H7  490 d   1      18.875   5.878  59.543  0.00  0.00     0.087 H 
BRANCH  35  41
ATOM     41  C22 490 d   1      21.905   5.344  55.995  0.00  0.00     0.005 A 
ATOM     42  C25 490 d   1      21.399   6.095  54.958  0.00  0.00    -0.070 A 
ATOM     43  C24 490 d   1      22.173   6.522  53.883  0.00  0.00    -0.080 A 
ATOM     44  H9  490 d   1      20.350   6.366  54.980  0.00  0.00     0.084 H 
ATOM     45  C23 490 d   1      23.522   6.213  53.770  0.00  0.00    -0.055 A 
ATOM     46  H8  490 d   1      21.706   7.117  53.106  0.00  0.00     0.083 H 
ATOM     47  C26 490 d   1      24.030   5.472  54.820  0.00  0.00     0.065 A 
ATOM     48  H11 490 d   1      24.127   6.527  52.927  0.00  0.00     0.087 H 
ATOM     49  C27 490 d   1      23.262   5.048  55.895  0.00  0.00     0.096 A 
ATOM     50  N30 490 d   1      25.289   4.962  55.061  0.00  0.00    -0.344 N 
ATOM     51  N28 490 d   1      24.059   4.332  56.757  0.00  0.00    -0.241 NA
ATOM     52  C29 490 d   1      25.268   4.277  56.240  0.00  0.00     0.067 A 
ATOM     53  H12 490 d   1      26.119   3.764  56.685  0.00  0.00     0.143 H 
BRANCH  50  54
ATOM     54  C31 490 d   1      26.482   5.147  54.234  0.00  0.00    -0.013 C 
ATOM     55  H18 490 d   1      26.222   5.735  53.341  0.00  0.00     0.057 H 
ATOM     56  H19 490 d   1      26.870   4.165  53.926  0.00  0.00     0.057 H 
ATOM     57  H20 490 d   1      27.250   5.680  54.813  0.00  0.00     0.057 H 
ENDBRANCH  50  54
ENDBRANCH  35  41
ENDBRANCH  30  31
ENDBRANCH   1  30
TORSDOF 8
