REMARK  3 active torsions:
REMARK  status: ('A' for Active; 'I' for Inactive)
REMARK    1  A    between atoms: C7_5  and  C6_3 
REMARK    2  A    between atoms: C1_15  and  O_16 
REMARK    3  A    between atoms: O_16  and  C_17 
ROOT
ATOM      1  C4  43U d   1      26.025  14.379  -0.622  0.00  0.00     0.012 A 
ATOM      2  C5  43U d   1      27.284  14.859  -0.772  0.00  0.00    -0.051 A 
ATOM      3  C6  43U d   1      27.918  15.433   0.382  0.00  0.00     0.030 A 
ATOM      4  C3  43U d   1      25.282  14.402   0.520  0.00  0.00    -0.064 A 
ATOM      5 BR   43U d   1      25.269  13.544  -2.205  0.00  0.00    -0.051 Br
ATOM      6  C2  43U d   1      25.851  14.943   1.674  0.00  0.00    -0.049 A 
ATOM      7  C1  43U d   1      27.200  15.457   1.598  0.00  0.00     0.081 A 
ATOM      8  H1  43U d   1      27.793  14.811  -1.728  0.00  0.00     0.087 H 
ATOM      9  H5  43U d   1      24.272  14.009   0.532  0.00  0.00     0.085 H 
ATOM     10  H6  43U d   1      25.295  14.977   2.604  0.00  0.00     0.087 H 
ENDROOT
BRANCH   3  11
ATOM     11  C7  43U d   1      29.370  15.858   0.215  0.00  0.00     0.119 A 
ATOM     12  C8  43U d   1      29.960  16.973   0.879  0.00  0.00     0.113 A 
ATOM     13  C9  43U d   1      31.312  17.306   0.572  0.00  0.00     0.198 A 
ATOM     14  N4  43U d   1      29.436  17.899   1.773  0.00  0.00    -0.346 N 
ATOM     15  N3  43U d   1      31.597  18.465   1.301  0.00  0.00    -0.222 NA
ATOM     16  N   43U d   1      32.114  16.657  -0.282  0.00  0.00    -0.041 NA
ATOM     17  C11 43U d   1      30.450  18.790   2.005  0.00  0.00     0.067 A 
ATOM     18  H2  43U d   1      30.364  19.652   2.665  0.00  0.00     0.143 H 
ATOM     19  C10 43U d   1      31.460  15.612  -0.883  0.00  0.00     0.723 A 
ATOM     20  N1  43U d   1      32.158  14.917  -1.815  0.00  0.00    -0.231 N 
ATOM     21  N2  43U d   1      30.083  15.170  -0.659  0.00  0.00    -0.060 NA
ATOM     22  H3  43U d   1      31.719  14.121  -2.300  0.00  0.00     0.174 HD
ATOM     23  H4  43U d   1      33.127  15.185  -2.038  0.00  0.00     0.174 HD
ATOM     24  H10 43U d   1      28.488  17.912   2.175  0.00  0.00     0.167 HD
ENDBRANCH   3  11
BRANCH   7  25
ATOM     25  O   43U d   1      27.900  15.894   2.663  0.00  0.00    -0.355 OA
BRANCH  25  26
ATOM     26  C   43U d   1      27.168  15.975   3.939  0.00  0.00     0.010 C 
ATOM     27  H7  43U d   1      27.843  16.342   4.726  0.00  0.00     0.066 H 
ATOM     28  H8  43U d   1      26.795  14.977   4.212  0.00  0.00     0.066 H 
ATOM     29  H9  43U d   1      26.319  16.666   3.832  0.00  0.00     0.066 H 
ENDBRANCH  25  26
ENDBRANCH   7  25
TORSDOF 3
