REMARK  1 active torsions:
REMARK  status: ('A' for Active; 'I' for Inactive)
REMARK    1  A    between atoms: C11_15  and  C13_18 
ROOT
ATOM      1  O1  2K9 d   1     157.992  33.827   4.571  0.00  0.00    -0.264 OA
ATOM      2  C9  2K9 d   1     157.975  34.135   5.781  0.00  0.00     0.292 A 
ATOM      3  C5  2K9 d   1     157.704  35.559   6.160  0.00  0.00     0.203 A 
ATOM      4  N3  2K9 d   1     157.455  36.702   5.475  0.00  0.00    -0.236 NA
ATOM      5  C10 2K9 d   1     157.289  37.724   6.364  0.00  0.00     0.020 A 
ATOM      6  C6  2K9 d   1     157.442  37.223   7.647  0.00  0.00     0.004 A 
ATOM      7  N1  2K9 d   1     157.685  35.927   7.438  0.00  0.00    -0.302 N 
ATOM      8  C1  2K9 d   1     157.912  35.003   8.385  0.00  0.00     0.050 A 
ATOM      9  N2  2K9 d   1     158.199  33.199   6.733  0.00  0.00    -0.318 N 
ATOM     10  C2  2K9 d   1     158.172  33.599   8.013  0.00  0.00     0.069 A 
ATOM     11  C4  2K9 d   1     158.360  32.899   9.189  0.00  0.00     0.000 A 
ATOM     12  C8  2K9 d   1     158.634  31.545   9.373  0.00  0.00    -0.070 A 
ATOM     13  C12 2K9 d   1     158.779  31.091  10.687  0.00  0.00    -0.081 A 
ATOM     14  C14 2K9 d   1     158.649  31.982  11.768  0.00  0.00    -0.072 A 
ATOM     15  C11 2K9 d   1     158.382  33.352  11.572  0.00  0.00    -0.018 A 
ATOM     16  C7  2K9 d   1     158.229  33.788  10.251  0.00  0.00    -0.029 A 
ATOM     17  C3  2K9 d   1     157.940  35.169   9.833  0.00  0.00     0.002 A 
ATOM     18  H1  2K9 d   1     157.072  38.760   6.108  0.00  0.00     0.117 H 
ATOM     19  H2  2K9 d   1     157.379  37.756   8.594  0.00  0.00     0.114 H 
ATOM     20  H3  2K9 d   1     158.378  32.245   6.491  0.00  0.00     0.169 HD
ATOM     21  H4  2K9 d   1     158.731  30.870   8.530  0.00  0.00     0.084 H 
ATOM     22  H5  2K9 d   1     158.993  30.045  10.874  0.00  0.00     0.083 H 
ATOM     23  H6  2K9 d   1     158.757  31.605  12.778  0.00  0.00     0.084 H 
ATOM     24  H7  2K9 d   1     156.972  35.517  10.221  0.00  0.00     0.049 H 
ATOM     25  H8  2K9 d   1     158.733  35.864  10.148  0.00  0.00     0.049 H 
ENDROOT
BRANCH  15  26
ATOM     26  C13 2K9 d   1     158.194  34.314  12.718  0.00  0.00    -0.025 A 
ATOM     27  C16 2K9 d   1     157.295  33.975  13.737  0.00  0.00    -0.072 A 
ATOM     28  C18 2K9 d   1     157.058  34.841  14.811  0.00  0.00    -0.082 A 
ATOM     29  H9  2K9 d   1     156.774  33.026  13.693  0.00  0.00     0.084 H 
ATOM     30  C19 2K9 d   1     157.701  36.075  14.875  0.00  0.00    -0.083 A 
ATOM     31  H10 2K9 d   1     156.370  34.550  15.597  0.00  0.00     0.083 H 
ATOM     32  C17 2K9 d   1     158.581  36.436  13.858  0.00  0.00    -0.082 A 
ATOM     33  H11 2K9 d   1     157.518  36.746  15.707  0.00  0.00     0.083 H 
ATOM     34  C15 2K9 d   1     158.824  35.565  12.787  0.00  0.00    -0.072 A 
ATOM     35  H12 2K9 d   1     159.081  37.397  13.895  0.00  0.00     0.083 H 
ATOM     36  H13 2K9 d   1     159.509  35.863  12.001  0.00  0.00     0.084 H 
ENDBRANCH  15  26
TORSDOF 1
