REMARK  10 active torsions:
REMARK  status: ('A' for Active; 'I' for Inactive)
REMARK    1  A    between atoms: C21_1  and  C19_2 
REMARK    2  A    between atoms: C18_6  and  C15_7 
REMARK    3  A    between atoms: C11_16  and  C10_17 
REMARK    4  A    between atoms: C10_17  and  C12_18 
REMARK    5  A    between atoms: C10_17  and  C7_19 
REMARK    6  A    between atoms: C2_28  and  O2_29 
REMARK    7  A    between atoms: O2_29  and  C22_30 
REMARK    8  A    between atoms: C22_30  and  C23_31 
REMARK    9  A    between atoms: C23_31  and  O3_32 
REMARK   10  A    between atoms: O3_32  and  C24_33 
ROOT
ATOM      1  C10 44X d   1      21.116  31.210  55.224  0.00  0.00     0.028 C 
ATOM      2  H7  44X d   1      22.063  31.699  54.950  0.00  0.00     0.059 H 
ENDROOT
BRANCH   1   3
ATOM      3  C11 44X d   1      21.396  29.917  55.987  0.00  0.00     0.142 A 
ATOM      4  N2  44X d   1      22.385  29.792  56.932  0.00  0.00    -0.288 N 
ATOM      5  C14 44X d   1      23.382  30.631  57.408  0.00  0.00     0.001 A 
ATOM      6  C13 44X d   1      22.255  28.481  57.369  0.00  0.00     0.196 A 
ATOM      7  C15 44X d   1      24.240  30.140  58.401  0.00  0.00     0.019 A 
ATOM      8  H6  44X d   1      23.495  31.643  57.021  0.00  0.00     0.113 H 
ATOM      9  C16 44X d   1      24.113  28.833  58.854  0.00  0.00    -0.028 A 
ATOM     10  C17 44X d   1      23.122  28.001  58.346  0.00  0.00     0.165 A 
ATOM     11  H5  44X d   1      24.796  28.457  59.614  0.00  0.00     0.089 H 
ATOM     12  F1  44X d   1      22.984  26.731  58.780  0.00  0.00    -0.202 F 
ATOM     13  N3  44X d   1      21.243  27.940  56.703  0.00  0.00    -0.127 NA
ATOM     14  N4  44X d   1      20.740  28.764  55.912  0.00  0.00    -0.133 NA
BRANCH   7  15
ATOM     15  C18 44X d   1      25.246  30.975  58.843  0.00  0.00     0.115 A 
ATOM     16  C20 44X d   1      26.297  30.766  59.663  0.00  0.00    -0.022 A 
ATOM     17  C19 44X d   1      26.996  31.909  59.667  0.00  0.00     0.061 A 
ATOM     18  H4  44X d   1      26.530  29.854  60.210  0.00  0.00     0.091 H 
ATOM     19  N5  44X d   1      26.454  32.814  58.855  0.00  0.00    -0.133 NA
ATOM     20  O1  44X d   1      25.316  32.225  58.296  0.00  0.00    -0.212 OA
BRANCH  17  21
ATOM     21  C21 44X d   1      28.261  32.207  60.478  0.00  0.00    -0.033 C 
ATOM     22  H1  44X d   1      28.530  31.324  61.076  0.00  0.00     0.035 H 
ATOM     23  H2  44X d   1      28.075  33.060  61.147  0.00  0.00     0.035 H 
ATOM     24  H3  44X d   1      29.087  32.451  59.793  0.00  0.00     0.035 H 
ENDBRANCH  17  21
ENDBRANCH   7  15
ENDBRANCH   1   3
BRANCH   1  25
ATOM     25  C12 44X d   1      20.291  30.927  53.951  0.00  0.00    -0.062 C 
ATOM     26  H8  44X d   1      20.870  30.281  53.275  0.00  0.00     0.028 H 
ATOM     27  H9  44X d   1      20.062  31.876  53.444  0.00  0.00     0.028 H 
ATOM     28  H10 44X d   1      19.353  30.423  54.227  0.00  0.00     0.028 H 
ENDBRANCH   1  25
BRANCH   1  29
ATOM     29  C7  44X d   1      20.294  32.117  56.164  0.00  0.00    -0.046 A 
ATOM     30  C6  44X d   1      20.801  33.312  56.651  0.00  0.00    -0.064 A 
ATOM     31  C4  44X d   1      20.010  34.109  57.495  0.00  0.00    -0.004 A 
ATOM     32  H11 44X d   1      21.802  33.629  56.382  0.00  0.00     0.085 H 
ATOM     33  C3  44X d   1      20.501  35.306  57.997  0.00  0.00    -0.037 A 
ATOM     34  C5  44X d   1      18.715  33.715  57.856  0.00  0.00     0.067 A 
ATOM     35  C2  44X d   1      19.707  36.080  58.839  0.00  0.00     0.087 A 
ATOM     36  H12 44X d   1      21.499  35.637  57.734  0.00  0.00     0.089 H 
ATOM     37  C1  44X d   1      18.427  35.636  59.156  0.00  0.00     0.035 A 
ATOM     38  N1  44X d   1      17.971  34.484  58.670  0.00  0.00    -0.258 NA
ATOM     39  H15 44X d   1      17.796  36.233  59.804  0.00  0.00     0.119 H 
ATOM     40  C9  44X d   1      18.216  32.517  57.377  0.00  0.00    -0.054 A 
ATOM     41  C8  44X d   1      19.002  31.729  56.534  0.00  0.00    -0.074 A 
ATOM     42  H14 44X d   1      17.220  32.192  57.655  0.00  0.00     0.087 H 
ATOM     43  H13 44X d   1      18.602  30.795  56.157  0.00  0.00     0.084 H 
BRANCH  35  44
ATOM     44  O2  44X d   1      20.223  37.253  59.296  0.00  0.00    -0.348 OA
BRANCH  44  45
ATOM     45  C22 44X d   1      19.761  37.798  60.556  0.00  0.00     0.046 C 
ATOM     46  H16 44X d   1      19.174  37.038  61.094  0.00  0.00     0.078 H 
ATOM     47  H17 44X d   1      19.133  38.681  60.368  0.00  0.00     0.078 H 
BRANCH  45  48
ATOM     48  C23 44X d   1      20.974  38.201  61.398  0.00  0.00     0.039 C 
ATOM     49  H18 44X d   1      20.673  38.975  62.120  0.00  0.00     0.077 H 
ATOM     50  H19 44X d   1      21.757  38.601  60.737  0.00  0.00     0.077 H 
BRANCH  48  51
ATOM     51  O3  44X d   1      21.498  37.052  62.119  0.00  0.00    -0.394 OA
BRANCH  51  52
ATOM     52  C24 44X d   1      22.070  37.482  63.378  0.00  0.00     0.004 C 
ATOM     53  H20 44X d   1      22.465  36.609  63.919  0.00  0.00     0.066 H 
ATOM     54  H21 44X d   1      21.294  37.970  63.986  0.00  0.00     0.066 H 
ATOM     55  H22 44X d   1      22.886  38.194  63.186  0.00  0.00     0.066 H 
ENDBRANCH  51  52
ENDBRANCH  48  51
ENDBRANCH  45  48
ENDBRANCH  44  45
ENDBRANCH  35  44
ENDBRANCH   1  29
TORSDOF 10
