REMARK WARNING: 32 MAX_TORS EXCEEDED!!!
REMARK  45 active torsions:
REMARK  status: ('A' for Active; 'I' for Inactive)
REMARK    1  A    between atoms: N_1  and  CA_2 
REMARK    2  A    between atoms: CA_2  and  C_3 
REMARK    3  A    between atoms: CA_2  and  CB_5 
REMARK       I    between atoms: C_3  and  N_12 
REMARK    4  A    between atoms: CB_5  and  CG_6 
REMARK    5  A    between atoms: CG_6  and  CD_7 
REMARK    6  A    between atoms: CD_7  and  NE_8 
REMARK       I    between atoms: NE_8  and  CZ_9 
REMARK       I    between atoms: CZ_9  and  NH1_10 
REMARK    7  A    between atoms: N_12  and  CA_13 
REMARK    8  A    between atoms: CA_13  and  C_14 
REMARK    9  A    between atoms: CA_13  and  CB_16 
REMARK       I    between atoms: C_14  and  N_19 
REMARK   10  A    between atoms: CB_16  and  OG1_17 
REMARK   11  A    between atoms: CB_16  and  CG2_18 
REMARK   12  A    between atoms: N_19  and  CA_20 
REMARK   13  A    between atoms: CA_20  and  C_21 
REMARK   14  A    between atoms: CA_20  and  CB_23 
REMARK       I    between atoms: C_21  and  N_28 
REMARK   15  A    between atoms: CB_23  and  CG_24 
REMARK   16  A    between atoms: CG_24  and  CD_25 
REMARK   17  A    between atoms: N_28  and  CA_29 
REMARK   18  A    between atoms: CA_29  and  C_30 
REMARK   19  A    between atoms: CA_29  and  CB_32 
REMARK       I    between atoms: C_30  and  N_33 
REMARK   20  A    between atoms: N_33  and  CA_34 
REMARK   21  A    between atoms: CA_34  and  C_35 
REMARK   22  A    between atoms: CA_34  and  CB_37 
REMARK       I    between atoms: C_35  and  N_47 
REMARK   23  A    between atoms: CB_37  and  CG_38 
REMARK   24  A    between atoms: N_47  and  CA_48 
REMARK   25  A    between atoms: CA_48  and  C_49 
REMARK   26  A    between atoms: CA_48  and  CB_51 
REMARK       I    between atoms: C_49  and  N_56 
REMARK   27  A    between atoms: CB_51  and  CG_52 
REMARK   28  A    between atoms: CG_52  and  CD_53 
REMARK   29  A    between atoms: CD_53  and  CE_54 
REMARK   30  A    between atoms: CE_54  and  NZ_55 
REMARK   31  A    between atoms: N_56  and  CA_57 
REMARK   32  A    between atoms: CA_57  and  C_58 
REMARK   33  A    between atoms: CA_57  and  CB_60 
REMARK       I    between atoms: C_58  and  N_63 
REMARK   34  A    between atoms: CB_60  and  CG1_61 
REMARK   35  A    between atoms: CB_60  and  CG2_62 
REMARK   36  A    between atoms: N_63  and  CA_64 
REMARK   37  A    between atoms: CA_64  and  C_65 
REMARK   38  A    between atoms: CA_64  and  CB_67 
REMARK       I    between atoms: C_65  and  N_71 
REMARK   39  A    between atoms: CB_67  and  CG_68 
REMARK   40  A    between atoms: CG_68  and  CD1_69 
REMARK   41  A    between atoms: CG_68  and  CD2_70 
REMARK   42  A    between atoms: N_71  and  CA_72 
REMARK   43  A    between atoms: CA_72  and  C_73 
REMARK   44  A    between atoms: CA_72  and  CB_75 
REMARK   45  A    between atoms: CB_75  and  OG_76 
ROOT
ATOM      1  CA  TRP d   1     -29.711  42.707 -14.911  0.00  0.00     0.093 C 
ATOM      2  H35 TRP d   1     -29.202  43.103 -14.020  0.00  0.00     0.088 H 
ENDROOT
BRANCH   1   3
ATOM      3  N   TRP d   1     -28.741  42.687 -16.009  0.00  0.00    -0.346 N 
ATOM      4  C   ALA d   1     -27.513  42.234 -15.789  0.00  0.00     0.240 C 
ATOM      5  O   ALA d   1     -27.172  41.762 -14.705  0.00  0.00    -0.271 OA
ATOM      6  H34 TRP d   1     -29.002  43.012 -16.918  0.00  0.00     0.163 HD
BRANCH   4   7
ATOM      7  CA  ALA d   1     -26.522  42.329 -16.927  0.00  0.00     0.086 C 
ATOM      8  H30 ALA d   1     -25.820  41.487 -16.841  0.00  0.00     0.086 H 
BRANCH   7   9
ATOM      9  N   ALA d   1     -27.158  42.249 -18.225  0.00  0.00    -0.346 N 
ATOM     10  C   GLU d   1     -27.672  41.110 -18.663  0.00  0.00     0.241 C 
ATOM     11  O   GLU d   1     -27.750  40.115 -17.967  0.00  0.00    -0.271 OA
ATOM     12  H29 ALA d   1     -27.210  43.066 -18.799  0.00  0.00     0.163 HD
BRANCH  10  13
ATOM     13  CA  GLU d   1     -28.123  41.067 -20.108  0.00  0.00     0.090 C 
ATOM     14  H24 GLU d   1     -27.629  41.875 -20.668  0.00  0.00     0.087 H 
BRANCH  13  15
ATOM     15  N   GLU d   1     -27.685  39.776 -20.648  0.00  0.00    -0.346 N 
ATOM     16  C   THR d   1     -26.391  39.466 -20.803  0.00  0.00     0.243 C 
ATOM     17  O   THR d   1     -25.487  40.254 -20.542  0.00  0.00    -0.271 OA
ATOM     18  H23 GLU d   1     -28.377  39.103 -20.910  0.00  0.00     0.163 HD
BRANCH  16  19
ATOM     19  CA  THR d   1     -26.077  38.049 -21.350  0.00  0.00     0.113 C 
ATOM     20  H17 THR d   1     -26.795  37.841 -22.157  0.00  0.00     0.091 H 
BRANCH  19  21
ATOM     21  N   THR d   1     -24.732  37.876 -21.915  0.00  0.00    -0.344 N 
ATOM     22  C   ARG d   1     -24.529  37.252 -23.081  0.00  0.00     0.249 C 
ATOM     23  O   ARG d   1     -25.406  36.583 -23.651  0.00  0.00    -0.271 OA
ATOM     24  H16 THR d   1     -23.945  38.235 -21.413  0.00  0.00     0.163 HD
BRANCH  22  25
ATOM     25  CA  ARG d   1     -23.141  37.401 -23.710  0.00  0.00     0.176 C 
ATOM     26  H4  ARG d   1     -22.482  37.890 -22.978  0.00  0.00     0.099 H 
BRANCH  25  27
ATOM     27  N   ARG d   1     -22.565  36.113 -24.052  0.00  0.00    -0.067 N 
ATOM     28  H1  ARG d   1     -21.655  36.250 -24.462  0.00  0.00     0.275 HD
ATOM     29  H2  ARG d   1     -23.163  35.642 -24.712  0.00  0.00     0.275 HD
ATOM     30  H3  ARG d   1     -22.477  35.552 -23.219  0.00  0.00     0.275 HD
ENDBRANCH  25  27
BRANCH  25  31
ATOM     31  CB  ARG d   1     -23.225  38.290 -24.967  0.00  0.00    -0.029 C 
ATOM     32  H5  ARG d   1     -24.256  38.258 -25.350  0.00  0.00     0.036 H 
ATOM     33  H6  ARG d   1     -22.539  37.888 -25.727  0.00  0.00     0.036 H 
BRANCH  31  34
ATOM     34  CG  ARG d   1     -22.852  39.745 -24.697  0.00  0.00    -0.047 C 
ATOM     35  H7  ARG d   1     -21.872  39.764 -24.198  0.00  0.00     0.035 H 
ATOM     36  H8  ARG d   1     -23.612  40.179 -24.031  0.00  0.00     0.035 H 
BRANCH  34  37
ATOM     37  CD  ARG d   1     -22.768  40.601 -25.949  0.00  0.00     0.009 C 
ATOM     38  H9  ARG d   1     -22.860  41.656 -25.651  0.00  0.00     0.064 H 
ATOM     39  H10 ARG d   1     -23.608  40.331 -26.607  0.00  0.00     0.064 H 
BRANCH  37  40
ATOM     40  NE  ARG d   1     -21.517  40.445 -26.712  0.00  0.00    -0.227 N 
ATOM     41  CZ  ARG d   1     -21.272  41.086 -27.868  0.00  0.00     0.665 C 
ATOM     42  NH1 ARG d   1     -20.112  40.934 -28.528  0.00  0.00    -0.235 N 
ATOM     43  NH2 ARG d   1     -22.203  41.902 -28.364  0.00  0.00    -0.235 N 
ATOM     44  H12 ARG d   1     -19.953  41.438 -29.412  0.00  0.00     0.174 HD
ATOM     45  H13 ARG d   1     -19.382  40.313 -28.150  0.00  0.00     0.174 HD
ATOM     46  H14 ARG d   1     -23.096  42.027 -27.867  0.00  0.00     0.174 HD
ATOM     47  H15 ARG d   1     -22.029  42.408 -29.244  0.00  0.00     0.174 HD
ATOM     48  H11 ARG d   1     -20.794  39.813 -26.341  0.00  0.00     0.177 HD
ENDBRANCH  37  40
ENDBRANCH  34  37
ENDBRANCH  31  34
ENDBRANCH  25  31
ENDBRANCH  22  25
ENDBRANCH  19  21
BRANCH  19  49
ATOM     49  CB  THR d   1     -26.305  37.047 -20.234  0.00  0.00     0.060 C 
ATOM     50  H18 THR d   1     -27.383  36.985 -20.021  0.00  0.00     0.086 H 
BRANCH  49  51
ATOM     51  OG1 THR d   1     -25.613  37.441 -19.060  0.00  0.00    -0.393 OA
ATOM     52  H19 THR d   1     -25.767  36.803 -18.373  0.00  0.00     0.210 HD
ENDBRANCH  49  51
BRANCH  49  53
ATOM     53  CG2 THR d   1     -25.793  35.695 -20.642  0.00  0.00    -0.050 C 
ATOM     54  H20 THR d   1     -25.963  34.977 -19.826  0.00  0.00     0.031 H 
ATOM     55  H21 THR d   1     -24.716  35.760 -20.855  0.00  0.00     0.031 H 
ATOM     56  H22 THR d   1     -26.325  35.358 -21.544  0.00  0.00     0.031 H 
ENDBRANCH  49  53
ENDBRANCH  19  49
ENDBRANCH  16  19
ENDBRANCH  13  15
BRANCH  13  57
ATOM     57  CB  GLU d   1     -29.653  41.273 -20.216  0.00  0.00    -0.029 C 
ATOM     58  H25 GLU d   1     -29.900  42.212 -19.700  0.00  0.00     0.037 H 
ATOM     59  H26 GLU d   1     -30.140  40.432 -19.701  0.00  0.00     0.037 H 
BRANCH  57  60
ATOM     60  CG  GLU d   1     -30.250  41.354 -21.658  0.00  0.00     0.018 C 
ATOM     61  H27 GLU d   1     -29.902  40.478 -22.226  0.00  0.00     0.049 H 
ATOM     62  H28 GLU d   1     -29.877  42.272 -22.135  0.00  0.00     0.049 H 
BRANCH  60  63
ATOM     63  CD  GLU d   1     -31.811  41.378 -21.703  0.00  0.00     0.172 C 
ATOM     64  OE1 GLU d   1     -32.449  40.664 -20.885  0.00  0.00    -0.648 OA
ATOM     65  OE2 GLU d   1     -32.407  42.103 -22.559  0.00  0.00    -0.648 OA
ENDBRANCH  60  63
ENDBRANCH  57  60
ENDBRANCH  13  57
ENDBRANCH  10  13
ENDBRANCH   7   9
BRANCH   7  66
ATOM     66  CB  ALA d   1     -25.757  43.598 -16.809  0.00  0.00    -0.049 C 
ATOM     67  H31 ALA d   1     -25.279  43.647 -15.820  0.00  0.00     0.030 H 
ATOM     68  H32 ALA d   1     -26.441  44.451 -16.928  0.00  0.00     0.030 H 
ATOM     69  H33 ALA d   1     -24.985  43.635 -17.592  0.00  0.00     0.030 H 
ENDBRANCH   7  66
ENDBRANCH   4   7
ENDBRANCH   1   3
BRANCH   1  70
ATOM     70  C   TRP d   1     -30.214  41.290 -14.573  0.00  0.00     0.241 C 
ATOM     71  O   TRP d   1     -30.723  41.055 -13.488  0.00  0.00    -0.271 OA
ATOM     72  N   LYS d   1     -30.040  40.328 -15.467  0.00  0.00    -0.346 N 
ATOM     73  H44 LYS d   1     -29.621  40.532 -16.352  0.00  0.00     0.163 HD
BRANCH  72  74
ATOM     74  CA  LYS d   1     -30.463  38.973 -15.151  0.00  0.00     0.089 C 
ATOM     75  H45 LYS d   1     -31.470  39.033 -14.711  0.00  0.00     0.087 H 
BRANCH  74  76
ATOM     76  C   LYS d   1     -29.547  38.268 -14.129  0.00  0.00     0.241 C 
ATOM     77  O   LYS d   1     -29.909  37.203 -13.606  0.00  0.00    -0.271 OA
ATOM     78  N   VAL d   1     -28.371  38.842 -13.845  0.00  0.00    -0.346 N 
ATOM     79  H57 VAL d   1     -28.141  39.727 -14.250  0.00  0.00     0.163 HD
BRANCH  78  80
ATOM     80  CA  VAL d   1     -27.418  38.185 -12.945  0.00  0.00     0.092 C 
ATOM     81  H58 VAL d   1     -27.256  37.160 -13.310  0.00  0.00     0.088 H 
BRANCH  80  82
ATOM     82  C   VAL d   1     -28.003  38.135 -11.561  0.00  0.00     0.241 C 
ATOM     83  O   VAL d   1     -28.505  39.153 -11.059  0.00  0.00    -0.271 OA
ATOM     84  N   LEU d   1     -27.937  36.974 -10.914  0.00  0.00    -0.346 N 
ATOM     85  H66 LEU d   1     -27.470  36.184 -11.312  0.00  0.00     0.163 HD
BRANCH  84  86
ATOM     86  CA  LEU d   1     -28.570  36.897  -9.606  0.00  0.00     0.089 C 
ATOM     87  H67 LEU d   1     -28.939  37.902  -9.354  0.00  0.00     0.087 H 
BRANCH  86  88
ATOM     88  C   LEU d   1     -27.594  36.486  -8.520  0.00  0.00     0.241 C 
ATOM     89  O   LEU d   1     -27.255  37.312  -7.658  0.00  0.00    -0.271 OA
ATOM     90  N   SER d   1     -27.138  35.234  -8.591  0.00  0.00    -0.343 N 
ATOM     91  H77 SER d   1     -27.222  34.752  -9.463  0.00  0.00     0.163 HD
BRANCH  90  92
ATOM     92  CA  SER d   1     -26.518  34.519  -7.460  0.00  0.00     0.116 C 
ATOM     93  H78 SER d   1     -25.453  34.364  -7.687  0.00  0.00     0.093 H 
BRANCH  92  94
ATOM     94  C   SER d   1     -27.205  33.142  -7.329  0.00  0.00     0.198 C 
ATOM     95  O   SER d   1     -27.170  32.495  -6.273  0.00  0.00    -0.646 OA
ATOM     96  OXT SER d   1     -27.819  32.628  -8.275  0.00  0.00    -0.646 OA
ENDBRANCH  92  94
BRANCH  92  97
ATOM     97  CB  SER d   1     -26.613  35.312  -6.126  0.00  0.00     0.045 C 
ATOM     98  H79 SER d   1     -27.664  35.582  -5.946  0.00  0.00     0.077 H 
ATOM     99  H80 SER d   1     -26.009  36.227  -6.212  0.00  0.00     0.077 H 
BRANCH  97 100
ATOM    100  OG  SER d   1     -26.138  34.549  -5.022  0.00  0.00    -0.398 OA
ATOM    101  H81 SER d   1     -26.658  33.759  -4.937  0.00  0.00     0.209 HD
ENDBRANCH  97 100
ENDBRANCH  92  97
ENDBRANCH  90  92
ENDBRANCH  86  88
BRANCH  86 102
ATOM    102  CB  LEU d   1     -29.781  35.951  -9.658  0.00  0.00    -0.035 C 
ATOM    103  H68 LEU d   1     -29.423  34.943  -9.403  0.00  0.00     0.037 H 
ATOM    104  H69 LEU d   1     -30.159  35.956 -10.691  0.00  0.00     0.037 H 
BRANCH 102 105
ATOM    105  CG  LEU d   1     -30.968  36.268  -8.730  0.00  0.00    -0.059 C 
ATOM    106  H70 LEU d   1     -30.670  36.005  -7.704  0.00  0.00     0.038 H 
BRANCH 105 107
ATOM    107  CD1 LEU d   1     -31.379  37.747  -8.736  0.00  0.00    -0.073 C 
ATOM    108  H71 LEU d   1     -32.228  37.894  -8.053  0.00  0.00     0.028 H 
ATOM    109  H72 LEU d   1     -31.672  38.042  -9.754  0.00  0.00     0.028 H 
ATOM    110  H73 LEU d   1     -30.531  38.365  -8.405  0.00  0.00     0.028 H 
ENDBRANCH 105 107
BRANCH 105 111
ATOM    111  CD2 LEU d   1     -32.168  35.420  -9.120  0.00  0.00    -0.073 C 
ATOM    112  H74 LEU d   1     -31.882  34.358  -9.118  0.00  0.00     0.028 H 
ATOM    113  H75 LEU d   1     -32.508  35.707 -10.126  0.00  0.00     0.028 H 
ATOM    114  H76 LEU d   1     -32.982  35.582  -8.398  0.00  0.00     0.028 H 
ENDBRANCH 105 111
ENDBRANCH 102 105
ENDBRANCH  86 102
ENDBRANCH  84  86
ENDBRANCH  80  82
BRANCH  80 115
ATOM    115  CB  VAL d   1     -26.021  38.901 -12.846  0.00  0.00    -0.033 C 
ATOM    116  H59 VAL d   1     -25.433  38.349 -12.098  0.00  0.00     0.042 H 
BRANCH 115 117
ATOM    117  CG1 VAL d   1     -25.226  38.819 -14.173  0.00  0.00    -0.071 C 
ATOM    118  H60 VAL d   1     -24.260  39.332 -14.054  0.00  0.00     0.028 H 
ATOM    119  H61 VAL d   1     -25.802  39.303 -14.976  0.00  0.00     0.028 H 
ATOM    120  H62 VAL d   1     -25.052  37.764 -14.431  0.00  0.00     0.028 H 
ENDBRANCH 115 117
BRANCH 115 121
ATOM    121  CG2 VAL d   1     -26.171  40.334 -12.313  0.00  0.00    -0.071 C 
ATOM    122  H63 VAL d   1     -26.743  40.318 -11.373  0.00  0.00     0.028 H 
ATOM    123  H64 VAL d   1     -26.703  40.947 -13.055  0.00  0.00     0.028 H 
ATOM    124  H65 VAL d   1     -25.175  40.763 -12.129  0.00  0.00     0.028 H 
ENDBRANCH 115 121
ENDBRANCH  80 115
ENDBRANCH  78  80
ENDBRANCH  74  76
BRANCH  74 125
ATOM    125  CB  LYS d   1     -30.545  38.143 -16.422  0.00  0.00    -0.038 C 
ATOM    126  H46 LYS d   1     -30.828  37.117 -16.143  0.00  0.00     0.036 H 
ATOM    127  H47 LYS d   1     -29.549  38.135 -16.890  0.00  0.00     0.036 H 
BRANCH 125 128
ATOM    128  CG  LYS d   1     -31.541  38.643 -17.445  0.00  0.00    -0.061 C 
ATOM    129  H48 LYS d   1     -31.520  39.742 -17.469  0.00  0.00     0.033 H 
ATOM    130  H49 LYS d   1     -32.550  38.301 -17.171  0.00  0.00     0.033 H 
BRANCH 128 131
ATOM    131  CD  LYS d   1     -31.180  38.101 -18.818  0.00  0.00    -0.043 C 
ATOM    132  H50 LYS d   1     -30.572  37.194 -18.688  0.00  0.00     0.035 H 
ATOM    133  H51 LYS d   1     -30.593  38.863 -19.352  0.00  0.00     0.035 H 
BRANCH 131 134
ATOM    134  CE  LYS d   1     -32.378  37.757 -19.643  0.00  0.00     0.080 C 
ATOM    135  H52 LYS d   1     -32.281  38.208 -20.642  0.00  0.00     0.075 H 
ATOM    136  H53 LYS d   1     -33.286  38.140 -19.154  0.00  0.00     0.075 H 
BRANCH 134 137
ATOM    137  NZ  LYS d   1     -32.464  36.268 -19.769  0.00  0.00    -0.079 N 
ATOM    138  H54 LYS d   1     -33.269  36.024 -20.324  0.00  0.00     0.274 HD
ATOM    139  H55 LYS d   1     -32.551  35.858 -18.852  0.00  0.00     0.274 HD
ATOM    140  H56 LYS d   1     -31.630  35.920 -20.215  0.00  0.00     0.274 HD
ENDBRANCH 134 137
ENDBRANCH 131 134
ENDBRANCH 128 131
ENDBRANCH 125 128
ENDBRANCH  74 125
ENDBRANCH  72  74
ENDBRANCH   1  70
BRANCH   1 141
ATOM    141  CB  TRP d   1     -30.885  43.643 -15.240  0.00  0.00    -0.012 C 
ATOM    142  H36 TRP d   1     -30.501  44.667 -15.362  0.00  0.00     0.044 H 
ATOM    143  H37 TRP d   1     -31.605  43.618 -14.409  0.00  0.00     0.044 H 
BRANCH 141 144
ATOM    144  CG  TRP d   1     -31.561  43.247 -16.458  0.00  0.00    -0.028 A 
ATOM    145  CD1 TRP d   1     -31.300  43.671 -17.719  0.00  0.00    -0.015 A 
ATOM    146  NE1 TRP d   1     -32.142  43.051 -18.610  0.00  0.00    -0.365 N 
ATOM    147  H38 TRP d   1     -30.534  44.398 -17.987  0.00  0.00     0.112 H 
ATOM    148  CE2 TRP d   1     -32.954  42.199 -17.911  0.00  0.00     0.042 A 
ATOM    149  H39 TRP d   1     -32.159  43.201 -19.629  0.00  0.00     0.165 HD
ATOM    150  CD2 TRP d   1     -32.607  42.303 -16.551  0.00  0.00    -0.002 A 
ATOM    151  CZ2 TRP d   1     -33.959  41.356 -18.357  0.00  0.00    -0.056 A 
ATOM    152  CE3 TRP d   1     -33.298  41.530 -15.608  0.00  0.00    -0.070 A 
ATOM    153  CZ3 TRP d   1     -34.290  40.688 -16.050  0.00  0.00    -0.082 A 
ATOM    154  H40 TRP d   1     -33.055  41.595 -14.553  0.00  0.00     0.084 H 
ATOM    155  CH2 TRP d   1     -34.620  40.612 -17.413  0.00  0.00    -0.081 A 
ATOM    156  H42 TRP d   1     -34.826  40.073 -15.336  0.00  0.00     0.083 H 
ATOM    157  H43 TRP d   1     -35.417  39.948 -17.727  0.00  0.00     0.083 H 
ATOM    158  H41 TRP d   1     -34.212  41.287 -19.409  0.00  0.00     0.086 H 
ENDBRANCH 141 144
ENDBRANCH   1 141
TORSDOF 45
