REMARK WARNING: 32 MAX_TORS EXCEEDED!!!
REMARK  54 active torsions:
REMARK  status: ('A' for Active; 'I' for Inactive)
REMARK    1  A    between atoms: C4_1  and  O4_59 
REMARK    2  A    between atoms: C5_2  and  C6_3 
REMARK    3  A    between atoms: C6_3  and  O6_60 
REMARK    4  A    between atoms: C3_4  and  O3_58 
REMARK    5  A    between atoms: CAY_6  and  CAZ_5 
REMARK    6  A    between atoms: CAX_7  and  CAY_6 
REMARK    7  A    between atoms: CAW_8  and  CAX_7 
REMARK    8  A    between atoms: CAV_9  and  CAW_8 
REMARK    9  A    between atoms: CAU_10  and  CAV_9 
REMARK   10  A    between atoms: CAT_11  and  CAU_10 
REMARK   11  A    between atoms: CAS_12  and  CAT_11 
REMARK   12  A    between atoms: CAR_13  and  CAS_12 
REMARK   13  A    between atoms: CAQ_14  and  CAR_13 
REMARK   14  A    between atoms: CAP_15  and  CAQ_14 
REMARK   15  A    between atoms: CAO_16  and  CAP_15 
REMARK   16  A    between atoms: CAN_17  and  CAO_16 
REMARK   17  A    between atoms: CAM_18  and  CAN_17 
REMARK   18  A    between atoms: CAL_19  and  CAM_18 
REMARK   19  A    between atoms: CAK_20  and  CAL_19 
REMARK   20  A    between atoms: CAJ_21  and  CAK_20 
REMARK   21  A    between atoms: CAI_22  and  CAJ_21 
REMARK   22  A    between atoms: CAH_23  and  CAI_22 
REMARK   23  A    between atoms: CAG_24  and  CAH_23 
REMARK   24  A    between atoms: CAF_25  and  CAG_24 
REMARK   25  A    between atoms: CAE_26  and  CAF_25 
REMARK   26  A    between atoms: CAD_27  and  CAE_26 
REMARK   27  A    between atoms: CAC_28  and  CAD_27 
REMARK   28  A    between atoms: CAB_29  and  CAC_28 
REMARK   29  A    between atoms: CAA_30  and  CAB_29 
REMARK       I    between atoms: NBG_32  and  CAA_30 
REMARK   30  A    between atoms: CBE_33  and  NBG_32 
REMARK   31  A    between atoms: CBE_33  and  CBI_34 
REMARK   32  A    between atoms: CBB_52  and  CBE_33 
REMARK   33  A    between atoms: CBI_34  and  OBK_35 
REMARK   34  A    between atoms: CBI_34  and  CBM_36 
REMARK   35  A    between atoms: CBM_36  and  OBO_37 
REMARK   36  A    between atoms: CBM_36  and  CBQ_38 
REMARK   37  A    between atoms: CBQ_38  and  CBS_39 
REMARK   38  A    between atoms: CBS_39  and  CBV_40 
REMARK   39  A    between atoms: CBV_40  and  CBW_41 
REMARK   40  A    between atoms: CBW_41  and  CBX_42 
REMARK   41  A    between atoms: CBX_42  and  CBY_43 
REMARK   42  A    between atoms: CBY_43  and  CBZ_44 
REMARK   43  A    between atoms: CBZ_44  and  CCA_45 
REMARK   44  A    between atoms: CCA_45  and  CCB_46 
REMARK   45  A    between atoms: CCB_46  and  CCC_47 
REMARK   46  A    between atoms: CCC_47  and  CCD_48 
REMARK   47  A    between atoms: CCD_48  and  CCE_49 
REMARK   48  A    between atoms: CCE_49  and  CCF_50 
REMARK   49  A    between atoms: CCF_50  and  CCG_51 
REMARK   50  A    between atoms: O1_53  and  CBB_52 
REMARK   51  A    between atoms: C1_54  and  O1_53 
REMARK   52  A    between atoms: C2_56  and  O2_57 
REMARK   53  A    between atoms: O6_60  and  CCH_61 
REMARK       I    between atoms: CCH_61  and  NCS_63 
REMARK   54  A    between atoms: NCS_63  and  CCR_64 
ROOT
ATOM      1  CBE 48G d   1      25.969  27.897 -18.942  0.00  0.00     0.060 C 
ATOM      2  H58 48G d   1      26.950  27.932 -19.439  0.00  0.00     0.080 H 
ENDROOT
BRANCH   1   3
ATOM      3  NBG 48G d   1      25.568  26.502 -18.723  0.00  0.00    -0.352 N 
ATOM      4  CAA 48G d   1      25.874  25.524 -19.593  0.00  0.00     0.218 C 
ATOM      5  OBA 48G d   1      26.449  25.715 -20.663  0.00  0.00    -0.274 OA
ATOM      6  H57 48G d   1      25.050  26.272 -17.899  0.00  0.00     0.163 HD
BRANCH   4   7
ATOM      7  CAB 48G d   1      25.421  24.118 -19.159  0.00  0.00     0.009 C 
ATOM      8  H55 48G d   1      25.228  24.131 -18.076  0.00  0.00     0.047 H 
ATOM      9  H56 48G d   1      24.493  23.869 -19.694  0.00  0.00     0.047 H 
BRANCH   7  10
ATOM     10  CAC 48G d   1      26.465  23.029 -19.457  0.00  0.00    -0.057 C 
ATOM     11  H53 48G d   1      25.972  22.046 -19.439  0.00  0.00     0.033 H 
ATOM     12  H54 48G d   1      26.892  23.206 -20.455  0.00  0.00     0.033 H 
BRANCH  10  13
ATOM     13  CAD 48G d   1      27.594  23.039 -18.423  0.00  0.00    -0.065 C 
ATOM     14  H51 48G d   1      27.971  24.064 -18.292  0.00  0.00     0.033 H 
ATOM     15  H52 48G d   1      27.222  22.659 -17.460  0.00  0.00     0.033 H 
BRANCH  13  16
ATOM     16  CAE 48G d   1      28.721  22.131 -18.941  0.00  0.00    -0.065 C 
ATOM     17  H49 48G d   1      28.292  21.185 -19.303  0.00  0.00     0.033 H 
ATOM     18  H50 48G d   1      29.248  22.634 -19.765  0.00  0.00     0.033 H 
BRANCH  16  19
ATOM     19  CAF 48G d   1      29.706  21.843 -17.807  0.00  0.00    -0.065 C 
ATOM     20  H47 48G d   1      30.308  22.742 -17.610  0.00  0.00     0.033 H 
ATOM     21  H48 48G d   1      29.148  21.570 -16.900  0.00  0.00     0.033 H 
BRANCH  19  22
ATOM     22  CAG 48G d   1      30.638  20.680 -18.203  0.00  0.00    -0.065 C 
ATOM     23  H45 48G d   1      30.794  20.026 -17.332  0.00  0.00     0.033 H 
ATOM     24  H46 48G d   1      30.174  20.103 -19.017  0.00  0.00     0.033 H 
BRANCH  22  25
ATOM     25  CAH 48G d   1      31.994  21.229 -18.677  0.00  0.00    -0.065 C 
ATOM     26  H43 48G d   1      31.907  21.521 -19.734  0.00  0.00     0.033 H 
ATOM     27  H44 48G d   1      32.249  22.111 -18.072  0.00  0.00     0.033 H 
BRANCH  25  28
ATOM     28  CAI 48G d   1      33.124  20.191 -18.541  0.00  0.00    -0.065 C 
ATOM     29  H41 48G d   1      33.097  19.748 -17.535  0.00  0.00     0.033 H 
ATOM     30  H42 48G d   1      32.989  19.400 -19.294  0.00  0.00     0.033 H 
BRANCH  28  31
ATOM     31  CAJ 48G d   1      34.480  20.884 -18.761  0.00  0.00    -0.065 C 
ATOM     32  H39 48G d   1      34.310  21.951 -18.969  0.00  0.00     0.033 H 
ATOM     33  H40 48G d   1      35.090  20.780 -17.852  0.00  0.00     0.033 H 
BRANCH  31  34
ATOM     34  CAK 48G d   1      35.220  20.260 -19.931  0.00  0.00    -0.065 C 
ATOM     35  H37 48G d   1      36.168  19.831 -19.574  0.00  0.00     0.033 H 
ATOM     36  H38 48G d   1      34.600  19.464 -20.369  0.00  0.00     0.033 H 
BRANCH  34  37
ATOM     37  CAL 48G d   1      35.513  21.312 -20.994  0.00  0.00    -0.065 C 
ATOM     38  H35 48G d   1      34.573  21.658 -21.449  0.00  0.00     0.033 H 
ATOM     39  H36 48G d   1      36.037  22.166 -20.541  0.00  0.00     0.033 H 
BRANCH  37  40
ATOM     40  CAM 48G d   1      36.400  20.660 -22.060  0.00  0.00    -0.065 C 
ATOM     41  H33 48G d   1      37.351  21.208 -22.131  0.00  0.00     0.033 H 
ATOM     42  H34 48G d   1      36.599  19.614 -21.783  0.00  0.00     0.033 H 
BRANCH  40  43
ATOM     43  CAN 48G d   1      35.683  20.703 -23.412  0.00  0.00    -0.065 C 
ATOM     44  H31 48G d   1      34.639  20.381 -23.280  0.00  0.00     0.033 H 
ATOM     45  H32 48G d   1      35.703  21.732 -23.802  0.00  0.00     0.033 H 
BRANCH  43  46
ATOM     46  CAO 48G d   1      36.380  19.769 -24.410  0.00  0.00    -0.065 C 
ATOM     47  H29 48G d   1      36.345  20.214 -25.415  0.00  0.00     0.033 H 
ATOM     48  H30 48G d   1      37.428  19.626 -24.108  0.00  0.00     0.033 H 
BRANCH  46  49
ATOM     49  CAP 48G d   1      35.664  18.417 -24.425  0.00  0.00    -0.065 C 
ATOM     50  H27 48G d   1      36.369  17.634 -24.111  0.00  0.00     0.033 H 
ATOM     51  H28 48G d   1      34.818  18.451 -23.723  0.00  0.00     0.033 H 
BRANCH  49  52
ATOM     52  CAQ 48G d   1      35.137  18.084 -25.833  0.00  0.00    -0.065 C 
ATOM     53  H25 48G d   1      34.050  18.250 -25.863  0.00  0.00     0.033 H 
ATOM     54  H26 48G d   1      35.628  18.737 -26.569  0.00  0.00     0.033 H 
BRANCH  52  55
ATOM     55  CAR 48G d   1      35.436  16.615 -26.178  0.00  0.00    -0.065 C 
ATOM     56  H23 48G d   1      36.071  16.568 -27.075  0.00  0.00     0.033 H 
ATOM     57  H24 48G d   1      35.957  16.137 -25.335  0.00  0.00     0.033 H 
BRANCH  55  58
ATOM     58  CAS 48G d   1      34.119  15.891 -26.444  0.00  0.00    -0.065 C 
ATOM     59  H21 48G d   1      33.314  16.630 -26.569  0.00  0.00     0.033 H 
ATOM     60  H22 48G d   1      34.211  15.290 -27.361  0.00  0.00     0.033 H 
BRANCH  58  61
ATOM     61  CAT 48G d   1      33.790  14.977 -25.270  0.00  0.00    -0.065 C 
ATOM     62  H19 48G d   1      34.194  13.973 -25.466  0.00  0.00     0.033 H 
ATOM     63  H20 48G d   1      34.244  15.383 -24.354  0.00  0.00     0.033 H 
BRANCH  61  64
ATOM     64  CAU 48G d   1      32.277  14.887 -25.088  0.00  0.00    -0.065 C 
ATOM     65  H17 48G d   1      31.866  15.882 -24.864  0.00  0.00     0.033 H 
ATOM     66  H18 48G d   1      31.811  14.495 -26.004  0.00  0.00     0.033 H 
BRANCH  64  67
ATOM     67  CAV 48G d   1      32.011  13.937 -23.919  0.00  0.00    -0.065 C 
ATOM     68  H15 48G d   1      31.552  13.015 -24.305  0.00  0.00     0.033 H 
ATOM     69  H16 48G d   1      32.967  13.695 -23.431  0.00  0.00     0.033 H 
BRANCH  67  70
ATOM     70  CAW 48G d   1      31.072  14.564 -22.887  0.00  0.00    -0.065 C 
ATOM     71  H13 48G d   1      30.996  15.646 -23.073  0.00  0.00     0.033 H 
ATOM     72  H14 48G d   1      30.076  14.106 -22.974  0.00  0.00     0.033 H 
BRANCH  70  73
ATOM     73  CAX 48G d   1      31.620  14.327 -21.469  0.00  0.00    -0.065 C 
ATOM     74  H11 48G d   1      31.068  13.505 -20.990  0.00  0.00     0.033 H 
ATOM     75  H12 48G d   1      32.688  14.069 -21.522  0.00  0.00     0.033 H 
BRANCH  73  76
ATOM     76  CAY 48G d   1      31.437  15.618 -20.656  0.00  0.00    -0.069 C 
ATOM     77  H9  48G d   1      32.108  16.397 -21.047  0.00  0.00     0.032 H 
ATOM     78  H10 48G d   1      30.394  15.958 -20.736  0.00  0.00     0.032 H 
BRANCH  76  79
ATOM     79  CAZ 48G d   1      31.772  15.345 -19.195  0.00  0.00    -0.077 C 
ATOM     80  H6  48G d   1      31.642  16.268 -18.610  0.00  0.00     0.027 H 
ATOM     81  H7  48G d   1      32.815  15.005 -19.115  0.00  0.00     0.027 H 
ATOM     82  H8  48G d   1      31.101  14.566 -18.804  0.00  0.00     0.027 H 
ENDBRANCH  76  79
ENDBRANCH  73  76
ENDBRANCH  70  73
ENDBRANCH  67  70
ENDBRANCH  64  67
ENDBRANCH  61  64
ENDBRANCH  58  61
ENDBRANCH  55  58
ENDBRANCH  52  55
ENDBRANCH  49  52
ENDBRANCH  46  49
ENDBRANCH  43  46
ENDBRANCH  40  43
ENDBRANCH  37  40
ENDBRANCH  34  37
ENDBRANCH  31  34
ENDBRANCH  28  31
ENDBRANCH  25  28
ENDBRANCH  22  25
ENDBRANCH  19  22
ENDBRANCH  16  19
ENDBRANCH  13  16
ENDBRANCH  10  13
ENDBRANCH   7  10
ENDBRANCH   4   7
ENDBRANCH   1   3
BRANCH   1  83
ATOM     83  CBI 48G d   1      26.050  28.568 -17.569  0.00  0.00     0.081 C 
ATOM     84  H59 48G d   1      25.053  28.519 -17.107  0.00  0.00     0.090 H 
BRANCH  83  85
ATOM     85  OBK 48G d   1      26.422  29.940 -17.698  0.00  0.00    -0.391 OA
ATOM     86  H60 48G d   1      26.466  30.337 -16.836  0.00  0.00     0.210 HD
ENDBRANCH  83  85
BRANCH  83  87
ATOM     87  CBM 48G d   1      27.041  27.855 -16.647  0.00  0.00     0.062 C 
ATOM     88  H61 48G d   1      26.698  26.823 -16.483  0.00  0.00     0.086 H 
BRANCH  87  89
ATOM     89  OBO 48G d   1      27.026  28.549 -15.396  0.00  0.00    -0.393 OA
ATOM     90  H62 48G d   1      27.286  29.452 -15.533  0.00  0.00     0.210 HD
ENDBRANCH  87  89
BRANCH  87  91
ATOM     91  CBQ 48G d   1      28.461  27.791 -17.280  0.00  0.00    -0.039 C 
ATOM     92  H63 48G d   1      28.732  28.799 -17.627  0.00  0.00     0.036 H 
ATOM     93  H64 48G d   1      28.427  27.105 -18.139  0.00  0.00     0.036 H 
BRANCH  91  94
ATOM     94  CBS 48G d   1      29.561  27.298 -16.304  0.00  0.00    -0.063 C 
ATOM     95  H65 48G d   1      29.744  28.087 -15.559  0.00  0.00     0.033 H 
ATOM     96  H66 48G d   1      30.481  27.117 -16.880  0.00  0.00     0.033 H 
BRANCH  94  97
ATOM     97  CBV 48G d   1      29.191  26.004 -15.561  0.00  0.00    -0.065 C 
ATOM     98  H67 48G d   1      28.839  25.255 -16.286  0.00  0.00     0.033 H 
ATOM     99  H68 48G d   1      28.392  26.216 -14.835  0.00  0.00     0.033 H 
BRANCH  97 100
ATOM    100  CBW 48G d   1      30.426  25.456 -14.817  0.00  0.00    -0.065 C 
ATOM    101  H69 48G d   1      31.340  25.777 -15.338  0.00  0.00     0.033 H 
ATOM    102  H70 48G d   1      30.383  24.357 -14.795  0.00  0.00     0.033 H 
BRANCH 100 103
ATOM    103  CBX 48G d   1      30.438  25.998 -13.378  0.00  0.00    -0.065 C 
ATOM    104  H71 48G d   1      29.590  25.563 -12.828  0.00  0.00     0.033 H 
ATOM    105  H72 48G d   1      30.332  27.092 -13.410  0.00  0.00     0.033 H 
BRANCH 103 106
ATOM    106  CBY 48G d   1      31.742  25.647 -12.639  0.00  0.00    -0.065 C 
ATOM    107  H73 48G d   1      32.579  26.212 -13.075  0.00  0.00     0.033 H 
ATOM    108  H74 48G d   1      31.941  24.569 -12.730  0.00  0.00     0.033 H 
BRANCH 106 109
ATOM    109  CBZ 48G d   1      31.583  26.020 -11.159  0.00  0.00    -0.065 C 
ATOM    110  H75 48G d   1      31.455  25.103 -10.565  0.00  0.00     0.033 H 
ATOM    111  H76 48G d   1      30.697  26.661 -11.039  0.00  0.00     0.033 H 
BRANCH 109 112
ATOM    112  CCA 48G d   1      32.813  26.767 -10.671  0.00  0.00    -0.065 C 
ATOM    113  H77 48G d   1      33.142  27.461 -11.458  0.00  0.00     0.033 H 
ATOM    114  H78 48G d   1      33.612  26.039 -10.467  0.00  0.00     0.033 H 
BRANCH 112 115
ATOM    115  CCB 48G d   1      32.534  27.569  -9.388  0.00  0.00    -0.065 C 
ATOM    116  H79 48G d   1      32.915  27.023  -8.513  0.00  0.00     0.033 H 
ATOM    117  H80 48G d   1      31.452  27.733  -9.275  0.00  0.00     0.033 H 
BRANCH 115 118
ATOM    118  CCC 48G d   1      33.266  28.931  -9.523  0.00  0.00    -0.065 C 
ATOM    119  H81 48G d   1      32.615  29.627 -10.072  0.00  0.00     0.033 H 
ATOM    120  H82 48G d   1      34.196  28.775 -10.089  0.00  0.00     0.033 H 
BRANCH 118 121
ATOM    121  CCD 48G d   1      33.617  29.556  -8.163  0.00  0.00    -0.065 C 
ATOM    122  H83 48G d   1      34.662  29.326  -7.907  0.00  0.00     0.033 H 
ATOM    123  H84 48G d   1      32.952  29.151  -7.386  0.00  0.00     0.033 H 
BRANCH 121 124
ATOM    124  CCE 48G d   1      33.430  31.085  -8.264  0.00  0.00    -0.065 C 
ATOM    125  H85 48G d   1      32.816  31.425  -7.417  0.00  0.00     0.033 H 
ATOM    126  H86 48G d   1      32.915  31.319  -9.207  0.00  0.00     0.033 H 
BRANCH 124 127
ATOM    127  CCF 48G d   1      34.777  31.833  -8.234  0.00  0.00    -0.069 C 
ATOM    128  H87 48G d   1      35.134  31.981  -9.264  0.00  0.00     0.032 H 
ATOM    129  H88 48G d   1      35.512  31.236  -7.673  0.00  0.00     0.032 H 
BRANCH 127 130
ATOM    130  CCG 48G d   1      34.608  33.205  -7.552  0.00  0.00    -0.077 C 
ATOM    131  H89 48G d   1      35.575  33.728  -7.537  0.00  0.00     0.027 H 
ATOM    132  H90 48G d   1      34.253  33.061  -6.521  0.00  0.00     0.027 H 
ATOM    133  H91 48G d   1      33.875  33.805  -8.112  0.00  0.00     0.027 H 
ENDBRANCH 127 130
ENDBRANCH 124 127
ENDBRANCH 121 124
ENDBRANCH 118 121
ENDBRANCH 115 118
ENDBRANCH 112 115
ENDBRANCH 109 112
ENDBRANCH 106 109
ENDBRANCH 103 106
ENDBRANCH 100 103
ENDBRANCH  97 100
ENDBRANCH  94  97
ENDBRANCH  91  94
ENDBRANCH  87  91
ENDBRANCH  83  87
ENDBRANCH   1  83
BRANCH   1 134
ATOM    134  CBB 48G d   1      24.935  28.621 -19.802  0.00  0.00     0.044 C 
ATOM    135  H92 48G d   1      24.932  28.201 -20.819  0.00  0.00     0.077 H 
ATOM    136  H93 48G d   1      25.172  29.694 -19.849  0.00  0.00     0.077 H 
BRANCH 134 137
ATOM    137  O1  48G d   1      23.653  28.431 -19.192  0.00  0.00    -0.356 OA
BRANCH 137 138
ATOM    138  C1  48G d   1      22.538  28.996 -19.891  0.00  0.00     0.158 C 
ATOM    139  O5  48G d   1      22.294  28.318 -21.155  0.00  0.00    -0.348 OA
ATOM    140  C5  48G d   1      21.899  26.929 -21.045  0.00  0.00     0.090 C 
ATOM    141  C4  48G d   1      20.638  26.782 -20.214  0.00  0.00     0.090 C 
ATOM    142  H2  48G d   1      22.706  26.362 -20.557  0.00  0.00     0.090 H 
ATOM    143  C3  48G d   1      20.857  27.451 -18.844  0.00  0.00     0.092 C 
ATOM    144  H1  48G d   1      20.410  25.715 -20.074  0.00  0.00     0.091 H 
ATOM    145  C2  48G d   1      21.285  28.910 -19.012  0.00  0.00     0.110 C 
ATOM    146  H5  48G d   1      21.641  26.903 -18.301  0.00  0.00     0.091 H 
ATOM    147  H95 48G d   1      20.471  29.470 -19.495  0.00  0.00     0.094 H 
ATOM    148  H94 48G d   1      22.756  30.054 -20.099  0.00  0.00     0.133 H 
BRANCH 140 149
ATOM    149  C6  48G d   1      21.695  26.390 -22.463  0.00  0.00     0.057 C 
ATOM    150  H3  48G d   1      21.287  27.183 -23.108  0.00  0.00     0.079 H 
ATOM    151  H4  48G d   1      20.997  25.540 -22.441  0.00  0.00     0.079 H 
BRANCH 149 152
ATOM    152  O6  48G d   1      22.965  25.962 -22.966  0.00  0.00    -0.301 OA
BRANCH 152 153
ATOM    153  CCH 48G d   1      23.149  24.595 -22.920  0.00  0.00     0.365 C 
ATOM    154  OCT 48G d   1      22.571  23.888 -22.074  0.00  0.00    -0.238 OA
ATOM    155  NCS 48G d   1      24.005  24.043 -23.815  0.00  0.00    -0.302 N 
ATOM    156  H99 48G d   1      24.538  24.647 -24.408  0.00  0.00     0.171 HD
BRANCH 155 157
ATOM    157  CCR 48G d   1      24.165  22.697 -23.935  0.00  0.00     0.048 A 
ATOM    158  CCI 48G d   1      25.447  22.147 -23.722  0.00  0.00     0.001 A 
ATOM    159  CCJ 48G d   1      26.524  22.962 -23.342  0.00  0.00    -0.070 A 
ATOM    160  CCN 48G d   1      25.638  20.758 -23.896  0.00  0.00    -0.024 A 
ATOM    161  CCK 48G d   1      27.776  22.384 -23.125  0.00  0.00    -0.082 A 
ATOM    162 0H10 48G d   1      26.385  24.030 -23.218  0.00  0.00     0.084 H 
ATOM    163  CCL 48G d   1      27.948  21.010 -23.292  0.00  0.00    -0.082 A 
ATOM    164 1H10 48G d   1      28.614  23.003 -22.827  0.00  0.00     0.083 H 
ATOM    165  CCM 48G d   1      26.887  20.195 -23.677  0.00  0.00    -0.072 A 
ATOM    166 2H10 48G d   1      28.923  20.570 -23.119  0.00  0.00     0.083 H 
ATOM    167 3H10 48G d   1      27.036  19.129 -23.805  0.00  0.00     0.084 H 
ATOM    168  CCO 48G d   1      24.573  19.932 -24.284  0.00  0.00    -0.072 A 
ATOM    169  CCP 48G d   1      23.302  20.482 -24.508  0.00  0.00    -0.080 A 
ATOM    170 4H10 48G d   1      24.732  18.867 -24.411  0.00  0.00     0.084 H 
ATOM    171  CCQ 48G d   1      23.103  21.861 -24.350  0.00  0.00    -0.056 A 
ATOM    172 5H10 48G d   1      22.477  19.843 -24.802  0.00  0.00     0.083 H 
ATOM    173 6H10 48G d   1      22.127  22.290 -24.548  0.00  0.00     0.086 H 
ENDBRANCH 155 157
ENDBRANCH 152 153
ENDBRANCH 149 152
ENDBRANCH 140 149
BRANCH 141 174
ATOM    174  O4  48G d   1      19.540  27.426 -20.879  0.00  0.00    -0.390 OA
ATOM    175  H98 48G d   1      18.756  27.338 -20.350  0.00  0.00     0.210 HD
ENDBRANCH 141 174
BRANCH 143 176
ATOM    176  O3  48G d   1      19.640  27.423 -18.081  0.00  0.00    -0.390 OA
ATOM    177  H97 48G d   1      19.791  27.819 -17.231  0.00  0.00     0.210 HD
ENDBRANCH 143 176
BRANCH 145 178
ATOM    178  O2  48G d   1      21.543  29.476 -17.734  0.00  0.00    -0.388 OA
ATOM    179  H96 48G d   1      22.251  29.000 -17.315  0.00  0.00     0.210 HD
ENDBRANCH 145 178
ENDBRANCH 137 138
ENDBRANCH 134 137
ENDBRANCH   1 134
TORSDOF 54
