REMARK  14 active torsions:
REMARK  status: ('A' for Active; 'I' for Inactive)
REMARK    1  A    between atoms: C1_1  and  S1_12 
REMARK    2  A    between atoms: C2_2  and  O21_25 
REMARK    3  A    between atoms: N71_31  and  C3_3 
REMARK    4  A    between atoms: C4_4  and  O4_20 
REMARK    5  A    between atoms: C5_5  and  C6_6 
REMARK    6  A    between atoms: C6_6  and  O6_17 
REMARK    7  A    between atoms: C9_28  and  C12_8 
REMARK    8  A    between atoms: S1_12  and  C11_11 
REMARK    9  A    between atoms: C51_15  and  C61_16 
REMARK   10  A    between atoms: C61_16  and  O61_18 
REMARK   11  A    between atoms: C41_19  and  O41_21 
REMARK   12  A    between atoms: C31_22  and  N7_26 
REMARK   13  A    between atoms: C21_23  and  O2_24 
REMARK   14  A    between atoms: C10_33  and  C22_38 
ROOT
ATOM      1  S1  TD2 d   1      23.938   0.604 -16.933  0.00  0.00    -0.100 SA
ENDROOT
BRANCH   1   2
ATOM      2  C1  TD2 d   1      23.141  -0.734 -17.728  0.00  0.00     0.112 C 
ATOM      3  C2  TD2 d   1      23.448  -2.081 -17.117  0.00  0.00     0.093 C 
ATOM      4  C3  TD2 d   1      22.612  -3.174 -17.669  0.00  0.00     0.090 C 
ATOM      5  H2  TD2 d   1      23.223  -2.008 -16.043  0.00  0.00     0.091 H 
ATOM      6  C4  TD2 d   1      21.197  -2.903 -17.747  0.00  0.00     0.086 C 
ATOM      7  H3  TD2 d   1      22.956  -3.324 -18.703  0.00  0.00     0.084 H 
ATOM      8  C5  TD2 d   1      20.932  -1.570 -18.371  0.00  0.00     0.087 C 
ATOM      9  H4  TD2 d   1      20.699  -3.682 -18.343  0.00  0.00     0.090 H 
ATOM     10  O5  TD2 d   1      21.715  -0.508 -17.761  0.00  0.00    -0.363 OA
ATOM     11  H5  TD2 d   1      21.194  -1.623 -19.438  0.00  0.00     0.090 H 
ATOM     12  H1  TD2 d   1      23.504  -0.759 -18.766  0.00  0.00     0.104 H 
BRANCH   3  13
ATOM     13  O21 TD2 d   1      24.793  -2.392 -17.244  0.00  0.00    -0.390 OA
ATOM     14  H21 TD2 d   1      24.978  -3.194 -16.769  0.00  0.00     0.210 HD
ENDBRANCH   3  13
BRANCH   4  15
ATOM     15  N71 TD2 d   1      22.824  -4.423 -16.963  0.00  0.00    -0.250 N 
ATOM     16  N8  TD2 d   1      23.085  -5.514 -17.609  0.00  0.00    -0.065 NA
ATOM     17  N9  TD2 d   1      23.246  -6.484 -16.828  0.00  0.00    -0.130 NA
ATOM     18  C10 TD2 d   1      23.125  -6.094 -15.578  0.00  0.00     0.108 A 
ATOM     19  C71 TD2 d   1      22.844  -4.685 -15.681  0.00  0.00     0.031 A 
ATOM     20  H23 TD2 d   1      22.682  -3.984 -14.863  0.00  0.00     0.118 H 
BRANCH  18  21
ATOM     21  C22 TD2 d   1      23.288  -7.042 -14.392  0.00  0.00    -0.001 A 
ATOM     22  C23 TD2 d   1      23.917  -8.272 -14.632  0.00  0.00    -0.070 A 
ATOM     23  C24 TD2 d   1      24.109  -9.204 -13.618  0.00  0.00    -0.079 A 
ATOM     24  H27 TD2 d   1      24.262  -8.502 -15.633  0.00  0.00     0.084 H 
ATOM     25  C25 TD2 d   1      23.690  -8.909 -12.369  0.00  0.00    -0.046 A 
ATOM     26  H28 TD2 d   1      24.588 -10.154 -13.827  0.00  0.00     0.083 H 
ATOM     27  C26 TD2 d   1      23.092  -7.709 -12.124  0.00  0.00     0.117 A 
ATOM     28  H29 TD2 d   1      23.828  -9.623 -11.565  0.00  0.00     0.088 H 
ATOM     29  C27 TD2 d   1      22.903  -6.758 -13.152  0.00  0.00    -0.034 A 
ATOM     30  F28 TD2 d   1      22.660  -7.441 -10.891  0.00  0.00    -0.206 F 
ATOM     31  H30 TD2 d   1      22.446  -5.801 -12.930  0.00  0.00     0.089 H 
ENDBRANCH  18  21
ENDBRANCH   4  15
BRANCH   6  32
ATOM     32  O4  TD2 d   1      20.731  -2.933 -16.447  0.00  0.00    -0.391 OA
ATOM     33  H16 TD2 d   1      20.908  -3.786 -16.068  0.00  0.00     0.210 HD
ENDBRANCH   6  32
BRANCH   8  34
ATOM     34  C6  TD2 d   1      19.511  -1.278 -18.244  0.00  0.00     0.043 C 
ATOM     35  H6  TD2 d   1      19.209  -1.459 -17.202  0.00  0.00     0.078 H 
ATOM     36  H7  TD2 d   1      18.955  -1.954 -18.910  0.00  0.00     0.078 H 
BRANCH  34  37
ATOM     37  O6  TD2 d   1      19.195  -0.005 -18.566  0.00  0.00    -0.398 OA
ATOM     38  H13 TD2 d   1      19.662   0.591 -17.992  0.00  0.00     0.209 HD
ENDBRANCH  34  37
ENDBRANCH   8  34
ENDBRANCH   1   2
BRANCH   1  39
ATOM     39  C11 TD2 d   1      23.300   2.083 -17.606  0.00  0.00     0.112 C 
ATOM     40  O51 TD2 d   1      24.288   2.507 -18.602  0.00  0.00    -0.363 OA
ATOM     41  C51 TD2 d   1      23.961   3.745 -19.253  0.00  0.00     0.087 C 
ATOM     42  C41 TD2 d   1      23.790   4.879 -18.299  0.00  0.00     0.086 C 
ATOM     43  H10 TD2 d   1      23.012   3.620 -19.796  0.00  0.00     0.090 H 
ATOM     44  C31 TD2 d   1      22.891   4.500 -17.205  0.00  0.00     0.090 C 
ATOM     45  H15 TD2 d   1      23.386   5.749 -18.837  0.00  0.00     0.090 H 
ATOM     46  C21 TD2 d   1      22.993   3.139 -16.609  0.00  0.00     0.093 C 
ATOM     47  H18 TD2 d   1      21.946   4.392 -17.757  0.00  0.00     0.084 H 
ATOM     48  H19 TD2 d   1      23.736   3.136 -15.798  0.00  0.00     0.091 H 
ATOM     49  H9  TD2 d   1      22.357   1.849 -18.122  0.00  0.00     0.104 H 
BRANCH  41  50
ATOM     50  C61 TD2 d   1      25.044   3.998 -20.228  0.00  0.00     0.043 C 
ATOM     51  H11 TD2 d   1      25.989   3.574 -19.857  0.00  0.00     0.078 H 
ATOM     52  H12 TD2 d   1      25.164   5.080 -20.383  0.00  0.00     0.078 H 
BRANCH  50  53
ATOM     53  O61 TD2 d   1      24.688   3.388 -21.419  0.00  0.00    -0.398 OA
ATOM     54  H14 TD2 d   1      25.369   3.535 -22.065  0.00  0.00     0.209 HD
ENDBRANCH  50  53
ENDBRANCH  41  50
BRANCH  42  55
ATOM     55  O41 TD2 d   1      25.039   5.211 -17.694  0.00  0.00    -0.391 OA
ATOM     56  H17 TD2 d   1      24.915   5.934 -17.090  0.00  0.00     0.210 HD
ENDBRANCH  42  55
BRANCH  44  57
ATOM     57  N7  TD2 d   1      22.551   5.603 -16.289  0.00  0.00    -0.250 N 
ATOM     58  C8  TD2 d   1      23.122   5.926 -15.094  0.00  0.00     0.031 A 
ATOM     59  C9  TD2 d   1      22.396   7.024 -14.650  0.00  0.00     0.108 A 
ATOM     60  H22 TD2 d   1      23.958   5.434 -14.599  0.00  0.00     0.118 H 
ATOM     61  N10 TD2 d   1      21.478   7.234 -15.580  0.00  0.00    -0.130 NA
ATOM     62  N11 TD2 d   1      21.617   6.383 -16.512  0.00  0.00    -0.065 NA
BRANCH  59  63
ATOM     63  C12 TD2 d   1      22.511   7.820 -13.379  0.00  0.00    -0.001 A 
ATOM     64  C13 TD2 d   1      21.404   8.388 -12.832  0.00  0.00    -0.034 A 
ATOM     65  C14 TD2 d   1      21.494   9.129 -11.619  0.00  0.00     0.117 A 
ATOM     66  H8  TD2 d   1      20.444   8.276 -13.323  0.00  0.00     0.089 H 
ATOM     67  C15 TD2 d   1      22.736   9.240 -10.976  0.00  0.00    -0.046 A 
ATOM     68  F18 TD2 d   1      20.471   9.700 -11.038  0.00  0.00    -0.206 F 
ATOM     69  C16 TD2 d   1      23.811   8.659 -11.530  0.00  0.00    -0.079 A 
ATOM     70  H24 TD2 d   1      22.826   9.787 -10.045  0.00  0.00     0.088 H 
ATOM     71  C17 TD2 d   1      23.724   7.925 -12.746  0.00  0.00    -0.070 A 
ATOM     72  H25 TD2 d   1      24.772   8.751 -11.038  0.00  0.00     0.083 H 
ATOM     73  H26 TD2 d   1      24.605   7.455 -13.167  0.00  0.00     0.084 H 
ENDBRANCH  59  63
ENDBRANCH  44  57
BRANCH  46  74
ATOM     74  O2  TD2 d   1      21.695   2.795 -16.146  0.00  0.00    -0.390 OA
ATOM     75  H20 TD2 d   1      21.088   2.799 -16.877  0.00  0.00     0.210 HD
ENDBRANCH  46  74
ENDBRANCH   1  39
TORSDOF 14
