REMARK  5 active torsions:
REMARK  status: ('A' for Active; 'I' for Inactive)
REMARK    1  A    between atoms: N9_9  and  C13_13 
REMARK    2  A    between atoms: C14_14  and  O20_20 
REMARK    3  A    between atoms: C17_17  and  O18_18 
REMARK    4  A    between atoms: O18_18  and  C19_19 
REMARK    5  A    between atoms: O20_20  and  C21_21 
ROOT
ATOM      1  C1  CTI d   1       2.913  -4.092  24.699  0.00  0.00    -0.035 A 
ATOM      2  C2  CTI d   1       3.521  -3.216  23.777  0.00  0.00     0.004 A 
ATOM      3  C3  CTI d   1       2.809  -2.014  23.441  0.00  0.00    -0.021 A 
ATOM      4  C4  CTI d   1       1.565  -1.706  23.985  0.00  0.00    -0.037 A 
ATOM      5  C5  CTI d   1       4.790  -3.488  23.180  0.00  0.00     0.052 A 
ATOM      6  C6  CTI d   1       5.247  -2.504  22.291  0.00  0.00     0.002 A 
ATOM      7  C7  CTI d   1       4.529  -1.355  21.986  0.00  0.00    -0.069 A 
ATOM      8  C8  CTI d   1       3.298  -1.070  22.551  0.00  0.00    -0.071 A 
ATOM      9  N9  CTI d   1       5.574  -4.580  23.408  0.00  0.00    -0.379 N 
ATOM     10  C10 CTI d   1       6.460  -2.615  21.640  0.00  0.00    -0.013 A 
ATOM     11  C11 CTI d   1       7.291  -3.721  21.885  0.00  0.00     0.007 A 
ATOM     12  C12 CTI d   1       6.843  -4.750  22.750  0.00  0.00     0.022 A 
ATOM     13  C14 CTI d   1       8.813  -2.692  20.363  0.00  0.00     0.102 A 
ATOM     14  C15 CTI d   1       7.982  -1.587  20.155  0.00  0.00    -0.047 A 
ATOM     15  C16 CTI d   1       6.754  -1.552  20.788  0.00  0.00    -0.069 A 
ATOM     16  C17 CTI d   1       8.529  -3.787  21.240  0.00  0.00     0.110 A 
ATOM     17  C22 CTI d   1       1.711  -3.747  25.196  0.00  0.00     0.105 A 
ATOM     18  C23 CTI d   1       1.059  -2.603  24.841  0.00  0.00     0.105 A 
ATOM     19  O24 CTI d   1       0.956  -4.458  26.108  0.00  0.00    -0.323 OA
ATOM     20  C25 CTI d   1      -0.454  -3.909  25.927  0.00  0.00     0.115 C 
ATOM     21  O26 CTI d   1      -0.152  -2.501  25.495  0.00  0.00    -0.323 OA
ATOM     22  H1  CTI d   1       3.398  -5.014  24.998  0.00  0.00     0.089 H 
ATOM     23  H2  CTI d   1       1.037  -0.794  23.731  0.00  0.00     0.089 H 
ATOM     24  H3  CTI d   1       4.950  -0.652  21.276  0.00  0.00     0.085 H 
ATOM     25  H4  CTI d   1       2.751  -0.165  22.313  0.00  0.00     0.084 H 
ATOM     26  H5  CTI d   1       6.781  -5.673  22.154  0.00  0.00     0.071 H 
ATOM     27  H6  CTI d   1       7.604  -4.871  23.535  0.00  0.00     0.071 H 
ATOM     28  H10 CTI d   1       8.295  -0.774  19.510  0.00  0.00     0.087 H 
ATOM     29  H11 CTI d   1       6.055  -0.739  20.630  0.00  0.00     0.085 H 
ATOM     30  H18 CTI d   1      -1.022  -3.931  26.869  0.00  0.00     0.118 H 
ATOM     31  H19 CTI d   1      -1.007  -4.460  25.153  0.00  0.00     0.118 H 
ENDROOT
BRANCH  13  32
ATOM     32  O20 CTI d   1       9.969  -2.668  19.631  0.00  0.00    -0.353 OA
BRANCH  32  33
ATOM     33  C21 CTI d   1       9.900  -1.334  18.972  0.00  0.00     0.010 C 
ATOM     34  H15 CTI d   1      10.790  -1.190  18.342  0.00  0.00     0.066 H 
ATOM     35  H16 CTI d   1       9.863  -0.547  19.740  0.00  0.00     0.066 H 
ATOM     36  H17 CTI d   1       8.996  -1.280  18.347  0.00  0.00     0.066 H 
ENDBRANCH  32  33
ENDBRANCH  13  32
BRANCH  16  37
ATOM     37  O18 CTI d   1       9.354  -4.994  21.432  0.00  0.00    -0.352 OA
BRANCH  37  38
ATOM     38  C19 CTI d   1      10.813  -5.258  21.534  0.00  0.00     0.011 C 
ATOM     39  H12 CTI d   1      10.981  -6.335  21.679  0.00  0.00     0.067 H 
ATOM     40  H13 CTI d   1      11.227  -4.704  22.389  0.00  0.00     0.067 H 
ATOM     41  H14 CTI d   1      11.310  -4.930  20.609  0.00  0.00     0.067 H 
ENDBRANCH  37  38
ENDBRANCH  16  37
BRANCH   9  42
ATOM     42  C13 CTI d   1       5.172  -5.665  24.357  0.00  0.00    -0.018 C 
ATOM     43  H7  CTI d   1       4.192  -5.425  24.794  0.00  0.00     0.056 H 
ATOM     44  H8  CTI d   1       5.921  -5.747  25.158  0.00  0.00     0.056 H 
ATOM     45  H9  CTI d   1       5.108  -6.620  23.816  0.00  0.00     0.056 H 
ENDBRANCH   9  42
TORSDOF 5
