REMARK  8 active torsions:
REMARK  status: ('A' for Active; 'I' for Inactive)
REMARK    1  A    between atoms: C3_3  and  N3_10 
REMARK    2  A    between atoms: N1_4  and  C8_14 
REMARK    3  A    between atoms: C4_6  and  O1_11 
REMARK    4  A    between atoms: C5_7  and  C7_12 
REMARK    5  A    between atoms: N3_10  and  C10_16 
REMARK    6  A    between atoms: C8_14  and  C13_19 
REMARK    7  A    between atoms: C10_16  and  C14_20 
REMARK    8  A    between atoms: C10_16  and  C15_21 
ROOT
ATOM      1  C1  EPK d   1     -45.681  25.097  -0.696  0.00  0.00     0.059 A 
ATOM      2  C2  EPK d   1     -46.027  26.226  -1.390  0.00  0.00     0.078 A 
ATOM      3  C3  EPK d   1     -43.665  26.825  -1.448  0.00  0.00     0.679 A 
ATOM      4  N1  EPK d   1     -43.320  25.625  -0.730  0.00  0.00    -0.187 N 
ATOM      5  N2  EPK d   1     -45.039  27.111  -1.796  0.00  0.00    -0.190 N 
ATOM      6  C4  EPK d   1     -44.335  24.763  -0.384  0.00  0.00     0.153 A 
ATOM      7  C5  EPK d   1     -47.449  26.364  -1.631  0.00  0.00     0.011 A 
ATOM      8  S1  EPK d   1     -47.148  24.231  -0.305  0.00  0.00    -0.099 SA
ATOM      9  C6  EPK d   1     -48.205  25.334  -1.101  0.00  0.00    -0.031 A 
ATOM     10  H1  EPK d   1     -45.279  27.955  -2.335  0.00  0.00     0.184 HD
ATOM     11  H2  EPK d   1     -44.239  24.226  -1.339  0.00  0.00     0.127 H 
ATOM     12  H3  EPK d   1     -49.287  25.237  -1.175  0.00  0.00     0.096 H 
ENDROOT
BRANCH   3  13
ATOM     13  N3  EPK d   1     -42.689  27.763  -1.883  0.00  0.00    -0.222 N 
ATOM     14  H4  EPK d   1     -41.680  27.586  -1.773  0.00  0.00     0.178 HD
BRANCH  13  15
ATOM     15  C10 EPK d   1     -43.193  28.996  -2.496  0.00  0.00     0.019 C 
ATOM     16  H9  EPK d   1     -44.096  28.819  -3.099  0.00  0.00     0.072 H 
BRANCH  15  17
ATOM     17  C14 EPK d   1     -43.467  29.929  -1.347  0.00  0.00    -0.057 C 
ATOM     18  H15 EPK d   1     -43.852  30.884  -1.734  0.00  0.00     0.030 H 
ATOM     19  H16 EPK d   1     -42.536  30.108  -0.790  0.00  0.00     0.030 H 
ATOM     20  H17 EPK d   1     -44.214  29.477  -0.678  0.00  0.00     0.030 H 
ENDBRANCH  15  17
BRANCH  15  21
ATOM     21  C15 EPK d   1     -42.080  29.557  -3.333  0.00  0.00    -0.057 C 
ATOM     22  H18 EPK d   1     -42.416  30.487  -3.814  0.00  0.00     0.030 H 
ATOM     23  H19 EPK d   1     -41.798  28.826  -4.105  0.00  0.00     0.030 H 
ATOM     24  H20 EPK d   1     -41.211  29.768  -2.693  0.00  0.00     0.030 H 
ENDBRANCH  15  21
ENDBRANCH  13  15
ENDBRANCH   3  13
BRANCH   4  25
ATOM     25  C8  EPK d   1     -41.937  25.283  -0.384  0.00  0.00     0.011 C 
ATOM     26  H6  EPK d   1     -41.925  24.631   0.501  0.00  0.00     0.064 H 
ATOM     27  H7  EPK d   1     -41.368  26.200  -0.172  0.00  0.00     0.064 H 
BRANCH  25  28
ATOM     28  C13 EPK d   1     -41.321  24.558  -1.565  0.00  0.00    -0.060 C 
ATOM     29  H12 EPK d   1     -40.281  24.290  -1.329  0.00  0.00     0.029 H 
ATOM     30  H13 EPK d   1     -41.340  25.214  -2.448  0.00  0.00     0.029 H 
ATOM     31  H14 EPK d   1     -41.896  23.644  -1.775  0.00  0.00     0.029 H 
ENDBRANCH  25  28
ENDBRANCH   4  25
BRANCH   6  32
ATOM     32  O1  EPK d   1     -43.999  23.628   0.308  0.00  0.00    -0.371 OA
ATOM     33  H5  EPK d   1     -43.396  23.109  -0.211  0.00  0.00     0.212 HD
ENDBRANCH   6  32
BRANCH   7  34
ATOM     34  C7  EPK d   1     -48.041  27.459  -2.410  0.00  0.00    -0.006 A 
ATOM     35  C9  EPK d   1     -47.516  28.745  -2.517  0.00  0.00     0.013 A 
ATOM     36  N4  EPK d   1     -48.276  29.656  -3.395  0.00  0.00    -0.272 NA
ATOM     37  H8  EPK d   1     -46.617  29.053  -1.995  0.00  0.00     0.116 H 
ATOM     38  C11 EPK d   1     -49.346  29.227  -4.041  0.00  0.00     0.002 A 
ATOM     39  C16 EPK d   1     -49.880  27.844  -3.880  0.00  0.00    -0.065 A 
ATOM     40  H10 EPK d   1     -49.855  29.907  -4.714  0.00  0.00     0.114 H 
ATOM     41  C12 EPK d   1     -49.220  26.979  -3.126  0.00  0.00    -0.069 A 
ATOM     42  H21 EPK d   1     -50.799  27.550  -4.375  0.00  0.00     0.085 H 
ATOM     43  H11 EPK d   1     -49.544  25.948  -3.043  0.00  0.00     0.085 H 
ENDBRANCH   7  34
TORSDOF 8
