REMARK  6 active torsions:
REMARK  status: ('A' for Active; 'I' for Inactive)
REMARK    1  A    between atoms: C11_11  and  C9_8 
REMARK    2  A    between atoms: C7_12  and  C3_9 
REMARK    3  A    between atoms: N2_15  and  C8_10 
REMARK    4  A    between atoms: C10_13  and  C11_11 
REMARK    5  A    between atoms: N6_16  and  C7_12 
REMARK    6  A    between atoms: C10_13  and  N6_16 
ROOT
ATOM      1  C10 49G d   1     -17.913  -9.222  66.791  0.00  0.00     0.086 C 
ATOM      2  H15 49G d   1     -16.865  -9.474  67.012  0.00  0.00     0.076 H 
ATOM      3  H16 49G d   1     -18.212  -8.345  67.383  0.00  0.00     0.076 H 
ENDROOT
BRANCH   1   4
ATOM      4  C11 49G d   1     -18.799 -10.414  67.201  0.00  0.00    -0.018 C 
ATOM      5  H11 49G d   1     -19.726 -10.021  67.644  0.00  0.00     0.042 H 
ATOM      6  H12 49G d   1     -19.042 -10.993  66.297  0.00  0.00     0.042 H 
BRANCH   4   7
ATOM      7  C9  49G d   1     -18.146 -11.346  68.205  0.00  0.00    -0.057 A 
ATOM      8  C12 49G d   1     -17.482 -12.493  67.806  0.00  0.00    -0.077 A 
ATOM      9  C14 49G d   1     -16.897 -13.338  68.736  0.00  0.00    -0.082 A 
ATOM     10  H4  49G d   1     -17.419 -12.734  66.751  0.00  0.00     0.084 H 
ATOM     11  C16 49G d   1     -16.950 -13.025  70.096  0.00  0.00    -0.083 A 
ATOM     12  H2  49G d   1     -16.398 -14.242  68.407  0.00  0.00     0.083 H 
ATOM     13  C15 49G d   1     -17.581 -11.872  70.522  0.00  0.00    -0.082 A 
ATOM     14  H1  49G d   1     -16.494 -13.690  70.821  0.00  0.00     0.083 H 
ATOM     15  C13 49G d   1     -18.188 -11.067  69.562  0.00  0.00    -0.077 A 
ATOM     16  H3  49G d   1     -17.603 -11.602  71.572  0.00  0.00     0.083 H 
ATOM     17  H5  49G d   1     -18.718 -10.181  69.891  0.00  0.00     0.084 H 
ENDBRANCH   4   7
ENDBRANCH   1   4
BRANCH   1  18
ATOM     18  N6  49G d   1     -18.019  -8.879  65.363  0.00  0.00    -0.070 N 
ATOM     19  H17 49G d   1     -17.665  -9.642  64.807  0.00  0.00     0.277 HD
ATOM     20  H18 49G d   1     -18.985  -8.712  65.128  0.00  0.00     0.277 HD
BRANCH  18  21
ATOM     21  C7  49G d   1     -17.234  -7.670  65.091  0.00  0.00     0.122 C 
ATOM     22  H13 49G d   1     -17.549  -6.867  65.773  0.00  0.00     0.085 H 
ATOM     23  H14 49G d   1     -16.166  -7.884  65.245  0.00  0.00     0.085 H 
BRANCH  21  24
ATOM     24  C3  49G d   1     -17.458  -7.241  63.679  0.00  0.00     0.081 A 
ATOM     25  C4  49G d   1     -18.664  -6.845  63.068  0.00  0.00    -0.039 A 
ATOM     26  C5  49G d   1     -18.362  -6.539  61.760  0.00  0.00    -0.000 A 
ATOM     27  H6  49G d   1     -19.645  -6.791  63.539  0.00  0.00     0.088 H 
ATOM     28  N2  49G d   1     -17.028  -6.744  61.643  0.00  0.00    -0.285 N 
ATOM     29  H7  49G d   1     -19.049  -6.204  60.985  0.00  0.00     0.114 H 
ATOM     30  N1  49G d   1     -16.456  -7.157  62.793  0.00  0.00    -0.176 NA
BRANCH  28  31
ATOM     31  C8  49G d   1     -16.238  -6.580  60.429  0.00  0.00     0.002 C 
ATOM     32  H8  49G d   1     -15.185  -6.818  60.642  0.00  0.00     0.059 H 
ATOM     33  H9  49G d   1     -16.315  -5.540  60.079  0.00  0.00     0.059 H 
ATOM     34  H10 49G d   1     -16.617  -7.258  59.650  0.00  0.00     0.059 H 
ENDBRANCH  28  31
ENDBRANCH  21  24
ENDBRANCH  18  21
ENDBRANCH   1  18
TORSDOF 6
