REMARK  4 active torsions:
REMARK  status: ('A' for Active; 'I' for Inactive)
REMARK    1  A    between atoms: C08_7  and  C10_1 
REMARK    2  A    between atoms: N02_3  and  C01_2 
REMARK    3  A    between atoms: C03_4  and  N02_3 
REMARK    4  A    between atoms: C04_5  and  C03_4 
ROOT
ATOM      1  C04 3C5 d   1     -18.546 -10.905  68.106  0.00  0.00    -0.032 A 
ATOM      2  C09 3C5 d   1     -18.226 -10.525  69.399  0.00  0.00    -0.065 A 
ATOM      3  C08 3C5 d   1     -17.429 -11.330  70.220  0.00  0.00    -0.024 A 
ATOM      4  C07 3C5 d   1     -16.957 -12.531  69.718  0.00  0.00    -0.072 A 
ATOM      5  C06 3C5 d   1     -17.263 -12.926  68.425  0.00  0.00    -0.082 A 
ATOM      6  C05 3C5 d   1     -18.048 -12.095  67.628  0.00  0.00    -0.075 A 
ATOM      7  H8  3C5 d   1     -18.601  -9.583  69.783  0.00  0.00     0.085 H 
ATOM      8  H9  3C5 d   1     -16.342 -13.169  70.343  0.00  0.00     0.084 H 
ATOM      9  H10 3C5 d   1     -16.896 -13.870  68.038  0.00  0.00     0.083 H 
ATOM     10  H11 3C5 d   1     -18.271 -12.393  66.610  0.00  0.00     0.084 H 
ENDROOT
BRANCH   1  11
ATOM     11  C03 3C5 d   1     -19.410 -10.002  67.252  0.00  0.00     0.105 C 
ATOM     12  H6  3C5 d   1     -20.170 -10.630  66.765  0.00  0.00     0.083 H 
ATOM     13  H7  3C5 d   1     -19.903  -9.282  67.921  0.00  0.00     0.083 H 
BRANCH  11  14
ATOM     14  N02 3C5 d   1     -18.718  -9.232  66.194  0.00  0.00    -0.075 N 
ATOM     15  H4  3C5 d   1     -18.425  -9.858  65.461  0.00  0.00     0.277 HD
ATOM     16  H5  3C5 d   1     -19.348  -8.542  65.815  0.00  0.00     0.277 HD
BRANCH  14  17
ATOM     17  C01 3C5 d   1     -17.543  -8.561  66.762  0.00  0.00     0.065 C 
ATOM     18  H1  3C5 d   1     -17.030  -7.990  65.974  0.00  0.00     0.067 H 
ATOM     19  H2  3C5 d   1     -16.855  -9.313  67.175  0.00  0.00     0.067 H 
ATOM     20  H3  3C5 d   1     -17.862  -7.877  67.562  0.00  0.00     0.067 H 
ENDBRANCH  14  17
ENDBRANCH  11  14
ENDBRANCH   1  11
BRANCH   3  21
ATOM     21  C10 3C5 d   1     -17.079 -10.927  71.579  0.00  0.00    -0.008 A 
ATOM     22  C15 3C5 d   1     -16.726  -9.619  71.897  0.00  0.00     0.012 A 
ATOM     23  N14 3C5 d   1     -16.295  -9.217  73.114  0.00  0.00    -0.272 NA
ATOM     24  H12 3C5 d   1     -16.802  -8.871  71.116  0.00  0.00     0.116 H 
ATOM     25  C13 3C5 d   1     -16.240 -10.150  74.078  0.00  0.00     0.002 A 
ATOM     26  C12 3C5 d   1     -16.615 -11.463  73.875  0.00  0.00    -0.065 A 
ATOM     27  H13 3C5 d   1     -15.885  -9.859  75.060  0.00  0.00     0.114 H 
ATOM     28  C11 3C5 d   1     -17.014 -11.842  72.607  0.00  0.00    -0.070 A 
ATOM     29  H14 3C5 d   1     -16.597 -12.178  74.689  0.00  0.00     0.085 H 
ATOM     30  H15 3C5 d   1     -17.280 -12.876  72.418  0.00  0.00     0.085 H 
ENDBRANCH   3  21
TORSDOF 4
