REMARK  3 active torsions:
REMARK  status: ('A' for Active; 'I' for Inactive)
REMARK    1  A    between atoms: C8_7  and  C4_10 
REMARK    2  A    between atoms: C7_8  and  N1_12 
REMARK    3  A    between atoms: C5_9  and  O13_13 
ROOT
ATOM      1  C16 49P d   1     -17.518  -8.949  68.210  0.00  0.00    -0.080 A 
ATOM      2  C15 49P d   1     -17.854 -10.271  68.015  0.00  0.00    -0.068 A 
ATOM      3  C14 49P d   1     -16.974  -8.534  69.415  0.00  0.00    -0.055 A 
ATOM      4  C9  49P d   1     -17.112 -10.774  70.266  0.00  0.00    -0.041 A 
ATOM      5  C8  49P d   1     -17.640 -11.170  69.039  0.00  0.00     0.050 A 
ATOM      6  C7  49P d   1     -16.779  -9.438  70.443  0.00  0.00     0.058 A 
ATOM      7  H1  49P d   1     -17.680  -8.229  67.416  0.00  0.00     0.083 H 
ATOM      8  H2  49P d   1     -18.279 -10.599  67.073  0.00  0.00     0.084 H 
ATOM      9  H3  49P d   1     -16.700  -7.494  69.553  0.00  0.00     0.087 H 
ATOM     10  H4  49P d   1     -16.965 -11.493  71.064  0.00  0.00     0.088 H 
ENDROOT
BRANCH   6  11
ATOM     11  N1  49P d   1     -16.253  -8.952  71.668  0.00  0.00    -0.243 N 
ATOM     12  C3  49P d   1     -15.581  -7.750  71.824  0.00  0.00     0.037 A 
ATOM     13  C5  49P d   1     -15.257  -7.684  73.166  0.00  0.00     0.102 A 
ATOM     14  H6  49P d   1     -15.356  -7.014  71.053  0.00  0.00     0.119 H 
ATOM     15  C6  49P d   1     -15.771  -8.877  73.752  0.00  0.00     0.055 A 
ATOM     16  N2  49P d   1     -16.374  -9.644  72.832  0.00  0.00    -0.177 NA
ATOM     17  H5  49P d   1     -15.685  -9.132  74.807  0.00  0.00     0.121 H 
BRANCH  13  18
ATOM     18  O13 49P d   1     -14.578  -6.674  73.759  0.00  0.00    -0.358 OA
ATOM     19  H7  49P d   1     -14.481  -6.860  74.686  0.00  0.00     0.217 HD
ENDBRANCH  13  18
ENDBRANCH   6  11
BRANCH   5  20
ATOM     20  C4  49P d   1     -18.009 -12.583  68.802  0.00  0.00     0.417 C 
ATOM     21  F10 49P d   1     -17.924 -12.962  67.518  0.00  0.00    -0.166 F 
ATOM     22  F11 49P d   1     -17.247 -13.465  69.505  0.00  0.00    -0.166 F 
ATOM     23  F12 49P d   1     -19.303 -12.825  69.079  0.00  0.00    -0.166 F 
ENDBRANCH   5  20
TORSDOF 3
