REMARK  7 active torsions:
REMARK  status: ('A' for Active; 'I' for Inactive)
REMARK    1  A    between atoms: C8_10  and  C10_13 
REMARK    2  A    between atoms: C7_14  and  C9_11 
REMARK    3  A    between atoms: O4_18  and  C1_12 
REMARK    4  A    between atoms: C10_13  and  C13_15 
REMARK    5  A    between atoms: C7_14  and  O4_18 
REMARK    6  A    between atoms: C13_15  and  C16_16 
REMARK    7  A    between atoms: C16_16  and  O18_17 
ROOT
ATOM      1  C5  49Q d   1     -17.442  -6.531  60.577  0.00  0.00    -0.074 A 
ATOM      2  C6  49Q d   1     -16.171  -4.947  61.884  0.00  0.00    -0.074 A 
ATOM      3  C2  49Q d   1     -16.396  -6.531  59.678  0.00  0.00    -0.050 A 
ATOM      4  C3  49Q d   1     -15.120  -4.937  60.987  0.00  0.00    -0.050 A 
ATOM      5  C8  49Q d   1     -17.309  -5.725  61.681  0.00  0.00    -0.058 A 
ATOM      6  C1  49Q d   1     -15.270  -5.758  59.890  0.00  0.00     0.069 A 
ATOM      7  H6  49Q d   1     -18.326  -7.138  60.420  0.00  0.00     0.084 H 
ATOM      8  H7  49Q d   1     -16.108  -4.330  62.773  0.00  0.00     0.084 H 
ATOM      9  H8  49Q d   1     -16.458  -7.148  58.789  0.00  0.00     0.087 H 
ATOM     10  H9  49Q d   1     -14.238  -4.325  61.136  0.00  0.00     0.087 H 
ENDROOT
BRANCH   6  11
ATOM     11  O4  49Q d   1     -14.339  -5.862  58.892  0.00  0.00    -0.347 OA
BRANCH  11  12
ATOM     12  C7  49Q d   1     -12.983  -6.070  59.309  0.00  0.00     0.050 C 
ATOM     13  H12 49Q d   1     -12.702  -5.408  60.141  0.00  0.00     0.082 H 
ATOM     14  H13 49Q d   1     -12.795  -7.116  59.593  0.00  0.00     0.082 H 
BRANCH  12  15
ATOM     15  C9  49Q d   1     -12.287  -5.701  58.042  0.00  0.00    -0.034 A 
ATOM     16  C11 49Q d   1     -12.682  -6.300  56.859  0.00  0.00    -0.075 A 
ATOM     17  C14 49Q d   1     -12.073  -5.970  55.669  0.00  0.00    -0.082 A 
ATOM     18  H4  49Q d   1     -13.478  -7.036  56.869  0.00  0.00     0.084 H 
ATOM     19  C17 49Q d   1     -11.072  -5.016  55.669  0.00  0.00    -0.083 A 
ATOM     20  H2  49Q d   1     -12.374  -6.451  54.745  0.00  0.00     0.083 H 
ATOM     21  C15 49Q d   1     -10.695  -4.406  56.848  0.00  0.00    -0.082 A 
ATOM     22  H1  49Q d   1     -10.582  -4.747  54.740  0.00  0.00     0.083 H 
ATOM     23  C12 49Q d   1     -11.294  -4.746  58.041  0.00  0.00    -0.075 A 
ATOM     24  H3  49Q d   1      -9.918  -3.650  56.835  0.00  0.00     0.083 H 
ATOM     25  H5  49Q d   1     -10.989  -4.269  58.965  0.00  0.00     0.084 H 
ENDBRANCH  12  15
ENDBRANCH  11  12
ENDBRANCH   6  11
BRANCH   5  26
ATOM     26  C10 49Q d   1     -18.422  -5.728  62.640  0.00  0.00    -0.039 C 
ATOM     27  H10 49Q d   1     -19.333  -6.128  62.171  0.00  0.00     0.040 H 
ATOM     28  H11 49Q d   1     -18.616  -4.709  63.007  0.00  0.00     0.040 H 
BRANCH  26  29
ATOM     29  C13 49Q d   1     -17.976  -6.622  63.773  0.00  0.00    -0.042 C 
ATOM     30  H14 49Q d   1     -18.546  -6.346  64.673  0.00  0.00     0.036 H 
ATOM     31  H15 49Q d   1     -16.905  -6.446  63.949  0.00  0.00     0.036 H 
BRANCH  29  32
ATOM     32  C16 49Q d   1     -18.175  -8.090  63.523  0.00  0.00     0.017 C 
ATOM     33  H16 49Q d   1     -17.522  -8.442  62.711  0.00  0.00     0.073 H 
ATOM     34  H17 49Q d   1     -19.223  -8.306  63.270  0.00  0.00     0.073 H 
BRANCH  32  35
ATOM     35  O18 49Q d   1     -17.815  -8.696  64.766  0.00  0.00    -0.401 OA
ATOM     36  H18 49Q d   1     -17.913  -9.639  64.698  0.00  0.00     0.209 HD
ENDBRANCH  32  35
ENDBRANCH  29  32
ENDBRANCH  26  29
ENDBRANCH   5  26
TORSDOF 7
