REMARK  6 active torsions:
REMARK  status: ('A' for Active; 'I' for Inactive)
REMARK       I    between atoms: C1_7  and  N3_16 
REMARK    1  A    between atoms: O6_18  and  C1_7 
REMARK    2  A    between atoms: N3_16  and  C9_10 
REMARK    3  A    between atoms: C10_14  and  C14_11 
REMARK    4  A    between atoms: C10_14  and  C15_12 
REMARK    5  A    between atoms: C10_14  and  C16_13 
REMARK    6  A    between atoms: C10_14  and  O6_18 
ROOT
ATOM      1  C17 49R d   1     -16.122 -13.357  68.365  0.00  0.00    -0.082 A 
ATOM      2  C18 49R d   1     -17.355 -13.733  68.833  0.00  0.00    -0.081 A 
ATOM      3  C12 49R d   1     -15.965 -12.095  67.844  0.00  0.00    -0.075 A 
ATOM      4  C13 49R d   1     -18.416 -12.862  68.775  0.00  0.00    -0.057 A 
ATOM      5  C5  49R d   1     -17.026 -11.217  67.776  0.00  0.00    -0.030 A 
ATOM      6  C4  49R d   1     -18.255 -11.610  68.245  0.00  0.00     0.034 A 
ATOM      7  C8  49R d   1     -16.823  -9.854  67.185  0.00  0.00    -0.018 C 
ATOM      8  C11 49R d   1     -19.298 -10.182  66.849  0.00  0.00     0.012 C 
ATOM      9  C9  49R d   1     -18.141  -9.218  66.778  0.00  0.00     0.033 C 
ATOM     10  N2  49R d   1     -19.332 -10.738  68.181  0.00  0.00    -0.388 N 
ATOM     11  H1  49R d   1     -15.285 -14.044  68.405  0.00  0.00     0.083 H 
ATOM     12  H2  49R d   1     -17.493 -14.723  69.251  0.00  0.00     0.083 H 
ATOM     13  H3  49R d   1     -14.992 -11.785  67.481  0.00  0.00     0.084 H 
ATOM     14  H4  49R d   1     -19.386 -13.168  69.151  0.00  0.00     0.086 H 
ATOM     15  H5  49R d   1     -16.180  -9.942  66.297  0.00  0.00     0.043 H 
ATOM     16  H6  49R d   1     -16.332  -9.211  67.930  0.00  0.00     0.043 H 
ATOM     17  H7  49R d   1     -19.160 -10.987  66.112  0.00  0.00     0.067 H 
ATOM     18  H8  49R d   1     -20.239  -9.652  66.641  0.00  0.00     0.067 H 
ATOM     19  H9  49R d   1     -18.330  -8.505  67.594  0.00  0.00     0.075 H 
ATOM     20  H19 49R d   1     -20.012 -10.531  68.926  0.00  0.00     0.159 HD
ENDROOT
BRANCH   9  21
ATOM     21  N3  49R d   1     -18.201  -8.377  65.590  0.00  0.00    -0.330 N 
ATOM     22  C1  49R d   1     -17.314  -8.301  64.545  0.00  0.00     0.361 C 
ATOM     23  O7  49R d   1     -16.644  -9.256  64.193  0.00  0.00    -0.238 OA
ATOM     24  H20 49R d   1     -18.996  -7.773  65.527  0.00  0.00     0.165 HD
BRANCH  22  25
ATOM     25  O6  49R d   1     -17.286  -7.014  64.008  0.00  0.00    -0.294 OA
BRANCH  25  26
ATOM     26  C10 49R d   1     -17.269  -6.697  62.579  0.00  0.00     0.061 C 
BRANCH  26  27
ATOM     27  C14 49R d   1     -18.024  -5.398  62.451  0.00  0.00    -0.048 C 
ATOM     28  H10 49R d   1     -18.053  -5.093  61.394  0.00  0.00     0.031 H 
ATOM     29  H11 49R d   1     -17.519  -4.620  63.043  0.00  0.00     0.031 H 
ATOM     30  H12 49R d   1     -19.051  -5.532  62.822  0.00  0.00     0.031 H 
ENDBRANCH  26  27
BRANCH  26  31
ATOM     31  C15 49R d   1     -15.869  -6.470  62.050  0.00  0.00    -0.048 C 
ATOM     32  H13 49R d   1     -15.291  -7.403  62.130  0.00  0.00     0.031 H 
ATOM     33  H14 49R d   1     -15.377  -5.682  62.640  0.00  0.00     0.031 H 
ATOM     34  H15 49R d   1     -15.921  -6.160  60.996  0.00  0.00     0.031 H 
ENDBRANCH  26  31
BRANCH  26  35
ATOM     35  C16 49R d   1     -17.871  -7.722  61.661  0.00  0.00    -0.048 C 
ATOM     36  H16 49R d   1     -18.899  -7.943  61.983  0.00  0.00     0.031 H 
ATOM     37  H17 49R d   1     -17.270  -8.643  61.695  0.00  0.00     0.031 H 
ATOM     38  H18 49R d   1     -17.884  -7.331  60.633  0.00  0.00     0.031 H 
ENDBRANCH  26  35
ENDBRANCH  25  26
ENDBRANCH  22  25
ENDBRANCH   9  21
TORSDOF 6
