REMARK  3 active torsions:
REMARK  status: ('A' for Active; 'I' for Inactive)
REMARK    1  A    between atoms: C1_3  and  C6_7 
REMARK    2  A    between atoms: C7_8  and  C10_4 
REMARK    3  A    between atoms: C7_8  and  N2_10 
ROOT
ATOM      1  C5  4A5 d   1     -16.532 -11.069  71.613  0.00  0.00     0.018 A 
ATOM      2  C4  4A5 d   1     -16.711 -11.120  70.245  0.00  0.00     0.054 A 
ATOM      3  C1  4A5 d   1     -16.371  -9.811  69.824  0.00  0.00     0.077 A 
ATOM      4  N3  4A5 d   1     -16.009  -8.990  70.805  0.00  0.00    -0.175 NA
ATOM      5  N2  4A5 d   1     -16.113  -9.785  71.885  0.00  0.00    -0.269 N 
ATOM      6 BR1  4A5 d   1     -17.280 -12.546  69.086  0.00  0.00    -0.047 Br
ATOM      7  H1  4A5 d   1     -16.689 -11.875  72.328  0.00  0.00     0.116 H 
ENDROOT
BRANCH   3   8
ATOM      8  C6  4A5 d   1     -16.389  -9.314  68.401  0.00  0.00    -0.009 A 
ATOM      9  C8  4A5 d   1     -16.730  -7.882  68.242  0.00  0.00    -0.056 A 
ATOM     10  C9  4A5 d   1     -17.700  -8.946  67.811  0.00  0.00    -0.056 A 
ATOM     11  H2  4A5 d   1     -16.946  -7.266  69.127  0.00  0.00     0.034 H 
ATOM     12  H3  4A5 d   1     -16.210  -7.272  67.488  0.00  0.00     0.034 H 
ATOM     13  H4  4A5 d   1     -17.891  -9.118  66.741  0.00  0.00     0.034 H 
ATOM     14  H5  4A5 d   1     -18.627  -9.111  68.380  0.00  0.00     0.034 H 
ATOM     15  H6  4A5 d   1     -15.609  -9.798  67.794  0.00  0.00     0.049 H 
ENDBRANCH   3   8
BRANCH   5  16
ATOM     16  C7  4A5 d   1     -15.777  -9.199  73.174  0.00  0.00     0.096 C 
ATOM     17  H7  4A5 d   1     -16.658  -9.245  73.831  0.00  0.00     0.084 H 
ATOM     18  H8  4A5 d   1     -14.953  -9.771  73.626  0.00  0.00     0.084 H 
BRANCH  16  19
ATOM     19  C10 4A5 d   1     -15.349  -7.749  73.016  0.00  0.00     0.193 C 
ATOM     20  O12 4A5 d   1     -14.835  -7.243  72.037  0.00  0.00    -0.647 OA
ATOM     21  O13 4A5 d   1     -15.617  -6.993  74.111  0.00  0.00    -0.647 OA
ENDBRANCH  16  19
ENDBRANCH   5  16
TORSDOF 3
