REMARK  6 active torsions:
REMARK  status: ('A' for Active; 'I' for Inactive)
REMARK    1  A    between atoms: C16_17  and  C5_5 
REMARK    2  A    between atoms: C9_6  and  O14_21 
REMARK    3  A    between atoms: C15_18  and  C1_16 
REMARK    4  A    between atoms: N13_20  and  C16_17 
REMARK    5  A    between atoms: C19_19  and  C15_18 
REMARK    6  A    between atoms: C19_19  and  N13_20 
ROOT
ATOM      1  C10 4A0 d   1     -17.833 -11.898  70.577  0.00  0.00    -0.058 C 
ATOM      2  C11 4A0 d   1     -15.706 -11.959  69.348  0.00  0.00    -0.058 C 
ATOM      3  C12 4A0 d   1     -17.598 -13.480  68.722  0.00  0.00    -0.058 C 
ATOM      4  C6  4A0 d   1     -17.190  -9.994  69.036  0.00  0.00    -0.055 C 
ATOM      5  C8  4A0 d   1     -19.008 -11.482  68.410  0.00  0.00    -0.055 C 
ATOM      6  C7  4A0 d   1     -16.897 -11.671  67.167  0.00  0.00    -0.055 C 
ATOM      7  C2  4A0 d   1     -16.693 -11.040  70.040  0.00  0.00    -0.053 C 
ATOM      8  C4  4A0 d   1     -18.559 -12.545  69.411  0.00  0.00    -0.053 C 
ATOM      9  C3  4A0 d   1     -16.409 -12.683  68.196  0.00  0.00    -0.053 C 
ATOM     10  C1  4A0 d   1     -17.830 -10.701  67.849  0.00  0.00    -0.038 C 
ATOM     11  H5  4A0 d   1     -18.534 -11.267  71.143  0.00  0.00     0.034 H 
ATOM     12  H6  4A0 d   1     -17.427 -12.679  71.237  0.00  0.00     0.034 H 
ATOM     13  H7  4A0 d   1     -15.325 -12.698  70.068  0.00  0.00     0.034 H 
ATOM     14  H8  4A0 d   1     -14.868 -11.367  68.952  0.00  0.00     0.034 H 
ATOM     15  H9  4A0 d   1     -18.107 -13.977  67.883  0.00  0.00     0.034 H 
ATOM     16  H10 4A0 d   1     -17.245 -14.237  69.438  0.00  0.00     0.034 H 
ATOM     17  H11 4A0 d   1     -16.342  -9.386  68.688  0.00  0.00     0.034 H 
ATOM     18  H12 4A0 d   1     -17.933  -9.343  69.520  0.00  0.00     0.034 H 
ATOM     19  H13 4A0 d   1     -19.691 -10.783  68.915  0.00  0.00     0.034 H 
ATOM     20  H14 4A0 d   1     -19.536 -11.975  67.580  0.00  0.00     0.034 H 
ATOM     21  H15 4A0 d   1     -17.431 -12.193  66.359  0.00  0.00     0.034 H 
ATOM     22  H16 4A0 d   1     -16.038 -11.126  66.747  0.00  0.00     0.034 H 
ATOM     23  H17 4A0 d   1     -16.200 -10.526  70.878  0.00  0.00     0.040 H 
ATOM     24  H18 4A0 d   1     -19.433 -13.102  69.778  0.00  0.00     0.040 H 
ATOM     25  H19 4A0 d   1     -15.697 -13.371  67.717  0.00  0.00     0.040 H 
ENDROOT
BRANCH  10  26
ATOM     26  C15 4A0 d   1     -18.294  -9.736  66.786  0.00  0.00    -0.035 C 
ATOM     27  H22 4A0 d   1     -19.311  -9.413  67.052  0.00  0.00     0.036 H 
ATOM     28  H23 4A0 d   1     -18.320 -10.281  65.831  0.00  0.00     0.036 H 
BRANCH  26  29
ATOM     29  C19 4A0 d   1     -17.454  -8.485  66.579  0.00  0.00     0.083 C 
ATOM     30  H24 4A0 d   1     -16.421  -8.639  66.923  0.00  0.00     0.075 H 
ATOM     31  H25 4A0 d   1     -17.890  -7.622  67.104  0.00  0.00     0.075 H 
BRANCH  29  32
ATOM     32  N13 4A0 d   1     -17.506  -8.306  65.152  0.00  0.00    -0.071 N 
ATOM     33  H26 4A0 d   1     -16.963  -9.027  64.703  0.00  0.00     0.277 HD
ATOM     34  H27 4A0 d   1     -18.463  -8.363  64.841  0.00  0.00     0.277 HD
BRANCH  32  35
ATOM     35  C16 4A0 d   1     -16.967  -7.016  64.811  0.00  0.00     0.108 C 
ATOM     36  H20 4A0 d   1     -17.303  -6.256  65.531  0.00  0.00     0.083 H 
ATOM     37  H21 4A0 d   1     -15.868  -7.049  64.799  0.00  0.00     0.083 H 
BRANCH  35  38
ATOM     38  C5  4A0 d   1     -17.496  -6.715  63.449  0.00  0.00     0.000 A 
ATOM     39  C17 4A0 d   1     -18.195  -5.554  63.238  0.00  0.00    -0.073 A 
ATOM     40  C20 4A0 d   1     -18.686  -5.280  61.990  0.00  0.00    -0.082 A 
ATOM     41  H3  4A0 d   1     -18.357  -4.859  64.053  0.00  0.00     0.084 H 
ATOM     42  C21 4A0 d   1     -18.492  -6.147  60.938  0.00  0.00    -0.080 A 
ATOM     43  H1  4A0 d   1     -19.239  -4.362  61.827  0.00  0.00     0.083 H 
ATOM     44  C18 4A0 d   1     -17.802  -7.323  61.133  0.00  0.00    -0.050 A 
ATOM     45  H2  4A0 d   1     -18.882  -5.904  59.956  0.00  0.00     0.083 H 
ATOM     46  C9  4A0 d   1     -17.316  -7.588  62.391  0.00  0.00     0.073 A 
ATOM     47  H4  4A0 d   1     -17.647  -8.020  60.317  0.00  0.00     0.087 H 
BRANCH  46  48
ATOM     48  O14 4A0 d   1     -16.617  -8.763  62.584  0.00  0.00    -0.360 OA
ATOM     49  H28 4A0 d   1     -15.734  -8.562  62.872  0.00  0.00     0.217 HD
ENDBRANCH  46  48
ENDBRANCH  35  38
ENDBRANCH  32  35
ENDBRANCH  29  32
ENDBRANCH  26  29
ENDBRANCH  10  26
TORSDOF 6
