REMARK  6 active torsions:
REMARK  status: ('A' for Active; 'I' for Inactive)
REMARK    1  A    between atoms: C12_12  and  C7_7 
REMARK    2  A    between atoms: C3_9  and  C11_11 
REMARK    3  A    between atoms: C10_13  and  C2_10 
REMARK    4  A    between atoms: C15_14  and  C12_12 
REMARK    5  A    between atoms: N9_15  and  C10_13 
REMARK    6  A    between atoms: C15_14  and  N9_15 
ROOT
ATOM      1  C15 49Z d   1     -17.816  -9.324  66.639  0.00  0.00     0.086 C 
ATOM      2  H14 49Z d   1     -16.786  -9.669  66.814  0.00  0.00     0.076 H 
ATOM      3  H15 49Z d   1     -18.046  -8.495  67.324  0.00  0.00     0.076 H 
ENDROOT
BRANCH   1   4
ATOM      4  C12 49Z d   1     -18.772 -10.472  66.923  0.00  0.00    -0.016 C 
ATOM      5  H10 49Z d   1     -19.728 -10.066  67.286  0.00  0.00     0.042 H 
ATOM      6  H11 49Z d   1     -18.943 -11.039  65.996  0.00  0.00     0.042 H 
BRANCH   4   7
ATOM      7  C7  49Z d   1     -18.198 -11.383  67.959  0.00  0.00    -0.018 A 
ATOM      8  C14 49Z d   1     -17.726 -12.630  67.608  0.00  0.00    -0.074 A 
ATOM      9  C16 49Z d   1     -17.203 -13.444  68.586  0.00  0.00    -0.082 A 
ATOM     10  H3  49Z d   1     -17.766 -12.964  66.578  0.00  0.00     0.084 H 
ATOM     11  C17 49Z d   1     -17.135 -13.041  69.904  0.00  0.00    -0.080 A 
ATOM     12  H1  49Z d   1     -16.835 -14.427  68.314  0.00  0.00     0.083 H 
ATOM     13  C13 49Z d   1     -17.598 -11.802  70.279  0.00  0.00    -0.045 A 
ATOM     14  H2  49Z d   1     -16.713 -13.706  70.649  0.00  0.00     0.083 H 
ATOM     15  C6  49Z d   1     -18.130 -10.995  69.289  0.00  0.00     0.122 A 
ATOM     16  H4  49Z d   1     -17.548 -11.470  71.310  0.00  0.00     0.088 H 
ATOM     17  F8  49Z d   1     -18.585  -9.782  69.647  0.00  0.00    -0.206 F 
ENDBRANCH   4   7
ENDBRANCH   1   4
BRANCH   1  18
ATOM     18  N9  49Z d   1     -17.923  -8.842  65.265  0.00  0.00    -0.070 N 
ATOM     19  H16 49Z d   1     -17.524  -9.529  64.645  0.00  0.00     0.277 HD
ATOM     20  H17 49Z d   1     -18.896  -8.710  65.039  0.00  0.00     0.277 HD
BRANCH  18  21
ATOM     21  C10 49Z d   1     -17.221  -7.579  65.086  0.00  0.00     0.111 C 
ATOM     22  H12 49Z d   1     -17.733  -6.798  65.668  0.00  0.00     0.083 H 
ATOM     23  H13 49Z d   1     -16.188  -7.688  65.447  0.00  0.00     0.083 H 
BRANCH  21  24
ATOM     24  C2  49Z d   1     -17.195  -7.181  63.663  0.00  0.00     0.008 A 
ATOM     25  C5  49Z d   1     -16.242  -7.459  62.705  0.00  0.00    -0.068 A 
ATOM     26  C4  49Z d   1     -16.514  -6.928  61.435  0.00  0.00    -0.070 A 
ATOM     27  H6  49Z d   1     -15.349  -8.045  62.918  0.00  0.00     0.085 H 
ATOM     28  C3  49Z d   1     -17.685  -6.220  61.424  0.00  0.00    -0.021 A 
ATOM     29  H5  49Z d   1     -15.872  -7.063  60.565  0.00  0.00     0.085 H 
ATOM     30  S1  49Z d   1     -18.431  -6.206  62.973  0.00  0.00    -0.098 SA
BRANCH  28  31
ATOM     31  C11 49Z d   1     -18.302  -5.533  60.295  0.00  0.00    -0.045 C 
ATOM     32  H7  49Z d   1     -19.240  -5.060  60.622  0.00  0.00     0.034 H 
ATOM     33  H8  49Z d   1     -18.516  -6.259  59.497  0.00  0.00     0.034 H 
ATOM     34  H9  49Z d   1     -17.615  -4.762  59.915  0.00  0.00     0.034 H 
ENDBRANCH  28  31
ENDBRANCH  21  24
ENDBRANCH  18  21
ENDBRANCH   1  18
TORSDOF 6
