REMARK  29 active torsions:
REMARK  status: ('A' for Active; 'I' for Inactive)
REMARK    1  A    between atoms: N_1  and  CA_2 
REMARK    2  A    between atoms: CA_2  and  C_3 
REMARK    3  A    between atoms: CA_2  and  CB_5 
REMARK       I    between atoms: C_3  and  N_12 
REMARK    4  A    between atoms: CB_5  and  CG_6 
REMARK    5  A    between atoms: CG_6  and  CD_7 
REMARK    6  A    between atoms: CD_7  and  NE_8 
REMARK       I    between atoms: NE_8  and  CZ_9 
REMARK       I    between atoms: CZ_9  and  NH1_10 
REMARK    7  A    between atoms: N_12  and  CA_13 
REMARK    8  A    between atoms: CA_13  and  C_14 
REMARK    9  A    between atoms: CA_13  and  CB_16 
REMARK       I    between atoms: C_14  and  N_19 
REMARK   10  A    between atoms: CB_16  and  OG1_17 
REMARK   11  A    between atoms: CB_16  and  CG2_18 
REMARK   12  A    between atoms: CA_20  and  C_21 
REMARK       I    between atoms: C_21  and  N_26 
REMARK   13  A    between atoms: N_26  and  CA_27 
REMARK   14  A    between atoms: CA_27  and  CB_28 
REMARK   15  A    between atoms: CA_27  and  C_30 
REMARK   16  A    between atoms: CB_28  and  OG_29 
REMARK   17  A    between atoms: OG_29  and  P_32 
REMARK       I    between atoms: C_30  and  N_36 
REMARK   18  A    between atoms: N_36  and  CA_37 
REMARK   19  A    between atoms: CA_37  and  C_38 
REMARK   20  A    between atoms: CA_37  and  CB_40 
REMARK       I    between atoms: C_38  and  N_44 
REMARK   21  A    between atoms: CB_40  and  CG_41 
REMARK   22  A    between atoms: CG_41  and  CD1_42 
REMARK   23  A    between atoms: CG_41  and  CD2_43 
REMARK   24  A    between atoms: CA_45  and  C_46 
REMARK       I    between atoms: C_46  and  N_51 
REMARK   25  A    between atoms: N_51  and  CA_52 
REMARK   26  A    between atoms: CA_52  and  C_53 
REMARK   27  A    between atoms: CA_52  and  CB_55 
REMARK   28  A    between atoms: CB_55  and  OG1_56 
REMARK   29  A    between atoms: CB_55  and  CG2_57 
ROOT
ATOM      1  CA  SEP d   1      16.916   9.883  11.305  0.00  0.00     0.110 C 
ATOM      2  H31 SEP d   1      17.524  10.774  11.087  0.00  0.00     0.090 H 
ENDROOT
BRANCH   1   3
ATOM      3  N   SEP d   1      17.376   9.279  12.558  0.00  0.00    -0.344 N 
ATOM      4  C   PRO d   1      18.057   9.977  13.468  0.00  0.00     0.241 C 
ATOM      5  O   PRO d   1      18.325  11.206  13.276  0.00  0.00    -0.271 OA
ATOM      6  H30 SEP d   1      17.174   8.316  12.736  0.00  0.00     0.163 HD
BRANCH   4   7
ATOM      7  CA  PRO d   1      18.410   9.199  14.767  0.00  0.00     0.091 C 
ATOM      8  N   PRO d   1      19.712   9.397  15.391  0.00  0.00    -0.337 N 
ATOM      9  C   THR d   1      20.789   8.932  14.747  0.00  0.00     0.245 C 
ATOM     10  CD  PRO d   1      19.657  10.029  16.720  0.00  0.00    -0.001 C 
ATOM     11  O   THR d   1      20.689   8.355  13.668  0.00  0.00    -0.271 OA
ATOM     12  CG  PRO d   1      18.172  10.310  16.940  0.00  0.00    -0.048 C 
ATOM     13  H28 PRO d   1      20.237  10.964  16.732  0.00  0.00     0.064 H 
ATOM     14  H29 PRO d   1      20.044   9.348  17.492  0.00  0.00     0.064 H 
ATOM     15  CB  PRO d   1      17.411   9.522  15.903  0.00  0.00    -0.036 C 
ATOM     16  H26 PRO d   1      17.874   9.991  17.950  0.00  0.00     0.035 H 
ATOM     17  H27 PRO d   1      17.970  11.385  16.820  0.00  0.00     0.035 H 
ATOM     18  H24 PRO d   1      17.024   8.591  16.343  0.00  0.00     0.036 H 
ATOM     19  H25 PRO d   1      16.574  10.119  15.513  0.00  0.00     0.036 H 
ATOM     20  H23 PRO d   1      18.329   8.132  14.511  0.00  0.00     0.087 H 
BRANCH   9  21
ATOM     21  CA  THR d   1      22.177   9.210  15.391  0.00  0.00     0.114 C 
ATOM     22  H17 THR d   1      22.055   9.593  16.415  0.00  0.00     0.091 H 
BRANCH  21  23
ATOM     23  N   THR d   1      22.952   7.965  15.434  0.00  0.00    -0.344 N 
ATOM     24  C   ARG d   1      22.616   6.983  16.293  0.00  0.00     0.249 C 
ATOM     25  O   ARG d   1      21.675   7.076  17.073  0.00  0.00    -0.271 OA
ATOM     26  H16 THR d   1      23.734   7.845  14.822  0.00  0.00     0.163 HD
BRANCH  24  27
ATOM     27  CA  ARG d   1      23.465   5.710  16.331  0.00  0.00     0.176 C 
ATOM     28  H4  ARG d   1      22.902   4.955  16.899  0.00  0.00     0.099 H 
BRANCH  27  29
ATOM     29  N   ARG d   1      23.717   5.135  14.980  0.00  0.00    -0.067 N 
ATOM     30  H1  ARG d   1      24.278   4.303  15.069  0.00  0.00     0.275 HD
ATOM     31  H2  ARG d   1      24.205   5.811  14.413  0.00  0.00     0.275 HD
ATOM     32  H3  ARG d   1      22.838   4.903  14.544  0.00  0.00     0.275 HD
ENDBRANCH  27  29
BRANCH  27  33
ATOM     33  CB  ARG d   1      24.761   5.992  17.094  0.00  0.00    -0.029 C 
ATOM     34  H5  ARG d   1      25.355   6.721  16.523  0.00  0.00     0.036 H 
ATOM     35  H6  ARG d   1      25.326   5.053  17.188  0.00  0.00     0.036 H 
BRANCH  33  36
ATOM     36  CG  ARG d   1      24.510   6.553  18.490  0.00  0.00    -0.047 C 
ATOM     37  H7  ARG d   1      23.587   7.152  18.483  0.00  0.00     0.035 H 
ATOM     38  H8  ARG d   1      25.357   7.188  18.787  0.00  0.00     0.035 H 
BRANCH  36  39
ATOM     39  CD  ARG d   1      24.364   5.411  19.479  0.00  0.00     0.009 C 
ATOM     40  H9  ARG d   1      25.256   5.386  20.123  0.00  0.00     0.064 H 
ATOM     41  H10 ARG d   1      24.289   4.467  18.919  0.00  0.00     0.064 H 
BRANCH  39  42
ATOM     42  NE  ARG d   1      23.183   5.549  20.322  0.00  0.00    -0.227 N 
ATOM     43  CZ  ARG d   1      22.024   4.927  20.107  0.00  0.00     0.665 C 
ATOM     44  NH1 ARG d   1      21.004   5.122  20.940  0.00  0.00    -0.235 N 
ATOM     45  NH2 ARG d   1      21.881   4.112  19.064  0.00  0.00    -0.235 N 
ATOM     46  H12 ARG d   1      20.107   4.643  20.777  0.00  0.00     0.174 HD
ATOM     47  H13 ARG d   1      21.112   5.752  21.748  0.00  0.00     0.174 HD
ATOM     48  H14 ARG d   1      22.669   3.959  18.418  0.00  0.00     0.174 HD
ATOM     49  H15 ARG d   1      20.983   3.634  18.903  0.00  0.00     0.174 HD
ATOM     50  H11 ARG d   1      23.249   6.170  21.141  0.00  0.00     0.177 HD
ENDBRANCH  39  42
ENDBRANCH  36  39
ENDBRANCH  33  36
ENDBRANCH  27  33
ENDBRANCH  24  27
ENDBRANCH  21  23
BRANCH  21  51
ATOM     51  CB  THR d   1      22.845  10.292  14.501  0.00  0.00     0.060 C 
ATOM     52  H18 THR d   1      22.828   9.933  13.461  0.00  0.00     0.086 H 
BRANCH  51  53
ATOM     53  OG1 THR d   1      24.221  10.507  14.872  0.00  0.00    -0.393 OA
ATOM     54  H19 THR d   1      24.705   9.695  14.773  0.00  0.00     0.210 HD
ENDBRANCH  51  53
BRANCH  51  55
ATOM     55  CG2 THR d   1      22.056  11.599  14.563  0.00  0.00    -0.050 C 
ATOM     56  H20 THR d   1      22.544  12.352  13.927  0.00  0.00     0.031 H 
ATOM     57  H21 THR d   1      22.026  11.960  15.602  0.00  0.00     0.031 H 
ATOM     58  H22 THR d   1      21.030  11.426  14.205  0.00  0.00     0.031 H 
ENDBRANCH  51  55
ENDBRANCH  21  51
ENDBRANCH   9  21
ENDBRANCH   4   7
ENDBRANCH   1   3
BRANCH   1  59
ATOM     59  CB  SEP d   1      17.085   8.866  10.171  0.00  0.00     0.059 C 
ATOM     60  H32 SEP d   1      18.148   8.608  10.053  0.00  0.00     0.079 H 
ATOM     61  H33 SEP d   1      16.703   9.287   9.229  0.00  0.00     0.079 H 
BRANCH  59  62
ATOM     62  OG  SEP d   1      16.324   7.681  10.530  0.00  0.00    -0.280 OA
BRANCH  62  63
ATOM     63  P   SEP d   1      16.574   6.400   9.599  0.00  0.00     0.422 P 
ATOM     64  O1P SEP d   1      16.234   6.771   8.201  0.00  0.00    -0.617 OA
ATOM     65  O2P SEP d   1      15.536   5.439  10.215  0.00  0.00    -0.617 OA
ATOM     66  O3P SEP d   1      18.011   6.029   9.747  0.00  0.00    -0.617 OA
ENDBRANCH  62  63
ENDBRANCH  59  62
ENDBRANCH   1  59
BRANCH   1  67
ATOM     67  C   SEP d   1      15.472  10.292  11.423  0.00  0.00     0.243 C 
ATOM     68  O   SEP d   1      14.867  10.193  12.527  0.00  0.00    -0.271 OA
ATOM     69  N   LEU d   1      14.890  10.811  10.359  0.00  0.00    -0.346 N 
ATOM     70  H34 LEU d   1      15.405  10.884   9.505  0.00  0.00     0.163 HD
BRANCH  69  71
ATOM     71  CA  LEU d   1      13.474  11.293  10.404  0.00  0.00     0.090 C 
ATOM     72  H35 LEU d   1      13.371  12.082  11.164  0.00  0.00     0.087 H 
BRANCH  71  73
ATOM     73  C   LEU d   1      12.498  10.122  10.737  0.00  0.00     0.243 C 
ATOM     74  O   LEU d   1      12.512   9.087  10.110  0.00  0.00    -0.271 OA
ATOM     75  N   PRO d   1      11.724  10.286  11.799  0.00  0.00    -0.337 N 
ATOM     76  CA  PRO d   1      10.789   9.162  12.162  0.00  0.00     0.091 C 
ATOM     77  CD  PRO d   1      11.716  11.402  12.768  0.00  0.00    -0.001 C 
ATOM     78  CB  PRO d   1      10.573   9.413  13.647  0.00  0.00    -0.036 C 
ATOM     79  H45 PRO d   1      11.305   8.202  12.016  0.00  0.00     0.087 H 
ATOM     80  CG  PRO d   1      10.721  10.917  13.807  0.00  0.00    -0.048 C 
ATOM     81  H46 PRO d   1      11.329   8.883  14.245  0.00  0.00     0.036 H 
ATOM     82  H47 PRO d   1       9.568   9.087  13.954  0.00  0.00     0.036 H 
ATOM     83  H48 PRO d   1      11.091  11.151  14.816  0.00  0.00     0.035 H 
ATOM     84  H49 PRO d   1       9.749  11.407  13.650  0.00  0.00     0.035 H 
ATOM     85  H50 PRO d   1      11.377  12.337  12.297  0.00  0.00     0.064 H 
ATOM     86  H51 PRO d   1      12.712  11.554  13.210  0.00  0.00     0.064 H 
BRANCH  76  87
ATOM     87  C   PRO d   1       9.483   9.091  11.378  0.00  0.00     0.241 C 
ATOM     88  O   PRO d   1       8.768   8.041  11.409  0.00  0.00    -0.271 OA
ATOM     89  N   THR d   1       9.169  10.130  10.640  0.00  0.00    -0.343 N 
ATOM     90  H52 THR d   1       9.793  10.911  10.640  0.00  0.00     0.163 HD
BRANCH  89  91
ATOM     91  CA  THR d   1       7.998  10.214   9.842  0.00  0.00     0.120 C 
ATOM     92  H53 THR d   1       7.248   9.479  10.168  0.00  0.00     0.093 H 
BRANCH  91  93
ATOM     93  C   THR d   1       8.433   9.937   8.388  0.00  0.00     0.199 C 
ATOM     94  O   THR d   1       9.627   9.770   8.093  0.00  0.00    -0.646 OA
ATOM     95  OXT THR d   1       7.603   9.872   7.468  0.00  0.00    -0.646 OA
ENDBRANCH  91  93
BRANCH  91  96
ATOM     96  CB  THR d   1       7.432  11.638   9.959  0.00  0.00     0.061 C 
ATOM     97  H54 THR d   1       6.599  11.774   9.254  0.00  0.00     0.086 H 
BRANCH  96  98
ATOM     98  OG1 THR d   1       8.492  12.550   9.675  0.00  0.00    -0.393 OA
ATOM     99  H55 THR d   1       8.168  13.441   9.741  0.00  0.00     0.210 HD
ENDBRANCH  96  98
BRANCH  96 100
ATOM    100  CG2 THR d   1       6.950  11.930  11.439  0.00  0.00    -0.050 C 
ATOM    101  H56 THR d   1       6.550  12.953  11.499  0.00  0.00     0.031 H 
ATOM    102  H57 THR d   1       7.801  11.828  12.129  0.00  0.00     0.031 H 
ATOM    103  H58 THR d   1       6.165  11.212  11.717  0.00  0.00     0.031 H 
ENDBRANCH  96 100
ENDBRANCH  91  96
ENDBRANCH  89  91
ENDBRANCH  76  87
ENDBRANCH  71  73
BRANCH  71 104
ATOM    104  CB  LEU d   1      13.146  11.852   9.014  0.00  0.00    -0.035 C 
ATOM    105  H36 LEU d   1      13.194  11.030   8.285  0.00  0.00     0.037 H 
ATOM    106  H37 LEU d   1      13.896  12.614   8.757  0.00  0.00     0.037 H 
BRANCH 104 107
ATOM    107  CG  LEU d   1      11.745  12.495   8.939  0.00  0.00    -0.059 C 
ATOM    108  H38 LEU d   1      11.005  11.826   9.402  0.00  0.00     0.038 H 
BRANCH 107 109
ATOM    109  CD1 LEU d   1      11.717  13.858   9.636  0.00  0.00    -0.073 C 
ATOM    110  H39 LEU d   1      10.706  14.286   9.563  0.00  0.00     0.028 H 
ATOM    111  H40 LEU d   1      12.437  14.533   9.150  0.00  0.00     0.028 H 
ATOM    112  H41 LEU d   1      11.988  13.734  10.695  0.00  0.00     0.028 H 
ENDBRANCH 107 109
BRANCH 107 113
ATOM    113  CD2 LEU d   1      11.410  12.722   7.459  0.00  0.00    -0.073 C 
ATOM    114  H42 LEU d   1      11.422  11.758   6.928  0.00  0.00     0.028 H 
ATOM    115  H43 LEU d   1      12.157  13.395   7.013  0.00  0.00     0.028 H 
ATOM    116  H44 LEU d   1      10.411  13.175   7.374  0.00  0.00     0.028 H 
ENDBRANCH 107 113
ENDBRANCH 104 107
ENDBRANCH  71 104
ENDBRANCH  69  71
ENDBRANCH   1  67
TORSDOF 29
