REMARK  6 active torsions:
REMARK  status: ('A' for Active; 'I' for Inactive)
REMARK    1  A    between atoms: N_1  and  CA_2 
REMARK    2  A    between atoms: CA_2  and  C_3 
REMARK    3  A    between atoms: CA_2  and  CB_4 
REMARK    4  A    between atoms: C_3  and  OXT_13 
REMARK    5  A    between atoms: CB_4  and  CG_5 
REMARK    6  A    between atoms: OXT_13  and  CM_12 
ROOT
ATOM      1  CB  0A9 d   1       0.369   3.668  10.347  0.00  0.00    -0.006 C 
ATOM      2  H5  0A9 d   1       0.333   4.435  11.135  0.00  0.00     0.043 H 
ATOM      3  H6  0A9 d   1       1.161   2.941  10.579  0.00  0.00     0.043 H 
ENDROOT
BRANCH   1   4
ATOM      4  CA  0A9 d   1       0.750   4.372   9.023  0.00  0.00     0.186 C 
ATOM      5  H4  0A9 d   1       0.629   3.675   8.181  0.00  0.00     0.100 H 
BRANCH   4   6
ATOM      6  N   0A9 d   1       2.170   4.806   9.062  0.00  0.00    -0.066 N 
ATOM      7  H1  0A9 d   1       2.765   3.999   9.162  0.00  0.00     0.275 HD
ATOM      8  H2  0A9 d   1       2.310   5.426   9.844  0.00  0.00     0.275 HD
ATOM      9  H3  0A9 d   1       2.398   5.287   8.206  0.00  0.00     0.275 HD
ENDBRANCH   4   6
BRANCH   4  10
ATOM     10  C   0A9 d   1      -0.250   5.509   8.873  0.00  0.00     0.289 C 
ATOM     11  O   0A9 d   1      -0.137   6.584   9.393  0.00  0.00    -0.263 OA
BRANCH  10  12
ATOM     12  OXT 0A9 d   1      -1.254   5.173   8.071  0.00  0.00    -0.325 OA
BRANCH  12  13
ATOM     13  CM  0A9 d   1      -2.194   6.226   7.756  0.00  0.00     0.013 C 
ATOM     14  H12 0A9 d   1      -2.976   5.832   7.090  0.00  0.00     0.067 H 
ATOM     15  H13 0A9 d   1      -1.666   7.051   7.255  0.00  0.00     0.067 H 
ATOM     16  H14 0A9 d   1      -2.655   6.596   8.684  0.00  0.00     0.067 H 
ENDBRANCH  12  13
ENDBRANCH  10  12
ENDBRANCH   4  10
ENDBRANCH   1   4
BRANCH   1  17
ATOM     17  CG  0A9 d   1      -0.948   2.932  10.364  0.00  0.00    -0.056 A 
ATOM     18  CD1 0A9 d   1      -1.033   1.616   9.936  0.00  0.00    -0.077 A 
ATOM     19  CE1 0A9 d   1      -2.215   0.906  10.046  0.00  0.00    -0.082 A 
ATOM     20  H7  0A9 d   1      -0.160   1.136   9.509  0.00  0.00     0.084 H 
ATOM     21  CZ  0A9 d   1      -3.334   1.502  10.587  0.00  0.00    -0.083 A 
ATOM     22  H9  0A9 d   1      -2.261  -0.122   9.706  0.00  0.00     0.083 H 
ATOM     23  CE2 0A9 d   1      -3.270   2.813  11.006  0.00  0.00    -0.082 A 
ATOM     24  H11 0A9 d   1      -4.258   0.943  10.682  0.00  0.00     0.083 H 
ATOM     25  CD2 0A9 d   1      -2.088   3.524  10.891  0.00  0.00    -0.077 A 
ATOM     26  H10 0A9 d   1      -4.148   3.289  11.427  0.00  0.00     0.083 H 
ATOM     27  H8  0A9 d   1      -2.052   4.557  11.217  0.00  0.00     0.084 H 
ENDBRANCH   1  17
TORSDOF 6
