REMARK  29 active torsions:
REMARK  status: ('A' for Active; 'I' for Inactive)
REMARK    1  A    between atoms: N_1  and  CA_2 
REMARK    2  A    between atoms: CA_2  and  C_3 
REMARK    3  A    between atoms: CA_2  and  CB_5 
REMARK       I    between atoms: C_3  and  N_12 
REMARK    4  A    between atoms: CB_5  and  CG_6 
REMARK    5  A    between atoms: CG_6  and  CD_7 
REMARK    6  A    between atoms: CD_7  and  NE_8 
REMARK       I    between atoms: NE_8  and  CZ_9 
REMARK       I    between atoms: CZ_9  and  NH1_10 
REMARK    7  A    between atoms: N_12  and  CA_13 
REMARK    8  A    between atoms: CA_13  and  C_14 
REMARK    9  A    between atoms: CA_13  and  CB_16 
REMARK       I    between atoms: C_14  and  N_19 
REMARK   10  A    between atoms: CB_16  and  OG1_17 
REMARK   11  A    between atoms: CB_16  and  CG2_18 
REMARK   12  A    between atoms: CA_20  and  C_21 
REMARK       I    between atoms: C_21  and  N_26 
REMARK   13  A    between atoms: N_26  and  CA_27 
REMARK   14  A    between atoms: CA_27  and  CB_28 
REMARK   15  A    between atoms: CA_27  and  C_30 
REMARK   16  A    between atoms: CB_28  and  OG_29 
REMARK   17  A    between atoms: OG_29  and  P_32 
REMARK       I    between atoms: C_30  and  N_36 
REMARK   18  A    between atoms: N_36  and  CA_37 
REMARK   19  A    between atoms: CA_37  and  C_38 
REMARK   20  A    between atoms: CA_37  and  CB_40 
REMARK       I    between atoms: C_38  and  N_44 
REMARK   21  A    between atoms: CB_40  and  CG_41 
REMARK   22  A    between atoms: CG_41  and  CD1_42 
REMARK   23  A    between atoms: CG_41  and  CD2_43 
REMARK   24  A    between atoms: CA_45  and  C_46 
REMARK       I    between atoms: C_46  and  N_51 
REMARK   25  A    between atoms: N_51  and  CA_52 
REMARK   26  A    between atoms: CA_52  and  C_53 
REMARK   27  A    between atoms: CA_52  and  CB_55 
REMARK   28  A    between atoms: CB_55  and  OG1_56 
REMARK   29  A    between atoms: CB_55  and  CG2_57 
ROOT
ATOM      1  CA  SEP d   1      16.934   9.875  11.308  0.00  0.00     0.110 C 
ATOM      2  H31 SEP d   1      17.552  10.755  11.078  0.00  0.00     0.090 H 
ENDROOT
BRANCH   1   3
ATOM      3  N   SEP d   1      17.392   9.270  12.553  0.00  0.00    -0.344 N 
ATOM      4  C   PRO d   1      18.051   9.960  13.476  0.00  0.00     0.241 C 
ATOM      5  O   PRO d   1      18.352  11.150  13.328  0.00  0.00    -0.271 OA
ATOM      6  H30 SEP d   1      17.203   8.302  12.717  0.00  0.00     0.163 HD
BRANCH   4   7
ATOM      7  CA  PRO d   1      18.381   9.183  14.761  0.00  0.00     0.091 C 
ATOM      8  N   PRO d   1      19.715   9.426  15.327  0.00  0.00    -0.337 N 
ATOM      9  C   THR d   1      20.800   8.955  14.696  0.00  0.00     0.245 C 
ATOM     10  CD  PRO d   1      19.656  10.034  16.668  0.00  0.00    -0.001 C 
ATOM     11  O   THR d   1      20.732   8.357  13.625  0.00  0.00    -0.271 OA
ATOM     12  CG  PRO d   1      18.235  10.504  16.770  0.00  0.00    -0.048 C 
ATOM     13  H28 PRO d   1      20.357  10.878  16.750  0.00  0.00     0.064 H 
ATOM     14  H29 PRO d   1      19.883   9.292  17.448  0.00  0.00     0.064 H 
ATOM     15  CB  PRO d   1      17.436   9.600  15.899  0.00  0.00    -0.036 C 
ATOM     16  H26 PRO d   1      17.885  10.438  17.811  0.00  0.00     0.035 H 
ATOM     17  H27 PRO d   1      18.151  11.543  16.420  0.00  0.00     0.035 H 
ATOM     18  H24 PRO d   1      17.103   8.717  16.465  0.00  0.00     0.036 H 
ATOM     19  H25 PRO d   1      16.560  10.130  15.496  0.00  0.00     0.036 H 
ATOM     20  H23 PRO d   1      18.269   8.110  14.545  0.00  0.00     0.087 H 
BRANCH   9  21
ATOM     21  CA  THR d   1      22.158   9.190  15.351  0.00  0.00     0.114 C 
ATOM     22  H17 THR d   1      22.012   9.595  16.363  0.00  0.00     0.091 H 
BRANCH  21  23
ATOM     23  N   THR d   1      22.874   7.916  15.461  0.00  0.00    -0.344 N 
ATOM     24  C   ARG d   1      22.388   6.924  16.212  0.00  0.00     0.249 C 
ATOM     25  O   ARG d   1      21.425   7.070  16.964  0.00  0.00    -0.271 OA
ATOM     26  H16 THR d   1      23.735   7.788  14.969  0.00  0.00     0.163 HD
BRANCH  24  27
ATOM     27  CA  ARG d   1      23.089   5.569  16.129  0.00  0.00     0.176 C 
ATOM     28  H4  ARG d   1      22.343   4.786  16.328  0.00  0.00     0.099 H 
BRANCH  27  29
ATOM     29  N   ARG d   1      23.640   5.340  14.800  0.00  0.00    -0.067 N 
ATOM     30  H1  ARG d   1      24.095   4.441  14.775  0.00  0.00     0.275 HD
ATOM     31  H2  ARG d   1      24.310   6.062  14.585  0.00  0.00     0.275 HD
ATOM     32  H3  ARG d   1      22.896   5.359  14.120  0.00  0.00     0.275 HD
ENDBRANCH  27  29
BRANCH  27  33
ATOM     33  CB  ARG d   1      24.186   5.468  17.195  0.00  0.00    -0.029 C 
ATOM     34  H5  ARG d   1      24.945   6.236  16.985  0.00  0.00     0.036 H 
ATOM     35  H6  ARG d   1      24.645   4.471  17.127  0.00  0.00     0.036 H 
BRANCH  33  36
ATOM     36  CG  ARG d   1      23.683   5.668  18.616  0.00  0.00    -0.047 C 
ATOM     37  H7  ARG d   1      22.875   4.948  18.811  0.00  0.00     0.035 H 
ATOM     38  H8  ARG d   1      23.293   6.692  18.713  0.00  0.00     0.035 H 
BRANCH  36  39
ATOM     39  CD  ARG d   1      24.782   5.462  19.646  0.00  0.00     0.009 C 
ATOM     40  H9  ARG d   1      25.581   6.196  19.465  0.00  0.00     0.064 H 
ATOM     41  H10 ARG d   1      25.186   4.445  19.536  0.00  0.00     0.064 H 
BRANCH  39  42
ATOM     42  NE  ARG d   1      24.286   5.629  21.010  0.00  0.00    -0.227 N 
ATOM     43  CZ  ARG d   1      24.982   5.326  22.102  0.00  0.00     0.665 C 
ATOM     44  NH1 ARG d   1      24.450   5.512  23.304  0.00  0.00    -0.235 N 
ATOM     45  NH2 ARG d   1      26.210   4.835  21.993  0.00  0.00    -0.235 N 
ATOM     46  H12 ARG d   1      24.991   5.277  24.148  0.00  0.00     0.174 HD
ATOM     47  H13 ARG d   1      23.497   5.892  23.392  0.00  0.00     0.174 HD
ATOM     48  H14 ARG d   1      26.626   4.689  21.062  0.00  0.00     0.174 HD
ATOM     49  H15 ARG d   1      26.747   4.599  22.840  0.00  0.00     0.174 HD
ATOM     50  H11 ARG d   1      23.335   6.006  21.134  0.00  0.00     0.177 HD
ENDBRANCH  39  42
ENDBRANCH  36  39
ENDBRANCH  33  36
ENDBRANCH  27  33
ENDBRANCH  24  27
ENDBRANCH  21  23
BRANCH  21  51
ATOM     51  CB  THR d   1      22.913  10.235  14.502  0.00  0.00     0.060 C 
ATOM     52  H18 THR d   1      23.020   9.852  13.476  0.00  0.00     0.086 H 
BRANCH  51  53
ATOM     53  OG1 THR d   1      24.215  10.478  15.047  0.00  0.00    -0.393 OA
ATOM     54  H19 THR d   1      24.711   9.668  15.053  0.00  0.00     0.210 HD
ENDBRANCH  51  53
BRANCH  51  55
ATOM     55  CG2 THR d   1      22.126  11.539  14.470  0.00  0.00    -0.050 C 
ATOM     56  H20 THR d   1      22.668  12.280  13.864  0.00  0.00     0.031 H 
ATOM     57  H21 THR d   1      22.006  11.920  15.495  0.00  0.00     0.031 H 
ATOM     58  H22 THR d   1      21.135  11.358  14.028  0.00  0.00     0.031 H 
ENDBRANCH  51  55
ENDBRANCH  21  51
ENDBRANCH   9  21
ENDBRANCH   4   7
ENDBRANCH   1   3
BRANCH   1  59
ATOM     59  CB  SEP d   1      17.060   8.854  10.176  0.00  0.00     0.059 C 
ATOM     60  H32 SEP d   1      18.117   8.587  10.030  0.00  0.00     0.079 H 
ATOM     61  H33 SEP d   1      16.656   9.277   9.244  0.00  0.00     0.079 H 
BRANCH  59  62
ATOM     62  OG  SEP d   1      16.318   7.701  10.543  0.00  0.00    -0.280 OA
BRANCH  62  63
ATOM     63  P   SEP d   1      16.568   6.421   9.603  0.00  0.00     0.422 P 
ATOM     64  O1P SEP d   1      16.192   6.771   8.092  0.00  0.00    -0.617 OA
ATOM     65  O2P SEP d   1      15.521   5.352  10.191  0.00  0.00    -0.617 OA
ATOM     66  O3P SEP d   1      18.093   5.977   9.735  0.00  0.00    -0.617 OA
ENDBRANCH  62  63
ENDBRANCH  59  62
ENDBRANCH   1  59
BRANCH   1  67
ATOM     67  C   SEP d   1      15.475  10.305  11.458  0.00  0.00     0.243 C 
ATOM     68  O   SEP d   1      14.882  10.180  12.537  0.00  0.00    -0.271 OA
ATOM     69  N   LEU d   1      14.893  10.806  10.377  0.00  0.00    -0.346 N 
ATOM     70  H34 LEU d   1      15.423  10.890   9.533  0.00  0.00     0.163 HD
BRANCH  69  71
ATOM     71  CA  LEU d   1      13.490  11.241  10.386  0.00  0.00     0.090 C 
ATOM     72  H35 LEU d   1      13.373  12.025  11.149  0.00  0.00     0.087 H 
BRANCH  71  73
ATOM     73  C   LEU d   1      12.541  10.078  10.740  0.00  0.00     0.243 C 
ATOM     74  O   LEU d   1      12.552   9.039  10.084  0.00  0.00    -0.271 OA
ATOM     75  N   PRO d   1      11.737  10.240  11.804  0.00  0.00    -0.337 N 
ATOM     76  CA  PRO d   1      10.856   9.136  12.239  0.00  0.00     0.091 C 
ATOM     77  CD  PRO d   1      11.710  11.381  12.737  0.00  0.00    -0.001 C 
ATOM     78  CB  PRO d   1      10.579   9.471  13.704  0.00  0.00    -0.036 C 
ATOM     79  H45 PRO d   1      11.380   8.172  12.153  0.00  0.00     0.087 H 
ATOM     80  CG  PRO d   1      10.675  10.970  13.769  0.00  0.00    -0.048 C 
ATOM     81  H46 PRO d   1      11.329   9.004  14.359  0.00  0.00     0.036 H 
ATOM     82  H47 PRO d   1       9.575   9.132  13.998  0.00  0.00     0.036 H 
ATOM     83  H48 PRO d   1      10.993  11.287  14.773  0.00  0.00     0.035 H 
ATOM     84  H49 PRO d   1       9.701  11.424  13.532  0.00  0.00     0.035 H 
ATOM     85  H50 PRO d   1      11.406  12.304  12.221  0.00  0.00     0.064 H 
ATOM     86  H51 PRO d   1      12.694  11.530  13.205  0.00  0.00     0.064 H 
BRANCH  76  87
ATOM     87  C   PRO d   1       9.570   9.064  11.443  0.00  0.00     0.241 C 
ATOM     88  O   PRO d   1       8.853   8.058  11.434  0.00  0.00    -0.271 OA
ATOM     89  N   THR d   1       9.278  10.164  10.781  0.00  0.00    -0.343 N 
ATOM     90  H52 THR d   1       9.824  10.985  10.945  0.00  0.00     0.163 HD
BRANCH  89  91
ATOM     91  CA  THR d   1       8.211  10.225   9.839  0.00  0.00     0.120 C 
ATOM     92  H53 THR d   1       7.471   9.442  10.061  0.00  0.00     0.093 H 
BRANCH  91  93
ATOM     93  C   THR d   1       8.863   9.951   8.488  0.00  0.00     0.199 C 
ATOM     94  O   THR d   1      10.081   9.949   8.347  0.00  0.00    -0.646 OA
ATOM     95  OXT THR d   1       8.197   9.721   7.484  0.00  0.00    -0.646 OA
ENDBRANCH  91  93
BRANCH  91  96
ATOM     96  CB  THR d   1       7.503  11.585   9.874  0.00  0.00     0.061 C 
ATOM     97  H54 THR d   1       6.713  11.613   9.109  0.00  0.00     0.086 H 
BRANCH  96  98
ATOM     98  OG1 THR d   1       8.463  12.611   9.630  0.00  0.00    -0.393 OA
ATOM     99  H55 THR d   1       8.032  13.457   9.650  0.00  0.00     0.210 HD
ENDBRANCH  96  98
BRANCH  96 100
ATOM    100  CG2 THR d   1       6.903  11.827  11.251  0.00  0.00    -0.050 C 
ATOM    101  H56 THR d   1       6.398  12.804  11.264  0.00  0.00     0.031 H 
ATOM    102  H57 THR d   1       7.703  11.817  12.006  0.00  0.00     0.031 H 
ATOM    103  H58 THR d   1       6.174  11.035  11.478  0.00  0.00     0.031 H 
ENDBRANCH  96 100
ENDBRANCH  91  96
ENDBRANCH  89  91
ENDBRANCH  76  87
ENDBRANCH  71  73
BRANCH  71 104
ATOM    104  CB  LEU d   1      13.130  11.833   9.017  0.00  0.00    -0.035 C 
ATOM    105  H36 LEU d   1      13.130  11.005   8.293  0.00  0.00     0.037 H 
ATOM    106  H37 LEU d   1      13.921  12.550   8.753  0.00  0.00     0.037 H 
BRANCH 104 107
ATOM    107  CG  LEU d   1      11.791  12.561   8.874  0.00  0.00    -0.059 C 
ATOM    108  H38 LEU d   1      11.005  11.923   9.304  0.00  0.00     0.038 H 
BRANCH 107 109
ATOM    109  CD1 LEU d   1      11.795  13.886   9.629  0.00  0.00    -0.073 C 
ATOM    110  H39 LEU d   1      10.821  14.381   9.505  0.00  0.00     0.028 H 
ATOM    111  H40 LEU d   1      12.589  14.534   9.229  0.00  0.00     0.028 H 
ATOM    112  H41 LEU d   1      11.978  13.699  10.697  0.00  0.00     0.028 H 
ENDBRANCH 107 109
BRANCH 107 113
ATOM    113  CD2 LEU d   1      11.470  12.795   7.399  0.00  0.00    -0.073 C 
ATOM    114  H42 LEU d   1      11.470  11.832   6.867  0.00  0.00     0.028 H 
ATOM    115  H43 LEU d   1      12.230  13.458   6.959  0.00  0.00     0.028 H 
ATOM    116  H44 LEU d   1      10.479  13.263   7.309  0.00  0.00     0.028 H 
ENDBRANCH 107 113
ENDBRANCH 104 107
ENDBRANCH  71 104
ENDBRANCH  69  71
ENDBRANCH   1  67
TORSDOF 29
