REMARK  7 active torsions:
REMARK  status: ('A' for Active; 'I' for Inactive)
REMARK    1  A    between atoms: C11_2  and  N14_24 
REMARK    2  A    between atoms: N23_28  and  C24_9 
REMARK    3  A    between atoms: N14_24  and  C15_14 
REMARK    4  A    between atoms: C02_16  and  C01_15 
REMARK    5  A    between atoms: C02_16  and  C03_17 
REMARK    6  A    between atoms: N04_18  and  C02_16 
REMARK       I    between atoms: C05_19  and  N04_18 
REMARK       I    between atoms: N07_21  and  C05_19 
REMARK    7  A    between atoms: N07_21  and  C08_22 
ROOT
ATOM      1  C10 4F2 d   1       2.284 -30.382 -29.693  0.00  0.00    -0.044 C 
ATOM      2  C11 4F2 d   1       2.294 -30.510 -31.200  0.00  0.00     0.026 C 
ATOM      3  C12 4F2 d   1       1.397 -31.720 -31.579  0.00  0.00    -0.044 C 
ATOM      4  C13 4F2 d   1       0.005 -31.710 -30.961  0.00  0.00    -0.044 C 
ATOM      5  C08 4F2 d   1      -0.017 -31.391 -29.448  0.00  0.00     0.014 C 
ATOM      6  C09 4F2 d   1       0.921 -30.211 -29.121  0.00  0.00    -0.044 C 
ATOM      7  H1  4F2 d   1       2.891 -29.508 -29.414  0.00  0.00     0.036 H 
ATOM      8  H2  4F2 d   1       2.730 -31.291 -29.263  0.00  0.00     0.036 H 
ATOM      9  H3  4F2 d   1       1.835 -29.608 -31.630  0.00  0.00     0.073 H 
ATOM     10  H4  4F2 d   1       1.908 -32.638 -31.254  0.00  0.00     0.036 H 
ATOM     11  H5  4F2 d   1       1.284 -31.731 -32.673  0.00  0.00     0.036 H 
ATOM     12  H6  4F2 d   1      -0.446 -32.702 -31.110  0.00  0.00     0.036 H 
ATOM     13  H7  4F2 d   1      -0.598 -30.951 -31.482  0.00  0.00     0.036 H 
ATOM     14  H26 4F2 d   1       0.366 -32.284 -28.932  0.00  0.00     0.072 H 
ATOM     15  H27 4F2 d   1       0.481 -29.289 -29.530  0.00  0.00     0.036 H 
ATOM     16  H28 4F2 d   1       1.007 -30.123 -28.028  0.00  0.00     0.036 H 
ENDROOT
BRANCH   2  17
ATOM     17  N14 4F2 d   1       3.683 -30.575 -31.710  0.00  0.00    -0.218 N 
ATOM     18  H29 4F2 d   1       4.095 -31.512 -31.827  0.00  0.00     0.178 HD
BRANCH  17  19
ATOM     19  C15 4F2 d   1       4.486 -29.484 -32.047  0.00  0.00     0.724 A 
ATOM     20  N16 4F2 d   1       5.743 -29.692 -32.588  0.00  0.00    -0.074 NA
ATOM     21  C17 4F2 d   1       6.441 -28.617 -32.946  0.00  0.00     0.035 A 
ATOM     22  C18 4F2 d   1       6.039 -27.317 -32.817  0.00  0.00     0.029 A 
ATOM     23  H30 4F2 d   1       7.419 -28.788 -33.380  0.00  0.00     0.117 H 
ATOM     24  C19 4F2 d   1       6.778 -26.173 -33.165  0.00  0.00    -0.063 A 
ATOM     25  C29 4F2 d   1       4.749 -27.124 -32.255  0.00  0.00     0.164 A 
ATOM     26  C20 4F2 d   1       6.320 -24.907 -32.982  0.00  0.00    -0.016 A 
ATOM     27  H8  4F2 d   1       7.766 -26.308 -33.603  0.00  0.00     0.085 H 
ATOM     28  C21 4F2 d   1       4.995 -24.618 -32.406  0.00  0.00     0.249 A 
ATOM     29  H9  4F2 d   1       6.957 -24.073 -33.273  0.00  0.00     0.092 H 
ATOM     30  O22 4F2 d   1       4.594 -23.474 -32.252  0.00  0.00    -0.268 OA
ATOM     31  N23 4F2 d   1       4.262 -25.807 -32.076  0.00  0.00    -0.293 N 
ATOM     32  N30 4F2 d   1       4.013 -28.208 -31.893  0.00  0.00    -0.044 NA
BRANCH  31  33
ATOM     33  C24 4F2 d   1       2.928 -25.544 -31.410  0.00  0.00     0.021 C 
ATOM     34  C25 4F2 d   1       2.972 -25.875 -29.873  0.00  0.00    -0.045 C 
ATOM     35  C26 4F2 d   1       1.776 -26.724 -29.480  0.00  0.00    -0.063 C 
ATOM     36  H11 4F2 d   1       2.954 -24.936 -29.299  0.00  0.00     0.036 H 
ATOM     37  H12 4F2 d   1       3.897 -26.425 -29.647  0.00  0.00     0.036 H 
ATOM     38  C27 4F2 d   1       0.815 -26.370 -30.598  0.00  0.00    -0.063 C 
ATOM     39  H13 4F2 d   1       1.379 -26.437 -28.495  0.00  0.00     0.033 H 
ATOM     40  H14 4F2 d   1       2.021 -27.796 -29.478  0.00  0.00     0.033 H 
ATOM     41  C28 4F2 d   1       1.692 -26.276 -31.847  0.00  0.00    -0.045 C 
ATOM     42  H31 4F2 d   1       0.323 -25.407 -30.396  0.00  0.00     0.033 H 
ATOM     43  H32 4F2 d   1       0.053 -27.154 -30.717  0.00  0.00     0.033 H 
ATOM     44  H15 4F2 d   1       1.949 -27.281 -32.214  0.00  0.00     0.036 H 
ATOM     45  H16 4F2 d   1       1.174 -25.717 -32.640  0.00  0.00     0.036 H 
ATOM     46  H10 4F2 d   1       2.738 -24.469 -31.545  0.00  0.00     0.073 H 
ENDBRANCH  31  33
ENDBRANCH  17  19
ENDBRANCH   2  17
BRANCH   5  47
ATOM     47  N07 4F2 d   1      -1.360 -31.096 -28.875  0.00  0.00    -0.339 N 
ATOM     48  C05 4F2 d   1      -2.367 -32.066 -28.655  0.00  0.00     0.316 C 
ATOM     49  N04 4F2 d   1      -2.123 -33.461 -29.041  0.00  0.00    -0.339 N 
ATOM     50  O06 4F2 d   1      -3.434 -31.707 -28.158  0.00  0.00    -0.247 OA
ATOM     51  H24 4F2 d   1      -1.231 -33.668 -29.443  0.00  0.00     0.164 HD
ATOM     52  H25 4F2 d   1      -1.564 -30.148 -28.629  0.00  0.00     0.164 HD
BRANCH  49  53
ATOM     53  C02 4F2 d   1      -3.070 -34.595 -28.893  0.00  0.00     0.007 C 
ATOM     54  H20 4F2 d   1      -3.074 -34.881 -27.831  0.00  0.00     0.071 H 
BRANCH  53  55
ATOM     55  C01 4F2 d   1      -2.542 -35.789 -29.739  0.00  0.00    -0.058 C 
ATOM     56  H17 4F2 d   1      -3.232 -36.640 -29.642  0.00  0.00     0.030 H 
ATOM     57  H18 4F2 d   1      -1.545 -36.082 -29.378  0.00  0.00     0.030 H 
ATOM     58  H19 4F2 d   1      -2.476 -35.489 -30.795  0.00  0.00     0.030 H 
ENDBRANCH  53  55
BRANCH  53  59
ATOM     59  C03 4F2 d   1      -4.557 -34.330 -29.312  0.00  0.00    -0.058 C 
ATOM     60  H21 4F2 d   1      -4.958 -33.488 -28.728  0.00  0.00     0.030 H 
ATOM     61  H22 4F2 d   1      -5.159 -35.230 -29.118  0.00  0.00     0.030 H 
ATOM     62  H23 4F2 d   1      -4.598 -34.086 -30.384  0.00  0.00     0.030 H 
ENDBRANCH  53  59
ENDBRANCH  49  53
ENDBRANCH   5  47
TORSDOF 7
