REMARK  6 active torsions:
REMARK  status: ('A' for Active; 'I' for Inactive)
REMARK    1  A    between atoms: N_1  and  CA_2 
REMARK    2  A    between atoms: CA_2  and  CB_3 
REMARK    3  A    between atoms: CA_2  and  C_5 
REMARK    4  A    between atoms: CB_3  and  CG_4 
REMARK    5  A    between atoms: CG_4  and  OD_6 
REMARK    6  A    between atoms: OD_6  and  NE_7 
REMARK       I    between atoms: NE_7  and  CZ_8 
REMARK       I    between atoms: CZ_8  and  NH1_9 
ROOT
ATOM      1  CG  GGB d   1      -1.523   2.735  10.029  0.00  0.00     0.048 C 
ATOM      2  H7  GGB d   1      -1.935   3.625   9.531  0.00  0.00     0.078 H 
ATOM      3  H8  GGB d   1      -1.166   2.023   9.271  0.00  0.00     0.078 H 
ENDROOT
BRANCH   1   4
ATOM      4  CB  GGB d   1      -2.569   2.091  10.904  0.00  0.00    -0.007 C 
ATOM      5  H5  GGB d   1      -2.927   1.144  10.473  0.00  0.00     0.040 H 
ATOM      6  H6  GGB d   1      -2.188   1.911  11.920  0.00  0.00     0.040 H 
BRANCH   4   7
ATOM      7  CA  GGB d   1      -3.657   3.150  10.898  0.00  0.00     0.184 C 
ATOM      8  H4  GGB d   1      -3.315   4.030  11.462  0.00  0.00     0.101 H 
BRANCH   7   9
ATOM      9  N   GGB d   1      -4.918   2.654  11.481  0.00  0.00    -0.065 N 
ATOM     10  H1  GGB d   1      -4.766   2.400  12.444  0.00  0.00     0.275 HD
ATOM     11  H2  GGB d   1      -5.232   1.846  10.966  0.00  0.00     0.275 HD
ATOM     12  H3  GGB d   1      -5.619   3.377  11.431  0.00  0.00     0.275 HD
ENDBRANCH   7   9
BRANCH   7  13
ATOM     13  C   GGB d   1      -3.931   3.528   9.427  0.00  0.00     0.204 C 
ATOM     14  OA1 GGB d   1      -4.663   2.861   8.725  0.00  0.00    -0.646 OA
ATOM     15  OA2 GGB d   1      -3.291   4.605   9.014  0.00  0.00    -0.646 OA
ENDBRANCH   7  13
ENDBRANCH   4   7
ENDBRANCH   1   4
BRANCH   1  16
ATOM     16  OD  GGB d   1      -0.456   3.104  10.908  0.00  0.00    -0.266 OA
BRANCH  16  17
ATOM     17  NE  GGB d   1       0.634   3.849  10.416  0.00  0.00    -0.097 N 
ATOM     18  CZ  GGB d   1       0.766   4.592   9.319  0.00  0.00     0.689 C 
ATOM     19  NH1 GGB d   1      -0.301   5.049   8.654  0.00  0.00    -0.233 N 
ATOM     20  NH2 GGB d   1       1.977   4.834   8.815  0.00  0.00    -0.233 N 
ATOM     21  H10 GGB d   1      -0.174   5.622   7.808  0.00  0.00     0.174 HD
ATOM     22  H11 GGB d   1      -1.250   4.828   8.988  0.00  0.00     0.174 HD
ATOM     23  H12 GGB d   1       2.816   4.494   9.306  0.00  0.00     0.174 HD
ATOM     24  H13 GGB d   1       2.073   5.361   7.935  0.00  0.00     0.174 HD
ATOM     25  H9  GGB d   1       1.476   3.812  11.008  0.00  0.00     0.213 HD
ENDBRANCH  16  17
ENDBRANCH   1  16
TORSDOF 6
