REMARK  3 active torsions:
REMARK  status: ('A' for Active; 'I' for Inactive)
REMARK    1  A    between atoms: N_1  and  CA_2 
REMARK    2  A    between atoms: CA_2  and  CB_3 
REMARK    3  A    between atoms: CA_2  and  C_4 
ROOT
ATOM      1  CA  DAL d   1      15.229  -8.618  10.708  0.00  0.00     0.179 C 
ATOM      2  H4  DAL d   1      16.150  -9.146  10.997  0.00  0.00     0.100 H 
ENDROOT
BRANCH   1   3
ATOM      3  N   DAL d   1      15.350  -7.206  11.085  0.00  0.00    -0.066 N 
ATOM      4  H1  DAL d   1      16.130  -6.794  10.597  0.00  0.00     0.275 HD
ATOM      5  H2  DAL d   1      15.500  -7.135  12.079  0.00  0.00     0.275 HD
ATOM      6  H3  DAL d   1      14.503  -6.718  10.838  0.00  0.00     0.275 HD
ENDBRANCH   1   3
BRANCH   1   7
ATOM      7  CB  DAL d   1      15.023  -8.778   9.202  0.00  0.00    -0.040 C 
ATOM      8  H5  DAL d   1      14.937  -9.847   8.955  0.00  0.00     0.030 H 
ATOM      9  H6  DAL d   1      15.882  -8.346   8.667  0.00  0.00     0.030 H 
ATOM     10  H7  DAL d   1      14.103  -8.256   8.900  0.00  0.00     0.030 H 
ENDBRANCH   1   7
BRANCH   1  11
ATOM     11  C   DAL d   1      14.042  -9.224  11.458  0.00  0.00     0.204 C 
ATOM     12  O   DAL d   1      14.081 -10.449  11.747  0.00  0.00    -0.646 OA
ATOM     13  OXT DAL d   1      13.115  -8.449  11.750  0.00  0.00    -0.646 OA
ENDBRANCH   1  11
TORSDOF 3
