REMARK  9 active torsions:
REMARK  status: ('A' for Active; 'I' for Inactive)
REMARK    1  A    between atoms: C01_1  and  C02_2 
REMARK    2  A    between atoms: C02_2  and  C03_3 
REMARK    3  A    between atoms: C02_2  and  N04_4 
REMARK       I    between atoms: N04_4  and  C05_5 
REMARK       I    between atoms: C05_5  and  N07_7 
REMARK    4  A    between atoms: N07_7  and  C08_8 
REMARK    5  A    between atoms: C11_11  and  N14_14 
REMARK    6  A    between atoms: N14_14  and  C15_15 
REMARK    7  A    between atoms: N23_23  and  C24_24 
REMARK    8  A    between atoms: C24_24  and  C25_25 
REMARK    9  A    between atoms: C24_24  and  C26_26 
ROOT
ATOM      1  C08 519 d   1      -0.361 -30.682 -29.943  0.00  0.00     0.014 C 
ATOM      2  C09 519 d   1       0.118 -31.786 -30.874  0.00  0.00    -0.044 C 
ATOM      3  C10 519 d   1       1.184 -31.214 -31.779  0.00  0.00    -0.044 C 
ATOM      4  C11 519 d   1       2.390 -30.831 -30.944  0.00  0.00     0.026 C 
ATOM      5  C12 519 d   1       2.031 -29.727 -29.959  0.00  0.00    -0.044 C 
ATOM      6  C13 519 d   1       0.791 -30.073 -29.139  0.00  0.00    -0.044 C 
ATOM      7  H10 519 d   1      -0.745 -29.885 -30.597  0.00  0.00     0.072 H 
ATOM      8  H11 519 d   1      -0.724 -32.155 -31.478  0.00  0.00     0.036 H 
ATOM      9  H12 519 d   1       0.536 -32.615 -30.284  0.00  0.00     0.036 H 
ATOM     10  H13 519 d   1       0.793 -30.323 -32.292  0.00  0.00     0.036 H 
ATOM     11  H14 519 d   1       1.477 -31.967 -32.525  0.00  0.00     0.036 H 
ATOM     12  H15 519 d   1       2.656 -31.704 -30.331  0.00  0.00     0.073 H 
ATOM     13  H16 519 d   1       1.839 -28.800 -30.519  0.00  0.00     0.036 H 
ATOM     14  H17 519 d   1       2.878 -29.573 -29.274  0.00  0.00     0.036 H 
ATOM     15  H18 519 d   1       1.085 -30.794 -28.362  0.00  0.00     0.036 H 
ATOM     16  H19 519 d   1       0.426 -29.150 -28.664  0.00  0.00     0.036 H 
ENDROOT
BRANCH   4  17
ATOM     17  N14 519 d   1       3.514 -30.599 -31.818  0.00  0.00    -0.218 N 
ATOM     18  H20 519 d   1       3.881 -31.439 -32.287  0.00  0.00     0.178 HD
BRANCH  17  19
ATOM     19  C15 519 d   1       4.194 -29.391 -32.132  0.00  0.00     0.724 A 
ATOM     20  N16 519 d   1       5.415 -29.562 -32.735  0.00  0.00    -0.074 NA
ATOM     21  C17 519 d   1       6.163 -28.498 -33.115  0.00  0.00     0.035 A 
ATOM     22  C18 519 d   1       5.696 -27.197 -32.907  0.00  0.00     0.029 A 
ATOM     23  H21 519 d   1       7.128 -28.656 -33.583  0.00  0.00     0.117 H 
ATOM     24  C19 519 d   1       6.528 -26.020 -33.335  0.00  0.00    -0.063 A 
ATOM     25  C27 519 d   1       4.430 -27.028 -32.282  0.00  0.00     0.164 A 
ATOM     26  C20 519 d   1       6.035 -24.674 -33.096  0.00  0.00    -0.016 A 
ATOM     27  H22 519 d   1       7.491 -26.175 -33.819  0.00  0.00     0.085 H 
ATOM     28  C21 519 d   1       4.721 -24.509 -32.460  0.00  0.00     0.249 A 
ATOM     29  H23 519 d   1       6.627 -23.806 -33.382  0.00  0.00     0.092 H 
ATOM     30  O22 519 d   1       4.354 -23.378 -32.313  0.00  0.00    -0.268 OA
ATOM     31  N23 519 d   1       3.907 -25.645 -32.042  0.00  0.00    -0.293 N 
ATOM     32  N28 519 d   1       3.712 -28.141 -31.917  0.00  0.00    -0.044 NA
BRANCH  31  33
ATOM     33  C24 519 d   1       2.637 -25.458 -31.403  0.00  0.00     0.015 C 
ATOM     34  H24 519 d   1       2.420 -24.380 -31.397  0.00  0.00     0.072 H 
BRANCH  33  35
ATOM     35  C25 519 d   1       2.700 -25.944 -29.959  0.00  0.00    -0.057 C 
ATOM     36  H25 519 d   1       1.721 -25.796 -29.479  0.00  0.00     0.030 H 
ATOM     37  H26 519 d   1       3.466 -25.374 -29.413  0.00  0.00     0.030 H 
ATOM     38  H27 519 d   1       2.958 -27.013 -29.943  0.00  0.00     0.030 H 
ENDBRANCH  33  35
BRANCH  33  39
ATOM     39  C26 519 d   1       1.511 -26.152 -32.128  0.00  0.00    -0.057 C 
ATOM     40  H28 519 d   1       0.566 -25.974 -31.594  0.00  0.00     0.030 H 
ATOM     41  H29 519 d   1       1.712 -27.233 -32.168  0.00  0.00     0.030 H 
ATOM     42  H30 519 d   1       1.434 -25.756 -33.151  0.00  0.00     0.030 H 
ENDBRANCH  33  39
ENDBRANCH  31  33
ENDBRANCH  17  19
ENDBRANCH   4  17
BRANCH   1  43
ATOM     43  N07 519 d   1      -1.461 -31.046 -29.069  0.00  0.00    -0.339 N 
ATOM     44  C05 519 d   1      -2.111 -32.317 -28.932  0.00  0.00     0.316 C 
ATOM     45  N04 519 d   1      -3.193 -32.370 -28.008  0.00  0.00    -0.339 N 
ATOM     46  O06 519 d   1      -1.784 -33.321 -29.533  0.00  0.00    -0.247 OA
ATOM     47  H8  519 d   1      -3.438 -31.526 -27.530  0.00  0.00     0.164 HD
ATOM     48  H9  519 d   1      -1.812 -30.314 -28.485  0.00  0.00     0.164 HD
BRANCH  45  49
ATOM     49  C02 519 d   1      -3.953 -33.543 -27.715  0.00  0.00     0.007 C 
ATOM     50  H4  519 d   1      -4.676 -33.264 -26.934  0.00  0.00     0.071 H 
BRANCH  49  51
ATOM     51  C01 519 d   1      -4.765 -33.991 -28.912  0.00  0.00    -0.058 C 
ATOM     52  H1  519 d   1      -5.336 -34.894 -28.651  0.00  0.00     0.030 H 
ATOM     53  H2  519 d   1      -4.089 -34.214 -29.751  0.00  0.00     0.030 H 
ATOM     54  H3  519 d   1      -5.460 -33.190 -29.204  0.00  0.00     0.030 H 
ENDBRANCH  49  51
BRANCH  49  55
ATOM     55  C03 519 d   1      -3.094 -34.646 -27.128  0.00  0.00    -0.058 C 
ATOM     56  H5  519 d   1      -2.533 -34.255 -26.266  0.00  0.00     0.030 H 
ATOM     57  H6  519 d   1      -2.389 -35.007 -27.891  0.00  0.00     0.030 H 
ATOM     58  H7  519 d   1      -3.737 -35.477 -26.801  0.00  0.00     0.030 H 
ENDBRANCH  49  55
ENDBRANCH  45  49
ENDBRANCH   1  43
TORSDOF 9
