REMARK  30 active torsions:
REMARK  status: ('A' for Active; 'I' for Inactive)
REMARK    1  A    between atoms: C_1  and  CH3_3 
REMARK       I    between atoms: C_1  and  N_4 
REMARK    2  A    between atoms: N_4  and  CA_5 
REMARK    3  A    between atoms: CA_5  and  C_6 
REMARK    4  A    between atoms: CA_5  and  CB_8 
REMARK       I    between atoms: C_6  and  N_15 
REMARK    5  A    between atoms: CB_8  and  CG_9 
REMARK    6  A    between atoms: CG_9  and  CD_10 
REMARK    7  A    between atoms: CD_10  and  NE_11 
REMARK       I    between atoms: NE_11  and  CZ_12 
REMARK       I    between atoms: CZ_12  and  NH2_14 
REMARK    8  A    between atoms: N_15  and  CA_16 
REMARK    9  A    between atoms: CA_16  and  C_17 
REMARK   10  A    between atoms: CA_16  and  CB_19 
REMARK       I    between atoms: C_17  and  N_22 
REMARK   11  A    between atoms: CB_19  and  OG1_20 
REMARK   12  A    between atoms: CB_19  and  CG2_21 
REMARK   13  A    between atoms: CA_23  and  C_24 
REMARK       I    between atoms: C_24  and  N_29 
REMARK   14  A    between atoms: N_29  and  CA_30 
REMARK   15  A    between atoms: CA_30  and  CB_31 
REMARK   16  A    between atoms: CA_30  and  C_33 
REMARK   17  A    between atoms: CB_31  and  OG_32 
REMARK   18  A    between atoms: OG_32  and  P_35 
REMARK       I    between atoms: C_33  and  N_39 
REMARK   19  A    between atoms: N_39  and  CA_40 
REMARK   20  A    between atoms: CA_40  and  C_41 
REMARK   21  A    between atoms: CA_40  and  CB_43 
REMARK       I    between atoms: C_41  and  N_47 
REMARK   22  A    between atoms: CB_43  and  CG_44 
REMARK   23  A    between atoms: CG_44  and  CD1_45 
REMARK   24  A    between atoms: CG_44  and  CD2_46 
REMARK   25  A    between atoms: CA_48  and  C_49 
REMARK       I    between atoms: C_49  and  N_54 
REMARK   26  A    between atoms: N_54  and  CA_55 
REMARK   27  A    between atoms: CA_55  and  C_56 
REMARK   28  A    between atoms: CA_55  and  CB_58 
REMARK       I    between atoms: C_56  and  N1_61 
REMARK   29  A    between atoms: CB_58  and  OG1_59 
REMARK   30  A    between atoms: CB_58  and  CG2_60 
ROOT
ATOM      1  CA  SEP d   1      17.211   9.796  11.423  0.00  0.00     0.110 C 
ATOM      2  H32 SEP d   1      17.843  10.678  11.246  0.00  0.00     0.090 H 
ENDROOT
BRANCH   1   3
ATOM      3  N   SEP d   1      17.558   9.199  12.652  0.00  0.00    -0.344 N 
ATOM      4  C   PRO d   1      18.267   9.938  13.692  0.00  0.00     0.241 C 
ATOM      5  O   PRO d   1      18.587  11.098  13.451  0.00  0.00    -0.271 OA
ATOM      6  H31 SEP d   1      17.312   8.244  12.816  0.00  0.00     0.163 HD
BRANCH   4   7
ATOM      7  CA  PRO d   1      18.537   9.219  14.969  0.00  0.00     0.091 C 
ATOM      8  N   PRO d   1      19.859   9.476  15.486  0.00  0.00    -0.337 N 
ATOM      9  C   THR d   1      21.060   8.981  14.848  0.00  0.00     0.245 C 
ATOM     10  CD  PRO d   1      19.793  10.239  16.721  0.00  0.00    -0.001 C 
ATOM     11  O   THR d   1      20.952   8.348  13.823  0.00  0.00    -0.271 OA
ATOM     12  CG  PRO d   1      18.364  10.229  17.143  0.00  0.00    -0.048 C 
ATOM     13  H29 PRO d   1      20.132  11.271  16.550  0.00  0.00     0.064 H 
ATOM     14  H30 PRO d   1      20.421   9.770  17.493  0.00  0.00     0.064 H 
ATOM     15  CB  PRO d   1      17.573   9.666  16.001  0.00  0.00    -0.036 C 
ATOM     16  H27 PRO d   1      18.238   9.599  18.036  0.00  0.00     0.035 H 
ATOM     17  H28 PRO d   1      18.029  11.253  17.366  0.00  0.00     0.035 H 
ATOM     18  H25 PRO d   1      16.970   8.813  16.346  0.00  0.00     0.036 H 
ATOM     19  H26 PRO d   1      16.910  10.440  15.586  0.00  0.00     0.036 H 
ATOM     20  H24 PRO d   1      18.422   8.139  14.795  0.00  0.00     0.087 H 
BRANCH   9  21
ATOM     21  CA  THR d   1      22.412   9.284  15.428  0.00  0.00     0.114 C 
ATOM     22  H18 THR d   1      22.332   9.665  16.457  0.00  0.00     0.091 H 
BRANCH  21  23
ATOM     23  N   THR d   1      23.200   8.097  15.379  0.00  0.00    -0.344 N 
ATOM     24  C   ARG d   1      22.851   6.957  16.232  0.00  0.00     0.241 C 
ATOM     25  O   ARG d   1      21.893   7.029  16.990  0.00  0.00    -0.271 OA
ATOM     26  H17 THR d   1      23.988   8.042  14.765  0.00  0.00     0.163 HD
BRANCH  24  27
ATOM     27  CA  ARG d   1      23.695   5.725  16.135  0.00  0.00     0.089 C 
ATOM     28  H5  ARG d   1      24.741   5.973  16.369  0.00  0.00     0.087 H 
BRANCH  27  29
ATOM     29  N   ARG d   1      23.233   4.733  17.050  0.00  0.00    -0.348 N 
ATOM     30  C   ACE d   1      23.476   4.926  18.465  0.00  0.00     0.214 C 
ATOM     31  O   ACE d   1      24.059   5.921  18.841  0.00  0.00    -0.274 OA
ATOM     32  H4  ARG d   1      22.751   3.921  16.721  0.00  0.00     0.163 HD
BRANCH  30  33
ATOM     33  CH3 ACE d   1      22.989   3.869  19.494  0.00  0.00    -0.003 C 
ATOM     34  H1  ACE d   1      22.487   3.046  18.964  0.00  0.00     0.040 H 
ATOM     35  H2  ACE d   1      22.284   4.338  20.196  0.00  0.00     0.040 H 
ATOM     36  H3  ACE d   1      23.852   3.474  20.050  0.00  0.00     0.040 H 
ENDBRANCH  30  33
ENDBRANCH  27  29
BRANCH  27  37
ATOM     37  CB  ARG d   1      23.597   5.206  14.693  0.00  0.00    -0.036 C 
ATOM     38  H6  ARG d   1      23.907   6.010  14.009  0.00  0.00     0.036 H 
ATOM     39  H7  ARG d   1      22.551   4.934  14.489  0.00  0.00     0.036 H 
BRANCH  37  40
ATOM     40  CG  ARG d   1      24.476   3.983  14.436  0.00  0.00    -0.048 C 
ATOM     41  H8  ARG d   1      24.914   3.649  15.388  0.00  0.00     0.035 H 
ATOM     42  H9  ARG d   1      25.281   4.259  13.738  0.00  0.00     0.035 H 
BRANCH  40  43
ATOM     43  CD  ARG d   1      23.652   2.825  13.825  0.00  0.00     0.009 C 
ATOM     44  H10 ARG d   1      23.228   3.149  12.863  0.00  0.00     0.064 H 
ATOM     45  H11 ARG d   1      22.837   2.557  14.513  0.00  0.00     0.064 H 
BRANCH  43  46
ATOM     46  NE  ARG d   1      24.493   1.670  13.610  0.00  0.00    -0.227 N 
ATOM     47  CZ  ARG d   1      24.655   0.684  14.688  0.00  0.00     0.665 C 
ATOM     48  NH1 ARG d   1      25.402  -0.353  14.505  0.00  0.00    -0.235 N 
ATOM     49  NH2 ARG d   1      23.981   0.876  15.942  0.00  0.00    -0.235 N 
ATOM     50  H13 ARG d   1      25.517  -1.045  15.259  0.00  0.00     0.174 HD
ATOM     51  H14 ARG d   1      25.883  -0.488  13.605  0.00  0.00     0.174 HD
ATOM     52  H15 ARG d   1      23.386   1.704  16.085  0.00  0.00     0.174 HD
ATOM     53  H16 ARG d   1      24.093   0.185  16.698  0.00  0.00     0.174 HD
ATOM     54  H12 ARG d   1      24.975   1.539  12.709  0.00  0.00     0.177 HD
ENDBRANCH  43  46
ENDBRANCH  40  43
ENDBRANCH  37  40
ENDBRANCH  27  37
ENDBRANCH  24  27
ENDBRANCH  21  23
BRANCH  21  55
ATOM     55  CB  THR d   1      23.046  10.300  14.507  0.00  0.00     0.060 C 
ATOM     56  H19 THR d   1      23.082   9.894  13.486  0.00  0.00     0.086 H 
BRANCH  55  57
ATOM     57  OG1 THR d   1      24.364  10.589  14.949  0.00  0.00    -0.393 OA
ATOM     58  H20 THR d   1      24.881   9.792  14.943  0.00  0.00     0.210 HD
ENDBRANCH  55  57
BRANCH  55  59
ATOM     59  CG2 THR d   1      22.235  11.570  14.514  0.00  0.00    -0.050 C 
ATOM     60  H21 THR d   1      22.701  12.306  13.842  0.00  0.00     0.031 H 
ATOM     61  H22 THR d   1      22.200  11.977  15.535  0.00  0.00     0.031 H 
ATOM     62  H23 THR d   1      21.213  11.354  14.169  0.00  0.00     0.031 H 
ENDBRANCH  55  59
ENDBRANCH  21  55
ENDBRANCH   9  21
ENDBRANCH   4   7
ENDBRANCH   1   3
BRANCH   1  63
ATOM     63  CB  SEP d   1      17.384   8.815  10.270  0.00  0.00     0.059 C 
ATOM     64  H33 SEP d   1      18.440   8.521  10.180  0.00  0.00     0.079 H 
ATOM     65  H34 SEP d   1      17.050   9.276   9.329  0.00  0.00     0.079 H 
BRANCH  63  66
ATOM     66  OG  SEP d   1      16.586   7.678  10.566  0.00  0.00    -0.280 OA
BRANCH  66  67
ATOM     67  P   SEP d   1      16.783   6.356   9.666  0.00  0.00     0.422 P 
ATOM     68  O1P SEP d   1      16.446   6.732   8.245  0.00  0.00    -0.617 OA
ATOM     69  O2P SEP d   1      15.835   5.313  10.211  0.00  0.00    -0.617 OA
ATOM     70  O3P SEP d   1      18.233   5.940   9.785  0.00  0.00    -0.617 OA
ENDBRANCH  66  67
ENDBRANCH  63  66
ENDBRANCH   1  63
BRANCH   1  71
ATOM     71  C   SEP d   1      15.723  10.221  11.533  0.00  0.00     0.243 C 
ATOM     72  O   SEP d   1      15.080  10.085  12.574  0.00  0.00    -0.271 OA
ATOM     73  N   LEU d   1      15.068  10.782  10.386  0.00  0.00    -0.346 N 
ATOM     74  H35 LEU d   1      15.575  10.882   9.530  0.00  0.00     0.163 HD
BRANCH  73  75
ATOM     75  CA  LEU d   1      13.677  11.208  10.449  0.00  0.00     0.090 C 
ATOM     76  H36 LEU d   1      13.557  12.000  11.203  0.00  0.00     0.087 H 
BRANCH  75  77
ATOM     77  C   LEU d   1      12.823  10.011  10.845  0.00  0.00     0.243 C 
ATOM     78  O   LEU d   1      12.856   8.961  10.264  0.00  0.00    -0.271 OA
ATOM     79  N   PRO d   1      11.957  10.130  12.016  0.00  0.00    -0.337 N 
ATOM     80  CA  PRO d   1      11.145   9.039  12.512  0.00  0.00     0.091 C 
ATOM     81  CD  PRO d   1      11.832  11.298  12.853  0.00  0.00    -0.001 C 
ATOM     82  CB  PRO d   1      10.991   9.384  13.985  0.00  0.00    -0.036 C 
ATOM     83  H46 PRO d   1      11.682   8.087  12.389  0.00  0.00     0.087 H 
ATOM     84  CG  PRO d   1      10.950  10.879  14.008  0.00  0.00    -0.048 C 
ATOM     85  H47 PRO d   1      11.846   9.008  14.566  0.00  0.00     0.036 H 
ATOM     86  H48 PRO d   1      10.059   8.962  14.389  0.00  0.00     0.036 H 
ATOM     87  H49 PRO d   1      11.345  11.264  14.959  0.00  0.00     0.035 H 
ATOM     88  H50 PRO d   1       9.922  11.242  13.864  0.00  0.00     0.035 H 
ATOM     89  H51 PRO d   1      11.366  12.123  12.294  0.00  0.00     0.064 H 
ATOM     90  H52 PRO d   1      12.819  11.615  13.220  0.00  0.00     0.064 H 
BRANCH  80  91
ATOM     91  C   PRO d   1       9.776   8.908  11.846  0.00  0.00     0.241 C 
ATOM     92  O   PRO d   1       9.056   7.968  12.135  0.00  0.00    -0.271 OA
ATOM     93  N   THR d   1       9.365   9.919  10.922  0.00  0.00    -0.344 N 
ATOM     94  H53 THR d   1       9.987  10.669  10.697  0.00  0.00     0.163 HD
BRANCH  93  95
ATOM     95  CA  THR d   1       8.070   9.863  10.318  0.00  0.00     0.114 C 
ATOM     96  H54 THR d   1       7.358   9.379  11.002  0.00  0.00     0.091 H 
BRANCH  95  97
ATOM     97  C   THR d   1       8.118   9.081   9.041  0.00  0.00     0.245 C 
ATOM     98  O   THR d   1       9.178   8.809   8.513  0.00  0.00    -0.271 OA
ATOM     99  N1  PIP d   1       6.858   8.657   8.435  0.00  0.00    -0.350 N 
ATOM    100  C2  PIP d   1       6.882   7.928   7.219  0.00  0.00    -0.002 C 
ATOM    101  C6  PIP d   1       5.597   8.978   9.055  0.00  0.00    -0.002 C 
ATOM    102  C3  PIP d   1       5.900   8.474   6.186  0.00  0.00    -0.050 C 
ATOM    103  H60 PIP d   1       6.623   6.880   7.431  0.00  0.00     0.064 H 
ATOM    104  H61 PIP d   1       7.898   7.977   6.799  0.00  0.00     0.064 H 
ATOM    105  C4  PIP d   1       5.100   9.673   6.673  0.00  0.00    -0.062 C 
ATOM    106  H62 PIP d   1       5.196   7.672   5.919  0.00  0.00     0.035 H 
ATOM    107  H63 PIP d   1       6.468   8.775   5.293  0.00  0.00     0.035 H 
ATOM    108  C5  PIP d   1       4.555   9.494   8.083  0.00  0.00    -0.050 C 
ATOM    109  H64 PIP d   1       4.254   9.831   5.988  0.00  0.00     0.033 H 
ATOM    110  H65 PIP d   1       5.753  10.558   6.660  0.00  0.00     0.033 H 
ATOM    111  H66 PIP d   1       3.721   8.778   8.049  0.00  0.00     0.035 H 
ATOM    112  H67 PIP d   1       4.189  10.466   8.444  0.00  0.00     0.035 H 
ATOM    113  H68 PIP d   1       5.772   9.750   9.819  0.00  0.00     0.064 H 
ATOM    114  H69 PIP d   1       5.205   8.069   9.535  0.00  0.00     0.064 H 
ENDBRANCH  95  97
BRANCH  95 115
ATOM    115  CB  THR d   1       7.656  11.301  10.087  0.00  0.00     0.060 C 
ATOM    116  H55 THR d   1       6.685  11.318   9.570  0.00  0.00     0.086 H 
BRANCH 115 117
ATOM    117  OG1 THR d   1       8.643  11.944   9.277  0.00  0.00    -0.393 OA
ATOM    118  H56 THR d   1       8.389  12.847   9.128  0.00  0.00     0.210 HD
ENDBRANCH 115 117
BRANCH 115 119
ATOM    119  CG2 THR d   1       7.536  12.053  11.390  0.00  0.00    -0.050 C 
ATOM    120  H57 THR d   1       7.235  13.091  11.188  0.00  0.00     0.031 H 
ATOM    121  H58 THR d   1       8.507  12.047  11.908  0.00  0.00     0.031 H 
ATOM    122  H59 THR d   1       6.779  11.569  12.025  0.00  0.00     0.031 H 
ENDBRANCH 115 119
ENDBRANCH  95 115
ENDBRANCH  93  95
ENDBRANCH  80  91
ENDBRANCH  75  77
BRANCH  75 123
ATOM    123  CB  LEU d   1      13.319  11.745   9.113  0.00  0.00    -0.035 C 
ATOM    124  H37 LEU d   1      13.326  10.909   8.398  0.00  0.00     0.037 H 
ATOM    125  H38 LEU d   1      14.086  12.480   8.825  0.00  0.00     0.037 H 
BRANCH 123 126
ATOM    126  CG  LEU d   1      11.920  12.446   9.025  0.00  0.00    -0.059 C 
ATOM    127  H39 LEU d   1      11.168  11.785   9.482  0.00  0.00     0.038 H 
BRANCH 126 128
ATOM    128  CD1 LEU d   1      11.897  13.755   9.756  0.00  0.00    -0.073 C 
ATOM    129  H40 LEU d   1      10.898  14.208   9.666  0.00  0.00     0.028 H 
ATOM    130  H41 LEU d   1      12.647  14.432   9.320  0.00  0.00     0.028 H 
ATOM    131  H42 LEU d   1      12.129  13.586  10.818  0.00  0.00     0.028 H 
ENDBRANCH 126 128
BRANCH 126 132
ATOM    132  CD2 LEU d   1      11.571  12.647   7.559  0.00  0.00    -0.073 C 
ATOM    133  H43 LEU d   1      11.593  11.677   7.040  0.00  0.00     0.028 H 
ATOM    134  H44 LEU d   1      12.303  13.326   7.098  0.00  0.00     0.028 H 
ATOM    135  H45 LEU d   1      10.564  13.083   7.478  0.00  0.00     0.028 H 
ENDBRANCH 126 132
ENDBRANCH 123 126
ENDBRANCH  75 123
ENDBRANCH  73  75
ENDBRANCH   1  71
TORSDOF 30
