REMARK  4 active torsions:
REMARK  status: ('A' for Active; 'I' for Inactive)
REMARK    1  A    between atoms: C1_1  and  C2_4 
REMARK    2  A    between atoms: C2_4  and  C3_6 
REMARK    3  A    between atoms: C3_6  and  C4_7 
REMARK    4  A    between atoms: C4_7  and  C5_8 
ROOT
ATOM      1  C3  AKG d   1     136.195   3.349 120.995  0.00  0.00     0.010 C 
ATOM      2  H1  AKG d   1     135.861   4.336 120.644  0.00  0.00     0.045 H 
ATOM      3  H2  AKG d   1     135.770   2.567 120.348  0.00  0.00     0.045 H 
ENDROOT
BRANCH   1   4
ATOM      4  C2  AKG d   1     135.694   3.138 122.414  0.00  0.00     0.225 C 
ATOM      5  O5  AKG d   1     136.436   2.921 123.360  0.00  0.00    -0.286 OA
BRANCH   4   6
ATOM      6  C1  AKG d   1     134.267   3.182 122.685  0.00  0.00     0.246 C 
ATOM      7  O1  AKG d   1     133.477   3.520 121.771  0.00  0.00    -0.642 OA
ATOM      8  O2  AKG d   1     133.906   2.876 123.844  0.00  0.00    -0.642 OA
ENDBRANCH   4   6
ENDBRANCH   1   4
BRANCH   1   9
ATOM      9  C4  AKG d   1     137.717   3.285 120.911  0.00  0.00     0.022 C 
ATOM     10  H3  AKG d   1     138.051   2.277 121.199  0.00  0.00     0.049 H 
ATOM     11  H4  AKG d   1     138.147   4.025 121.602  0.00  0.00     0.049 H 
BRANCH   9  12
ATOM     12  C5  AKG d   1     138.198   3.584 119.498  0.00  0.00     0.172 C 
ATOM     13  O3  AKG d   1     137.497   4.263 118.710  0.00  0.00    -0.648 OA
ATOM     14  O4  AKG d   1     139.314   3.143 119.148  0.00  0.00    -0.648 OA
ENDBRANCH   9  12
ENDBRANCH   1   9
TORSDOF 4
