REMARK  8 active torsions:
REMARK  status: ('A' for Active; 'I' for Inactive)
REMARK    1  A    between atoms: C11_21  and  N1_1 
REMARK    2  A    between atoms: C5_10  and  N3_9 
REMARK    3  A    between atoms: C6_12  and  O4_13 
REMARK    4  A    between atoms: C7_14  and  O5_15 
REMARK    5  A    between atoms: C9_17  and  C8_16 
REMARK    6  A    between atoms: N4_18  and  C9_17 
REMARK       I    between atoms: C10_19  and  N4_18 
REMARK    7  A    between atoms: C10_19  and  C11_21 
REMARK    8  A    between atoms: C11_21  and  C12_22 
ROOT
ATOM      1  N1  48O d   1      14.409  19.066   9.594  0.00  0.00    -0.101 NA
ATOM      2  N5  48O d   1      13.891  19.991   9.646  0.00  0.00    -0.167 NA
ATOM      3  NAX 48O d   1      13.349  20.960   9.695  0.00  0.00     0.068 N 
ENDROOT
BRANCH   1   4
ATOM      4  C11 48O d   1      14.788  18.477   8.437  0.00  0.00     0.138 C 
ATOM      5  H13 48O d   1      15.736  19.035   8.446  0.00  0.00     0.094 H 
BRANCH   4   6
ATOM      6  C10 48O d   1      14.503  19.007   6.983  0.00  0.00     0.245 C 
ATOM      7  N4  48O d   1      13.852  20.176   6.834  0.00  0.00    -0.357 N 
ATOM      8  H12 48O d   1      13.551  20.656   7.658  0.00  0.00     0.162 HD
ATOM      9  O6  48O d   1      14.921  18.377   6.008  0.00  0.00    -0.271 OA
BRANCH   7  10
ATOM     10  C9  48O d   1      13.560  20.784   5.535  0.00  0.00     0.022 C 
ATOM     11  H10 48O d   1      13.515  19.997   4.768  0.00  0.00     0.068 H 
ATOM     12  H11 48O d   1      12.591  21.302   5.586  0.00  0.00     0.068 H 
BRANCH  10  13
ATOM     13  C8  48O d   1      14.653  21.793   5.161  0.00  0.00     0.083 C 
ATOM     14  O3  48O d   1      14.672  22.879   6.088  0.00  0.00    -0.354 OA
ATOM     15  C5  48O d   1      16.021  23.390   6.107  0.00  0.00     0.141 C 
ATOM     16  C6  48O d   1      16.852  22.499   5.174  0.00  0.00     0.105 C 
ATOM     17  H4  48O d   1      16.030  24.422   5.725  0.00  0.00     0.123 H 
ATOM     18  C7  48O d   1      16.069  21.240   5.222  0.00  0.00     0.091 C 
ATOM     19  H5  48O d   1      17.882  22.363   5.536  0.00  0.00     0.093 H 
ATOM     20  H7  48O d   1      16.253  20.676   6.149  0.00  0.00     0.091 H 
ATOM     21  H9  48O d   1      14.447  22.162   4.145  0.00  0.00     0.090 H 
BRANCH  15  22
ATOM     22  N3  48O d   1      16.553  23.394   7.499  0.00  0.00    -0.280 N 
ATOM     23  C1  48O d   1      17.693  24.058   7.740  0.00  0.00     0.331 A 
ATOM     24  O1  48O d   1      18.276  24.635   6.826  0.00  0.00    -0.246 OA
ATOM     25  N2  48O d   1      18.227  24.097   9.026  0.00  0.00    -0.275 N 
ATOM     26  C2  48O d   1      17.601  23.459  10.091  0.00  0.00     0.250 A 
ATOM     27  H1  48O d   1      19.079  24.595   9.187  0.00  0.00     0.173 HD
ATOM     28  O2  48O d   1      18.118  23.524  11.207  0.00  0.00    -0.268 OA
ATOM     29  C3  48O d   1      16.417  22.766   9.858  0.00  0.00    -0.002 A 
ATOM     30  C4  48O d   1      15.897  22.738   8.562  0.00  0.00    -0.008 A 
ATOM     31  H2  48O d   1      15.905  22.255  10.672  0.00  0.00     0.094 H 
ATOM     32  H3  48O d   1      14.970  22.201   8.369  0.00  0.00     0.112 H 
ENDBRANCH  15  22
BRANCH  16  33
ATOM     33  O4  48O d   1      16.858  23.041   3.830  0.00  0.00    -0.388 OA
ATOM     34  H6  48O d   1      17.235  23.913   3.843  0.00  0.00     0.210 HD
ENDBRANCH  16  33
BRANCH  18  35
ATOM     35  O5  48O d   1      16.344  20.411   4.083  0.00  0.00    -0.390 OA
ATOM     36  H8  48O d   1      15.830  19.614   4.141  0.00  0.00     0.210 HD
ENDBRANCH  18  35
ENDBRANCH  10  13
ENDBRANCH   7  10
ENDBRANCH   4   6
BRANCH   4  37
ATOM     37  C12 48O d   1      15.503  17.145   8.630  0.00  0.00    -0.045 C 
ATOM     38  H14 48O d   1      15.778  16.731   7.649  0.00  0.00     0.031 H 
ATOM     39  H15 48O d   1      14.835  16.442   9.150  0.00  0.00     0.031 H 
ATOM     40  H16 48O d   1      16.412  17.300   9.230  0.00  0.00     0.031 H 
ENDBRANCH   4  37
ENDBRANCH   1   4
TORSDOF 8
