REMARK  8 active torsions:
REMARK  status: ('A' for Active; 'I' for Inactive)
REMARK    1  A    between atoms: NAW_8  and  CBB_9 
REMARK    2  A    between atoms: CBD_11  and  OBG_12 
REMARK    3  A    between atoms: CBC_13  and  OBH_14 
REMARK    4  A    between atoms: CBF_15  and  CAA_16 
REMARK    5  A    between atoms: CAA_16  and  NAB_17 
REMARK       I    between atoms: NAB_17  and  C_18 
REMARK    6  A    between atoms: C_18  and  CA_20 
REMARK    7  A    between atoms: CA_20  and  N_21 
REMARK    8  A    between atoms: CA_20  and  CB_22 
ROOT
ATOM      1  CBB 48C d   1      15.917  23.348   6.132  0.00  0.00     0.141 C 
ATOM      2  OBE 48C d   1      14.596  22.779   6.028  0.00  0.00    -0.354 OA
ATOM      3  CBD 48C d   1      16.822  22.540   5.186  0.00  0.00     0.105 C 
ATOM      4  CBC 48C d   1      16.160  21.206   5.234  0.00  0.00     0.091 C 
ATOM      5  CBF 48C d   1      14.673  21.509   5.288  0.00  0.00     0.083 C 
ATOM      6  H4  48C d   1      15.873  24.386   5.769  0.00  0.00     0.123 H 
ATOM      7  H5  48C d   1      17.854  22.491   5.563  0.00  0.00     0.093 H 
ATOM      8  H7  48C d   1      16.476  20.647   6.127  0.00  0.00     0.091 H 
ATOM      9  H9  48C d   1      14.338  21.732   4.264  0.00  0.00     0.090 H 
ENDROOT
BRANCH   5  10
ATOM     10  CAA 48C d   1      13.806  20.251   5.724  0.00  0.00     0.022 C 
ATOM     11  H10 48C d   1      13.547  19.676   4.823  0.00  0.00     0.068 H 
ATOM     12  H11 48C d   1      12.886  20.611   6.207  0.00  0.00     0.068 H 
BRANCH  10  13
ATOM     13  NAB 48C d   1      14.514  19.352   6.670  0.00  0.00    -0.357 N 
ATOM     14  C   48C d   1      14.919  18.027   6.699  0.00  0.00     0.247 C 
ATOM     15  O   48C d   1      15.526  17.624   7.695  0.00  0.00    -0.271 OA
ATOM     16  H12 48C d   1      14.766  19.831   7.511  0.00  0.00     0.162 HD
BRANCH  14  17
ATOM     17  CA  48C d   1      14.646  16.904   5.645  0.00  0.00     0.172 C 
ATOM     18  H13 48C d   1      15.418  16.141   5.822  0.00  0.00     0.098 H 
BRANCH  17  19
ATOM     19  N   48C d   1      14.827  17.312   4.253  0.00  0.00    -0.067 N 
ATOM     20  H14 48C d   1      14.631  16.531   3.646  0.00  0.00     0.275 HD
ATOM     21  H15 48C d   1      15.778  17.617   4.113  0.00  0.00     0.275 HD
ATOM     22  H16 48C d   1      14.197  18.069   4.040  0.00  0.00     0.275 HD
ENDBRANCH  17  19
BRANCH  17  23
ATOM     23  CB  48C d   1      13.286  16.198   5.914  0.00  0.00    -0.042 C 
ATOM     24  H17 48C d   1      13.221  15.921   6.976  0.00  0.00     0.030 H 
ATOM     25  H18 48C d   1      13.214  15.292   5.294  0.00  0.00     0.030 H 
ATOM     26  H19 48C d   1      12.462  16.881   5.662  0.00  0.00     0.030 H 
ENDBRANCH  17  23
ENDBRANCH  14  17
ENDBRANCH  10  13
ENDBRANCH   5  10
BRANCH   4  27
ATOM     27  OBH 48C d   1      16.467  20.461   4.075  0.00  0.00    -0.390 OA
ATOM     28  H8  48C d   1      16.162  20.931   3.308  0.00  0.00     0.210 HD
ENDBRANCH   4  27
BRANCH   1  29
ATOM     29  NAW 48C d   1      16.449  23.395   7.535  0.00  0.00    -0.280 N 
ATOM     30  CAU 48C d   1      17.563  24.122   7.785  0.00  0.00     0.331 A 
ATOM     31  OAZ 48C d   1      18.181  24.707   6.893  0.00  0.00    -0.246 OA
ATOM     32  NAT 48C d   1      18.083  24.186   9.061  0.00  0.00    -0.275 N 
ATOM     33  CAV 48C d   1      17.461  23.547  10.158  0.00  0.00     0.250 A 
ATOM     34  H1  48C d   1      18.927  24.701   9.215  0.00  0.00     0.173 HD
ATOM     35  OBA 48C d   1      17.965  23.663  11.286  0.00  0.00    -0.268 OA
ATOM     36  CAX 48C d   1      16.309  22.801   9.929  0.00  0.00    -0.002 A 
ATOM     37  CAY 48C d   1      15.795  22.737   8.624  0.00  0.00    -0.008 A 
ATOM     38  H2  48C d   1      15.816  22.277  10.746  0.00  0.00     0.094 H 
ATOM     39  H3  48C d   1      14.881  22.176   8.437  0.00  0.00     0.112 H 
ENDBRANCH   1  29
BRANCH   3  40
ATOM     40  OBG 48C d   1      16.828  23.088   3.837  0.00  0.00    -0.388 OA
ATOM     41  H6  48C d   1      17.147  23.983   3.861  0.00  0.00     0.210 HD
ENDBRANCH   3  40
TORSDOF 8
