REMARK  10 active torsions:
REMARK  status: ('A' for Active; 'I' for Inactive)
REMARK       I    between atoms: C4_2  and  N9_3 
REMARK    1  A    between atoms: C4_2  and  C3_6 
REMARK    2  A    between atoms: N9_3  and  O10_4 
REMARK    3  A    between atoms: N9_3  and  C11_5 
REMARK    4  A    between atoms: C3_6  and  C2_7 
REMARK    5  A    between atoms: C2_7  and  C1_8 
REMARK    6  A    between atoms: C2_7  and  C13_13 
REMARK    7  A    between atoms: C1_8  and  P5_9 
REMARK    8  A    between atoms: C13_13  and  C14_14 
REMARK    9  A    between atoms: C14_14  and  C15_15 
REMARK   10  A    between atoms: C15_15  and  C16_16 
ROOT
ATOM      1  C2  RC5 d   1       0.905  14.083  20.206  0.00  0.00    -0.034 C 
ATOM      2  H7  RC5 d   1       1.240  15.104  19.972  0.00  0.00     0.041 H 
ENDROOT
BRANCH   1   3
ATOM      3  C3  RC5 d   1       2.116  13.317  20.774  0.00  0.00     0.015 C 
ATOM      4  H5  RC5 d   1       2.153  13.424  21.868  0.00  0.00     0.047 H 
ATOM      5  H6  RC5 d   1       2.047  12.251  20.512  0.00  0.00     0.047 H 
BRANCH   3   6
ATOM      6  C4  RC5 d   1       3.333  13.920  20.158  0.00  0.00     0.243 C 
ATOM      7  O12 RC5 d   1       3.709  15.004  20.626  0.00  0.00    -0.271 OA
ATOM      8  N9  RC5 d   1       3.913  13.409  19.072  0.00  0.00    -0.233 N 
BRANCH   8   9
ATOM      9  O10 RC5 d   1       4.978  14.071  18.465  0.00  0.00    -0.285 OA
ATOM     10  H1  RC5 d   1       5.692  14.155  19.086  0.00  0.00     0.245 HD
ENDBRANCH   8   9
BRANCH   8  11
ATOM     11  C11 RC5 d   1       3.520  12.135  18.469  0.00  0.00     0.009 C 
ATOM     12  H2  RC5 d   1       4.148  11.938  17.587  0.00  0.00     0.060 H 
ATOM     13  H3  RC5 d   1       2.464  12.184  18.164  0.00  0.00     0.060 H 
ATOM     14  H4  RC5 d   1       3.653  11.326  19.202  0.00  0.00     0.060 H 
ENDBRANCH   8  11
ENDBRANCH   3   6
ENDBRANCH   1   3
BRANCH   1  15
ATOM     15  C1  RC5 d   1      -0.178  14.191  21.279  0.00  0.00     0.043 C 
ATOM     16  H8  RC5 d   1       0.262  13.936  22.255  0.00  0.00     0.054 H 
ATOM     17  H9  RC5 d   1      -0.984  13.480  21.043  0.00  0.00     0.054 H 
BRANCH  15  18
ATOM     18  P5  RC5 d   1      -0.883  15.873  21.371  0.00  0.00     0.259 P 
ATOM     19  O7  RC5 d   1      -0.028  16.768  22.239  0.00  0.00    -0.640 OA
ATOM     20  O6  RC5 d   1      -2.284  15.745  21.960  0.00  0.00    -0.640 OA
ATOM     21  O8  RC5 d   1      -1.061  16.456  20.042  0.00  0.00    -0.640 OA
ENDBRANCH  15  18
ENDBRANCH   1  15
BRANCH   1  22
ATOM     22  C13 RC5 d   1       0.378  13.464  18.876  0.00  0.00    -0.060 C 
ATOM     23  H10 RC5 d   1       1.191  13.502  18.136  0.00  0.00     0.033 H 
ATOM     24  H11 RC5 d   1      -0.466  14.077  18.525  0.00  0.00     0.033 H 
BRANCH  22  25
ATOM     25  C14 RC5 d   1      -0.106  11.997  18.982  0.00  0.00    -0.061 C 
ATOM     26  H12 RC5 d   1      -0.958  11.954  19.677  0.00  0.00     0.033 H 
ATOM     27  H13 RC5 d   1       0.717  11.380  19.372  0.00  0.00     0.033 H 
BRANCH  25  28
ATOM     28  C15 RC5 d   1      -0.550  11.429  17.612  0.00  0.00    -0.041 C 
ATOM     29  H14 RC5 d   1      -1.148  12.188  17.086  0.00  0.00     0.040 H 
ATOM     30  H15 RC5 d   1      -1.162  10.530  17.778  0.00  0.00     0.040 H 
BRANCH  28  31
ATOM     31  C16 RC5 d   1       0.642  11.063  16.758  0.00  0.00    -0.058 A 
ATOM     32  C17 RC5 d   1       1.408   9.935  17.070  0.00  0.00    -0.077 A 
ATOM     33  C19 RC5 d   1       2.517   9.617  16.310  0.00  0.00    -0.082 A 
ATOM     34  H16 RC5 d   1       1.131   9.309  17.910  0.00  0.00     0.084 H 
ATOM     35  C21 RC5 d   1       2.860  10.417  15.220  0.00  0.00    -0.083 A 
ATOM     36  H17 RC5 d   1       3.118   8.750  16.559  0.00  0.00     0.083 H 
ATOM     37  C20 RC5 d   1       2.112  11.544  14.910  0.00  0.00    -0.082 A 
ATOM     38  H18 RC5 d   1       3.718  10.156  14.610  0.00  0.00     0.083 H 
ATOM     39  C18 RC5 d   1       0.998  11.870  15.665  0.00  0.00    -0.077 A 
ATOM     40  H19 RC5 d   1       2.401  12.171  14.074  0.00  0.00     0.083 H 
ATOM     41  H20 RC5 d   1       0.405  12.742  15.414  0.00  0.00     0.084 H 
ENDBRANCH  28  31
ENDBRANCH  25  28
ENDBRANCH  22  25
ENDBRANCH   1  22
TORSDOF 10
