REMARK  21 active torsions:
REMARK  status: ('A' for Active; 'I' for Inactive)
REMARK    1  A    between atoms: CAV_2  and  CAU_3 
REMARK       I    between atoms: CAV_2  and  NAX_24 
REMARK    2  A    between atoms: CAJ_6  and  CAK_7 
REMARK       I    between atoms: CAK_7  and  NAM_8 
REMARK    3  A    between atoms: NAM_8  and  CAN_9 
REMARK    4  A    between atoms: NAM_8  and  CAQ_12 
REMARK    5  A    between atoms: CAN_9  and  CAO_10 
REMARK    6  A    between atoms: CAO_10  and  CAP_11 
REMARK    7  A    between atoms: CAQ_12  and  CAR_13 
REMARK    8  A    between atoms: CAR_13  and  CAS_14 
REMARK    9  A    between atoms: CAG_17  and  NAF_18 
REMARK   10  A    between atoms: NAX_24  and  CAY_25 
REMARK   11  A    between atoms: CAY_25  and  CBG_33 
REMARK   12  A    between atoms: CAZ_26  and  CBA_27 
REMARK   13  A    between atoms: CBG_33  and  OBH_34 
REMARK   14  A    between atoms: CBG_33  and  CBI_35 
REMARK   15  A    between atoms: CBI_35  and  NBJ_36 
REMARK   16  A    between atoms: NBJ_36  and  CBK_37 
REMARK   17  A    between atoms: CBK_37  and  CBL_38 
REMARK   18  A    between atoms: CBK_37  and  CBM_39 
REMARK   19  A    between atoms: CBK_37  and  CBN_40 
REMARK   20  A    between atoms: CBQ_42  and  OBT_46 
REMARK   21  A    between atoms: OBT_46  and  CBU_47 
ROOT
ATOM      1  OAW 48Q d   1      29.506 -33.312 -37.715  0.00  0.00    -0.267 OA
ATOM      2  CAV 48Q d   1      29.673 -32.266 -37.136  0.00  0.00     0.256 C 
ATOM      3  NAX 48Q d   1      30.275 -31.234 -37.723  0.00  0.00    -0.324 N 
ATOM      4  H28 48Q d   1      30.600 -30.488 -37.142  0.00  0.00     0.169 HD
ENDROOT
BRANCH   2   5
ATOM      5  CAU 48Q d   1      29.203 -32.166 -35.710  0.00  0.00     0.035 A 
ATOM      6  CAH 48Q d   1      29.284 -33.284 -34.888  0.00  0.00    -0.042 A 
ATOM      7  CAG 48Q d   1      28.862 -33.228 -33.561  0.00  0.00     0.032 A 
ATOM      8  H1  48Q d   1      29.681 -34.212 -35.284  0.00  0.00     0.088 H 
ATOM      9  CAI 48Q d   1      28.359 -32.041 -33.044  0.00  0.00    -0.042 A 
ATOM     10  CAJ 48Q d   1      28.274 -30.915 -33.870  0.00  0.00     0.035 A 
ATOM     11  H17 48Q d   1      28.035 -31.988 -32.011  0.00  0.00     0.088 H 
ATOM     12  CAT 48Q d   1      28.700 -30.975 -35.197  0.00  0.00    -0.052 A 
ATOM     13  H2  48Q d   1      28.639 -30.095 -35.827  0.00  0.00     0.086 H 
BRANCH   7  14
ATOM     14  NAF 48Q d   1      28.969 -34.394 -32.779  0.00  0.00    -0.381 N 
ATOM     15  CAE 48Q d   1      30.218 -34.619 -32.051  0.00  0.00    -0.005 C 
ATOM     16  CAD 48Q d   1      29.917 -35.296 -30.723  0.00  0.00    -0.050 C 
ATOM     17  H18 48Q d   1      30.714 -33.654 -31.867  0.00  0.00     0.064 H 
ATOM     18  H19 48Q d   1      30.880 -35.263 -32.649  0.00  0.00     0.064 H 
ATOM     19  CAC 48Q d   1      28.956 -36.466 -30.875  0.00  0.00    -0.062 C 
ATOM     20  H20 48Q d   1      29.469 -34.557 -30.043  0.00  0.00     0.035 H 
ATOM     21  H21 48Q d   1      30.860 -35.666 -30.293  0.00  0.00     0.035 H 
ATOM     22  CAB 48Q d   1      27.643 -35.936 -31.430  0.00  0.00    -0.050 C 
ATOM     23  H22 48Q d   1      28.783 -36.935 -29.895  0.00  0.00     0.033 H 
ATOM     24  H23 48Q d   1      29.380 -37.208 -31.567  0.00  0.00     0.033 H 
ATOM     25  CAA 48Q d   1      27.861 -35.356 -32.817  0.00  0.00    -0.005 C 
ATOM     26  H24 48Q d   1      27.256 -35.151 -30.764  0.00  0.00     0.035 H 
ATOM     27  H25 48Q d   1      26.915 -36.758 -31.489  0.00  0.00     0.035 H 
ATOM     28  H26 48Q d   1      28.104 -36.167 -33.519  0.00  0.00     0.064 H 
ATOM     29  H27 48Q d   1      26.945 -34.846 -33.149  0.00  0.00     0.064 H 
ENDBRANCH   7  14
BRANCH  10  30
ATOM     30  CAK 48Q d   1      27.729 -29.612 -33.358  0.00  0.00     0.253 C 
ATOM     31  NAM 48Q d   1      26.406 -29.445 -33.253  0.00  0.00    -0.348 N 
ATOM     32  OAL 48Q d   1      28.509 -28.719 -33.086  0.00  0.00    -0.267 OA
BRANCH  31  33
ATOM     33  CAN 48Q d   1      25.851 -28.252 -32.612  0.00  0.00    -0.002 C 
ATOM     34  H3  48Q d   1      25.007 -27.871 -33.206  0.00  0.00     0.064 H 
ATOM     35  H4  48Q d   1      26.627 -27.476 -32.539  0.00  0.00     0.064 H 
BRANCH  33  36
ATOM     36  CAO 48Q d   1      25.366 -28.631 -31.209  0.00  0.00    -0.053 C 
ATOM     37  H5  48Q d   1      25.237 -29.723 -31.168  0.00  0.00     0.034 H 
ATOM     38  H6  48Q d   1      24.398 -28.140 -31.031  0.00  0.00     0.034 H 
BRANCH  36  39
ATOM     39  CAP 48Q d   1      26.319 -28.221 -30.110  0.00  0.00    -0.075 C 
ATOM     40  H7  48Q d   1      25.907 -28.524 -29.136  0.00  0.00     0.027 H 
ATOM     41  H8  48Q d   1      26.452 -27.129 -30.128  0.00  0.00     0.027 H 
ATOM     42  H9  48Q d   1      27.291 -28.712 -30.266  0.00  0.00     0.027 H 
ENDBRANCH  36  39
ENDBRANCH  33  36
ENDBRANCH  31  33
BRANCH  31  43
ATOM     43  CAQ 48Q d   1      25.469 -30.449 -33.766  0.00  0.00    -0.002 C 
ATOM     44  H10 48Q d   1      25.323 -31.228 -33.003  0.00  0.00     0.064 H 
ATOM     45  H11 48Q d   1      25.890 -30.902 -34.676  0.00  0.00     0.064 H 
BRANCH  43  46
ATOM     46  CAR 48Q d   1      24.120 -29.818 -34.100  0.00  0.00    -0.053 C 
ATOM     47  H12 48Q d   1      23.870 -29.091 -33.313  0.00  0.00     0.034 H 
ATOM     48  H13 48Q d   1      23.359 -30.612 -34.121  0.00  0.00     0.034 H 
BRANCH  46  49
ATOM     49  CAS 48Q d   1      24.108 -29.104 -35.437  0.00  0.00    -0.075 C 
ATOM     50  H14 48Q d   1      23.111 -28.674 -35.614  0.00  0.00     0.027 H 
ATOM     51  H15 48Q d   1      24.346 -29.820 -36.237  0.00  0.00     0.027 H 
ATOM     52  H16 48Q d   1      24.858 -28.299 -35.430  0.00  0.00     0.027 H 
ENDBRANCH  46  49
ENDBRANCH  43  46
ENDBRANCH  31  43
ENDBRANCH  10  30
ENDBRANCH   2   5
BRANCH   3  53
ATOM     53  CAY 48Q d   1      30.471 -31.134 -39.040  0.00  0.00     0.043 C 
ATOM     54  CAZ 48Q d   1      29.476 -30.753 -39.864  0.00  0.00    -0.049 C 
ATOM     55  H29 48Q d   1      29.685 -30.610 -40.923  0.00  0.00     0.087 H 
BRANCH  54  56
ATOM     56  CBA 48Q d   1      28.099 -30.524 -39.357  0.00  0.00    -0.034 A 
ATOM     57  CBF 48Q d   1      27.092 -31.403 -39.776  0.00  0.00    -0.073 A 
ATOM     58  CBE 48Q d   1      25.787 -31.256 -39.316  0.00  0.00    -0.082 A 
ATOM     59  H30 48Q d   1      27.331 -32.205 -40.465  0.00  0.00     0.084 H 
ATOM     60  CBD 48Q d   1      25.483 -30.233 -38.428  0.00  0.00    -0.083 A 
ATOM     61  H31 48Q d   1      25.012 -31.937 -39.649  0.00  0.00     0.083 H 
ATOM     62  CBC 48Q d   1      26.484 -29.359 -38.005  0.00  0.00    -0.082 A 
ATOM     63  H32 48Q d   1      24.469 -30.114 -38.064  0.00  0.00     0.083 H 
ATOM     64  CBB 48Q d   1      27.792 -29.504 -38.468  0.00  0.00    -0.073 A 
ATOM     65  H33 48Q d   1      26.244 -28.561 -37.311  0.00  0.00     0.083 H 
ATOM     66  H34 48Q d   1      28.566 -28.822 -38.134  0.00  0.00     0.084 H 
ENDBRANCH  54  56
BRANCH  53  67
ATOM     67  CBG 48Q d   1      31.868 -31.378 -39.568  0.00  0.00     0.098 C 
ATOM     68  H35 48Q d   1      32.507 -30.529 -39.284  0.00  0.00     0.095 H 
BRANCH  67  69
ATOM     69  OBH 48Q d   1      31.858 -31.532 -40.989  0.00  0.00    -0.388 OA
ATOM     70  H36 48Q d   1      31.514 -30.742 -41.390  0.00  0.00     0.210 HD
ENDBRANCH  67  69
BRANCH  67  71
ATOM     71  CBI 48Q d   1      32.459 -32.671 -39.036  0.00  0.00     0.111 C 
ATOM     72  H37 48Q d   1      32.209 -33.491 -39.725  0.00  0.00     0.080 H 
ATOM     73  H38 48Q d   1      32.031 -32.882 -38.045  0.00  0.00     0.080 H 
BRANCH  71  74
ATOM     74  NBJ 48Q d   1      33.934 -32.570 -38.916  0.00  0.00    -0.060 N 
ATOM     75  H39 48Q d   1      34.153 -32.050 -38.081  0.00  0.00     0.278 HD
ATOM     76  H40 48Q d   1      34.288 -32.077 -39.721  0.00  0.00     0.278 HD
BRANCH  74  77
ATOM     77  CBK 48Q d   1      34.605 -33.895 -38.839  0.00  0.00     0.145 C 
BRANCH  77  78
ATOM     78  CBL 48Q d   1      36.108 -33.686 -38.721  0.00  0.00    -0.042 C 
ATOM     79  H41 48Q d   1      36.611 -34.663 -38.664  0.00  0.00     0.031 H 
ATOM     80  H42 48Q d   1      36.327 -33.107 -37.812  0.00  0.00     0.031 H 
ATOM     81  H43 48Q d   1      36.472 -33.138 -39.602  0.00  0.00     0.031 H 
ENDBRANCH  77  78
BRANCH  77  82
ATOM     82  CBM 48Q d   1      34.283 -34.754 -40.066  0.00  0.00    -0.042 C 
ATOM     83  H44 48Q d   1      34.793 -35.725 -39.978  0.00  0.00     0.031 H 
ATOM     84  H45 48Q d   1      34.628 -34.239 -40.975  0.00  0.00     0.031 H 
ATOM     85  H46 48Q d   1      33.197 -34.915 -40.126  0.00  0.00     0.031 H 
ENDBRANCH  77  82
BRANCH  77  86
ATOM     86  CBN 48Q d   1      34.130 -34.644 -37.626  0.00  0.00    -0.021 A 
ATOM     87  CBP 48Q d   1      33.723 -33.940 -36.508  0.00  0.00    -0.042 A 
ATOM     88  CBQ 48Q d   1      33.261 -34.611 -35.408  0.00  0.00     0.068 A 
ATOM     89  H47 48Q d   1      33.770 -32.857 -36.502  0.00  0.00     0.088 H 
ATOM     90  CBR 48Q d   1      33.230 -36.001 -35.375  0.00  0.00    -0.051 A 
ATOM     91  CBS 48Q d   1      33.651 -36.710 -36.489  0.00  0.00    -0.080 A 
ATOM     92  H48 48Q d   1      32.882 -36.522 -34.491  0.00  0.00     0.087 H 
ATOM     93  CBO 48Q d   1      34.102 -36.033 -37.616  0.00  0.00    -0.074 A 
ATOM     94  H49 48Q d   1      33.629 -37.794 -36.481  0.00  0.00     0.083 H 
ATOM     95  H50 48Q d   1      34.432 -36.588 -38.487  0.00  0.00     0.084 H 
BRANCH  88  96
ATOM     96  OBT 48Q d   1      32.840 -33.851 -34.365  0.00  0.00    -0.356 OA
BRANCH  96  97
ATOM     97  CBU 48Q d   1      33.782 -33.307 -33.475  0.00  0.00     0.010 C 
ATOM     98  H51 48Q d   1      33.261 -32.726 -32.700  0.00  0.00     0.066 H 
ATOM     99  H52 48Q d   1      34.470 -32.649 -34.026  0.00  0.00     0.066 H 
ATOM    100  H53 48Q d   1      34.352 -34.120 -33.002  0.00  0.00     0.066 H 
ENDBRANCH  96  97
ENDBRANCH  88  96
ENDBRANCH  77  86
ENDBRANCH  74  77
ENDBRANCH  71  74
ENDBRANCH  67  71
ENDBRANCH  53  67
ENDBRANCH   3  53
TORSDOF 21
