REMARK  11 active torsions:
REMARK  status: ('A' for Active; 'I' for Inactive)
REMARK    1  A    between atoms: P4_2  and  C1_5 
REMARK    2  A    between atoms: C1_5  and  C2_6 
REMARK    3  A    between atoms: C2_6  and  C3_7 
REMARK    4  A    between atoms: C2_6  and  C13_13 
REMARK    5  A    between atoms: C3_7  and  C8_8 
REMARK       I    between atoms: C8_8  and  N9_9 
REMARK    6  A    between atoms: N9_9  and  O10_10 
REMARK    7  A    between atoms: N9_9  and  C11_11 
REMARK    8  A    between atoms: C13_13  and  C14_14 
REMARK    9  A    between atoms: C14_14  and  C15_15 
REMARK   10  A    between atoms: C15_15  and  C16_16 
REMARK   11  A    between atoms: C16_16  and  C17_17 
ROOT
ATOM      1  C13 R77 d   1      -0.344  12.574  20.966  0.00  0.00    -0.061 C 
ATOM      2  H10 R77 d   1      -1.328  13.065  20.937  0.00  0.00     0.033 H 
ATOM      3  H11 R77 d   1      -0.129  12.244  21.993  0.00  0.00     0.033 H 
ENDROOT
BRANCH   1   4
ATOM      4  C2  R77 d   1       0.719  13.582  20.543  0.00  0.00    -0.034 C 
ATOM      5  H3  R77 d   1       0.584  13.851  19.485  0.00  0.00     0.041 H 
BRANCH   4   6
ATOM      6  C1  R77 d   1       0.627  14.833  21.412  0.00  0.00     0.043 C 
ATOM      7  H1  R77 d   1       0.577  14.516  22.464  0.00  0.00     0.054 H 
ATOM      8  H2  R77 d   1       1.537  15.429  21.251  0.00  0.00     0.054 H 
BRANCH   6   9
ATOM      9  P4  R77 d   1      -0.805  15.887  21.072  0.00  0.00     0.259 P 
ATOM     10  O6  R77 d   1      -1.890  15.369  22.012  0.00  0.00    -0.640 OA
ATOM     11  O5  R77 d   1      -1.143  15.741  19.611  0.00  0.00    -0.640 OA
ATOM     12  O7  R77 d   1      -0.372  17.286  21.398  0.00  0.00    -0.640 OA
ENDBRANCH   6   9
ENDBRANCH   4   6
BRANCH   4  13
ATOM     13  C3  R77 d   1       2.084  12.942  20.755  0.00  0.00     0.015 C 
ATOM     14  H4  R77 d   1       2.055  11.915  20.363  0.00  0.00     0.047 H 
ATOM     15  H5  R77 d   1       2.296  12.916  21.834  0.00  0.00     0.047 H 
BRANCH  13  16
ATOM     16  C8  R77 d   1       3.201  13.693  20.061  0.00  0.00     0.243 C 
ATOM     17  N9  R77 d   1       3.667  13.237  18.898  0.00  0.00    -0.233 N 
ATOM     18  O12 R77 d   1       3.673  14.677  20.594  0.00  0.00    -0.271 OA
BRANCH  17  19
ATOM     19  O10 R77 d   1       4.620  14.034  18.235  0.00  0.00    -0.285 OA
ATOM     20  H6  R77 d   1       5.382  14.143  18.791  0.00  0.00     0.245 HD
ENDBRANCH  17  19
BRANCH  17  21
ATOM     21  C11 R77 d   1       3.277  11.987  18.258  0.00  0.00     0.009 C 
ATOM     22  H7  R77 d   1       3.824  11.874  17.310  0.00  0.00     0.060 H 
ATOM     23  H8  R77 d   1       2.196  11.999  18.058  0.00  0.00     0.060 H 
ATOM     24  H9  R77 d   1       3.517  11.144  18.923  0.00  0.00     0.060 H 
ENDBRANCH  17  21
ENDBRANCH  13  16
ENDBRANCH   4  13
ENDBRANCH   1   4
BRANCH   1  25
ATOM     25  C14 R77 d   1      -0.381  11.348  20.055  0.00  0.00    -0.064 C 
ATOM     26  H12 R77 d   1      -0.885  10.526  20.584  0.00  0.00     0.033 H 
ATOM     27  H13 R77 d   1       0.650  11.052  19.814  0.00  0.00     0.033 H 
BRANCH  25  28
ATOM     28  C15 R77 d   1      -1.131  11.633  18.755  0.00  0.00    -0.061 C 
ATOM     29  H14 R77 d   1      -0.684  12.519  18.279  0.00  0.00     0.033 H 
ATOM     30  H15 R77 d   1      -2.184  11.838  18.996  0.00  0.00     0.033 H 
BRANCH  28  31
ATOM     31  C16 R77 d   1      -1.075  10.464  17.762  0.00  0.00    -0.041 C 
ATOM     32  H16 R77 d   1      -1.929  10.562  17.075  0.00  0.00     0.040 H 
ATOM     33  H17 R77 d   1      -1.169   9.529  18.334  0.00  0.00     0.040 H 
BRANCH  31  34
ATOM     34  C17 R77 d   1       0.194  10.376  16.924  0.00  0.00    -0.058 A 
ATOM     35  C19 R77 d   1       0.478  11.292  15.916  0.00  0.00    -0.077 A 
ATOM     36  C21 R77 d   1       1.644  11.170  15.159  0.00  0.00    -0.082 A 
ATOM     37  H18 R77 d   1      -0.211  12.105  15.717  0.00  0.00     0.084 H 
ATOM     38  C22 R77 d   1       2.522  10.117  15.386  0.00  0.00    -0.083 A 
ATOM     39  H19 R77 d   1       1.866  11.901  14.390  0.00  0.00     0.083 H 
ATOM     40  C20 R77 d   1       2.227   9.187  16.377  0.00  0.00    -0.082 A 
ATOM     41  H20 R77 d   1       3.427  10.022  14.797  0.00  0.00     0.083 H 
ATOM     42  C18 R77 d   1       1.070   9.324  17.135  0.00  0.00    -0.077 A 
ATOM     43  H21 R77 d   1       2.899   8.356  16.558  0.00  0.00     0.083 H 
ATOM     44  H22 R77 d   1       0.849   8.594  17.905  0.00  0.00     0.084 H 
ENDBRANCH  31  34
ENDBRANCH  28  31
ENDBRANCH  25  28
ENDBRANCH   1  25
TORSDOF 11
