REMARK  7 active torsions:
REMARK  status: ('A' for Active; 'I' for Inactive)
REMARK    1  A    between atoms: P4_2  and  C1_5 
REMARK    2  A    between atoms: C1_5  and  C2_6 
REMARK    3  A    between atoms: C2_6  and  C3_7 
REMARK    4  A    between atoms: C2_6  and  C13_13 
REMARK    5  A    between atoms: C3_7  and  C8_8 
REMARK       I    between atoms: C8_8  and  N9_9 
REMARK    6  A    between atoms: N9_9  and  O10_10 
REMARK    7  A    between atoms: N9_9  and  C11_11 
ROOT
ATOM      1  C2  RF7 d   1       1.244  12.445  22.441  0.00  0.00    -0.009 C 
ATOM      2  H3  RF7 d   1       1.730  13.151  23.130  0.00  0.00     0.049 H 
ENDROOT
BRANCH   1   3
ATOM      3  C1  RF7 d   1       0.358  13.224  21.469  0.00  0.00     0.046 C 
ATOM      4  H1  RF7 d   1       0.995  13.615  20.662  0.00  0.00     0.054 H 
ATOM      5  H2  RF7 d   1      -0.383  12.529  21.048  0.00  0.00     0.054 H 
BRANCH   3   6
ATOM      6  P4  RF7 d   1      -0.534  14.622  22.216  0.00  0.00     0.260 P 
ATOM      7  O6  RF7 d   1       0.334  15.396  23.177  0.00  0.00    -0.640 OA
ATOM      8  O5  RF7 d   1      -1.742  14.097  22.933  0.00  0.00    -0.640 OA
ATOM      9  O7  RF7 d   1      -0.994  15.525  21.090  0.00  0.00    -0.640 OA
ENDBRANCH   3   6
ENDBRANCH   1   3
BRANCH   1  10
ATOM     10  C3  RF7 d   1       2.290  11.670  21.639  0.00  0.00     0.019 C 
ATOM     11  H4  RF7 d   1       1.771  11.139  20.827  0.00  0.00     0.048 H 
ATOM     12  H5  RF7 d   1       2.762  10.939  22.312  0.00  0.00     0.048 H 
BRANCH  10  13
ATOM     13  C8  RF7 d   1       3.386  12.513  21.022  0.00  0.00     0.243 C 
ATOM     14  N9  RF7 d   1       3.997  12.091  19.912  0.00  0.00    -0.233 N 
ATOM     15  O12 RF7 d   1       3.742  13.567  21.534  0.00  0.00    -0.271 OA
BRANCH  14  16
ATOM     16  O10 RF7 d   1       5.003  12.871  19.352  0.00  0.00    -0.285 OA
ATOM     17  H6  RF7 d   1       5.705  12.980  19.982  0.00  0.00     0.245 HD
ENDBRANCH  14  16
BRANCH  14  18
ATOM     18  C11 RF7 d   1       3.619  10.842  19.262  0.00  0.00     0.009 C 
ATOM     19  H7  RF7 d   1       4.245  10.688  18.371  0.00  0.00     0.060 H 
ATOM     20  H8  RF7 d   1       2.562  10.890  18.963  0.00  0.00     0.060 H 
ATOM     21  H9  RF7 d   1       3.765  10.006  19.962  0.00  0.00     0.060 H 
ENDBRANCH  14  18
ENDBRANCH  10  13
ENDBRANCH   1  10
BRANCH   1  22
ATOM     22  C13 RF7 d   1       0.488  11.412  23.224  0.00  0.00    -0.053 A 
ATOM     23  C15 RF7 d   1      -0.793  11.005  22.867  0.00  0.00    -0.076 A 
ATOM     24  C16 RF7 d   1      -1.448  10.027  23.611  0.00  0.00    -0.082 A 
ATOM     25  H10 RF7 d   1      -1.282  11.450  22.008  0.00  0.00     0.084 H 
ATOM     26  C18 RF7 d   1      -0.827   9.443  24.708  0.00  0.00    -0.083 A 
ATOM     27  H11 RF7 d   1      -2.449   9.719  23.332  0.00  0.00     0.083 H 
ATOM     28  C17 RF7 d   1       0.452   9.838  25.061  0.00  0.00    -0.082 A 
ATOM     29  H12 RF7 d   1      -1.341   8.682  25.284  0.00  0.00     0.083 H 
ATOM     30  C14 RF7 d   1       1.104  10.815  24.322  0.00  0.00    -0.076 A 
ATOM     31  H13 RF7 d   1       0.944   9.384  25.914  0.00  0.00     0.083 H 
ATOM     32  H14 RF7 d   1       2.106  11.118  24.603  0.00  0.00     0.084 H 
ENDBRANCH   1  22
TORSDOF 7
