REMARK  8 active torsions:
REMARK  status: ('A' for Active; 'I' for Inactive)
REMARK    1  A    between atoms: N9_14  and  C11_1 
REMARK    2  A    between atoms: C2_11  and  C13_2 
REMARK    3  A    between atoms: C1_10  and  P4_7 
REMARK    4  A    between atoms: C2_11  and  C1_10 
REMARK    5  A    between atoms: C3_12  and  C2_11 
REMARK    6  A    between atoms: C8_13  and  C3_12 
REMARK       I    between atoms: C8_13  and  N9_14 
REMARK    7  A    between atoms: N9_14  and  O10_15 
REMARK    8  A    between atoms: C18_17  and  C19_18 
ROOT
ATOM      1  C2  48S d   1       1.213  12.656  22.374  0.00  0.00    -0.009 C 
ATOM      2  H9  48S d   1       1.669  13.353  23.092  0.00  0.00     0.049 H 
ENDROOT
BRANCH   1   3
ATOM      3  C13 48S d   1       0.428  11.620  23.080  0.00  0.00    -0.053 A 
ATOM      4  C14 48S d   1       0.963  10.972  24.194  0.00  0.00    -0.076 A 
ATOM      5  C17 48S d   1       0.249   9.961  24.837  0.00  0.00    -0.077 A 
ATOM      6  H4  48S d   1       1.942  11.257  24.563  0.00  0.00     0.084 H 
ATOM      7  C18 48S d   1      -0.998   9.581  24.355  0.00  0.00    -0.062 A 
ATOM      8  H16 48S d   1       0.666   9.473  25.711  0.00  0.00     0.084 H 
ATOM      9  C16 48S d   1      -1.521  10.214  23.231  0.00  0.00    -0.077 A 
ATOM     10  C15 48S d   1      -0.805  11.223  22.592  0.00  0.00    -0.076 A 
ATOM     11  H6  48S d   1      -2.492   9.919  22.851  0.00  0.00     0.084 H 
ATOM     12  H5  48S d   1      -1.215  11.700  21.709  0.00  0.00     0.084 H 
BRANCH   7  13
ATOM     13  C19 48S d   1      -1.780   8.491  25.039  0.00  0.00    -0.051 C 
ATOM     14  H13 48S d   1      -1.208   8.115  25.901  0.00  0.00     0.033 H 
ATOM     15  H14 48S d   1      -1.959   7.669  24.331  0.00  0.00     0.033 H 
ATOM     16  H15 48S d   1      -2.744   8.893  25.385  0.00  0.00     0.033 H 
ENDBRANCH   7  13
ENDBRANCH   1   3
BRANCH   1  17
ATOM     17  C1  48S d   1       0.424  13.435  21.326  0.00  0.00     0.046 C 
ATOM     18  H7  48S d   1       1.127  13.886  20.610  0.00  0.00     0.054 H 
ATOM     19  H8  48S d   1      -0.247  12.743  20.795  0.00  0.00     0.054 H 
BRANCH  17  20
ATOM     20  P4  48S d   1      -0.555  14.735  22.082  0.00  0.00     0.260 P 
ATOM     21  O5  48S d   1      -1.749  14.124  22.767  0.00  0.00    -0.640 OA
ATOM     22  O7  48S d   1      -1.033  15.694  21.010  0.00  0.00    -0.640 OA
ATOM     23  O6  48S d   1       0.278  15.500  23.078  0.00  0.00    -0.640 OA
ENDBRANCH  17  20
ENDBRANCH   1  17
BRANCH   1  24
ATOM     24  C3  48S d   1       2.257  11.836  21.627  0.00  0.00     0.019 C 
ATOM     25  H10 48S d   1       1.745  11.249  20.850  0.00  0.00     0.048 H 
ATOM     26  H11 48S d   1       2.739  11.154  22.343  0.00  0.00     0.048 H 
BRANCH  24  27
ATOM     27  C8  48S d   1       3.328  12.662  20.967  0.00  0.00     0.243 C 
ATOM     28  N9  48S d   1       3.892  12.226  19.837  0.00  0.00    -0.233 N 
ATOM     29  O12 48S d   1       3.677  13.704  21.485  0.00  0.00    -0.271 OA
BRANCH  28  30
ATOM     30  C11 48S d   1       3.469  10.970  19.225  0.00  0.00     0.009 C 
ATOM     31  H1  48S d   1       4.052  10.794  18.309  0.00  0.00     0.060 H 
ATOM     32  H2  48S d   1       2.400  11.027  18.973  0.00  0.00     0.060 H 
ATOM     33  H3  48S d   1       3.636  10.143  19.931  0.00  0.00     0.060 H 
ENDBRANCH  28  30
BRANCH  28  34
ATOM     34  O10 48S d   1       4.892  12.958  19.209  0.00  0.00    -0.285 OA
ATOM     35  H12 48S d   1       5.629  13.058  19.800  0.00  0.00     0.245 HD
ENDBRANCH  28  34
ENDBRANCH  24  27
ENDBRANCH   1  24
TORSDOF 8
