REMARK  7 active torsions:
REMARK  status: ('A' for Active; 'I' for Inactive)
REMARK    1  A    between atoms: N2_26  and  C3_3 
REMARK    2  A    between atoms: C9_7  and  N3_28 
REMARK    3  A    between atoms: C11_9  and  C12_10 
REMARK       I    between atoms: C12_10  and  N5_20 
REMARK    4  A    between atoms: N5_20  and  C13_11 
REMARK    5  A    between atoms: C14_12  and  C15_13 
REMARK    6  A    between atoms: N7_18  and  C16_14 
REMARK    7  A    between atoms: N2_26  and  C4_27 
ROOT
ATOM      1  C1  XPY d   1      33.345   8.162 -11.720  0.00  0.00     0.010 A 
ATOM      2  C2  XPY d   1      32.845   9.428 -11.580  0.00  0.00    -0.022 A 
ATOM      3  C3  XPY d   1      31.820   9.616 -10.587  0.00  0.00     0.127 A 
ATOM      4  C10 XPY d   1      32.468   5.285  -9.913  0.00  0.00     0.041 A 
ATOM      5  C11 XPY d   1      31.551   6.168  -9.315  0.00  0.00     0.099 A 
ATOM      6  C   XPY d   1      31.794   7.426  -9.964  0.00  0.00     0.169 A 
ATOM      7  N4  XPY d   1      33.234   5.892 -10.849  0.00  0.00    -0.178 NA
ATOM      8  N1  XPY d   1      32.818   7.166 -10.885  0.00  0.00    -0.226 N 
ATOM      9  N   XPY d   1      31.283   8.652  -9.786  0.00  0.00    -0.211 NA
ATOM     10  H1  XPY d   1      34.121   7.937 -12.450  0.00  0.00     0.115 H 
ATOM     11  H2  XPY d   1      33.206  10.254 -12.191  0.00  0.00     0.091 H 
ATOM     12  H8  XPY d   1      32.552   4.231  -9.652  0.00  0.00     0.119 H 
ENDROOT
BRANCH   3  13
ATOM     13  N2  XPY d   1      31.299  11.013 -10.472  0.00  0.00    -0.368 N 
ATOM     14  H14 XPY d   1      31.549  11.695 -11.202  0.00  0.00     0.161 HD
BRANCH  13  15
ATOM     15  C4  XPY d   1      30.424  11.464  -9.333  0.00  0.00     0.038 C 
ATOM     16  C9  XPY d   1      31.232  11.951  -8.054  0.00  0.00     0.119 C 
ATOM     17  C8  XPY d   1      30.290  12.547  -7.007  0.00  0.00    -0.037 C 
ATOM     18  H7  XPY d   1      31.727  11.073  -7.612  0.00  0.00     0.087 H 
ATOM     19  C7  XPY d   1      29.395  13.647  -7.608  0.00  0.00    -0.063 C 
ATOM     20  H5  XPY d   1      29.651  11.747  -6.606  0.00  0.00     0.036 H 
ATOM     21  H6  XPY d   1      30.890  12.980  -6.193  0.00  0.00     0.036 H 
ATOM     22  C6  XPY d   1      28.616  13.135  -8.807  0.00  0.00    -0.063 C 
ATOM     23  H3  XPY d   1      30.027  14.489  -7.925  0.00  0.00     0.033 H 
ATOM     24  H4  XPY d   1      28.686  13.990  -6.840  0.00  0.00     0.033 H 
ATOM     25  C5  XPY d   1      29.562  12.594  -9.875  0.00  0.00    -0.044 C 
ATOM     26  H19 XPY d   1      28.025  13.960  -9.232  0.00  0.00     0.033 H 
ATOM     27  H20 XPY d   1      27.941  12.330  -8.482  0.00  0.00     0.033 H 
ATOM     28  H21 XPY d   1      28.968  12.217 -10.721  0.00  0.00     0.036 H 
ATOM     29  H22 XPY d   1      30.216  13.409 -10.220  0.00  0.00     0.036 H 
ATOM     30  H15 XPY d   1      29.780  10.626  -9.029  0.00  0.00     0.075 H 
BRANCH  16  31
ATOM     31  N3  XPY d   1      32.288  12.945  -8.417  0.00  0.00    -0.073 N 
ATOM     32  H16 XPY d   1      32.780  13.232  -7.585  0.00  0.00     0.274 HD
ATOM     33  H17 XPY d   1      31.859  13.749  -8.848  0.00  0.00     0.274 HD
ATOM     34  H18 XPY d   1      32.938  12.524  -9.063  0.00  0.00     0.274 HD
ENDBRANCH  16  31
ENDBRANCH  13  15
ENDBRANCH   3  13
BRANCH   5  35
ATOM     35  C12 XPY d   1      30.638   5.781  -8.211  0.00  0.00     0.261 C 
ATOM     36  N5  XPY d   1      30.100   6.802  -7.473  0.00  0.00    -0.320 N 
ATOM     37  H13 XPY d   1      30.317   7.738  -7.750  0.00  0.00     0.169 HD
ATOM     38  O   XPY d   1      30.442   4.593  -7.965  0.00  0.00    -0.267 OA
BRANCH  36  39
ATOM     39  C13 XPY d   1      29.258   6.629  -6.346  0.00  0.00     0.088 A 
ATOM     40  C14 XPY d   1      28.667   7.643  -5.565  0.00  0.00     0.188 A 
ATOM     41  N6  XPY d   1      28.029   7.124  -4.526  0.00  0.00    -0.166 NA
ATOM     42  N7  XPY d   1      28.209   5.782  -4.623  0.00  0.00    -0.282 N 
ATOM     43  C17 XPY d   1      28.928   5.428  -5.693  0.00  0.00     0.026 A 
ATOM     44  H12 XPY d   1      29.202   4.418  -5.996  0.00  0.00     0.117 H 
BRANCH  40  45
ATOM     45  C15 XPY d   1      28.745   9.124  -5.813  0.00  0.00     0.438 C 
ATOM     46  F2  XPY d   1      27.956   9.501  -6.794  0.00  0.00    -0.164 F 
ATOM     47  F   XPY d   1      28.406   9.837  -4.751  0.00  0.00    -0.164 F 
ATOM     48  F1  XPY d   1      29.965   9.512  -6.144  0.00  0.00    -0.164 F 
ENDBRANCH  40  45
BRANCH  42  49
ATOM     49  C16 XPY d   1      27.686   4.906  -3.571  0.00  0.00     0.002 C 
ATOM     50  H9  XPY d   1      27.922   3.860  -3.814  0.00  0.00     0.059 H 
ATOM     51  H10 XPY d   1      26.595   5.029  -3.501  0.00  0.00     0.059 H 
ATOM     52  H11 XPY d   1      28.148   5.172  -2.609  0.00  0.00     0.059 H 
ENDBRANCH  42  49
ENDBRANCH  36  39
ENDBRANCH   5  35
TORSDOF 7
