REMARK WARNING: 32 MAX_TORS EXCEEDED!!!
REMARK  39 active torsions:
REMARK  status: ('A' for Active; 'I' for Inactive)
REMARK    1  A    between atoms: N_1  and  CA_2 
REMARK    2  A    between atoms: CA_2  and  C_3 
REMARK    3  A    between atoms: CA_2  and  CB_5 
REMARK       I    between atoms: C_3  and  N_10 
REMARK    4  A    between atoms: CB_5  and  CG_6 
REMARK    5  A    between atoms: CG_6  and  CD_7 
REMARK    6  A    between atoms: N_10  and  CA_11 
REMARK    7  A    between atoms: CA_11  and  C_12 
REMARK    8  A    between atoms: CA_11  and  CB_14 
REMARK       I    between atoms: C_12  and  N_19 
REMARK    9  A    between atoms: CB_14  and  CG_15 
REMARK   10  A    between atoms: CG_15  and  CD_16 
REMARK   11  A    between atoms: N_19  and  CA_20 
REMARK   12  A    between atoms: CA_20  and  C_21 
REMARK   13  A    between atoms: CA_20  and  CB_23 
REMARK       I    between atoms: C_21  and  N_27 
REMARK   14  A    between atoms: CB_23  and  CG1_24 
REMARK   15  A    between atoms: CB_23  and  CG2_25 
REMARK   16  A    between atoms: CG1_24  and  CD1_26 
REMARK   17  A    between atoms: N_27  and  CA_28 
REMARK   18  A    between atoms: CA_28  and  C_29 
REMARK   19  A    between atoms: CA_28  and  CB_31 
REMARK       I    between atoms: C_29  and  N_35 
REMARK   20  A    between atoms: CB_31  and  CG_32 
REMARK   21  A    between atoms: N_35  and  CA_36 
REMARK   22  A    between atoms: CA_36  and  C_37 
REMARK   23  A    between atoms: CA_36  and  CB_39 
REMARK       I    between atoms: C_37  and  N_42 
REMARK   24  A    between atoms: CB_39  and  CG1_40 
REMARK   25  A    between atoms: CB_39  and  CG2_41 
REMARK   26  A    between atoms: N_42  and  CA_43 
REMARK   27  A    between atoms: CA_43  and  C_44 
REMARK   28  A    between atoms: CA_43  and  CB_46 
REMARK       I    between atoms: C_44  and  N_49 
REMARK   29  A    between atoms: CB_46  and  CG1_47 
REMARK   30  A    between atoms: CB_46  and  CG2_48 
REMARK   31  A    between atoms: N_49  and  CA_50 
REMARK   32  A    between atoms: CA_50  and  C_51 
REMARK   33  A    between atoms: CA_50  and  CB_53 
REMARK       I    between atoms: C_51  and  N_55 
REMARK   34  A    between atoms: CB_53  and  OG_54 
REMARK   35  A    between atoms: N_55  and  CA_56 
REMARK   36  A    between atoms: CA_56  and  C_57 
REMARK   37  A    between atoms: CA_56  and  CB_59 
REMARK   38  A    between atoms: CB_59  and  CG1_60 
REMARK   39  A    between atoms: CB_59  and  CG2_61 
ROOT
ATOM      1  C   ASP d   1      20.621  10.143  20.632  0.00  0.00     0.241 C 
ATOM      2  O   ASP d   1      21.650  10.752  20.791  0.00  0.00    -0.271 OA
ATOM      3  N   VAL d   1      19.550  10.685  20.090  0.00  0.00    -0.346 N 
ATOM      4  H30 VAL d   1      18.710  10.148  20.016  0.00  0.00     0.163 HD
ENDROOT
BRANCH   1   5
ATOM      5  CA  ASP d   1      20.478   8.703  21.084  0.00  0.00     0.098 C 
ATOM      6  H27 ASP d   1      19.413   8.431  21.106  0.00  0.00     0.088 H 
BRANCH   5   7
ATOM      7  N   ASP d   1      21.159   7.844  20.158  0.00  0.00    -0.345 N 
ATOM      8  C   ILE d   1      20.544   6.948  19.408  0.00  0.00     0.241 C 
ATOM      9  O   ILE d   1      19.359   6.744  19.430  0.00  0.00    -0.271 OA
ATOM     10  H26 ASP d   1      22.152   7.928  20.076  0.00  0.00     0.163 HD
BRANCH   8  11
ATOM     11  CA  ILE d   1      21.423   6.167  18.464  0.00  0.00     0.092 C 
ATOM     12  H16 ILE d   1      22.441   6.184  18.879  0.00  0.00     0.088 H 
BRANCH  11  13
ATOM     13  N   ILE d   1      21.023   4.787  18.339  0.00  0.00    -0.346 N 
ATOM     14  C   GLU d   1      21.565   3.862  19.107  0.00  0.00     0.241 C 
ATOM     15  O   GLU d   1      22.398   4.127  19.949  0.00  0.00    -0.271 OA
ATOM     16  H15 ILE d   1      20.330   4.530  17.666  0.00  0.00     0.163 HD
BRANCH  14  17
ATOM     17  CA  GLU d   1      21.135   2.438  18.871  0.00  0.00     0.090 C 
ATOM     18  H10 GLU d   1      20.432   2.375  18.027  0.00  0.00     0.087 H 
BRANCH  17  19
ATOM     19  N   GLU d   1      22.392   1.788  18.562  0.00  0.00    -0.346 N 
ATOM     20  C   GLU d   1      22.825   1.682  17.325  0.00  0.00     0.249 C 
ATOM     21  O   GLU d   1      22.183   2.074  16.386  0.00  0.00    -0.271 OA
ATOM     22  H9  GLU d   1      22.943   1.411  19.306  0.00  0.00     0.163 HD
BRANCH  20  23
ATOM     23  CA  GLU d   1      24.174   1.016  17.105  0.00  0.00     0.176 C 
ATOM     24  H4  GLU d   1      24.722   1.629  16.374  0.00  0.00     0.099 H 
BRANCH  23  25
ATOM     25  N   GLU d   1      24.994   0.936  18.295  0.00  0.00    -0.066 N 
ATOM     26  H1  GLU d   1      25.867   0.485  18.072  0.00  0.00     0.275 HD
ATOM     27  H2  GLU d   1      24.511   0.402  19.001  0.00  0.00     0.275 HD
ATOM     28  H3  GLU d   1      25.175   1.865  18.642  0.00  0.00     0.275 HD
ENDBRANCH  23  25
BRANCH  23  29
ATOM     29  CB  GLU d   1      23.988  -0.356  16.511  0.00  0.00    -0.021 C 
ATOM     30  H5  GLU d   1      22.983  -0.719  16.771  0.00  0.00     0.037 H 
ATOM     31  H6  GLU d   1      24.743  -1.031  16.940  0.00  0.00     0.037 H 
BRANCH  29  32
ATOM     32  CG  GLU d   1      24.131  -0.365  15.007  0.00  0.00     0.018 C 
ATOM     33  H7  GLU d   1      25.172  -0.614  14.752  0.00  0.00     0.049 H 
ATOM     34  H8  GLU d   1      23.889   0.637  14.623  0.00  0.00     0.049 H 
BRANCH  32  35
ATOM     35  CD  GLU d   1      23.221  -1.366  14.353  0.00  0.00     0.172 C 
ATOM     36  OE1 GLU d   1      23.423  -1.670  13.165  0.00  0.00    -0.648 OA
ATOM     37  OE2 GLU d   1      22.299  -1.850  15.029  0.00  0.00    -0.648 OA
ENDBRANCH  32  35
ENDBRANCH  29  32
ENDBRANCH  23  29
ENDBRANCH  20  23
ENDBRANCH  17  19
BRANCH  17  38
ATOM     38  CB  GLU d   1      20.501   1.803  20.102  0.00  0.00    -0.029 C 
ATOM     39  H11 GLU d   1      21.305   1.570  20.815  0.00  0.00     0.037 H 
ATOM     40  H12 GLU d   1      20.009   0.871  19.787  0.00  0.00     0.037 H 
BRANCH  38  41
ATOM     41  CG  GLU d   1      19.472   2.654  20.820  0.00  0.00     0.018 C 
ATOM     42  H13 GLU d   1      19.189   3.486  20.158  0.00  0.00     0.049 H 
ATOM     43  H14 GLU d   1      19.932   3.054  21.736  0.00  0.00     0.049 H 
BRANCH  41  44
ATOM     44  CD  GLU d   1      18.213   1.905  21.208  0.00  0.00     0.172 C 
ATOM     45  OE1 GLU d   1      17.880   0.880  20.581  0.00  0.00    -0.648 OA
ATOM     46  OE2 GLU d   1      17.534   2.375  22.135  0.00  0.00    -0.648 OA
ENDBRANCH  41  44
ENDBRANCH  38  41
ENDBRANCH  17  38
ENDBRANCH  14  17
ENDBRANCH  11  13
BRANCH  11  47
ATOM     47  CB  ILE d   1      21.472   6.802  17.067  0.00  0.00    -0.030 C 
ATOM     48  H17 ILE d   1      20.605   6.454  16.486  0.00  0.00     0.043 H 
BRANCH  47  49
ATOM     49  CG1 ILE d   1      22.751   6.391  16.391  0.00  0.00    -0.063 C 
ATOM     50  H18 ILE d   1      23.486   6.121  17.163  0.00  0.00     0.033 H 
ATOM     51  H19 ILE d   1      23.129   7.242  15.806  0.00  0.00     0.033 H 
BRANCH  49  52
ATOM     52  CD1 ILE d   1      22.569   5.230  15.480  0.00  0.00    -0.076 C 
ATOM     53  H23 ILE d   1      23.533   4.974  15.015  0.00  0.00     0.027 H 
ATOM     54  H24 ILE d   1      21.841   5.489  14.697  0.00  0.00     0.027 H 
ATOM     55  H25 ILE d   1      22.198   4.368  16.054  0.00  0.00     0.027 H 
ENDBRANCH  49  52
ENDBRANCH  47  49
BRANCH  47  56
ATOM     56  CG2 ILE d   1      21.477   8.309  17.104  0.00  0.00    -0.071 C 
ATOM     57  H20 ILE d   1      20.558   8.667  17.591  0.00  0.00     0.028 H 
ATOM     58  H21 ILE d   1      21.524   8.701  16.077  0.00  0.00     0.028 H 
ATOM     59  H22 ILE d   1      22.353   8.659  17.671  0.00  0.00     0.028 H 
ENDBRANCH  47  56
ENDBRANCH  11  47
ENDBRANCH   8  11
ENDBRANCH   5   7
BRANCH   5  60
ATOM     60  CB  ASP d   1      21.052   8.571  22.485  0.00  0.00     0.043 C 
ATOM     61  H28 ASP d   1      22.107   8.883  22.463  0.00  0.00     0.052 H 
ATOM     62  H29 ASP d   1      20.987   7.517  22.793  0.00  0.00     0.052 H 
BRANCH  60  63
ATOM     63  CG  ASP d   1      20.323   9.413  23.496  0.00  0.00     0.175 C 
ATOM     64  OD1 ASP d   1      19.575  10.296  23.114  0.00  0.00    -0.648 OA
ATOM     65  OD2 ASP d   1      20.503   9.192  24.707  0.00  0.00    -0.648 OA
ENDBRANCH  60  63
ENDBRANCH   5  60
ENDBRANCH   1   5
BRANCH   3  66
ATOM     66  CA  VAL d   1      19.571  12.048  19.599  0.00  0.00     0.092 C 
ATOM     67  H31 VAL d   1      20.608  12.281  19.317  0.00  0.00     0.088 H 
BRANCH  66  68
ATOM     68  C   VAL d   1      19.122  13.089  20.595  0.00  0.00     0.241 C 
ATOM     69  O   VAL d   1      18.996  14.238  20.253  0.00  0.00    -0.271 OA
ATOM     70  N   VAL d   1      18.896  12.690  21.832  0.00  0.00    -0.346 N 
ATOM     71  H39 VAL d   1      19.049  11.734  22.082  0.00  0.00     0.163 HD
BRANCH  70  72
ATOM     72  CA  VAL d   1      18.432  13.621  22.821  0.00  0.00     0.092 C 
ATOM     73  H40 VAL d   1      18.249  14.568  22.291  0.00  0.00     0.088 H 
BRANCH  72  74
ATOM     74  C   VAL d   1      19.357  13.953  23.981  0.00  0.00     0.241 C 
ATOM     75  O   VAL d   1      19.538  15.103  24.298  0.00  0.00    -0.271 OA
ATOM     76  N   SER d   1      19.925  12.949  24.620  0.00  0.00    -0.344 N 
ATOM     77  H48 SER d   1      19.776  12.010  24.311  0.00  0.00     0.163 HD
BRANCH  76  78
ATOM     78  CA  SER d   1      20.767  13.211  25.774  0.00  0.00     0.109 C 
ATOM     79  H49 SER d   1      20.175  13.816  26.476  0.00  0.00     0.090 H 
BRANCH  78  80
ATOM     80  C   SER d   1      21.964  14.011  25.402  0.00  0.00     0.243 C 
ATOM     81  O   SER d   1      22.595  13.761  24.421  0.00  0.00    -0.271 OA
ATOM     82  N   VAL d   1      22.260  15.002  26.210  0.00  0.00    -0.344 N 
ATOM     83  H53 VAL d   1      21.689  15.177  27.012  0.00  0.00     0.163 HD
BRANCH  82  84
ATOM     84  CA  VAL d   1      23.407  15.842  25.947  0.00  0.00     0.099 C 
ATOM     85  H54 VAL d   1      23.619  15.758  24.871  0.00  0.00     0.090 H 
BRANCH  84  86
ATOM     86  C   VAL d   1      24.664  15.383  26.688  0.00  0.00     0.197 C 
ATOM     87  O   VAL d   1      24.580  14.383  27.454  0.00  0.00    -0.646 OA
ATOM     88  OXT VAL d   1      25.728  16.026  26.449  0.00  0.00    -0.646 OA
ENDBRANCH  84  86
BRANCH  84  89
ATOM     89  CB  VAL d   1      23.125  17.323  26.239  0.00  0.00    -0.032 C 
ATOM     90  H55 VAL d   1      24.025  17.909  26.002  0.00  0.00     0.042 H 
BRANCH  89  91
ATOM     91  CG1 VAL d   1      21.979  17.803  25.383  0.00  0.00    -0.071 C 
ATOM     92  H56 VAL d   1      21.781  18.864  25.596  0.00  0.00     0.028 H 
ATOM     93  H57 VAL d   1      21.080  17.210  25.608  0.00  0.00     0.028 H 
ATOM     94  H58 VAL d   1      22.240  17.685  24.321  0.00  0.00     0.028 H 
ENDBRANCH  89  91
BRANCH  89  95
ATOM     95  CG2 VAL d   1      22.774  17.529  27.685  0.00  0.00    -0.071 C 
ATOM     96  H59 VAL d   1      23.605  17.181  28.317  0.00  0.00     0.028 H 
ATOM     97  H60 VAL d   1      21.866  16.958  27.927  0.00  0.00     0.028 H 
ATOM     98  H61 VAL d   1      22.595  18.598  27.870  0.00  0.00     0.028 H 
ENDBRANCH  89  95
ENDBRANCH  84  89
ENDBRANCH  82  84
ENDBRANCH  78  80
BRANCH  78  99
ATOM     99  CB  SER d   1      21.155  11.934  26.501  0.00  0.00     0.044 C 
ATOM    100  H50 SER d   1      20.609  11.890  27.455  0.00  0.00     0.077 H 
ATOM    101  H51 SER d   1      22.237  11.953  26.698  0.00  0.00     0.077 H 
BRANCH  99 102
ATOM    102  OG  SER d   1      20.853  10.788  25.755  0.00  0.00    -0.398 OA
ATOM    103  H52 SER d   1      21.325  10.814  24.931  0.00  0.00     0.209 HD
ENDBRANCH  99 102
ENDBRANCH  78  99
ENDBRANCH  76  78
ENDBRANCH  72  74
BRANCH  72 104
ATOM    104  CB  VAL d   1      17.094  13.122  23.382  0.00  0.00    -0.033 C 
ATOM    105  H41 VAL d   1      17.262  12.148  23.864  0.00  0.00     0.042 H 
BRANCH 104 106
ATOM    106  CG1 VAL d   1      16.542  14.067  24.416  0.00  0.00    -0.071 C 
ATOM    107  H42 VAL d   1      15.585  13.678  24.795  0.00  0.00     0.028 H 
ATOM    108  H43 VAL d   1      16.381  15.056  23.961  0.00  0.00     0.028 H 
ATOM    109  H44 VAL d   1      17.256  14.158  25.248  0.00  0.00     0.028 H 
ENDBRANCH 104 106
BRANCH 104 110
ATOM    110  CG2 VAL d   1      16.114  12.935  22.255  0.00  0.00    -0.071 C 
ATOM    111  H45 VAL d   1      16.537  12.242  21.512  0.00  0.00     0.028 H 
ATOM    112  H46 VAL d   1      15.914  13.906  21.778  0.00  0.00     0.028 H 
ATOM    113  H47 VAL d   1      15.175  12.520  22.651  0.00  0.00     0.028 H 
ENDBRANCH 104 110
ENDBRANCH  72 104
ENDBRANCH  70  72
ENDBRANCH  66  68
BRANCH  66 114
ATOM    114  CB  VAL d   1      18.685  12.159  18.353  0.00  0.00    -0.033 C 
ATOM    115  H32 VAL d   1      18.750  13.180  17.950  0.00  0.00     0.042 H 
BRANCH 114 116
ATOM    116  CG1 VAL d   1      19.140  11.181  17.310  0.00  0.00    -0.071 C 
ATOM    117  H33 VAL d   1      18.498  11.268  16.421  0.00  0.00     0.028 H 
ATOM    118  H34 VAL d   1      19.073  10.159  17.711  0.00  0.00     0.028 H 
ATOM    119  H35 VAL d   1      20.182  11.399  17.033  0.00  0.00     0.028 H 
ENDBRANCH 114 116
BRANCH 114 120
ATOM    120  CG2 VAL d   1      17.251  11.853  18.723  0.00  0.00    -0.071 C 
ATOM    121  H36 VAL d   1      16.910  12.566  19.488  0.00  0.00     0.028 H 
ATOM    122  H37 VAL d   1      17.185  10.829  19.121  0.00  0.00     0.028 H 
ATOM    123  H38 VAL d   1      16.615  11.941  17.830  0.00  0.00     0.028 H 
ENDBRANCH 114 120
ENDBRANCH  66 114
ENDBRANCH   3  66
TORSDOF 39
