REMARK  3 active torsions:
REMARK  status: ('A' for Active; 'I' for Inactive)
REMARK    1  A    between atoms: C2_2  and  C7_19 
REMARK    2  A    between atoms: C5_14  and  C4_15 
REMARK    3  A    between atoms: C_16  and  N_17 
ROOT
ATOM      1  C1  49B d   1      -8.170  -4.067  -9.448  0.00  0.00     0.015 A 
ATOM      2  C2  49B d   1      -8.213  -5.386  -9.930  0.00  0.00    -0.006 A 
ATOM      3  C3  49B d   1      -7.917  -6.420  -9.036  0.00  0.00    -0.053 A 
ATOM      4  C4  49B d   1      -7.701  -6.148  -7.672  0.00  0.00     0.065 A 
ATOM      5  C   49B d   1      -7.652  -4.791  -7.259  0.00  0.00     0.135 A 
ATOM      6  N1  49B d   1      -7.900  -3.808  -8.151  0.00  0.00    -0.242 NA
ATOM      7  H1  49B d   1      -8.357  -3.244 -10.129  0.00  0.00     0.116 H 
ATOM      8  H2  49B d   1      -7.853  -7.440  -9.397  0.00  0.00     0.086 H 
ENDROOT
BRANCH   2   9
ATOM      9  C7  49B d   1      -8.509  -5.637 -11.374  0.00  0.00    -0.006 A 
ATOM     10  C15 49B d   1      -9.341  -4.731 -12.066  0.00  0.00    -0.059 A 
ATOM     11  C14 49B d   1      -9.592  -4.904 -13.429  0.00  0.00    -0.007 A 
ATOM     12  H6  49B d   1      -9.787  -3.897 -11.537  0.00  0.00     0.086 H 
ATOM     13  C13 49B d   1     -10.438  -4.019 -14.121  0.00  0.00    -0.071 A 
ATOM     14  C9  49B d   1      -8.972  -5.997 -14.096  0.00  0.00     0.066 A 
ATOM     15  C12 49B d   1     -10.646  -4.221 -15.498  0.00  0.00    -0.082 A 
ATOM     16  H5  49B d   1     -10.920  -3.197 -13.604  0.00  0.00     0.084 H 
ATOM     17  C11 49B d   1     -10.038  -5.303 -16.167  0.00  0.00    -0.081 A 
ATOM     18  H4  49B d   1     -11.280  -3.537 -16.050  0.00  0.00     0.083 H 
ATOM     19  C10 49B d   1      -9.196  -6.188 -15.475  0.00  0.00    -0.054 A 
ATOM     20  H3  49B d   1     -10.222  -5.453 -17.225  0.00  0.00     0.083 H 
ATOM     21  H11 49B d   1      -8.722  -7.011 -15.997  0.00  0.00     0.087 H 
ATOM     22  N4  49B d   1      -8.165  -6.860 -13.419  0.00  0.00    -0.259 NA
ATOM     23  C8  49B d   1      -7.898  -6.686 -12.103  0.00  0.00     0.014 A 
ATOM     24  H10 49B d   1      -7.209  -7.357 -11.602  0.00  0.00     0.116 H 
ENDBRANCH   2   9
BRANCH   4  25
ATOM     25  C5  49B d   1      -7.349  -7.332  -6.791  0.00  0.00     0.205 C 
ATOM     26  N2  49B d   1      -6.996  -7.282  -5.571  0.00  0.00    -0.145 NA
ATOM     27  N3  49B d   1      -6.693  -8.528  -5.172  0.00  0.00    -0.245 N 
ATOM     28  C6  49B d   1      -6.719  -9.248  -6.258  0.00  0.00     0.237 C 
ATOM     29  H7  49B d   1      -6.491  -8.837  -4.242  0.00  0.00     0.192 HD
ATOM     30  S   49B d   1      -6.163 -10.860  -6.425  0.00  0.00    -0.031 SA
ATOM     31  O   49B d   1      -7.284  -8.579  -7.263  0.00  0.00    -0.261 OA
ENDBRANCH   4  25
BRANCH   5  32
ATOM     32  N   49B d   1      -7.347  -4.385  -6.007  0.00  0.00    -0.383 N 
ATOM     33  H8  49B d   1      -7.331  -3.380  -5.781  0.00  0.00     0.157 HD
ATOM     34  H9  49B d   1      -7.130  -5.080  -5.279  0.00  0.00     0.157 HD
ENDBRANCH   5  32
TORSDOF 3
