REMARK  3 active torsions:
REMARK  status: ('A' for Active; 'I' for Inactive)
REMARK    1  A    between atoms: C2_2  and  C1_1 
REMARK    2  A    between atoms: C_11  and  N_10 
REMARK    3  A    between atoms: C6_19  and  C9_22 
ROOT
ATOM      1  C2  499 d   1      14.627  -0.527 195.375  0.00  0.00     0.048 A 
ATOM      2  C3  499 d   1      15.085  -1.819 195.448  0.00  0.00    -0.006 A 
ATOM      3  C8  499 d   1      14.152  -0.193 196.700  0.00  0.00     0.027 A 
ATOM      4  C4  499 d   1      14.369  -1.325 197.496  0.00  0.00     0.138 A 
ATOM      5  N3  499 d   1      14.945  -2.300 196.728  0.00  0.00    -0.349 N 
ATOM      6  C7  499 d   1      13.625   0.932 197.329  0.00  0.00    -0.056 A 
ATOM      7  C6  499 d   1      13.339   0.879 198.693  0.00  0.00    -0.005 A 
ATOM      8  C5  499 d   1      13.581  -0.319 199.370  0.00  0.00     0.015 A 
ATOM      9  N4  499 d   1      14.087  -1.431 198.803  0.00  0.00    -0.242 NA
ATOM     10  H1  499 d   1      15.499  -2.381 194.613  0.00  0.00     0.112 H 
ATOM     11  H8  499 d   1      15.226  -3.236 197.054  0.00  0.00     0.167 HD
ATOM     12  H9  499 d   1      13.439   1.839 196.765  0.00  0.00     0.086 H 
ATOM     13  H10 499 d   1      13.345  -0.356 200.427  0.00  0.00     0.116 H 
ENDROOT
BRANCH   7  14
ATOM     14  C9  499 d   1      12.808   2.087 199.387  0.00  0.00     0.003 A 
ATOM     15  C16 499 d   1      11.808   2.163 200.449  0.00  0.00     0.003 A 
ATOM     16  C11 499 d   1      11.633   3.531 200.740  0.00  0.00     0.043 A 
ATOM     17  C15 499 d   1      11.065   1.222 201.167  0.00  0.00    -0.070 A 
ATOM     18  C12 499 d   1      10.742   3.963 201.721  0.00  0.00    -0.056 A 
ATOM     19  N5  499 d   1      12.471   4.248 199.915  0.00  0.00    -0.364 N 
ATOM     20  C13 499 d   1      10.015   3.005 202.425  0.00  0.00    -0.081 A 
ATOM     21  H2  499 d   1      10.618   5.019 201.931  0.00  0.00     0.086 H 
ATOM     22  C14 499 d   1      10.172   1.652 202.150  0.00  0.00    -0.082 A 
ATOM     23  H3  499 d   1       9.320   3.319 203.195  0.00  0.00     0.083 H 
ATOM     24  H4  499 d   1       9.594   0.922 202.705  0.00  0.00     0.083 H 
ATOM     25  C10 499 d   1      13.166   3.385 199.112  0.00  0.00    -0.011 A 
ATOM     26  H11 499 d   1      12.561   5.274 199.904  0.00  0.00     0.165 HD
ATOM     27  H12 499 d   1      13.898   3.684 198.363  0.00  0.00     0.112 H 
ATOM     28  H5  499 d   1      11.181   0.164 200.962  0.00  0.00     0.084 H 
ENDBRANCH   7  14
BRANCH   1  29
ATOM     29  C1  499 d   1      14.745   0.345 194.253  0.00  0.00     0.206 A 
ATOM     30  O   499 d   1      14.413   1.637 194.486  0.00  0.00    -0.255 OA
ATOM     31  C   499 d   1      14.673   2.219 193.291  0.00  0.00     0.265 A 
ATOM     32  N1  499 d   1      15.123   1.383 192.409  0.00  0.00    -0.103 NA
ATOM     33  N2  499 d   1      15.160   0.142 193.053  0.00  0.00    -0.119 NA
BRANCH  31  34
ATOM     34  N   499 d   1      14.434   3.524 193.202  0.00  0.00    -0.362 N 
ATOM     35  H6  499 d   1      14.613   4.021 192.318  0.00  0.00     0.159 HD
ATOM     36  H7  499 d   1      14.070   4.038 194.017  0.00  0.00     0.159 HD
ENDBRANCH  31  34
ENDBRANCH   1  29
TORSDOF 3
