REMARK  5 active torsions:
REMARK  status: ('A' for Active; 'I' for Inactive)
REMARK    1  A    between atoms: C5_4  and  N8_5 
REMARK    2  A    between atoms: C14_14  and  N18_15 
REMARK    3  A    between atoms: N18_15  and  C19_16 
REMARK    4  A    between atoms: C19_16  and  C20_17 
REMARK    5  A    between atoms: C19_16  and  C24_18 
ROOT
ATOM      1  N8  49E d   1      80.265  51.635  42.267  0.00  0.00    -0.248 N 
ATOM      2  C11 49E d   1      79.219  52.323  42.713  0.00  0.00     0.157 A 
ATOM      3  N13 49E d   1      78.286  53.020  42.062  0.00  0.00    -0.174 N 
ATOM      4  N9  49E d   1      80.863  51.151  43.218  0.00  0.00    -0.182 NA
ATOM      5  C10 49E d   1      80.256  51.479  44.352  0.00  0.00     0.041 A 
ATOM      6  C12 49E d   1      79.203  52.229  44.044  0.00  0.00     0.098 A 
ATOM      7  C16 49E d   1      78.247  52.827  44.786  0.00  0.00     0.275 A 
ATOM      8  O17 49E d   1      78.218  52.746  46.023  0.00  0.00    -0.267 OA
ATOM      9  N15 49E d   1      77.261  53.561  44.120  0.00  0.00    -0.155 N 
ATOM     10  C14 49E d   1      77.307  53.647  42.731  0.00  0.00     0.683 A 
ATOM     11  H8  49E d   1      78.318  53.077  41.034  0.00  0.00     0.186 HD
ATOM     12  H9  49E d   1      80.565  51.186  45.354  0.00  0.00     0.119 H 
ATOM     13  H10 49E d   1      76.534  54.017  44.633  0.00  0.00     0.187 HD
ENDROOT
BRANCH  10  14
ATOM     14  N18 49E d   1      76.389  54.356  42.085  0.00  0.00    -0.218 N 
ATOM     15  H11 49E d   1      75.559  54.686  42.597  0.00  0.00     0.178 HD
BRANCH  14  16
ATOM     16  C19 49E d   1      76.527  54.684  40.649  0.00  0.00     0.048 C 
ATOM     17  H12 49E d   1      77.588  54.641  40.360  0.00  0.00     0.080 H 
BRANCH  16  18
ATOM     18  C20 49E d   1      76.008  56.094  40.375  0.00  0.00    -0.053 C 
ATOM     19  H13 49E d   1      76.117  56.323  39.305  0.00  0.00     0.030 H 
ATOM     20  H14 49E d   1      76.587  56.819  40.966  0.00  0.00     0.030 H 
ATOM     21  H15 49E d   1      74.947  56.155  40.657  0.00  0.00     0.030 H 
ENDBRANCH  16  18
BRANCH  16  22
ATOM     22  C24 49E d   1      75.817  53.704  39.942  0.00  0.00    -0.035 A 
ATOM     23  C29 49E d   1      74.450  53.539  40.187  0.00  0.00    -0.073 A 
ATOM     24  C28 49E d   1      73.739  52.556  39.519  0.00  0.00    -0.061 A 
ATOM     25  H16 49E d   1      73.946  54.181  40.901  0.00  0.00     0.084 H 
ATOM     26  C27 49E d   1      74.404  51.732  38.615  0.00  0.00     0.034 A 
ATOM     27  H17 49E d   1      72.677  52.430  39.698  0.00  0.00     0.086 H 
ATOM     28  C26 49E d   1      75.770  51.872  38.357  0.00  0.00    -0.061 A 
ATOM     29 CL   49E d   1      73.525  50.556  37.829  0.00  0.00    -0.084 Cl
ATOM     30  C25 49E d   1      76.478  52.862  39.030  0.00  0.00    -0.073 A 
ATOM     31  H18 49E d   1      76.268  51.222  37.647  0.00  0.00     0.086 H 
ATOM     32  H19 49E d   1      77.540  52.985  38.851  0.00  0.00     0.084 H 
ENDBRANCH  16  22
ENDBRANCH  14  16
ENDBRANCH  10  14
BRANCH   1  33
ATOM     33  C5  49E d   1      80.654  51.507  40.813  0.00  0.00     0.036 C 
ATOM     34  C3  49E d   1      82.042  52.086  40.554  0.00  0.00    -0.044 C 
ATOM     35  C2  49E d   1      82.628  51.132  39.564  0.00  0.00    -0.063 C 
ATOM     36  H3  49E d   1      81.975  53.100  40.133  0.00  0.00     0.036 H 
ATOM     37  H4  49E d   1      82.638  52.111  41.478  0.00  0.00     0.036 H 
ATOM     38  C1  49E d   1      82.219  49.817  40.163  0.00  0.00    -0.063 C 
ATOM     39  H1  49E d   1      83.722  51.228  39.508  0.00  0.00     0.033 H 
ATOM     40  H2  49E d   1      82.196  51.272  38.562  0.00  0.00     0.033 H 
ATOM     41  C4  49E d   1      80.752  50.050  40.312  0.00  0.00    -0.044 C 
ATOM     42  H20 49E d   1      82.706  49.641  41.134  0.00  0.00     0.033 H 
ATOM     43  H21 49E d   1      82.433  48.976  39.487  0.00  0.00     0.033 H 
ATOM     44  H5  49E d   1      80.238  49.933  39.347  0.00  0.00     0.036 H 
ATOM     45  H6  49E d   1      80.318  49.354  41.045  0.00  0.00     0.036 H 
ATOM     46  H7  49E d   1      79.906  52.048  40.214  0.00  0.00     0.076 H 
ENDBRANCH   1  33
TORSDOF 5
