REMARK  5 active torsions:
REMARK  status: ('A' for Active; 'I' for Inactive)
REMARK    1  A    between atoms: C5_4  and  N8_5 
REMARK    2  A    between atoms: C14_14  and  N18_15 
REMARK    3  A    between atoms: N18_15  and  C19_16 
REMARK    4  A    between atoms: C19_16  and  C20_17 
REMARK    5  A    between atoms: C19_16  and  C24_18 
ROOT
ATOM      1  N8  49D d   1      79.221  51.518  42.254  0.00  0.00    -0.248 N 
ATOM      2  C11 49D d   1      78.146  52.199  42.662  0.00  0.00     0.157 A 
ATOM      3  N13 49D d   1      77.175  52.811  41.959  0.00  0.00    -0.174 N 
ATOM      4  N9  49D d   1      79.874  51.114  43.281  0.00  0.00    -0.182 NA
ATOM      5  C10 49D d   1      79.229  51.512  44.378  0.00  0.00     0.041 A 
ATOM      6  C12 49D d   1      78.140  52.195  44.000  0.00  0.00     0.098 A 
ATOM      7  C16 49D d   1      77.147  52.811  44.679  0.00  0.00     0.275 A 
ATOM      8  O17 49D d   1      77.102  52.837  45.912  0.00  0.00    -0.267 OA
ATOM      9  N15 49D d   1      76.130  53.443  43.965  0.00  0.00    -0.155 N 
ATOM     10  C14 49D d   1      76.165  53.431  42.574  0.00  0.00     0.683 A 
ATOM     11  H8  49D d   1      77.212  52.801  40.930  0.00  0.00     0.186 HD
ATOM     12  H9  49D d   1      79.535  51.316  45.405  0.00  0.00     0.119 H 
ATOM     13  H10 49D d   1      75.383  53.900  44.448  0.00  0.00     0.187 HD
ENDROOT
BRANCH  10  14
ATOM     14  N18 49D d   1      75.205  54.033  41.890  0.00  0.00    -0.218 N 
ATOM     15  H11 49D d   1      74.404  54.430  42.402  0.00  0.00     0.178 HD
BRANCH  14  16
ATOM     16  C19 49D d   1      75.242  54.156  40.420  0.00  0.00     0.048 C 
ATOM     17  H12 49D d   1      75.976  53.449  40.006  0.00  0.00     0.080 H 
BRANCH  16  18
ATOM     18  C20 49D d   1      73.854  53.810  39.852  0.00  0.00    -0.053 C 
ATOM     19  H13 49D d   1      73.874  53.900  38.756  0.00  0.00     0.030 H 
ATOM     20  H14 49D d   1      73.106  54.504  40.263  0.00  0.00     0.030 H 
ATOM     21  H15 49D d   1      73.590  52.779  40.131  0.00  0.00     0.030 H 
ENDBRANCH  16  18
BRANCH  16  22
ATOM     22  C24 49D d   1      75.652  55.460  40.122  0.00  0.00    -0.035 A 
ATOM     23  C29 49D d   1      77.001  55.712  39.878  0.00  0.00    -0.073 A 
ATOM     24  C28 49D d   1      77.440  57.005  39.603  0.00  0.00    -0.061 A 
ATOM     25  H16 49D d   1      77.714  54.896  39.902  0.00  0.00     0.084 H 
ATOM     26  C27 49D d   1      76.534  58.064  39.573  0.00  0.00     0.034 A 
ATOM     27  H17 49D d   1      78.491  57.189  39.411  0.00  0.00     0.086 H 
ATOM     28  C26 49D d   1      75.193  57.824  39.820  0.00  0.00    -0.061 A 
ATOM     29 CL   49D d   1      77.071  59.670  39.234  0.00  0.00    -0.084 Cl
ATOM     30  C25 49D d   1      74.755  56.530  40.101  0.00  0.00    -0.073 A 
ATOM     31  H18 49D d   1      74.483  58.643  39.795  0.00  0.00     0.086 H 
ATOM     32  H19 49D d   1      73.705  56.353  40.306  0.00  0.00     0.084 H 
ENDBRANCH  16  22
ENDBRANCH  14  16
ENDBRANCH  10  14
BRANCH   1  33
ATOM     33  C5  49D d   1      79.554  51.368  40.808  0.00  0.00     0.036 C 
ATOM     34  C3  49D d   1      81.052  51.697  40.581  0.00  0.00    -0.044 C 
ATOM     35  C2  49D d   1      81.346  50.717  39.489  0.00  0.00    -0.063 C 
ATOM     36  H3  49D d   1      81.201  52.736  40.253  0.00  0.00     0.036 H 
ATOM     37  H4  49D d   1      81.657  51.506  41.480  0.00  0.00     0.036 H 
ATOM     38  C1  49D d   1      80.723  49.412  40.004  0.00  0.00    -0.063 C 
ATOM     39  H1  49D d   1      82.430  50.604  39.343  0.00  0.00     0.033 H 
ATOM     40  H2  49D d   1      80.879  51.030  38.543  0.00  0.00     0.033 H 
ATOM     41  C4  49D d   1      79.339  49.976  40.273  0.00  0.00    -0.044 C 
ATOM     42  H20 49D d   1      81.213  49.041  40.916  0.00  0.00     0.033 H 
ATOM     43  H21 49D d   1      80.715  48.618  39.243  0.00  0.00     0.033 H 
ATOM     44  H5  49D d   1      78.753  50.010  39.343  0.00  0.00     0.036 H 
ATOM     45  H6  49D d   1      78.812  49.358  41.015  0.00  0.00     0.036 H 
ATOM     46  H7  49D d   1      78.929  52.069  40.236  0.00  0.00     0.076 H 
ENDBRANCH   1  33
TORSDOF 5
