REMARK  5 active torsions:
REMARK  status: ('A' for Active; 'I' for Inactive)
REMARK    1  A    between atoms: NAX_6  and  CAU_7 
REMARK    2  A    between atoms: CAS_15  and  CAR_16 
REMARK    3  A    between atoms: CAQ_20  and  NAB_21 
REMARK    4  A    between atoms: CAT_22  and  OAN_23 
REMARK    5  A    between atoms: OAN_23  and  CAA_24 
ROOT
ATOM      1  CAU 49J d   1      30.326  50.026 -61.622  0.00  0.00     0.122 A 
ATOM      2  SAP 49J d   1      31.718  49.847 -61.031  0.00  0.00     0.032 SA
ATOM      3  NAM 49J d   1      31.329  48.882 -59.787  0.00  0.00    -0.207 NA
ATOM      4  CAV 49J d   1      30.007  48.696 -59.867  0.00  0.00     0.098 A 
ATOM      5  CAG 49J d   1      29.237  47.987 -59.035  0.00  0.00    -0.040 A 
ATOM      6  CAW 49J d   1      29.441  49.347 -60.904  0.00  0.00     0.120 A 
ATOM      7  NAL 49J d   1      28.119  49.267 -61.093  0.00  0.00    -0.255 NA
ATOM      8  CAE 49J d   1      27.298  48.539 -60.251  0.00  0.00     0.014 A 
ATOM      9  CAS 49J d   1      27.862  47.894 -59.176  0.00  0.00    -0.006 A 
ATOM     10  H9  49J d   1      29.710  47.461 -58.213  0.00  0.00     0.088 H 
ATOM     11  H10 49J d   1      26.232  48.478 -60.435  0.00  0.00     0.116 H 
ENDROOT
BRANCH   9  12
ATOM     12  CAR 49J d   1      27.071  47.112 -58.331  0.00  0.00    -0.022 A 
ATOM     13  CAF 49J d   1      27.618  45.984 -57.683  0.00  0.00    -0.038 A 
ATOM     14  CAT 49J d   1      26.806  45.193 -56.866  0.00  0.00     0.095 A 
ATOM     15  H11 49J d   1      28.664  45.732 -57.819  0.00  0.00     0.089 H 
ATOM     16  CAQ 49J d   1      25.460  45.528 -56.714  0.00  0.00     0.059 A 
ATOM     17  CAC 49J d   1      24.913  46.634 -57.341  0.00  0.00    -0.054 A 
ATOM     18  CAD 49J d   1      25.719  47.420 -58.160  0.00  0.00    -0.070 A 
ATOM     19  H13 49J d   1      23.869  46.885 -57.196  0.00  0.00     0.087 H 
ATOM     20  H12 49J d   1      25.294  48.278 -58.669  0.00  0.00     0.084 H 
BRANCH  14  21
ATOM     21  OAN 49J d   1      27.222  44.067 -56.184  0.00  0.00    -0.354 OA
BRANCH  21  22
ATOM     22  CAA 49J d   1      28.657  43.859 -56.050  0.00  0.00     0.010 C 
ATOM     23  H16 49J d   1      28.842  42.931 -55.489  0.00  0.00     0.066 H 
ATOM     24  H17 49J d   1      29.102  44.708 -55.511  0.00  0.00     0.066 H 
ATOM     25  H18 49J d   1      29.111  43.780 -57.049  0.00  0.00     0.066 H 
ENDBRANCH  21  22
ENDBRANCH  14  21
BRANCH  16  26
ATOM     26  NAB 49J d   1      24.721  44.756 -55.922  0.00  0.00    -0.397 N 
ATOM     27  H14 49J d   1      23.723  44.968 -55.782  0.00  0.00     0.156 HD
ATOM     28  H15 49J d   1      25.147  43.947 -55.449  0.00  0.00     0.156 HD
ENDBRANCH  16  26
ENDBRANCH   9  12
BRANCH   1  29
ATOM     29  NAX 49J d   1      30.106  50.735 -62.724  0.00  0.00    -0.368 N 
ATOM     30  CAJ 49J d   1      31.295  51.085 -63.548  0.00  0.00     0.015 C 
ATOM     31  CAH 49J d   1      30.822  52.053 -64.445  0.00  0.00     0.034 C 
ATOM     32  H1  49J d   1      32.098  51.496 -62.919  0.00  0.00     0.067 H 
ATOM     33  H2  49J d   1      31.668  50.202 -64.088  0.00  0.00     0.067 H 
ATOM     34  OAO 49J d   1      29.954  51.307 -65.305  0.00  0.00    -0.388 OA
ATOM     35  H3  49J d   1      31.650  52.502 -65.013  0.00  0.00     0.076 H 
ATOM     36  H4  49J d   1      30.269  52.844 -63.916  0.00  0.00     0.076 H 
ATOM     37  CAI 49J d   1      28.635  51.080 -64.732  0.00  0.00     0.034 C 
ATOM     38  CAK 49J d   1      28.737  51.130 -63.184  0.00  0.00     0.015 C 
ATOM     39  H5  49J d   1      28.263  50.093 -65.045  0.00  0.00     0.076 H 
ATOM     40  H6  49J d   1      27.943  51.861 -65.081  0.00  0.00     0.076 H 
ATOM     41  H7  49J d   1      27.999  50.438 -62.752  0.00  0.00     0.067 H 
ATOM     42  H8  49J d   1      28.524  52.154 -62.842  0.00  0.00     0.067 H 
ENDBRANCH   1  29
TORSDOF 5
