REMARK  12 active torsions:
REMARK  status: ('A' for Active; 'I' for Inactive)
REMARK    1  A    between atoms: C13_1  and  N16_23 
REMARK       I    between atoms: N16_23  and  C17_2 
REMARK    2  A    between atoms: C17_2  and  O19_25 
REMARK    3  A    between atoms: C20_4  and  C21_5 
REMARK       I    between atoms: N7_18  and  C20_4 
REMARK    4  A    between atoms: C21_5  and  C23_6 
REMARK    5  A    between atoms: C23_6  and  C24_7 
REMARK    6  A    between atoms: C27_10  and  N32_33 
REMARK    7  A    between atoms: C6_17  and  C1_12 
REMARK    8  A    between atoms: C4_15  and  C10_21 
REMARK    9  A    between atoms: C6_17  and  N7_18 
REMARK   10  A    between atoms: C6_17  and  C8_19 
REMARK   11  A    between atoms: C8_19  and  C25_27 
REMARK   12  A    between atoms: O19_25  and  C26_28 
REMARK       I    between atoms: C25_27  and  N39_39 
ROOT
ATOM      1  C6  4D5 d   1      39.695 -21.104  28.310  0.00  0.00     0.078 C 
ATOM      2  H8  4D5 d   1      39.345 -21.592  29.232  0.00  0.00     0.085 H 
ENDROOT
BRANCH   1   3
ATOM      3  C1  4D5 d   1      41.193 -21.041  28.390  0.00  0.00     0.129 A 
ATOM      4  N2  4D5 d   1      41.986 -20.841  27.350  0.00  0.00    -0.219 NA
ATOM      5  C3  4D5 d   1      43.250 -20.947  27.830  0.00  0.00     0.155 A 
ATOM      6  C4  4D5 d   1      43.258 -21.208  29.175  0.00  0.00     0.085 A 
ATOM      7 CL9  4D5 d   1      44.599 -20.774  26.781  0.00  0.00    -0.060 Cl
ATOM      8  N5  4D5 d   1      41.925 -21.249  29.516  0.00  0.00    -0.339 N 
ATOM      9  H7  4D5 d   1      41.548 -21.410  30.461  0.00  0.00     0.167 HD
BRANCH   6  10
ATOM     10  C10 4D5 d   1      44.322 -21.497  30.160  0.00  0.00    -0.006 A 
ATOM     11  C15 4D5 d   1      45.614 -21.007  29.980  0.00  0.00    -0.069 A 
ATOM     12  C14 4D5 d   1      46.632 -21.354  30.852  0.00  0.00    -0.056 A 
ATOM     13  H1  4D5 d   1      45.825 -20.346  29.147  0.00  0.00     0.085 H 
ATOM     14  C13 4D5 d   1      46.372 -22.172  31.952  0.00  0.00     0.036 A 
ATOM     15  H12 4D5 d   1      47.638 -20.988  30.679  0.00  0.00     0.086 H 
ATOM     16  C12 4D5 d   1      45.073 -22.630  32.155  0.00  0.00    -0.056 A 
ATOM     17  C11 4D5 d   1      44.070 -22.315  31.255  0.00  0.00    -0.069 A 
ATOM     18  H5  4D5 d   1      44.846 -23.237  33.024  0.00  0.00     0.086 H 
ATOM     19  H4  4D5 d   1      43.073 -22.712  31.406  0.00  0.00     0.085 H 
BRANCH  14  20
ATOM     20  N16 4D5 d   1      47.357 -22.631  32.879  0.00  0.00    -0.303 N 
ATOM     21  C17 4D5 d   1      48.684 -22.325  32.902  0.00  0.00     0.364 C 
ATOM     22  O18 4D5 d   1      49.281 -21.646  32.096  0.00  0.00    -0.238 OA
ATOM     23  H13 4D5 d   1      47.034 -23.250  33.595  0.00  0.00     0.171 HD
BRANCH  21  24
ATOM     24  O19 4D5 d   1      49.237 -22.849  34.005  0.00  0.00    -0.309 OA
BRANCH  24  25
ATOM     25  C26 4D5 d   1      50.629 -22.518  34.233  0.00  0.00     0.015 C 
ATOM     26  H14 4D5 d   1      50.973 -23.000  35.160  0.00  0.00     0.067 H 
ATOM     27  H15 4D5 d   1      50.736 -21.427  34.325  0.00  0.00     0.067 H 
ATOM     28  H16 4D5 d   1      51.234 -22.876  33.387  0.00  0.00     0.067 H 
ENDBRANCH  24  25
ENDBRANCH  21  24
ENDBRANCH  14  20
ENDBRANCH   6  10
ENDBRANCH   1   3
BRANCH   1  29
ATOM     29  N7  4D5 d   1      39.093 -19.773  28.267  0.00  0.00    -0.346 N 
ATOM     30  C20 4D5 d   1      38.962 -19.060  29.403  0.00  0.00     0.241 C 
ATOM     31  O22 4D5 d   1      39.405 -19.478  30.480  0.00  0.00    -0.269 OA
ATOM     32  H9  4D5 d   1      38.779 -19.392  27.397  0.00  0.00     0.163 HD
BRANCH  30  33
ATOM     33  C21 4D5 d   1      38.297 -17.741  29.274  0.00  0.00    -0.017 C 
ATOM     34  H2  4D5 d   1      38.196 -17.159  30.189  0.00  0.00     0.092 H 
BRANCH  33  35
ATOM     35  C23 4D5 d   1      37.808 -17.186  28.163  0.00  0.00    -0.066 C 
ATOM     36  H3  4D5 d   1      37.889 -17.782  27.255  0.00  0.00     0.085 H 
BRANCH  35  37
ATOM     37  C24 4D5 d   1      37.173 -15.867  28.017  0.00  0.00    -0.005 A 
ATOM     38  C27 4D5 d   1      37.628 -14.901  27.109  0.00  0.00     0.071 A 
ATOM     39  C28 4D5 d   1      36.972 -13.679  27.000  0.00  0.00    -0.053 A 
ATOM     40  C29 4D5 d   1      35.847 -13.424  27.767  0.00  0.00    -0.060 A 
ATOM     41  H17 4D5 d   1      37.342 -12.925  26.314  0.00  0.00     0.087 H 
ATOM     42  C30 4D5 d   1      35.411 -14.377  28.663  0.00  0.00     0.035 A 
ATOM     43  H18 4D5 d   1      35.315 -12.485  27.664  0.00  0.00     0.086 H 
ATOM     44  C31 4D5 d   1      36.050 -15.591  28.792  0.00  0.00    -0.050 A 
ATOM     45 CL3  4D5 d   1      34.061 -14.014  29.704  0.00  0.00    -0.084 Cl
ATOM     46  H19 4D5 d   1      35.679 -16.329  29.495  0.00  0.00     0.087 H 
BRANCH  38  47
ATOM     47  N32 4D5 d   1      38.711 -15.180  26.227  0.00  0.00    -0.205 N 
ATOM     48  C33 4D5 d   1      38.785 -15.210  24.891  0.00  0.00     0.113 A 
ATOM     49  N36 4D5 d   1      39.985 -15.572  24.538  0.00  0.00    -0.122 NA
ATOM     50  H6  4D5 d   1      37.971 -14.970  24.208  0.00  0.00     0.149 H 
ATOM     51  N35 4D5 d   1      40.670 -15.762  25.695  0.00  0.00    -0.023 NA
ATOM     52  N34 4D5 d   1      39.922 -15.528  26.724  0.00  0.00    -0.040 NA
ENDBRANCH  38  47
ENDBRANCH  35  37
ENDBRANCH  33  35
ENDBRANCH  30  33
ENDBRANCH   1  29
BRANCH   1  53
ATOM     53  C8  4D5 d   1      39.205 -21.955  27.132  0.00  0.00     0.035 C 
ATOM     54  H10 4D5 d   1      39.628 -21.531  26.209  0.00  0.00     0.051 H 
ATOM     55  H11 4D5 d   1      38.108 -21.886  27.098  0.00  0.00     0.051 H 
BRANCH  53  56
ATOM     56  C25 4D5 d   1      39.578 -23.422  27.185  0.00  0.00     0.222 C 
ATOM     57  O38 4D5 d   1      40.146 -23.892  28.165  0.00  0.00    -0.273 OA
ATOM     58  N39 4D5 d   1      39.194 -24.199  26.144  0.00  0.00    -0.348 N 
ATOM     59  C40 4D5 d   1      38.362 -23.770  25.011  0.00  0.00     0.017 C 
ATOM     60  C44 4D5 d   1      39.553 -25.608  25.981  0.00  0.00     0.017 C 
ATOM     61  C41 4D5 d   1      37.132 -24.629  24.949  0.00  0.00     0.034 C 
ATOM     62  H20 4D5 d   1      38.931 -23.875  24.076  0.00  0.00     0.067 H 
ATOM     63  H21 4D5 d   1      38.070 -22.718  25.146  0.00  0.00     0.067 H 
ATOM     64  O42 4D5 d   1      37.468 -26.009  24.794  0.00  0.00    -0.388 OA
ATOM     65  H22 4D5 d   1      36.517 -24.312  24.094  0.00  0.00     0.076 H 
ATOM     66  H23 4D5 d   1      36.559 -24.502  25.880  0.00  0.00     0.076 H 
ATOM     67  C43 4D5 d   1      38.303 -26.440  25.862  0.00  0.00     0.034 C 
ATOM     68  H24 4D5 d   1      38.590 -27.487  25.686  0.00  0.00     0.076 H 
ATOM     69  H25 4D5 d   1      37.739 -26.368  26.804  0.00  0.00     0.076 H 
ATOM     70  H26 4D5 d   1      40.132 -25.941  26.855  0.00  0.00     0.067 H 
ATOM     71  H27 4D5 d   1      40.160 -25.728  25.071  0.00  0.00     0.067 H 
ENDBRANCH  53  56
ENDBRANCH   1  53
TORSDOF 12
