REMARK  11 active torsions:
REMARK  status: ('A' for Active; 'I' for Inactive)
REMARK    1  A    between atoms: C19_5  and  O24_26 
REMARK    2  A    between atoms: C10_20  and  C12_8 
REMARK       I    between atoms: C44_44  and  N1_11 
REMARK    3  A    between atoms: N4_14  and  C46_46 
REMARK    4  A    between atoms: C25_27  and  C7_17 
REMARK    5  A    between atoms: C25_27  and  N42_42 
REMARK    6  A    between atoms: C43_43  and  C25_27 
REMARK    7  A    between atoms: C38_38  and  C30_31 
REMARK    8  A    between atoms: C31_32  and  N32_33 
REMARK    9  A    between atoms: C39_39  and  C38_38 
REMARK   10  A    between atoms: C40_40  and  C39_39 
REMARK       I    between atoms: N42_42  and  C40_40 
REMARK   11  A    between atoms: C43_43  and  C44_44 
ROOT
ATOM      1  C25 4CE d   1      40.329 -21.021  29.186  0.00  0.00     0.078 C 
ATOM      2  H19 4CE d   1      40.012 -21.279  30.207  0.00  0.00     0.085 H 
ENDROOT
BRANCH   1   3
ATOM      3  C7  4CE d   1      41.817 -20.996  29.160  0.00  0.00     0.129 A 
ATOM      4  N8  4CE d   1      42.562 -20.805  28.045  0.00  0.00    -0.331 N 
ATOM      5  C9  4CE d   1      43.849 -20.951  28.425  0.00  0.00     0.134 A 
ATOM      6  H16 4CE d   1      42.216 -20.591  27.099  0.00  0.00     0.168 HD
ATOM      7  C10 4CE d   1      43.854 -21.240  29.799  0.00  0.00     0.107 A 
ATOM      8 CL1  4CE d   1      45.120 -20.743  27.300  0.00  0.00    -0.062 Cl
ATOM      9  N11 4CE d   1      42.536 -21.251  30.222  0.00  0.00    -0.229 NA
BRANCH   7  10
ATOM     10  C12 4CE d   1      44.902 -21.537  30.800  0.00  0.00    -0.003 A 
ATOM     11  C13 4CE d   1      46.258 -21.483  30.472  0.00  0.00    -0.056 A 
ATOM     12  C14 4CE d   1      47.234 -21.839  31.419  0.00  0.00     0.025 A 
ATOM     13  H1  4CE d   1      46.560 -21.165  29.481  0.00  0.00     0.086 H 
ATOM     14  C15 4CE d   1      46.828 -22.252  32.703  0.00  0.00     0.048 A 
ATOM     15  C19 4CE d   1      48.669 -21.750  31.168  0.00  0.00     0.083 A 
ATOM     16  C16 4CE d   1      45.469 -22.265  33.025  0.00  0.00    -0.055 A 
ATOM     17  N22 4CE d   1      47.788 -22.566  33.669  0.00  0.00    -0.323 N 
ATOM     18  C17 4CE d   1      44.526 -21.919  32.084  0.00  0.00    -0.069 A 
ATOM     19  H3  4CE d   1      45.155 -22.549  34.023  0.00  0.00     0.087 H 
ATOM     20  H2  4CE d   1      43.475 -21.945  32.347  0.00  0.00     0.085 H 
ATOM     21  C21 4CE d   1      49.141 -22.465  33.496  0.00  0.00     0.248 A 
ATOM     22  H17 4CE d   1      47.460 -22.890  34.556  0.00  0.00     0.169 HD
ATOM     23  C20 4CE d   1      49.586 -22.066  32.185  0.00  0.00     0.015 A 
ATOM     24  O23 4CE d   1      49.905 -22.619  34.465  0.00  0.00    -0.268 OA
ATOM     25  H4  4CE d   1      50.654 -22.008  31.978  0.00  0.00     0.096 H 
BRANCH  15  26
ATOM     26  O24 4CE d   1      49.037 -21.309  29.972  0.00  0.00    -0.360 OA
ATOM     27  H18 4CE d   1      48.696 -20.432  29.840  0.00  0.00     0.217 HD
ENDBRANCH  15  26
ENDBRANCH   7  10
ENDBRANCH   1   3
BRANCH   1  28
ATOM     28  N42 4CE d   1      39.798 -19.701  28.889  0.00  0.00    -0.346 N 
ATOM     29  C40 4CE d   1      39.490 -18.900  29.962  0.00  0.00     0.241 C 
ATOM     30  O41 4CE d   1      39.860 -19.185  31.110  0.00  0.00    -0.269 OA
ATOM     31  H24 4CE d   1      39.663 -19.390  27.948  0.00  0.00     0.163 HD
BRANCH  29  32
ATOM     32  C39 4CE d   1      38.662 -17.675  29.706  0.00  0.00    -0.017 C 
ATOM     33  H23 4CE d   1      38.418 -17.060  30.571  0.00  0.00     0.092 H 
BRANCH  32  34
ATOM     34  C38 4CE d   1      38.199 -17.267  28.539  0.00  0.00    -0.066 C 
ATOM     35  H22 4CE d   1      38.400 -17.898  27.674  0.00  0.00     0.085 H 
BRANCH  34  36
ATOM     36  C30 4CE d   1      37.437 -16.035  28.309  0.00  0.00    -0.005 A 
ATOM     37  C29 4CE d   1      36.266 -15.849  29.055  0.00  0.00    -0.050 A 
ATOM     38  C28 4CE d   1      35.479 -14.727  28.852  0.00  0.00     0.035 A 
ATOM     39  H21 4CE d   1      35.974 -16.586  29.794  0.00  0.00     0.087 H 
ATOM     40  C27 4CE d   1      35.814 -13.782  27.911  0.00  0.00    -0.060 A 
ATOM     41 CL2  4CE d   1      34.021 -14.515  29.801  0.00  0.00    -0.084 Cl
ATOM     42  C26 4CE d   1      36.963 -13.961  27.147  0.00  0.00    -0.053 A 
ATOM     43  H6  4CE d   1      35.190 -12.908  27.766  0.00  0.00     0.086 H 
ATOM     44  C31 4CE d   1      37.787 -15.076  27.337  0.00  0.00     0.071 A 
ATOM     45  H20 4CE d   1      37.224 -13.226  26.394  0.00  0.00     0.087 H 
BRANCH  44  46
ATOM     46  N32 4CE d   1      38.818 -15.348  26.385  0.00  0.00    -0.205 N 
ATOM     47  C34 4CE d   1      38.955 -15.038  25.096  0.00  0.00     0.113 A 
ATOM     48  N35 4CE d   1      40.175 -15.269  24.705  0.00  0.00    -0.122 NA
ATOM     49  H5  4CE d   1      38.161 -14.648  24.461  0.00  0.00     0.149 H 
ATOM     50  N36 4CE d   1      40.817 -15.738  25.801  0.00  0.00    -0.023 NA
ATOM     51  N37 4CE d   1      40.021 -15.796  26.823  0.00  0.00    -0.040 NA
ENDBRANCH  44  46
ENDBRANCH  34  36
ENDBRANCH  32  34
ENDBRANCH  29  32
ENDBRANCH   1  28
BRANCH   1  52
ATOM     52  C43 4CE d   1      39.803 -22.114  28.258  0.00  0.00     0.035 C 
ATOM     53  H25 4CE d   1      40.365 -22.086  27.313  0.00  0.00     0.051 H 
ATOM     54  H26 4CE d   1      38.737 -21.933  28.056  0.00  0.00     0.051 H 
BRANCH  52  55
ATOM     55  C44 4CE d   1      39.964 -23.492  28.894  0.00  0.00     0.222 C 
ATOM     56  N1  4CE d   1      39.809 -24.595  28.123  0.00  0.00    -0.349 N 
ATOM     57  C2  4CE d   1      39.431 -24.667  26.686  0.00  0.00     0.020 C 
ATOM     58  C6  4CE d   1      39.974 -25.924  28.744  0.00  0.00     0.020 C 
ATOM     59  C3  4CE d   1      40.335 -25.628  25.925  0.00  0.00     0.098 C 
ATOM     60  H7  4CE d   1      39.518 -23.665  26.241  0.00  0.00     0.066 H 
ATOM     61  H8  4CE d   1      38.390 -25.014  26.606  0.00  0.00     0.066 H 
ATOM     62  N4  4CE d   1      40.384 -26.933  26.589  0.00  0.00    -0.072 N 
ATOM     63  H9  4CE d   1      41.351 -25.208  25.880  0.00  0.00     0.078 H 
ATOM     64  H10 4CE d   1      39.946 -25.757  24.904  0.00  0.00     0.078 H 
ATOM     65  C5  4CE d   1      40.884 -26.779  27.943  0.00  0.00     0.098 C 
ATOM     66  H11 4CE d   1      39.452 -27.315  26.624  0.00  0.00     0.279 HD
ATOM     67  H12 4CE d   1      41.880 -26.314  27.909  0.00  0.00     0.078 H 
ATOM     68  H13 4CE d   1      40.958 -27.770  28.416  0.00  0.00     0.078 H 
ATOM     69  H14 4CE d   1      38.991 -26.413  28.814  0.00  0.00     0.066 H 
ATOM     70  H15 4CE d   1      40.394 -25.799  29.753  0.00  0.00     0.066 H 
ATOM     71  O45 4CE d   1      40.173 -23.627  30.101  0.00  0.00    -0.273 OA
BRANCH  62  72
ATOM     72  C46 4CE d   1      41.234 -27.844  25.866  0.00  0.00     0.066 C 
ATOM     73  H27 4CE d   1      40.856 -27.962  24.840  0.00  0.00     0.068 H 
ATOM     74  H28 4CE d   1      41.236 -28.822  26.370  0.00  0.00     0.068 H 
ATOM     75  H29 4CE d   1      42.258 -27.444  25.836  0.00  0.00     0.068 H 
ENDBRANCH  62  72
ENDBRANCH  52  55
ENDBRANCH   1  52
TORSDOF 11
