REMARK  12 active torsions:
REMARK  status: ('A' for Active; 'I' for Inactive)
REMARK    1  A    between atoms: C1_1  and  O11_7 
REMARK    2  A    between atoms: C2_2  and  O12_12 
REMARK    3  A    between atoms: C3_3  and  O13_17 
REMARK    4  A    between atoms: C4_4  and  O14_22 
REMARK    5  A    between atoms: C5_5  and  O15_27 
REMARK    6  A    between atoms: C6_6  and  O16_32 
REMARK    7  A    between atoms: O11_7  and  P1_8 
REMARK    8  A    between atoms: O12_12  and  P2_13 
REMARK    9  A    between atoms: O13_17  and  P3_18 
REMARK   10  A    between atoms: O14_22  and  P4_23 
REMARK   11  A    between atoms: O15_27  and  P5_28 
REMARK   12  A    between atoms: O16_32  and  P6_33 
ROOT
ATOM      1  C1  IHP d   1       7.773  14.660 -38.760  0.00  0.00     0.107 C 
ATOM      2  C2  IHP d   1       6.775  14.093 -37.779  0.00  0.00     0.107 C 
ATOM      3  C3  IHP d   1       7.305  14.159 -36.384  0.00  0.00     0.107 C 
ATOM      4  C4  IHP d   1       7.862  15.529 -35.976  0.00  0.00     0.107 C 
ATOM      5  C5  IHP d   1       8.753  16.158 -37.018  0.00  0.00     0.107 C 
ATOM      6  C6  IHP d   1       8.136  16.086 -38.399  0.00  0.00     0.107 C 
ATOM      7  H1  IHP d   1       8.671  14.025 -38.787  0.00  0.00     0.092 H 
ATOM      8  H2  IHP d   1       6.505  13.062 -38.053  0.00  0.00     0.092 H 
ATOM      9  H3  IHP d   1       8.042  13.367 -36.188  0.00  0.00     0.092 H 
ATOM     10  H4  IHP d   1       7.039  16.208 -35.708  0.00  0.00     0.092 H 
ATOM     11  H5  IHP d   1       9.697  15.593 -37.038  0.00  0.00     0.092 H 
ATOM     12  H6  IHP d   1       7.234  16.715 -38.421  0.00  0.00     0.092 H 
ENDROOT
BRANCH   1  13
ATOM     13  O11 IHP d   1       7.183  14.746 -40.022  0.00  0.00    -0.272 OA
BRANCH  13  14
ATOM     14  P1  IHP d   1       7.363  13.625 -41.132  0.00  0.00     0.422 P 
ATOM     15  O21 IHP d   1       7.473  14.361 -42.437  0.00  0.00    -0.617 OA
ATOM     16  O31 IHP d   1       8.570  12.640 -40.648  0.00  0.00    -0.617 OA
ATOM     17  O41 IHP d   1       6.073  12.658 -40.949  0.00  0.00    -0.617 OA
ENDBRANCH  13  14
ENDBRANCH   1  13
BRANCH   2  18
ATOM     18  O12 IHP d   1       5.658  14.944 -37.779  0.00  0.00    -0.272 OA
BRANCH  18  19
ATOM     19  P2  IHP d   1       4.203  14.541 -38.415  0.00  0.00     0.422 P 
ATOM     20  O22 IHP d   1       3.904  15.452 -39.590  0.00  0.00    -0.617 OA
ATOM     21  O32 IHP d   1       4.249  12.900 -38.707  0.00  0.00    -0.617 OA
ATOM     22  O42 IHP d   1       3.178  14.702 -37.164  0.00  0.00    -0.617 OA
ENDBRANCH  18  19
ENDBRANCH   2  18
BRANCH   6  23
ATOM     23  O16 IHP d   1       9.048  16.528 -39.365  0.00  0.00    -0.272 OA
BRANCH  23  24
ATOM     24  P6  IHP d   1       8.747  17.904 -40.102  0.00  0.00     0.422 P 
ATOM     25  O26 IHP d   1       9.005  19.133 -39.326  0.00  0.00    -0.617 OA
ATOM     26  O36 IHP d   1       7.252  17.776 -40.515  0.00  0.00    -0.617 OA
ATOM     27  O46 IHP d   1       9.607  17.675 -41.412  0.00  0.00    -0.617 OA
ENDBRANCH  23  24
ENDBRANCH   6  23
BRANCH   3  28
ATOM     28  O13 IHP d   1       6.113  14.004 -35.678  0.00  0.00    -0.272 OA
BRANCH  28  29
ATOM     29  P3  IHP d   1       5.667  12.687 -34.846  0.00  0.00     0.422 P 
ATOM     30  O23 IHP d   1       6.218  11.417 -35.466  0.00  0.00    -0.617 OA
ATOM     31  O33 IHP d   1       3.981  12.693 -34.884  0.00  0.00    -0.617 OA
ATOM     32  O43 IHP d   1       6.061  13.124 -33.240  0.00  0.00    -0.617 OA
ENDBRANCH  28  29
ENDBRANCH   3  28
BRANCH   5  33
ATOM     33  O15 IHP d   1       9.058  17.525 -36.683  0.00  0.00    -0.272 OA
BRANCH  33  34
ATOM     34  P5  IHP d   1      10.628  17.990 -36.689  0.00  0.00     0.422 P 
ATOM     35  O25 IHP d   1      11.355  17.500 -37.900  0.00  0.00    -0.617 OA
ATOM     36  O35 IHP d   1      11.216  17.532 -35.325  0.00  0.00    -0.617 OA
ATOM     37  O45 IHP d   1      10.505  19.559 -36.625  0.00  0.00    -0.617 OA
ENDBRANCH  33  34
ENDBRANCH   5  33
BRANCH   4  38
ATOM     38  O14 IHP d   1       8.734  15.292 -34.890  0.00  0.00    -0.272 OA
BRANCH  38  39
ATOM     39  P4  IHP d   1       8.778  16.105 -33.459  0.00  0.00     0.422 P 
ATOM     40  O24 IHP d   1      10.182  16.191 -32.955  0.00  0.00    -0.617 OA
ATOM     41  O34 IHP d   1       7.946  17.485 -33.603  0.00  0.00    -0.617 OA
ATOM     42  O44 IHP d   1       7.873  15.139 -32.562  0.00  0.00    -0.617 OA
ENDBRANCH  38  39
ENDBRANCH   4  38
TORSDOF 12
