REMARK  20 active torsions:
REMARK  status: ('A' for Active; 'I' for Inactive)
REMARK    1  A    between atoms: C15_2  and  C25_3 
REMARK       I    between atoms: C15_2  and  N1_24 
REMARK    2  A    between atoms: C27_6  and  N2_7 
REMARK    3  A    between atoms: C23_14  and  C28_15 
REMARK       I    between atoms: C28_15  and  N3_16 
REMARK    4  A    between atoms: N3_16  and  C33_17 
REMARK    5  A    between atoms: N3_16  and  C36_20 
REMARK    6  A    between atoms: C33_17  and  C34_18 
REMARK    7  A    between atoms: C34_18  and  C35_19 
REMARK    8  A    between atoms: C36_20  and  C37_21 
REMARK    9  A    between atoms: C37_21  and  C38_22 
REMARK   10  A    between atoms: N1_24  and  C11_25 
REMARK   11  A    between atoms: C11_25  and  C14_26 
REMARK   12  A    between atoms: C11_25  and  C10_33 
REMARK   13  A    between atoms: C14_26  and  C19_27 
REMARK   14  A    between atoms: C10_33  and  O2_34 
REMARK   15  A    between atoms: C10_33  and  C9_35 
REMARK   16  A    between atoms: C9_35  and  N4_36 
REMARK   17  A    between atoms: N4_36  and  C7_37 
REMARK   18  A    between atoms: C7_37  and  C12_38 
REMARK   19  A    between atoms: C7_37  and  C13_39 
REMARK   20  A    between atoms: C7_37  and  C3_40 
ROOT
ATOM      1  O3  49W d   1     -65.770 -21.595 -16.799  0.00  0.00    -0.268 OA
ATOM      2  C15 49W d   1     -64.816 -22.244 -17.246  0.00  0.00     0.252 C 
ATOM      3  N1  49W d   1     -64.180 -21.847 -18.494  0.00  0.00    -0.349 N 
ATOM      4  H24 49W d   1     -63.415 -22.372 -18.867  0.00  0.00     0.163 HD
ENDROOT
BRANCH   3   5
ATOM      5  C11 49W d   1     -64.678 -20.676 -19.184  0.00  0.00     0.042 C 
ATOM      6  H25 49W d   1     -65.594 -20.338 -18.677  0.00  0.00     0.077 H 
BRANCH   5   7
ATOM      7  C14 49W d   1     -63.653 -19.579 -19.098  0.00  0.00    -0.020 C 
ATOM      8  H26 49W d   1     -64.039 -18.659 -19.560  0.00  0.00     0.043 H 
ATOM      9  H27 49W d   1     -62.725 -19.883 -19.605  0.00  0.00     0.043 H 
BRANCH   7  10
ATOM     10  C19 49W d   1     -63.392 -19.354 -17.589  0.00  0.00    -0.056 A 
ATOM     11  C20 49W d   1     -62.235 -19.847 -16.991  0.00  0.00    -0.077 A 
ATOM     12  C21 49W d   1     -62.012 -19.651 -15.623  0.00  0.00    -0.082 A 
ATOM     13  H28 49W d   1     -61.505 -20.384 -17.586  0.00  0.00     0.084 H 
ATOM     14  C16 49W d   1     -62.951 -18.966 -14.866  0.00  0.00    -0.083 A 
ATOM     15  H29 49W d   1     -61.110 -20.032 -15.158  0.00  0.00     0.083 H 
ATOM     16  C17 49W d   1     -64.109 -18.485 -15.466  0.00  0.00    -0.082 A 
ATOM     17  H30 49W d   1     -62.782 -18.806 -13.807  0.00  0.00     0.083 H 
ATOM     18  C18 49W d   1     -64.336 -18.674 -16.821  0.00  0.00    -0.077 A 
ATOM     19  H31 49W d   1     -64.843 -17.956 -14.868  0.00  0.00     0.083 H 
ATOM     20  H32 49W d   1     -65.242 -18.295 -17.280  0.00  0.00     0.084 H 
ENDBRANCH   7  10
ENDBRANCH   5   7
BRANCH   5  21
ATOM     21  C10 49W d   1     -65.031 -20.986 -20.646  0.00  0.00     0.078 C 
ATOM     22  H33 49W d   1     -65.889 -20.368 -20.949  0.00  0.00     0.088 H 
BRANCH  21  23
ATOM     23  O2  49W d   1     -63.948 -20.697 -21.474  0.00  0.00    -0.392 OA
ATOM     24  H34 49W d   1     -63.727 -19.776 -21.395  0.00  0.00     0.210 HD
ENDBRANCH  21  23
BRANCH  21  25
ATOM     25  C9  49W d   1     -65.397 -22.438 -20.773  0.00  0.00     0.108 C 
ATOM     26  H35 49W d   1     -66.486 -22.552 -20.669  0.00  0.00     0.079 H 
ATOM     27  H36 49W d   1     -64.891 -23.014 -19.983  0.00  0.00     0.079 H 
BRANCH  25  28
ATOM     28  N4  49W d   1     -64.982 -22.932 -22.071  0.00  0.00    -0.059 N 
ATOM     29  H37 49W d   1     -64.167 -23.515 -21.961  0.00  0.00     0.278 HD
ATOM     30  H38 49W d   1     -64.759 -22.152 -22.669  0.00  0.00     0.278 HD
BRANCH  28  31
ATOM     31  C7  49W d   1     -66.065 -23.718 -22.680  0.00  0.00     0.162 C 
BRANCH  31  32
ATOM     32  C12 49W d   1     -67.249 -22.799 -22.970  0.00  0.00    -0.040 C 
ATOM     33  H39 49W d   1     -68.063 -23.382 -23.426  0.00  0.00     0.031 H 
ATOM     34  H40 49W d   1     -66.935 -22.004 -23.662  0.00  0.00     0.031 H 
ATOM     35  H41 49W d   1     -67.602 -22.349 -22.031  0.00  0.00     0.031 H 
ENDBRANCH  31  32
BRANCH  31  36
ATOM     36  C13 49W d   1     -65.579 -24.330 -23.974  0.00  0.00    -0.040 C 
ATOM     37  H42 49W d   1     -66.390 -24.918 -24.429  0.00  0.00     0.031 H 
ATOM     38  H43 49W d   1     -64.721 -24.987 -23.769  0.00  0.00     0.031 H 
ATOM     39  H44 49W d   1     -65.273 -23.531 -24.665  0.00  0.00     0.031 H 
ENDBRANCH  31  36
BRANCH  31  40
ATOM     40  C3  49W d   1     -66.535 -24.873 -21.706  0.00  0.00     0.069 A 
ATOM     41  N5  49W d   1     -65.597 -25.613 -20.976  0.00  0.00    -0.263 NA
ATOM     42  C1  49W d   1     -66.022 -26.620 -20.126  0.00  0.00     0.003 A 
ATOM     43  C6  49W d   1     -67.379 -26.900 -20.008  0.00  0.00    -0.066 A 
ATOM     44  H45 49W d   1     -65.298 -27.189 -19.554  0.00  0.00     0.114 H 
ATOM     45  C5  49W d   1     -68.307 -26.170 -20.734  0.00  0.00    -0.080 A 
ATOM     46  H46 49W d   1     -67.712 -27.691 -19.346  0.00  0.00     0.085 H 
ATOM     47  C4  49W d   1     -67.887 -25.155 -21.584  0.00  0.00    -0.057 A 
ATOM     48  H47 49W d   1     -69.364 -26.392 -20.638  0.00  0.00     0.083 H 
ATOM     49  H48 49W d   1     -68.614 -24.585 -22.151  0.00  0.00     0.086 H 
ENDBRANCH  31  40
ENDBRANCH  28  31
ENDBRANCH  25  28
ENDBRANCH  21  25
ENDBRANCH   5  21
ENDBRANCH   3   5
BRANCH   2  50
ATOM     50  C25 49W d   1     -64.317 -23.500 -16.444  0.00  0.00     0.035 A 
ATOM     51  C24 49W d   1     -63.114 -23.464 -15.743  0.00  0.00    -0.052 A 
ATOM     52  C23 49W d   1     -62.687 -24.598 -15.021  0.00  0.00     0.035 A 
ATOM     53  H1  49W d   1     -62.507 -22.566 -15.752  0.00  0.00     0.086 H 
ATOM     54  C22 49W d   1     -63.477 -25.772 -15.007  0.00  0.00    -0.042 A 
ATOM     55  C27 49W d   1     -64.689 -25.795 -15.710  0.00  0.00     0.036 A 
ATOM     56  H9  49W d   1     -63.147 -26.646 -14.457  0.00  0.00     0.088 H 
ATOM     57  C26 49W d   1     -65.109 -24.669 -16.427  0.00  0.00    -0.042 A 
ATOM     58  H2  49W d   1     -66.046 -24.694 -16.971  0.00  0.00     0.088 H 
BRANCH  52  59
ATOM     59  C28 49W d   1     -61.335 -24.552 -14.238  0.00  0.00     0.253 C 
ATOM     60  N3  49W d   1     -61.279 -23.941 -12.904  0.00  0.00    -0.348 N 
ATOM     61  O6  49W d   1     -60.323 -25.023 -14.742  0.00  0.00    -0.267 OA
BRANCH  60  62
ATOM     62  C33 49W d   1     -60.017 -23.885 -12.150  0.00  0.00    -0.002 C 
ATOM     63  H10 49W d   1     -59.681 -22.840 -12.074  0.00  0.00     0.064 H 
ATOM     64  H11 49W d   1     -59.252 -24.479 -12.671  0.00  0.00     0.064 H 
BRANCH  62  65
ATOM     65  C34 49W d   1     -60.238 -24.457 -10.739  0.00  0.00    -0.053 C 
ATOM     66  H12 49W d   1     -60.003 -25.532 -10.741  0.00  0.00     0.034 H 
ATOM     67  H13 49W d   1     -61.289 -24.312 -10.448  0.00  0.00     0.034 H 
BRANCH  65  68
ATOM     68  C35 49W d   1     -59.324 -23.736  -9.727  0.00  0.00    -0.075 C 
ATOM     69  H14 49W d   1     -59.490 -24.152  -8.722  0.00  0.00     0.027 H 
ATOM     70  H15 49W d   1     -59.558 -22.661  -9.722  0.00  0.00     0.027 H 
ATOM     71  H16 49W d   1     -58.272 -23.881 -10.015  0.00  0.00     0.027 H 
ENDBRANCH  65  68
ENDBRANCH  62  65
ENDBRANCH  60  62
BRANCH  60  72
ATOM     72  C36 49W d   1     -62.505 -23.382 -12.312  0.00  0.00    -0.002 C 
ATOM     73  H17 49W d   1     -62.518 -23.587 -11.231  0.00  0.00     0.064 H 
ATOM     74  H18 49W d   1     -63.385 -23.844 -12.784  0.00  0.00     0.064 H 
BRANCH  72  75
ATOM     75  C37 49W d   1     -62.532 -21.866 -12.548  0.00  0.00    -0.053 C 
ATOM     76  H19 49W d   1     -63.055 -21.645 -13.490  0.00  0.00     0.034 H 
ATOM     77  H20 49W d   1     -61.504 -21.479 -12.600  0.00  0.00     0.034 H 
BRANCH  75  78
ATOM     78  C38 49W d   1     -63.267 -21.217 -11.388  0.00  0.00    -0.075 C 
ATOM     79  H21 49W d   1     -63.298 -20.128 -11.537  0.00  0.00     0.027 H 
ATOM     80  H22 49W d   1     -62.742 -21.444 -10.448  0.00  0.00     0.027 H 
ATOM     81  H23 49W d   1     -64.293 -21.610 -11.338  0.00  0.00     0.027 H 
ENDBRANCH  75  78
ENDBRANCH  72  75
ENDBRANCH  60  72
ENDBRANCH  52  59
BRANCH  55  82
ATOM     82  N2  49W d   1     -65.514 -26.955 -15.725  0.00  0.00    -0.353 N 
ATOM     83  C30 49W d   1     -64.961 -28.195 -15.883  0.00  0.00    -0.020 A 
ATOM     84  C31 49W d   1     -65.796 -29.336 -15.905  0.00  0.00    -0.068 A 
ATOM     85  H3  49W d   1     -63.883 -28.304 -15.991  0.00  0.00     0.111 H 
ATOM     86  C32 49W d   1     -67.158 -29.194 -15.772  0.00  0.00    -0.084 A 
ATOM     87  H4  49W d   1     -65.361 -30.327 -16.027  0.00  0.00     0.085 H 
ATOM     88  C29 49W d   1     -67.708 -27.948 -15.620  0.00  0.00    -0.086 A 
ATOM     89  H5  49W d   1     -67.800 -30.073 -15.787  0.00  0.00     0.083 H 
ATOM     90  C47 49W d   1     -66.874 -26.813 -15.599  0.00  0.00     0.015 A 
ATOM     91  H6  49W d   1     -68.786 -27.836 -15.516  0.00  0.00     0.079 H 
ATOM     92  H7  49W d   1     -67.203 -26.163 -16.423  0.00  0.00     0.070 H 
ATOM     93  H8  49W d   1     -67.052 -26.306 -14.639  0.00  0.00     0.070 H 
ENDBRANCH  55  82
ENDBRANCH   2  50
TORSDOF 20
