REMARK  2 active torsions:
REMARK  status: ('A' for Active; 'I' for Inactive)
REMARK    1  A    between atoms: C1_1  and  C_2 
REMARK    2  A    between atoms: C_2  and  O_3 
ROOT
ATOM      1  C   CLX d   1      14.889  50.480  17.378  0.00  0.00     0.062 C 
ATOM      2  H1  CLX d   1      14.494  49.462  17.243  0.00  0.00     0.080 H 
ATOM      3  H2  CLX d   1      15.666  50.472  18.157  0.00  0.00     0.080 H 
ENDROOT
BRANCH   1   4
ATOM      4  C1  CLX d   1      13.725  51.407  17.846  0.00  0.00     0.209 C 
ATOM      5 CL1  CLX d   1      12.736  50.656  19.161  0.00  0.00    -0.081 Cl
ATOM      6 CL2  CLX d   1      14.414  52.889  18.542  0.00  0.00    -0.081 Cl
ATOM      7 CL3  CLX d   1      12.695  51.883  16.457  0.00  0.00    -0.081 Cl
ENDBRANCH   1   4
BRANCH   1   8
ATOM      8  O   CLX d   1      15.482  50.907  16.145  0.00  0.00    -0.397 OA
ATOM      9  H3  CLX d   1      16.182  50.310  15.908  0.00  0.00     0.209 HD
ENDBRANCH   1   8
TORSDOF 2
