REMARK  9 active torsions:
REMARK  status: ('A' for Active; 'I' for Inactive)
REMARK    1  A    between atoms: C4_1  and  C5_27 
REMARK    2  A    between atoms: C3_2  and  C2_3 
REMARK    3  A    between atoms: C2_3  and  C1_4 
REMARK    4  A    between atoms: C12_9  and  O1_5 
REMARK    5  A    between atoms: C13_10  and  C14_11 
REMARK    6  A    between atoms: C13_10  and  N2_17 
REMARK    7  A    between atoms: C19_16  and  C20_18 
REMARK    8  A    between atoms: C25_23  and  C26_24 
REMARK    9  A    between atoms: C5_27  and  C6_29 
ROOT
ATOM      1  C4  ZD7 d   1     -16.923  14.423  41.882  0.00  0.00     0.036 A 
ATOM      2  C3  ZD7 d   1     -18.352  14.857  40.006  0.00  0.00     0.043 A 
ATOM      3  N1  ZD7 d   1     -17.848  15.247  41.236  0.00  0.00    -0.257 NA
ATOM      4  C10 ZD7 d   1     -18.455  13.136  37.967  0.00  0.00    -0.033 C 
ATOM      5  C11 ZD7 d   1     -18.662  11.639  37.939  0.00  0.00    -0.021 C 
ATOM      6  C12 ZD7 d   1     -17.389  10.953  38.299  0.00  0.00     0.103 C 
ATOM      7  N2  ZD7 d   1     -16.562  11.514  39.304  0.00  0.00    -0.349 N 
ATOM      8  C7  ZD7 d   1     -16.469  13.205  41.302  0.00  0.00    -0.033 A 
ATOM      9  C8  ZD7 d   1     -16.979  12.776  39.954  0.00  0.00     0.042 A 
ATOM     10  C9  ZD7 d   1     -17.899  13.576  39.336  0.00  0.00    -0.007 A 
ATOM     11  H7  ZD7 d   1     -19.417  13.638  37.788  0.00  0.00     0.040 H 
ATOM     12  H8  ZD7 d   1     -17.742  13.418  37.178  0.00  0.00     0.040 H 
ATOM     13  H9  ZD7 d   1     -18.971  11.331  36.929  0.00  0.00     0.039 H 
ATOM     14  H10 ZD7 d   1     -19.444  11.364  38.662  0.00  0.00     0.039 H 
ATOM     15  H11 ZD7 d   1     -16.848  11.530  37.535  0.00  0.00     0.117 H 
ATOM     16  H28 ZD7 d   1     -15.755  12.586  41.833  0.00  0.00     0.090 H 
ENDROOT
BRANCH   7  17
ATOM     17  C13 ZD7 d   1     -15.273  10.956  39.738  0.00  0.00     0.021 C 
ATOM     18  H12 ZD7 d   1     -14.757  10.589  38.838  0.00  0.00     0.071 H 
ATOM     19  H13 ZD7 d   1     -14.695  11.779  40.183  0.00  0.00     0.071 H 
BRANCH  17  20
ATOM     20  C14 ZD7 d   1     -15.285   9.813  40.750  0.00  0.00    -0.040 A 
ATOM     21  C15 ZD7 d   1     -16.568   9.233  41.285  0.00  0.00    -0.074 A 
ATOM     22  C16 ZD7 d   1     -16.521   8.199  42.218  0.00  0.00    -0.072 A 
ATOM     23  H14 ZD7 d   1     -17.523   9.618  40.946  0.00  0.00     0.084 H 
ATOM     24  C19 ZD7 d   1     -15.171   7.693  42.692  0.00  0.00    -0.025 A 
ATOM     25  H15 ZD7 d   1     -17.436   7.762  42.600  0.00  0.00     0.084 H 
ATOM     26  C18 ZD7 d   1     -14.005   8.228  42.198  0.00  0.00    -0.072 A 
ATOM     27  C17 ZD7 d   1     -14.054   9.336  41.172  0.00  0.00    -0.074 A 
ATOM     28  H17 ZD7 d   1     -13.049   7.854  42.545  0.00  0.00     0.084 H 
ATOM     29  H16 ZD7 d   1     -13.137   9.753  40.771  0.00  0.00     0.084 H 
BRANCH  24  30
ATOM     30  C20 ZD7 d   1     -15.067   6.543  43.686  0.00  0.00    -0.012 A 
ATOM     31  C21 ZD7 d   1     -15.522   6.712  44.973  0.00  0.00    -0.071 A 
ATOM     32  C22 ZD7 d   1     -15.406   5.565  45.935  0.00  0.00    -0.082 A 
ATOM     33  H18 ZD7 d   1     -15.956   7.655  45.287  0.00  0.00     0.084 H 
ATOM     34  C23 ZD7 d   1     -14.846   4.370  45.545  0.00  0.00    -0.082 A 
ATOM     35  H19 ZD7 d   1     -15.768   5.680  46.950  0.00  0.00     0.083 H 
ATOM     36  C24 ZD7 d   1     -14.341   4.187  44.144  0.00  0.00    -0.068 A 
ATOM     37  H20 ZD7 d   1     -14.769   3.555  46.255  0.00  0.00     0.083 H 
ATOM     38  C25 ZD7 d   1     -14.446   5.227  43.253  0.00  0.00     0.026 A 
ATOM     39  H21 ZD7 d   1     -13.899   3.246  43.839  0.00  0.00     0.085 H 
BRANCH  38  40
ATOM     40  C26 ZD7 d   1     -13.952   5.051  41.859  0.00  0.00     0.198 A 
ATOM     41  N3  ZD7 d   1     -14.695   5.291  40.673  0.00  0.00    -0.139 NA
ATOM     42  N4  ZD7 d   1     -13.930   5.078  39.595  0.00  0.00    -0.200 N 
ATOM     43  N5  ZD7 d   1     -12.697   4.706  40.096  0.00  0.00     0.022 NA
ATOM     44  H22 ZD7 d   1     -14.202   5.171  38.606  0.00  0.00     0.208 HD
ATOM     45  N6  ZD7 d   1     -12.703   4.704  41.485  0.00  0.00    -0.136 NA
ENDBRANCH  38  40
ENDBRANCH  24  30
ENDBRANCH  17  20
ENDBRANCH   7  17
BRANCH   6  46
ATOM     46  O1  ZD7 d   1     -17.068   9.796  37.654  0.00  0.00    -0.377 OA
ATOM     47  H6  ZD7 d   1     -17.745   9.589  37.021  0.00  0.00     0.212 HD
ENDBRANCH   6  46
BRANCH   1  48
ATOM     48  C5  ZD7 d   1     -16.393  14.832  43.228  0.00  0.00    -0.028 C 
ATOM     49  H23 ZD7 d   1     -16.355  15.930  43.289  0.00  0.00     0.041 H 
ATOM     50  H24 ZD7 d   1     -15.381  14.422  43.363  0.00  0.00     0.041 H 
BRANCH  48  51
ATOM     51  C6  ZD7 d   1     -17.292  14.304  44.302  0.00  0.00    -0.071 C 
ATOM     52  H25 ZD7 d   1     -16.903  14.604  45.286  0.00  0.00     0.028 H 
ATOM     53  H26 ZD7 d   1     -17.330  13.206  44.242  0.00  0.00     0.028 H 
ATOM     54  H27 ZD7 d   1     -18.304  14.714  44.167  0.00  0.00     0.028 H 
ENDBRANCH  48  51
ENDBRANCH   1  48
BRANCH   2  55
ATOM     55  C2  ZD7 d   1     -19.350  15.798  39.371  0.00  0.00    -0.028 C 
ATOM     56  H1  ZD7 d   1     -19.147  15.868  38.292  0.00  0.00     0.041 H 
ATOM     57  H2  ZD7 d   1     -19.251  16.794  39.828  0.00  0.00     0.041 H 
BRANCH  55  58
ATOM     58  C1  ZD7 d   1     -20.754  15.293  39.580  0.00  0.00    -0.071 C 
ATOM     59  H3  ZD7 d   1     -21.467  15.988  39.113  0.00  0.00     0.028 H 
ATOM     60  H4  ZD7 d   1     -20.962  15.224  40.658  0.00  0.00     0.028 H 
ATOM     61  H5  ZD7 d   1     -20.858  14.298  39.122  0.00  0.00     0.028 H 
ENDBRANCH  55  58
ENDBRANCH   2  55
TORSDOF 9
