REMARK  6 active torsions:
REMARK  status: ('A' for Active; 'I' for Inactive)
REMARK    1  A    between atoms: P_1  and  O5'_5 
REMARK    2  A    between atoms: O5'_5  and  C5'_6 
REMARK    3  A    between atoms: C5'_6  and  C4'_7 
REMARK    4  A    between atoms: C3'_9  and  O3'_10 
REMARK    5  A    between atoms: C2'_11  and  O2'_12 
REMARK    6  A    between atoms: C1'_13  and  N9_14 
ROOT
ATOM      1  C4' AMP d   1      -5.040  11.073  13.989  0.00  0.00     0.089 C 
ATOM      2  O4' AMP d   1      -3.744  11.220  13.413  0.00  0.00    -0.353 OA
ATOM      3  C3' AMP d   1      -5.303  12.271  14.849  0.00  0.00     0.091 C 
ATOM      4  C2' AMP d   1      -4.607  13.380  14.094  0.00  0.00     0.105 C 
ATOM      5  C1' AMP d   1      -3.421  12.612  13.514  0.00  0.00     0.139 C 
ATOM      6  H3  AMP d   1      -5.090  10.143  14.574  0.00  0.00     0.090 H 
ATOM      7  H4  AMP d   1      -6.378  12.478  14.958  0.00  0.00     0.091 H 
ATOM      8  H6  AMP d   1      -5.244  13.773  13.288  0.00  0.00     0.093 H 
ATOM      9  H8  AMP d   1      -2.562  12.742  14.189  0.00  0.00     0.122 H 
ENDROOT
BRANCH   5  10
ATOM     10  N9  AMP d   1      -3.042  13.062  12.172  0.00  0.00    -0.294 N 
ATOM     11  C8  AMP d   1      -3.545  12.683  10.983  0.00  0.00     0.071 A 
ATOM     12  N7  AMP d   1      -2.879  13.311   9.973  0.00  0.00    -0.236 NA
ATOM     13  H9  AMP d   1      -4.364  11.978  10.848  0.00  0.00     0.144 H 
ATOM     14  C5  AMP d   1      -1.938  14.098  10.549  0.00  0.00     0.149 A 
ATOM     15  C6  AMP d   1      -0.898  15.043  10.113  0.00  0.00     0.155 A 
ATOM     16  C4  AMP d   1      -2.060  13.934  11.982  0.00  0.00     0.167 A 
ATOM     17  N6  AMP d   1      -0.692  15.301   8.812  0.00  0.00    -0.382 N 
ATOM     18  N1  AMP d   1      -0.155  15.657  11.046  0.00  0.00    -0.222 NA
ATOM     19  H10 AMP d   1       0.042  15.966   8.529  0.00  0.00     0.157 HD
ATOM     20  H11 AMP d   1      -1.268  14.834   8.097  0.00  0.00     0.157 HD
ATOM     21  C2  AMP d   1      -0.310  15.452  12.361  0.00  0.00     0.091 A 
ATOM     22  N3  AMP d   1      -1.243  14.614  12.821  0.00  0.00    -0.222 NA
ATOM     23  H12 AMP d   1       0.331  15.974  13.062  0.00  0.00     0.146 H 
ENDBRANCH   5  10
BRANCH   4  24
ATOM     24  O2' AMP d   1      -4.251  14.472  14.963  0.00  0.00    -0.388 OA
ATOM     25  H7  AMP d   1      -3.665  14.157  15.642  0.00  0.00     0.210 HD
ENDBRANCH   4  24
BRANCH   1  26
ATOM     26  C5' AMP d   1      -6.118  11.094  12.928  0.00  0.00     0.059 C 
ATOM     27  H1  AMP d   1      -7.110  11.043  13.400  0.00  0.00     0.079 H 
ATOM     28  H2  AMP d   1      -6.042  12.016  12.334  0.00  0.00     0.079 H 
BRANCH  26  29
ATOM     29  O5' AMP d   1      -5.921   9.969  12.099  0.00  0.00    -0.280 OA
BRANCH  29  30
ATOM     30  P   AMP d   1      -7.234   9.210  11.657  0.00  0.00     0.422 P 
ATOM     31  O1P AMP d   1      -6.729   8.357  10.513  0.00  0.00    -0.617 OA
ATOM     32  O2P AMP d   1      -7.535   8.487  12.940  0.00  0.00    -0.617 OA
ATOM     33  O3P AMP d   1      -8.247  10.233  11.204  0.00  0.00    -0.617 OA
ENDBRANCH  29  30
ENDBRANCH  26  29
ENDBRANCH   1  26
BRANCH   3  34
ATOM     34  O3' AMP d   1      -4.722  12.026  16.114  0.00  0.00    -0.390 OA
ATOM     35  H5  AMP d   1      -4.875  12.773  16.681  0.00  0.00     0.210 HD
ENDBRANCH   3  34
TORSDOF 6
