REMARK  10 active torsions:
REMARK  status: ('A' for Active; 'I' for Inactive)
REMARK    1  A    between atoms: O3B_8  and  PG_1 
REMARK    2  A    between atoms: PB_5  and  O3B_8 
REMARK    3  A    between atoms: O3A_12  and  PB_5 
REMARK    4  A    between atoms: PA_9  and  O3A_12 
REMARK    5  A    between atoms: PA_9  and  O5'_13 
REMARK    6  A    between atoms: O5'_13  and  C5'_14 
REMARK    7  A    between atoms: C5'_14  and  C4'_15 
REMARK    8  A    between atoms: C3'_17  and  O3'_18 
REMARK    9  A    between atoms: C2'_19  and  O2'_20 
REMARK   10  A    between atoms: C1'_21  and  N9_22 
ROOT
ATOM      1  C4' ATP d   1     -10.014  35.534 -32.755  0.00  0.00     0.089 C 
ATOM      2  O4' ATP d   1      -9.585  36.854 -33.098  0.00  0.00    -0.353 OA
ATOM      3  C3' ATP d   1     -10.866  35.687 -31.489  0.00  0.00     0.091 C 
ATOM      4  C2' ATP d   1     -10.118  36.808 -30.799  0.00  0.00     0.105 C 
ATOM      5  C1' ATP d   1      -9.611  37.680 -31.942  0.00  0.00     0.139 C 
ATOM      6  H3  ATP d   1      -9.139  34.913 -32.513  0.00  0.00     0.090 H 
ATOM      7  H4  ATP d   1     -11.888  36.001 -31.748  0.00  0.00     0.091 H 
ATOM      8  H6  ATP d   1     -10.784  37.370 -30.128  0.00  0.00     0.093 H 
ATOM      9  H8  ATP d   1      -8.595  38.028 -31.704  0.00  0.00     0.122 H 
ENDROOT
BRANCH   1  10
ATOM     10  C5' ATP d   1     -10.719  34.898 -33.938  0.00  0.00     0.058 C 
ATOM     11  H1  ATP d   1     -10.005  34.786 -34.767  0.00  0.00     0.079 H 
ATOM     12  H2  ATP d   1     -11.097  33.908 -33.644  0.00  0.00     0.079 H 
BRANCH  10  13
ATOM     13  O5' ATP d   1     -11.814  35.709 -34.368  0.00  0.00    -0.287 OA
BRANCH  13  14
ATOM     14  PA  ATP d   1     -12.844  35.172 -35.492  0.00  0.00     0.417 P 
ATOM     15  O1A ATP d   1     -14.132  35.966 -35.368  0.00  0.00    -0.624 OA
ATOM     16  O2A ATP d   1     -12.095  35.000 -36.805  0.00  0.00    -0.624 OA
BRANCH  14  17
ATOM     17  O3A ATP d   1     -13.026  33.690 -34.883  0.00  0.00    -0.180 OA
BRANCH  17  18
ATOM     18  PB  ATP d   1     -14.239  32.677 -35.137  0.00  0.00     0.428 P 
ATOM     19  O1B ATP d   1     -15.449  33.492 -35.536  0.00  0.00    -0.624 OA
ATOM     20  O2B ATP d   1     -14.240  31.828 -33.889  0.00  0.00    -0.624 OA
BRANCH  18  21
ATOM     21  O3B ATP d   1     -13.656  31.900 -36.437  0.00  0.00    -0.173 OA
BRANCH  21  22
ATOM     22  PG  ATP d   1     -13.409  30.315 -36.749  0.00  0.00     0.431 P 
ATOM     23  O1G ATP d   1     -14.048  29.579 -35.593  0.00  0.00    -0.616 OA
ATOM     24  O2G ATP d   1     -11.871  30.163 -36.891  0.00  0.00    -0.616 OA
ATOM     25  O3G ATP d   1     -14.153  30.105 -38.044  0.00  0.00    -0.616 OA
ENDBRANCH  21  22
ENDBRANCH  18  21
ENDBRANCH  17  18
ENDBRANCH  14  17
ENDBRANCH  13  14
ENDBRANCH  10  13
ENDBRANCH   1  10
BRANCH   3  26
ATOM     26  O3' ATP d   1     -10.954  34.507 -30.695  0.00  0.00    -0.390 OA
ATOM     27  H5  ATP d   1     -11.342  33.809 -31.209  0.00  0.00     0.210 HD
ENDBRANCH   3  26
BRANCH   5  28
ATOM     28  N9  ATP d   1     -10.459  38.859 -32.219  0.00  0.00    -0.294 N 
ATOM     29  C8  ATP d   1     -11.804  38.988 -32.076  0.00  0.00     0.071 A 
ATOM     30  N7  ATP d   1     -12.203  40.246 -32.419  0.00  0.00    -0.236 NA
ATOM     31  H9  ATP d   1     -12.470  38.197 -31.735  0.00  0.00     0.144 H 
ATOM     32  C5  ATP d   1     -11.112  40.942 -32.791  0.00  0.00     0.149 A 
ATOM     33  C6  ATP d   1     -10.810  42.313 -33.284  0.00  0.00     0.155 A 
ATOM     34  C4  ATP d   1      -9.972  40.021 -32.658  0.00  0.00     0.167 A 
ATOM     35  N6  ATP d   1     -11.788  43.229 -33.455  0.00  0.00    -0.382 N 
ATOM     36  N1  ATP d   1      -9.520  42.638 -33.556  0.00  0.00    -0.222 NA
ATOM     37  H10 ATP d   1     -11.556  44.172 -33.797  0.00  0.00     0.157 HD
ATOM     38  H11 ATP d   1     -12.766  42.984 -33.243  0.00  0.00     0.157 HD
ATOM     39  C2  ATP d   1      -8.518  41.743 -33.401  0.00  0.00     0.091 A 
ATOM     40  N3  ATP d   1      -8.731  40.472 -32.968  0.00  0.00    -0.222 NA
ATOM     41  H12 ATP d   1      -7.505  42.051 -33.631  0.00  0.00     0.146 H 
ENDBRANCH   5  28
BRANCH   4  42
ATOM     42  O2' ATP d   1      -8.988  36.312 -30.069  0.00  0.00    -0.388 OA
ATOM     43  H7  ATP d   1      -9.284  35.696 -29.409  0.00  0.00     0.210 HD
ENDBRANCH   4  42
TORSDOF 10
