REMARK  4 active torsions:
REMARK  status: ('A' for Active; 'I' for Inactive)
REMARK    1  A    between atoms: C7_1  and  C9_9 
REMARK    2  A    between atoms: C1_2  and  C17_17 
REMARK    3  A    between atoms: C9_9  and  C10_10 
REMARK    4  A    between atoms: C14_14  and  N16_16 
ROOT
ATOM      1  C7  4B2 d   1      23.541  56.219  86.557  0.00  0.00     0.009 A 
ATOM      2  C1  4B2 d   1      25.925  56.233  86.104  0.00  0.00     0.016 A 
ATOM      3  C5  4B2 d   1      23.339  56.805  85.315  0.00  0.00     0.128 A 
ATOM      4  C4  4B2 d   1      24.366  57.086  84.446  0.00  0.00    -0.007 A 
ATOM      5  C2  4B2 d   1      25.645  56.801  84.872  0.00  0.00     0.130 A 
ATOM      6  F3  4B2 d   1      26.635  57.100  84.059  0.00  0.00    -0.205 F 
ATOM      7  F6  4B2 d   1      22.105  57.090  84.916  0.00  0.00    -0.205 F 
ATOM      8  C8  4B2 d   1      24.848  55.940  86.926  0.00  0.00    -0.058 A 
ATOM      9  H1  4B2 d   1      24.178  57.513  83.468  0.00  0.00     0.093 H 
ATOM     10  H2  4B2 d   1      25.034  55.478  87.889  0.00  0.00     0.086 H 
ENDROOT
BRANCH   1  11
ATOM     11  C9  4B2 d   1      22.378  55.893  87.471  0.00  0.00     0.059 C 
ATOM     12  C11 4B2 d   1      21.672  57.143  87.975  0.00  0.00    -0.029 C 
ATOM     13  C12 4B2 d   1      22.590  57.980  88.833  0.00  0.00    -0.014 C 
ATOM     14  H6  4B2 d   1      20.797  56.845  88.571  0.00  0.00     0.038 H 
ATOM     15  H7  4B2 d   1      21.342  57.741  87.113  0.00  0.00     0.038 H 
ATOM     16  S13 4B2 d   1      23.039  57.027  90.308  0.00  0.00    -0.095 SA
ATOM     17  H8  4B2 d   1      22.075  58.905  89.133  0.00  0.00     0.049 H 
ATOM     18  H9  4B2 d   1      23.498  58.233  88.266  0.00  0.00     0.049 H 
ATOM     19  C14 4B2 d   1      22.949  55.357  89.757  0.00  0.00     0.134 C 
ATOM     20  N15 4B2 d   1      22.681  54.967  88.559  0.00  0.00    -0.358 N 
ATOM     21  H10 4B2 d   1      22.680  53.956  88.359  0.00  0.00     0.162 HD
BRANCH  11  22
ATOM     22  C10 4B2 d   1      21.348  55.039  86.736  0.00  0.00    -0.049 C 
ATOM     23  H3  4B2 d   1      20.511  54.811  87.412  0.00  0.00     0.031 H 
ATOM     24  H4  4B2 d   1      21.818  54.101  86.406  0.00  0.00     0.031 H 
ATOM     25  H5  4B2 d   1      20.973  55.589  85.861  0.00  0.00     0.031 H 
ENDBRANCH  11  22
BRANCH  19  26
ATOM     26  N16 4B2 d   1      23.193  54.456  90.779  0.00  0.00    -0.380 N 
ATOM     27  H11 4B2 d   1      23.171  53.444  90.590  0.00  0.00     0.158 HD
ATOM     28  H12 4B2 d   1      23.397  54.798  91.729  0.00  0.00     0.158 HD
ENDBRANCH  19  26
ENDBRANCH   1  11
BRANCH   2  29
ATOM     29  C17 4B2 d   1      27.295  56.017  86.581  0.00  0.00     0.012 A 
ATOM     30  C18 4B2 d   1      27.750  54.865  87.185  0.00  0.00     0.016 A 
ATOM     31  N19 4B2 d   1      28.983  54.706  87.691  0.00  0.00    -0.253 NA
ATOM     32  H13 4B2 d   1      27.064  54.029  87.257  0.00  0.00     0.116 H 
ATOM     33  C20 4B2 d   1      29.784  55.775  87.601  0.00  0.00     0.086 A 
ATOM     34  N21 4B2 d   1      29.479  56.946  87.042  0.00  0.00    -0.253 NA
ATOM     35  H14 4B2 d   1      30.777  55.679  88.024  0.00  0.00     0.146 H 
ATOM     36  C22 4B2 d   1      28.236  57.029  86.543  0.00  0.00     0.016 A 
ATOM     37  H15 4B2 d   1      27.947  57.962  86.073  0.00  0.00     0.116 H 
ENDBRANCH   2  29
TORSDOF 4
