REMARK  12 active torsions:
REMARK  status: ('A' for Active; 'I' for Inactive)
REMARK    1  A    between atoms: C7_2  and  C8_3 
REMARK       I    between atoms: C7_2  and  N2_13 
REMARK    2  A    between atoms: C10_7  and  C11_8 
REMARK    3  A    between atoms: N2_13  and  C6_14 
REMARK    4  A    between atoms: C2_19  and  N1_20 
REMARK       I    between atoms: N1_20  and  C1_21 
REMARK    5  A    between atoms: C1_21  and  C16_23 
REMARK    6  A    between atoms: C18_26  and  N4_28 
REMARK    7  A    between atoms: N4_28  and  C19_29 
REMARK    8  A    between atoms: C22_31  and  N7_36 
REMARK    9  A    between atoms: C20_33  and  C21_34 
REMARK   10  A    between atoms: N8_39  and  C25_42 
REMARK   11  A    between atoms: C25_42  and  C26_43 
REMARK   12  A    between atoms: C26_43  and  O3_44 
ROOT
ATOM      1  C16 4A9 d   1      13.092   6.825  98.812  0.00  0.00     0.094 A 
ATOM      2  C17 4A9 d   1      12.078   7.033  97.898  0.00  0.00     0.027 A 
ATOM      3  N3  4A9 d   1      10.871   6.422  98.235  0.00  0.00    -0.235 NA
ATOM      4  C18 4A9 d   1      11.044   5.758  99.404  0.00  0.00     0.172 A 
ATOM      5  S   4A9 d   1      12.617   5.872 100.104  0.00  0.00    -0.045 SA
ATOM      6  H11 4A9 d   1      12.210   7.623  96.992  0.00  0.00     0.117 H 
ENDROOT
BRANCH   4   7
ATOM      7  N4  4A9 d   1       9.955   5.043  99.951  0.00  0.00    -0.320 N 
ATOM      8  H12 4A9 d   1       9.064   5.080  99.436  0.00  0.00     0.169 HD
BRANCH   7   9
ATOM      9  C19 4A9 d   1       9.978   4.286 101.135  0.00  0.00     0.135 A 
ATOM     10  C29 4A9 d   1       8.779   3.644 101.555  0.00  0.00     0.006 A 
ATOM     11  C22 4A9 d   1       8.894   2.780 102.674  0.00  0.00     0.131 A 
ATOM     12  H13 4A9 d   1       7.834   3.806 101.049  0.00  0.00     0.095 H 
ATOM     13  N6  4A9 d   1      10.090   2.583 103.362  0.00  0.00    -0.216 NA
ATOM     14  C20 4A9 d   1      11.174   3.273 102.899  0.00  0.00     0.126 A 
ATOM     15  N5  4A9 d   1      11.187   4.109 101.816  0.00  0.00    -0.216 NA
BRANCH  11  16
ATOM     16  N7  4A9 d   1       7.810   1.999 103.164  0.00  0.00    -0.362 N 
ATOM     17  C28 4A9 d   1       6.569   1.749 102.416  0.00  0.00     0.019 C 
ATOM     18  C27 4A9 d   1       5.477   2.474 103.188  0.00  0.00     0.098 C 
ATOM     19  H17 4A9 d   1       6.357   0.670 102.372  0.00  0.00     0.066 H 
ATOM     20  H18 4A9 d   1       6.648   2.149 101.394  0.00  0.00     0.066 H 
ATOM     21  N8  4A9 d   1       5.367   1.867 104.552  0.00  0.00    -0.066 N 
ATOM     22  H19 4A9 d   1       4.518   2.370 102.659  0.00  0.00     0.078 H 
ATOM     23  H20 4A9 d   1       5.733   3.540 103.277  0.00  0.00     0.078 H 
ATOM     24  C24 4A9 d   1       6.663   2.012 105.284  0.00  0.00     0.098 C 
ATOM     25  H21 4A9 d   1       5.224   0.879 104.413  0.00  0.00     0.280 HD
ATOM     26  C23 4A9 d   1       7.765   1.344 104.476  0.00  0.00     0.019 C 
ATOM     27  H22 4A9 d   1       6.585   1.531 106.270  0.00  0.00     0.078 H 
ATOM     28  H23 4A9 d   1       6.896   3.079 105.414  0.00  0.00     0.078 H 
ATOM     29  H24 4A9 d   1       8.731   1.463 104.988  0.00  0.00     0.066 H 
ATOM     30  H25 4A9 d   1       7.544   0.273 104.354  0.00  0.00     0.066 H 
BRANCH  21  31
ATOM     31  C25 4A9 d   1       4.177   2.346 105.345  0.00  0.00     0.103 C 
ATOM     32  H26 4A9 d   1       4.197   1.854 106.329  0.00  0.00     0.079 H 
ATOM     33  H27 4A9 d   1       3.263   2.053 104.807  0.00  0.00     0.079 H 
BRANCH  31  34
ATOM     34  C26 4A9 d   1       4.140   3.845 105.564  0.00  0.00     0.039 C 
ATOM     35  H28 4A9 d   1       3.110   4.149 105.800  0.00  0.00     0.076 H 
ATOM     36  H29 4A9 d   1       4.470   4.351 104.645  0.00  0.00     0.076 H 
BRANCH  34  37
ATOM     37  O3  4A9 d   1       4.991   4.222 106.632  0.00  0.00    -0.399 OA
ATOM     38  H30 4A9 d   1       4.951   5.164 106.750  0.00  0.00     0.209 HD
ENDBRANCH  34  37
ENDBRANCH  31  34
ENDBRANCH  21  31
ENDBRANCH  11  16
BRANCH  14  39
ATOM     39  C21 4A9 d   1      12.445   3.102 103.685  0.00  0.00    -0.019 C 
ATOM     40  H14 4A9 d   1      12.271   2.404 104.517  0.00  0.00     0.037 H 
ATOM     41  H15 4A9 d   1      12.763   4.076 104.085  0.00  0.00     0.037 H 
ATOM     42  H16 4A9 d   1      13.231   2.701 103.028  0.00  0.00     0.037 H 
ENDBRANCH  14  39
ENDBRANCH   7   9
ENDBRANCH   4   7
BRANCH   1  43
ATOM     43  C1  4A9 d   1      14.457   7.329  98.708  0.00  0.00     0.264 C 
ATOM     44  N1  4A9 d   1      14.561   8.559  98.053  0.00  0.00    -0.322 N 
ATOM     45  H10 4A9 d   1      13.722   8.993  97.725  0.00  0.00     0.169 HD
ATOM     46  O1  4A9 d   1      15.413   6.727  99.181  0.00  0.00    -0.267 OA
BRANCH  44  47
ATOM     47  C2  4A9 d   1      15.779   9.217  97.831  0.00  0.00     0.037 A 
ATOM     48  C3  4A9 d   1      16.074  10.412  98.486  0.00  0.00    -0.057 A 
ATOM     49  C4  4A9 d   1      17.290  11.020  98.221  0.00  0.00    -0.079 A 
ATOM     50  H8  4A9 d   1      15.371  10.853  99.183  0.00  0.00     0.086 H 
ATOM     51  C5  4A9 d   1      18.222  10.474  97.333  0.00  0.00    -0.057 A 
ATOM     52  H7  4A9 d   1      17.528  11.953  98.720  0.00  0.00     0.083 H 
ATOM     53  C6  4A9 d   1      17.928   9.270  96.669  0.00  0.00     0.037 A 
ATOM     54  H6  4A9 d   1      19.166  10.976  97.157  0.00  0.00     0.086 H 
ATOM     55  C15 4A9 d   1      16.680   8.632  96.923  0.00  0.00    -0.031 A 
ATOM     56  H9  4A9 d   1      16.427   7.705  96.421  0.00  0.00     0.090 H 
BRANCH  53  57
ATOM     57  N2  4A9 d   1      18.833   8.701  95.720  0.00  0.00    -0.323 N 
ATOM     58  C7  4A9 d   1      19.018   7.345  95.389  0.00  0.00     0.256 C 
ATOM     59  O2  4A9 d   1      18.411   6.419  95.895  0.00  0.00    -0.267 OA
ATOM     60  H5  4A9 d   1      19.410   9.351  95.226  0.00  0.00     0.169 HD
BRANCH  58  61
ATOM     61  C8  4A9 d   1      20.055   7.107  94.337  0.00  0.00     0.033 A 
ATOM     62  C14 4A9 d   1      21.391   7.480  94.556  0.00  0.00    -0.068 A 
ATOM     63  C13 4A9 d   1      22.355   7.272  93.562  0.00  0.00    -0.081 A 
ATOM     64  H1  4A9 d   1      21.677   7.931  95.499  0.00  0.00     0.085 H 
ATOM     65  C12 4A9 d   1      22.002   6.639  92.370  0.00  0.00    -0.068 A 
ATOM     66  H2  4A9 d   1      23.375   7.603  93.719  0.00  0.00     0.083 H 
ATOM     67  C10 4A9 d   1      20.664   6.239  92.170  0.00  0.00     0.048 A 
ATOM     68  H3  4A9 d   1      22.748   6.456  91.605  0.00  0.00     0.084 H 
ATOM     69  C9  4A9 d   1      19.674   6.489  93.137  0.00  0.00    -0.053 A 
ATOM     70  H4  4A9 d   1      18.642   6.211  92.959  0.00  0.00     0.086 H 
BRANCH  67  71
ATOM     71  C11 4A9 d   1      20.340   5.460  90.911  0.00  0.00     0.417 C 
ATOM     72  F3  4A9 d   1      21.241   5.604  89.929  0.00  0.00    -0.166 F 
ATOM     73  F2  4A9 d   1      19.165   5.816  90.373  0.00  0.00    -0.166 F 
ATOM     74  F1  4A9 d   1      20.264   4.140  91.083  0.00  0.00    -0.166 F 
ENDBRANCH  67  71
ENDBRANCH  58  61
ENDBRANCH  53  57
ENDBRANCH  44  47
ENDBRANCH   1  43
TORSDOF 12
