REMARK  8 active torsions:
REMARK  status: ('A' for Active; 'I' for Inactive)
REMARK       I    between atoms: C1_2  and  N1_3 
REMARK    1  A    between atoms: C1_2  and  C14_17 
REMARK    2  A    between atoms: N1_3  and  C2_4 
REMARK    3  A    between atoms: C5_7  and  O2_8 
REMARK    4  A    between atoms: O2_8  and  C6_9 
REMARK    5  A    between atoms: C16_20  and  N3_22 
REMARK    6  A    between atoms: N3_22  and  C17_23 
REMARK    7  A    between atoms: C20_25  and  N6_30 
REMARK    8  A    between atoms: C18_27  and  C19_28 
ROOT
ATOM      1  C14 4B7 d   1      13.995  46.846   1.437  0.00  0.00     0.094 A 
ATOM      2  C15 4B7 d   1      12.781  46.339   0.997  0.00  0.00     0.027 A 
ATOM      3  N2  4B7 d   1      11.828  47.324   0.690  0.00  0.00    -0.235 NA
ATOM      4  C16 4B7 d   1      12.395  48.547   0.910  0.00  0.00     0.172 A 
ATOM      5  S   4B7 d   1      14.009  48.493   1.473  0.00  0.00    -0.045 SA
ATOM      6  H11 4B7 d   1      12.584  45.272   0.898  0.00  0.00     0.117 H 
ENDROOT
BRANCH   4   7
ATOM      7  N3  4B7 d   1      11.714  49.746   0.586  0.00  0.00    -0.320 N 
ATOM      8  H12 4B7 d   1      10.768  49.647   0.192  0.00  0.00     0.169 HD
BRANCH   7   9
ATOM      9  C17 4B7 d   1      12.198  51.064   0.747  0.00  0.00     0.135 A 
ATOM     10  C27 4B7 d   1      11.388  52.158   0.276  0.00  0.00     0.006 A 
ATOM     11  C20 4B7 d   1      11.968  53.456   0.321  0.00  0.00     0.131 A 
ATOM     12  H13 4B7 d   1      10.382  51.999  -0.096  0.00  0.00     0.095 H 
ATOM     13  N5  4B7 d   1      13.246  53.676   0.822  0.00  0.00    -0.216 NA
ATOM     14  C18 4B7 d   1      13.944  52.568   1.273  0.00  0.00     0.126 A 
ATOM     15  N4  4B7 d   1      13.473  51.277   1.269  0.00  0.00    -0.216 NA
BRANCH  11  16
ATOM     16  N6  4B7 d   1      11.328  54.643  -0.169  0.00  0.00    -0.362 N 
ATOM     17  C26 4B7 d   1      11.895  56.014  -0.053  0.00  0.00     0.019 C 
ATOM     18  C25 4B7 d   1      10.970  56.801   0.868  0.00  0.00     0.096 C 
ATOM     19  H17 4B7 d   1      11.937  56.491  -1.043  0.00  0.00     0.066 H 
ATOM     20  H18 4B7 d   1      12.907  55.969   0.376  0.00  0.00     0.066 H 
ATOM     21  N7  4B7 d   1       9.599  56.849   0.269  0.00  0.00    -0.072 N 
ATOM     22  H19 4B7 d   1      11.355  57.825   0.988  0.00  0.00     0.078 H 
ATOM     23  H20 4B7 d   1      10.925  56.309   1.851  0.00  0.00     0.078 H 
ATOM     24  C22 4B7 d   1       9.078  55.458   0.090  0.00  0.00     0.096 C 
ATOM     25  H21 4B7 d   1       9.641  57.309  -0.627  0.00  0.00     0.277 HD
ATOM     26  H22 4B7 d   1       8.983  57.361   0.881  0.00  0.00     0.277 HD
ATOM     27  C21 4B7 d   1      10.010  54.686  -0.836  0.00  0.00     0.019 C 
ATOM     28  H23 4B7 d   1       8.071  55.497  -0.351  0.00  0.00     0.078 H 
ATOM     29  H24 4B7 d   1       9.031  54.955   1.067  0.00  0.00     0.078 H 
ATOM     30  H25 4B7 d   1       9.630  53.666  -0.992  0.00  0.00     0.066 H 
ATOM     31  H26 4B7 d   1      10.092  55.199  -1.806  0.00  0.00     0.066 H 
ENDBRANCH  11  16
BRANCH  14  32
ATOM     32  C19 4B7 d   1      15.365  52.811   1.747  0.00  0.00    -0.019 C 
ATOM     33  H14 4B7 d   1      15.591  53.886   1.691  0.00  0.00     0.037 H 
ATOM     34  H15 4B7 d   1      16.065  52.255   1.106  0.00  0.00     0.037 H 
ATOM     35  H16 4B7 d   1      15.468  52.468   2.787  0.00  0.00     0.037 H 
ENDBRANCH  14  32
ENDBRANCH   7   9
ENDBRANCH   4   7
BRANCH   1  36
ATOM     36  C1  4B7 d   1      15.211  46.171   1.920  0.00  0.00     0.264 C 
ATOM     37  O1  4B7 d   1      15.872  46.713   2.805  0.00  0.00    -0.267 OA
ATOM     38  N1  4B7 d   1      15.607  45.046   1.251  0.00  0.00    -0.322 N 
ATOM     39  H1  4B7 d   1      15.054  44.784   0.460  0.00  0.00     0.169 HD
BRANCH  38  40
ATOM     40  C2  4B7 d   1      16.706  44.212   1.548  0.00  0.00     0.035 A 
ATOM     41  C13 4B7 d   1      17.130  43.396   0.491  0.00  0.00    -0.054 A 
ATOM     42  C12 4B7 d   1      18.254  42.610   0.605  0.00  0.00    -0.048 A 
ATOM     43  H2  4B7 d   1      16.563  43.383  -0.433  0.00  0.00     0.087 H 
ATOM     44  C5  4B7 d   1      19.010  42.647   1.782  0.00  0.00     0.076 A 
ATOM     45  H3  4B7 d   1      18.552  41.965  -0.213  0.00  0.00     0.087 H 
ATOM     46  C4  4B7 d   1      18.616  43.445   2.849  0.00  0.00    -0.048 A 
ATOM     47  C3  4B7 d   1      17.470  44.228   2.733  0.00  0.00    -0.054 A 
ATOM     48  H9  4B7 d   1      19.196  43.458   3.765  0.00  0.00     0.087 H 
ATOM     49  H10 4B7 d   1      17.163  44.856   3.562  0.00  0.00     0.087 H 
BRANCH  44  50
ATOM     50  O2  4B7 d   1      20.159  41.883   1.762  0.00  0.00    -0.311 OA
BRANCH  50  51
ATOM     51  C6  4B7 d   1      20.431  41.101   2.879  0.00  0.00     0.076 A 
ATOM     52  C11 4B7 d   1      19.470  40.104   3.253  0.00  0.00    -0.050 A 
ATOM     53  C10 4B7 d   1      19.731  39.357   4.397  0.00  0.00    -0.080 A 
ATOM     54  H4  4B7 d   1      18.574  39.939   2.666  0.00  0.00     0.087 H 
ATOM     55  C9  4B7 d   1      20.882  39.580   5.147  0.00  0.00    -0.083 A 
ATOM     56  H5  4B7 d   1      19.029  38.592   4.708  0.00  0.00     0.083 H 
ATOM     57  C8  4B7 d   1      21.810  40.554   4.767  0.00  0.00    -0.080 A 
ATOM     58  H6  4B7 d   1      21.061  38.990   6.038  0.00  0.00     0.083 H 
ATOM     59  C7  4B7 d   1      21.600  41.320   3.625  0.00  0.00    -0.050 A 
ATOM     60  H7  4B7 d   1      22.699  40.713   5.366  0.00  0.00     0.083 H 
ATOM     61  H8  4B7 d   1      22.322  42.068   3.318  0.00  0.00     0.087 H 
ENDBRANCH  50  51
ENDBRANCH  44  50
ENDBRANCH  38  40
ENDBRANCH   1  36
TORSDOF 8
