REMARK  5 active torsions:
REMARK  status: ('A' for Active; 'I' for Inactive)
REMARK    1  A    between atoms: C3_3  and  C2_4 
REMARK    2  A    between atoms: C2_4  and  C1_6 
REMARK    3  A    between atoms: C9_20  and  C10_21 
REMARK    4  A    between atoms: C9_20  and  C11_22 
REMARK    5  A    between atoms: C4_24  and  O3_25 
ROOT
ATOM      1  O2  CZA d   1      25.018 -17.954  15.627  0.00  0.00    -0.295 OA
ATOM      2  C6  CZA d   1      25.075 -17.669  14.405  0.00  0.00     0.174 C 
ATOM      3  C3  CZA d   1      26.122 -17.768  13.365  0.00  0.00     0.113 C 
ATOM      4  C5  CZA d   1      23.828 -17.392  13.591  0.00  0.00     0.173 C 
ATOM      5  C7  CZA d   1      22.928 -18.597  13.354  0.00  0.00     0.014 C 
ATOM      6  C15 CZA d   1      21.901 -18.940  14.404  0.00  0.00    -0.023 A 
ATOM      7  C16 CZA d   1      21.798 -19.838  15.410  0.00  0.00    -0.015 A 
ATOM      8  N2  CZA d   1      20.564 -19.665  16.047  0.00  0.00    -0.365 N 
ATOM      9  C17 CZA d   1      19.827 -18.642  15.464  0.00  0.00     0.043 A 
ATOM     10  C14 CZA d   1      20.688 -18.205  14.434  0.00  0.00     0.005 A 
ATOM     11  C18 CZA d   1      18.568 -18.001  15.627  0.00  0.00    -0.056 A 
ATOM     12  C19 CZA d   1      18.177 -16.929  14.762  0.00  0.00    -0.080 A 
ATOM     13  C20 CZA d   1      19.068 -16.520  13.743  0.00  0.00    -0.076 A 
ATOM     14  C13 CZA d   1      20.319 -17.168  13.591  0.00  0.00    -0.045 A 
ATOM     15  C12 CZA d   1      21.343 -16.809  12.539  0.00  0.00    -0.034 C 
ATOM     16  C8  CZA d   1      22.248 -18.023  12.072  0.00  0.00    -0.009 C 
ATOM     17  C9  CZA d   1      23.453 -17.594  11.154  0.00  0.00     0.129 C 
ATOM     18  N1  CZA d   1      24.357 -17.221  12.248  0.00  0.00    -0.024 N 
ATOM     19  C4  CZA d   1      25.681 -17.071  12.295  0.00  0.00     0.210 C 
ATOM     20  H1  CZA d   1      25.701 -18.707  12.978  0.00  0.00     0.070 H 
ATOM     21  H5  CZA d   1      23.271 -16.528  13.984  0.00  0.00     0.098 H 
ATOM     22  H6  CZA d   1      23.523 -19.500  13.150  0.00  0.00     0.052 H 
ATOM     23  H7  CZA d   1      22.552 -20.576  15.680  0.00  0.00     0.112 H 
ATOM     24  H8  CZA d   1      20.242 -20.226  16.848  0.00  0.00     0.165 HD
ATOM     25  H9  CZA d   1      17.898 -18.327  16.414  0.00  0.00     0.086 H 
ATOM     26  H10 CZA d   1      17.217 -16.441  14.886  0.00  0.00     0.083 H 
ATOM     27  H11 CZA d   1      18.794 -15.710  13.077  0.00  0.00     0.084 H 
ATOM     28  H12 CZA d   1      21.999 -16.027  12.949  0.00  0.00     0.040 H 
ATOM     29  H13 CZA d   1      20.811 -16.417  11.659  0.00  0.00     0.040 H 
ATOM     30  H14 CZA d   1      21.629 -18.778  11.565  0.00  0.00     0.045 H 
ATOM     31  H21 CZA d   1      24.168 -16.236  12.151  0.00  0.00     0.285 HD
ATOM     32  H22 CZA d   1      25.736 -16.062  12.731  0.00  0.00     0.131 H 
ENDROOT
BRANCH  17  33
ATOM     33  C10 CZA d   1      24.001 -18.708  10.263  0.00  0.00    -0.045 C 
ATOM     34  H15 CZA d   1      24.835 -18.319   9.661  0.00  0.00     0.030 H 
ATOM     35  H16 CZA d   1      23.204 -19.069   9.596  0.00  0.00     0.030 H 
ATOM     36  H17 CZA d   1      24.358 -19.538  10.891  0.00  0.00     0.030 H 
ENDBRANCH  17  33
BRANCH  17  37
ATOM     37  C11 CZA d   1      23.207 -16.376  10.282  0.00  0.00    -0.045 C 
ATOM     38  H18 CZA d   1      22.811 -15.557  10.900  0.00  0.00     0.030 H 
ATOM     39  H19 CZA d   1      22.479 -16.628   9.497  0.00  0.00     0.030 H 
ATOM     40  H20 CZA d   1      24.153 -16.061   9.817  0.00  0.00     0.030 H 
ENDBRANCH  17  37
BRANCH  19  41
ATOM     41  O3  CZA d   1      26.380 -16.771  11.166  0.00  0.00    -0.369 OA
ATOM     42  H23 CZA d   1      27.304 -16.700  11.376  0.00  0.00     0.212 HD
ENDBRANCH  19  41
BRANCH   3  43
ATOM     43  C2  CZA d   1      27.422 -18.453  13.479  0.00  0.00     0.138 C 
ATOM     44  O1  CZA d   1      28.178 -18.068  14.344  0.00  0.00    -0.297 OA
BRANCH  43  45
ATOM     45  C1  CZA d   1      28.026 -19.216  12.254  0.00  0.00    -0.020 C 
ATOM     46  H2  CZA d   1      28.993 -19.657  12.537  0.00  0.00     0.037 H 
ATOM     47  H3  CZA d   1      28.173 -18.513  11.421  0.00  0.00     0.037 H 
ATOM     48  H4  CZA d   1      27.336 -20.015  11.943  0.00  0.00     0.037 H 
ENDBRANCH  43  45
ENDBRANCH   3  43
TORSDOF 5
