REMARK  17 active torsions:
REMARK  status: ('A' for Active; 'I' for Inactive)
REMARK    1  A    between atoms: C68_1  and  O67_2 
REMARK    2  A    between atoms: O67_2  and  C20_3 
REMARK    3  A    between atoms: C24_7  and  O29_8 
REMARK    4  A    between atoms: O29_8  and  C33_9 
REMARK    5  A    between atoms: C32_10  and  O36_11 
REMARK    6  A    between atoms: C31_12  and  O71_13 
REMARK    7  A    between atoms: O71_13  and  C72_14 
REMARK    8  A    between atoms: C30_15  and  O37_16 
REMARK    9  A    between atoms: C35_17  and  C38_18 
REMARK   10  A    between atoms: C38_18  and  O39_19 
REMARK   11  A    between atoms: C8_25  and  C4_37 
REMARK   12  A    between atoms: C15_32  and  C19_33 
REMARK   13  A    between atoms: C17_35  and  C18_36 
REMARK   14  A    between atoms: C1_38  and  C3_39 
REMARK   15  A    between atoms: C1_38  and  C2_40 
REMARK   16  A    between atoms: C2_40  and  C5_41 
REMARK   17  A    between atoms: C6_42  and  C7_43 
ROOT
ATOM      1  C20 7BS d   1      28.045 -18.297  62.489  0.00  0.00     0.062 C 
ATOM      2  C21 7BS d   1      27.607 -16.973  61.845  0.00  0.00    -0.022 C 
ATOM      3  C22 7BS d   1      27.096 -16.984  60.437  0.00  0.00    -0.102 C 
ATOM      4  C23 7BS d   1      26.662 -15.818  59.953  0.00  0.00    -0.079 C 
ATOM      5  C24 7BS d   1      26.665 -15.568  58.478  0.00  0.00     0.066 C 
ATOM      6  C27 7BS d   1      26.341 -14.083  58.147  0.00  0.00     0.043 C 
ATOM      7  C26 7BS d   1      27.038 -13.753  56.861  0.00  0.00     0.262 C 
ATOM      8  O28 7BS d   1      26.459 -13.540  55.807  0.00  0.00    -0.265 OA
ATOM      9  O25 7BS d   1      28.356 -13.626  57.049  0.00  0.00    -0.312 OA
ATOM     10  C8  7BS d   1      29.151 -13.644  55.855  0.00  0.00     0.067 C 
ATOM     11  C9  7BS d   1      30.536 -14.066  56.401  0.00  0.00    -0.022 C 
ATOM     12  C10 7BS d   1      30.610 -15.519  56.808  0.00  0.00    -0.100 C 
ATOM     13  C11 7BS d   1      31.080 -15.961  57.982  0.00  0.00    -0.087 C 
ATOM     14  C12 7BS d   1      31.198 -17.401  58.300  0.00  0.00    -0.087 C 
ATOM     15  C13 7BS d   1      31.727 -17.874  59.438  0.00  0.00    -0.102 C 
ATOM     16  C14 7BS d   1      31.839 -19.351  59.750  0.00  0.00    -0.044 C 
ATOM     17  C15 7BS d   1      31.515 -19.671  61.236  0.00  0.00    -0.038 C 
ATOM     18  C16 7BS d   1      30.068 -19.311  61.490  0.00  0.00    -0.095 C 
ATOM     19  C17 7BS d   1      29.554 -18.459  62.397  0.00  0.00    -0.058 C 
ATOM     20  H4  7BS d   1      27.541 -19.159  62.028  0.00  0.00     0.090 H 
ATOM     21  H5  7BS d   1      28.477 -16.301  61.867  0.00  0.00     0.043 H 
ATOM     22  H6  7BS d   1      26.807 -16.557  62.475  0.00  0.00     0.043 H 
ATOM     23  H7  7BS d   1      27.079 -17.895  59.840  0.00  0.00     0.076 H 
ATOM     24  H8  7BS d   1      26.305 -15.047  60.634  0.00  0.00     0.080 H 
ATOM     25  H9  7BS d   1      27.658 -15.795  58.063  0.00  0.00     0.090 H 
ATOM     26  H23 7BS d   1      26.707 -13.429  58.952  0.00  0.00     0.052 H 
ATOM     27  H24 7BS d   1      25.255 -13.951  58.032  0.00  0.00     0.052 H 
ATOM     28  H25 7BS d   1      28.775 -14.385  55.134  0.00  0.00     0.091 H 
ATOM     29  H26 7BS d   1      30.766 -13.447  57.280  0.00  0.00     0.043 H 
ATOM     30  H27 7BS d   1      31.288 -13.886  55.618  0.00  0.00     0.043 H 
ATOM     31  H28 7BS d   1      30.255 -16.262  56.095  0.00  0.00     0.076 H 
ATOM     32  H29 7BS d   1      31.387 -15.232  58.731  0.00  0.00     0.083 H 
ATOM     33  H30 7BS d   1      30.834 -18.119  57.567  0.00  0.00     0.083 H 
ATOM     34  H31 7BS d   1      32.094 -17.160  60.174  0.00  0.00     0.076 H 
ATOM     35  H32 7BS d   1      32.866 -19.680  59.534  0.00  0.00     0.039 H 
ATOM     36  H33 7BS d   1      31.135 -19.901  59.109  0.00  0.00     0.039 H 
ATOM     37  H34 7BS d   1      32.169 -19.075  61.889  0.00  0.00     0.046 H 
ATOM     38  H38 7BS d   1      29.341 -19.810  60.851  0.00  0.00     0.077 H 
ENDROOT
BRANCH   5  39
ATOM     39  O29 7BS d   1      25.703 -16.521  57.963  0.00  0.00    -0.349 OA
BRANCH  39  40
ATOM     40  C33 7BS d   1      25.457 -16.943  56.599  0.00  0.00     0.159 C 
ATOM     41  C32 7BS d   1      26.748 -17.516  55.947  0.00  0.00     0.110 C 
ATOM     42  C31 7BS d   1      26.473 -17.995  54.493  0.00  0.00     0.094 C 
ATOM     43  H11 7BS d   1      27.080 -18.374  56.551  0.00  0.00     0.094 H 
ATOM     44  C30 7BS d   1      25.284 -18.981  54.480  0.00  0.00     0.090 C 
ATOM     45  H13 7BS d   1      26.285 -17.125  53.846  0.00  0.00     0.091 H 
ATOM     46  C35 7BS d   1      24.076 -18.427  55.276  0.00  0.00     0.089 C 
ATOM     47  H17 7BS d   1      25.603 -19.936  54.924  0.00  0.00     0.091 H 
ATOM     48  O34 7BS d   1      24.446 -17.969  56.603  0.00  0.00    -0.348 OA
ATOM     49  H19 7BS d   1      23.667 -17.569  54.722  0.00  0.00     0.090 H 
ATOM     50  H10 7BS d   1      25.107 -16.081  56.012  0.00  0.00     0.133 H 
BRANCH  41  51
ATOM     51  O36 7BS d   1      27.817 -16.557  55.884  0.00  0.00    -0.388 OA
ATOM     52  H12 7BS d   1      27.540 -15.809  55.368  0.00  0.00     0.210 HD
ENDBRANCH  41  51
BRANCH  42  53
ATOM     53  O71 7BS d   1      27.551 -18.807  53.976  0.00  0.00    -0.385 OA
BRANCH  53  54
ATOM     54  C72 7BS d   1      28.744 -18.131  53.525  0.00  0.00     0.005 C 
ATOM     55  H14 7BS d   1      29.471 -18.873  53.162  0.00  0.00     0.066 H 
ATOM     56  H15 7BS d   1      29.183 -17.566  54.360  0.00  0.00     0.066 H 
ATOM     57  H16 7BS d   1      28.487 -17.439  52.709  0.00  0.00     0.066 H 
ENDBRANCH  53  54
ENDBRANCH  42  53
BRANCH  44  58
ATOM     58  O37 7BS d   1      24.870 -19.193  53.111  0.00  0.00    -0.390 OA
ATOM     59  H18 7BS d   1      25.595 -19.555  52.615  0.00  0.00     0.210 HD
ENDBRANCH  44  58
BRANCH  46  60
ATOM     60  C38 7BS d   1      22.976 -19.519  55.378  0.00  0.00     0.043 C 
ATOM     61  H20 7BS d   1      22.613 -19.759  54.368  0.00  0.00     0.078 H 
ATOM     62  H21 7BS d   1      22.143 -19.135  55.986  0.00  0.00     0.078 H 
BRANCH  60  63
ATOM     63  O39 7BS d   1      23.492 -20.715  55.989  0.00  0.00    -0.398 OA
ATOM     64  H22 7BS d   1      22.802 -21.366  56.040  0.00  0.00     0.209 HD
ENDBRANCH  60  63
ENDBRANCH  46  60
ENDBRANCH  39  40
ENDBRANCH   5  39
BRANCH   1  65
ATOM     65  O67 7BS d   1      27.655 -18.122  63.860  0.00  0.00    -0.386 OA
BRANCH  65  66
ATOM     66  C68 7BS d   1      27.503 -19.361  64.546  0.00  0.00     0.005 C 
ATOM     67  H1  7BS d   1      27.205 -19.169  65.587  0.00  0.00     0.066 H 
ATOM     68  H2  7BS d   1      28.458 -19.907  64.533  0.00  0.00     0.066 H 
ATOM     69  H3  7BS d   1      26.729 -19.963  64.048  0.00  0.00     0.066 H 
ENDBRANCH  65  66
ENDBRANCH   1  65
BRANCH  10  70
ATOM     70  C4  7BS d   1      29.149 -12.276  55.205  0.00  0.00    -0.073 C 
ATOM     71  C1  7BS d   1      29.558 -11.871  53.981  0.00  0.00    -0.082 C 
ATOM     72  H42 7BS d   1      28.749 -11.480  55.832  0.00  0.00     0.081 H 
BRANCH  71  73
ATOM     73  C3  7BS d   1      29.306 -10.432  53.571  0.00  0.00    -0.054 C 
ATOM     74  H43 7BS d   1      29.696 -10.266  52.556  0.00  0.00     0.033 H 
ATOM     75  H44 7BS d   1      29.815  -9.756  54.274  0.00  0.00     0.033 H 
ATOM     76  H45 7BS d   1      28.225 -10.230  53.586  0.00  0.00     0.033 H 
ENDBRANCH  71  73
BRANCH  71  77
ATOM     77  C2  7BS d   1      30.231 -12.652  52.861  0.00  0.00    -0.030 C 
ATOM     78  H46 7BS d   1      31.118 -12.066  52.580  0.00  0.00     0.045 H 
ATOM     79  H47 7BS d   1      29.514 -12.655  52.027  0.00  0.00     0.045 H 
BRANCH  77  80
ATOM     80  C5  7BS d   1      30.707 -14.075  52.995  0.00  0.00    -0.103 C 
ATOM     81  C6  7BS d   1      31.937 -14.475  52.655  0.00  0.00    -0.110 C 
ATOM     82  H49 7BS d   1      32.558 -13.831  52.034  0.00  0.00     0.075 H 
ATOM     83  H48 7BS d   1      30.014 -14.816  53.389  0.00  0.00     0.076 H 
BRANCH  81  84
ATOM     84  C7  7BS d   1      32.474 -15.796  53.115  0.00  0.00    -0.060 C 
ATOM     85  H50 7BS d   1      33.495 -15.931  52.728  0.00  0.00     0.032 H 
ATOM     86  H51 7BS d   1      31.830 -16.605  52.740  0.00  0.00     0.032 H 
ATOM     87  H52 7BS d   1      32.492 -15.822  54.215  0.00  0.00     0.032 H 
ENDBRANCH  81  84
ENDBRANCH  77  80
ENDBRANCH  71  77
ENDBRANCH  10  70
BRANCH  19  88
ATOM     88  C18 7BS d   1      30.356 -17.660  63.413  0.00  0.00    -0.052 C 
ATOM     89  H39 7BS d   1      31.429 -17.847  63.261  0.00  0.00     0.033 H 
ATOM     90  H40 7BS d   1      30.070 -17.968  64.430  0.00  0.00     0.033 H 
ATOM     91  H41 7BS d   1      30.148 -16.588  63.282  0.00  0.00     0.033 H 
ENDBRANCH  19  88
BRANCH  17  92
ATOM     92  C19 7BS d   1      31.720 -21.178  61.544  0.00  0.00    -0.069 C 
ATOM     93  H35 7BS d   1      31.483 -21.372  62.601  0.00  0.00     0.028 H 
ATOM     94  H36 7BS d   1      32.766 -21.454  61.346  0.00  0.00     0.028 H 
ATOM     95  H37 7BS d   1      31.056 -21.777  60.904  0.00  0.00     0.028 H 
ENDBRANCH  17  92
TORSDOF 17
