REMARK  10 active torsions:
REMARK  status: ('A' for Active; 'I' for Inactive)
REMARK    1  A    between atoms: C7_1  and  C6_2 
REMARK    2  A    between atoms: C5_3  and  C2_4 
REMARK    3  A    between atoms: C2_4  and  C1_5 
REMARK    4  A    between atoms: C1_5  and  C3_6 
REMARK    5  A    between atoms: C4_7  and  C8_8 
REMARK    6  A    between atoms: C15_15  and  C19_31 
REMARK    7  A    between atoms: C17_17  and  C18_18 
REMARK    8  A    between atoms: C20_19  and  O67_29 
REMARK    9  A    between atoms: C24_23  and  O29_28 
REMARK   10  A    between atoms: O67_29  and  C68_30 
ROOT
ATOM      1  C8  7BL d   1      29.067 -13.612  55.993  0.00  0.00     0.067 C 
ATOM      2  C9  7BL d   1      30.445 -14.056  56.538  0.00  0.00    -0.022 C 
ATOM      3  C10 7BL d   1      30.481 -15.505  56.966  0.00  0.00    -0.100 C 
ATOM      4  C11 7BL d   1      31.002 -15.943  58.123  0.00  0.00    -0.087 C 
ATOM      5  C12 7BL d   1      31.107 -17.384  58.451  0.00  0.00    -0.087 C 
ATOM      6  C13 7BL d   1      31.662 -17.855  59.574  0.00  0.00    -0.102 C 
ATOM      7  C14 7BL d   1      31.754 -19.331  59.899  0.00  0.00    -0.044 C 
ATOM      8  C15 7BL d   1      31.419 -19.630  61.382  0.00  0.00    -0.038 C 
ATOM      9  C16 7BL d   1      29.977 -19.256  61.636  0.00  0.00    -0.095 C 
ATOM     10  C17 7BL d   1      29.434 -18.457  62.571  0.00  0.00    -0.058 C 
ATOM     11  C20 7BL d   1      27.907 -18.307  62.646  0.00  0.00     0.062 C 
ATOM     12  C21 7BL d   1      27.463 -17.000  61.980  0.00  0.00    -0.022 C 
ATOM     13  C22 7BL d   1      27.216 -16.985  60.511  0.00  0.00    -0.102 C 
ATOM     14  C23 7BL d   1      26.907 -15.787  60.005  0.00  0.00    -0.079 C 
ATOM     15  C24 7BL d   1      26.601 -15.591  58.555  0.00  0.00     0.060 C 
ATOM     16  C27 7BL d   1      26.287 -14.096  58.268  0.00  0.00     0.043 C 
ATOM     17  C26 7BL d   1      26.962 -13.748  56.984  0.00  0.00     0.262 C 
ATOM     18  O25 7BL d   1      28.272 -13.575  57.182  0.00  0.00    -0.312 OA
ATOM     19  O28 7BL d   1      26.367 -13.500  55.952  0.00  0.00    -0.265 OA
ATOM     20  H12 7BL d   1      28.678 -14.343  55.269  0.00  0.00     0.091 H 
ATOM     21  H13 7BL d   1      30.695 -13.429  57.407  0.00  0.00     0.043 H 
ATOM     22  H14 7BL d   1      31.197 -13.906  55.749  0.00  0.00     0.043 H 
ATOM     23  H15 7BL d   1      30.055 -16.244  56.289  0.00  0.00     0.076 H 
ATOM     24  H16 7BL d   1      31.360 -15.213  58.847  0.00  0.00     0.083 H 
ATOM     25  H17 7BL d   1      30.709 -18.102  57.736  0.00  0.00     0.083 H 
ATOM     26  H18 7BL d   1      32.068 -17.141  60.290  0.00  0.00     0.076 H 
ATOM     27  H19 7BL d   1      32.778 -19.675  59.691  0.00  0.00     0.039 H 
ATOM     28  H20 7BL d   1      31.046 -19.879  59.259  0.00  0.00     0.039 H 
ATOM     29  H21 7BL d   1      32.074 -19.027  62.028  0.00  0.00     0.046 H 
ATOM     30  H22 7BL d   1      29.261 -19.707  60.950  0.00  0.00     0.077 H 
ATOM     31  H26 7BL d   1      27.418 -19.184  62.197  0.00  0.00     0.090 H 
ATOM     32  H27 7BL d   1      28.245 -16.253  62.183  0.00  0.00     0.043 H 
ATOM     33  H28 7BL d   1      26.526 -16.692  62.467  0.00  0.00     0.043 H 
ATOM     34  H29 7BL d   1      27.282 -17.881  59.896  0.00  0.00     0.076 H 
ATOM     35  H30 7BL d   1      26.877 -14.926  60.671  0.00  0.00     0.080 H 
ATOM     36  H31 7BL d   1      27.485 -15.867  57.962  0.00  0.00     0.090 H 
ATOM     37  H32 7BL d   1      26.675 -13.466  59.082  0.00  0.00     0.052 H 
ATOM     38  H33 7BL d   1      25.201 -13.949  58.176  0.00  0.00     0.052 H 
ENDROOT
BRANCH   1  39
ATOM     39  C4  7BL d   1      29.096 -12.242  55.355  0.00  0.00    -0.073 C 
ATOM     40  C1  7BL d   1      29.529 -11.824  54.143  0.00  0.00    -0.082 C 
ATOM     41  H11 7BL d   1      28.696 -11.448  55.984  0.00  0.00     0.081 H 
BRANCH  40  42
ATOM     42  C2  7BL d   1      30.177 -12.607  53.009  0.00  0.00    -0.030 C 
ATOM     43  H6  7BL d   1      29.439 -12.608  52.193  0.00  0.00     0.045 H 
ATOM     44  H7  7BL d   1      31.055 -12.017  52.708  0.00  0.00     0.045 H 
BRANCH  42  45
ATOM     45  C5  7BL d   1      30.663 -14.027  53.114  0.00  0.00    -0.103 C 
ATOM     46  C6  7BL d   1      31.890 -14.421  52.754  0.00  0.00    -0.110 C 
ATOM     47  H4  7BL d   1      32.485 -13.809  52.077  0.00  0.00     0.075 H 
ATOM     48  H5  7BL d   1      29.977 -14.777  53.505  0.00  0.00     0.076 H 
BRANCH  46  49
ATOM     49  C7  7BL d   1      32.441 -15.710  53.288  0.00  0.00    -0.060 C 
ATOM     50  H1  7BL d   1      33.453 -15.870  52.888  0.00  0.00     0.032 H 
ATOM     51  H2  7BL d   1      31.790 -16.542  52.982  0.00  0.00     0.032 H 
ATOM     52  H3  7BL d   1      32.484 -15.663  54.386  0.00  0.00     0.032 H 
ENDBRANCH  46  49
ENDBRANCH  42  45
ENDBRANCH  40  42
BRANCH  40  53
ATOM     53  C3  7BL d   1      29.252 -10.395  53.715  0.00  0.00    -0.054 C 
ATOM     54  H8  7BL d   1      28.785  -9.847  54.547  0.00  0.00     0.033 H 
ATOM     55  H9  7BL d   1      28.573 -10.396  52.850  0.00  0.00     0.033 H 
ATOM     56  H10 7BL d   1      30.197  -9.905  53.439  0.00  0.00     0.033 H 
ENDBRANCH  40  53
ENDBRANCH   1  39
BRANCH  15  57
ATOM     57  O29 7BL d   1      25.522 -16.496  58.211  0.00  0.00    -0.391 OA
ATOM     58  H34 7BL d   1      24.748 -16.270  58.713  0.00  0.00     0.210 HD
ENDBRANCH  15  57
BRANCH   8  59
ATOM     59  C19 7BL d   1      31.625 -21.127  61.712  0.00  0.00    -0.069 C 
ATOM     60  H38 7BL d   1      31.380 -21.306  62.769  0.00  0.00     0.028 H 
ATOM     61  H39 7BL d   1      32.674 -21.402  61.527  0.00  0.00     0.028 H 
ATOM     62  H40 7BL d   1      30.968 -21.737  61.074  0.00  0.00     0.028 H 
ENDBRANCH   8  59
BRANCH  11  63
ATOM     63  O67 7BL d   1      27.487 -18.094  64.004  0.00  0.00    -0.386 OA
BRANCH  63  64
ATOM     64  C68 7BL d   1      27.423 -19.296  64.762  0.00  0.00     0.005 C 
ATOM     65  H35 7BL d   1      27.097 -19.066  65.787  0.00  0.00     0.066 H 
ATOM     66  H36 7BL d   1      28.418 -19.765  64.790  0.00  0.00     0.066 H 
ATOM     67  H37 7BL d   1      26.705 -19.986  64.295  0.00  0.00     0.066 H 
ENDBRANCH  63  64
ENDBRANCH  11  63
BRANCH  10  68
ATOM     68  C18 7BL d   1      30.204 -17.668  63.620  0.00  0.00    -0.052 C 
ATOM     69  H23 7BL d   1      31.283 -17.837  63.487  0.00  0.00     0.033 H 
ATOM     70  H24 7BL d   1      29.901 -18.000  64.624  0.00  0.00     0.033 H 
ATOM     71  H25 7BL d   1      29.985 -16.596  63.507  0.00  0.00     0.033 H 
ENDBRANCH  10  68
TORSDOF 10
