REMARK  5 active torsions:
REMARK  status: ('A' for Active; 'I' for Inactive)
REMARK    1  A    between atoms: C3_6  and  O2_7 
REMARK    2  A    between atoms: C1_9  and  O1_10 
REMARK    3  A    between atoms: C7_12  and  C10_14 
REMARK    4  A    between atoms: C10_14  and  C11_15 
REMARK    5  A    between atoms: C12_17  and  C16_18 
ROOT
ATOM      1  C10 KRS d   1      11.640   1.178  23.231  0.00  0.00    -0.016 C 
ATOM      2  H8  KRS d   1      11.426   0.099  23.255  0.00  0.00     0.040 H 
ATOM      3  H9  KRS d   1      12.562   1.356  22.659  0.00  0.00     0.040 H 
ENDROOT
BRANCH   1   4
ATOM      4  C7  KRS d   1      11.834   1.679  24.657  0.00  0.00     0.054 C 
ATOM      5  O3  KRS d   1      12.225   3.057  24.631  0.00  0.00    -0.311 OA
ATOM      6  C8  KRS d   1      12.379   3.633  25.960  0.00  0.00     0.297 C 
ATOM      7  O4  KRS d   1      12.066   4.795  26.160  0.00  0.00    -0.259 OA
ATOM      8  C9  KRS d   1      12.924   2.772  27.056  0.00  0.00     0.079 A 
ATOM      9  C5  KRS d   1      13.179   1.350  26.751  0.00  0.00    -0.034 A 
ATOM     10  C1  KRS d   1      13.213   3.269  28.421  0.00  0.00     0.085 A 
ATOM     11  C4  KRS d   1      13.684   0.530  27.753  0.00  0.00    -0.044 A 
ATOM     12  C6  KRS d   1      12.890   0.823  25.361  0.00  0.00    -0.015 C 
ATOM     13  C3  KRS d   1      13.946   1.034  29.028  0.00  0.00     0.068 A 
ATOM     14  H1  KRS d   1      13.877  -0.515  27.541  0.00  0.00     0.088 H 
ATOM     15  C2  KRS d   1      13.716   2.372  29.357  0.00  0.00    -0.018 A 
ATOM     16  H3  KRS d   1      13.934   2.718  30.361  0.00  0.00     0.092 H 
ATOM     17  H6  KRS d   1      12.522  -0.211  25.438  0.00  0.00     0.044 H 
ATOM     18  H7  KRS d   1      13.818   0.839  24.770  0.00  0.00     0.044 H 
ATOM     19  H5  KRS d   1      10.883   1.590  25.203  0.00  0.00     0.084 H 
BRANCH  13  20
ATOM     20  O2  KRS d   1      14.440   0.195  29.981  0.00  0.00    -0.361 OA
ATOM     21  H2  KRS d   1      14.567   0.676  30.790  0.00  0.00     0.217 HD
ENDBRANCH  13  20
BRANCH  10  22
ATOM     22  O1  KRS d   1      12.993   4.572  28.751  0.00  0.00    -0.360 OA
ATOM     23  H4  KRS d   1      12.651   5.035  27.995  0.00  0.00     0.217 HD
ENDBRANCH  10  22
ENDBRANCH   1   4
BRANCH   1  24
ATOM     24  C11 KRS d   1      10.483   1.901  22.550  0.00  0.00     0.041 C 
ATOM     25  O5  KRS d   1       9.235   1.404  23.037  0.00  0.00    -0.381 OA
ATOM     26  C12 KRS d   1       9.071   0.003  22.818  0.00  0.00     0.035 C 
ATOM     27  C13 KRS d   1       9.061  -0.284  21.322  0.00  0.00    -0.041 C 
ATOM     28  H11 KRS d   1       9.914  -0.534  23.276  0.00  0.00     0.082 H 
ATOM     29  C14 KRS d   1      10.329   0.243  20.663  0.00  0.00    -0.060 C 
ATOM     30  H15 KRS d   1       8.188   0.205  20.866  0.00  0.00     0.036 H 
ATOM     31  H16 KRS d   1       8.997  -1.371  21.163  0.00  0.00     0.036 H 
ATOM     32  C15 KRS d   1      10.569   1.700  21.041  0.00  0.00    -0.041 C 
ATOM     33  H17 KRS d   1      10.227   0.166  19.570  0.00  0.00     0.033 H 
ATOM     34  H18 KRS d   1      11.186  -0.362  20.995  0.00  0.00     0.033 H 
ATOM     35  H19 KRS d   1      11.569   2.000  20.696  0.00  0.00     0.036 H 
ATOM     36  H20 KRS d   1       9.809   2.327  20.552  0.00  0.00     0.036 H 
ATOM     37  H10 KRS d   1      10.551   2.976  22.773  0.00  0.00     0.083 H 
BRANCH  26  38
ATOM     38  C16 KRS d   1       7.776  -0.464  23.472  0.00  0.00    -0.052 C 
ATOM     39  H12 KRS d   1       7.649  -1.544  23.304  0.00  0.00     0.030 H 
ATOM     40  H13 KRS d   1       6.926   0.078  23.032  0.00  0.00     0.030 H 
ATOM     41  H14 KRS d   1       7.818  -0.264  24.553  0.00  0.00     0.030 H 
ENDBRANCH  26  38
ENDBRANCH   1  24
TORSDOF 5
