REMARK  5 active torsions:
REMARK  status: ('A' for Active; 'I' for Inactive)
REMARK    1  A    between atoms: C3_6  and  O2_7 
REMARK    2  A    between atoms: C1_9  and  O1_10 
REMARK    3  A    between atoms: C7_12  and  C10_14 
REMARK    4  A    between atoms: C10_14  and  C11_15 
REMARK    5  A    between atoms: C12_17  and  C16_18 
ROOT
ATOM      1  C10 KRS d   1      13.301 -13.379  60.959  0.00  0.00    -0.016 C 
ATOM      2  H8  KRS d   1      12.340 -13.896  61.094  0.00  0.00     0.040 H 
ATOM      3  H9  KRS d   1      14.008 -14.047  60.445  0.00  0.00     0.040 H 
ENDROOT
BRANCH   1   4
ATOM      4  C7  KRS d   1      13.865 -12.977  62.315  0.00  0.00     0.054 C 
ATOM      5  O3  KRS d   1      15.116 -12.324  62.096  0.00  0.00    -0.311 OA
ATOM      6  C8  KRS d   1      15.612 -11.749  63.334  0.00  0.00     0.297 C 
ATOM      7  O4  KRS d   1      16.094 -10.628  63.336  0.00  0.00    -0.259 OA
ATOM      8  C9  KRS d   1      15.497 -12.581  64.576  0.00  0.00     0.079 A 
ATOM      9  C5  KRS d   1      14.703 -13.824  64.509  0.00  0.00    -0.034 A 
ATOM     10  C1  KRS d   1      16.145 -12.233  65.866  0.00  0.00     0.085 A 
ATOM     11  C4  KRS d   1      14.595 -14.612  65.648  0.00  0.00    -0.044 A 
ATOM     12  C6  KRS d   1      14.034 -14.208  63.208  0.00  0.00    -0.015 C 
ATOM     13  C3  KRS d   1      15.220 -14.244  66.842  0.00  0.00     0.068 A 
ATOM     14  H1  KRS d   1      14.016 -15.528  65.610  0.00  0.00     0.088 H 
ATOM     15  C2  KRS d   1      15.980 -13.082  66.954  0.00  0.00    -0.018 A 
ATOM     16  H3  KRS d   1      16.448 -12.837  67.901  0.00  0.00     0.092 H 
ATOM     17  H6  KRS d   1      13.045 -14.640  63.422  0.00  0.00     0.044 H 
ATOM     18  H7  KRS d   1      14.654 -14.952  62.687  0.00  0.00     0.044 H 
ATOM     19  H5  KRS d   1      13.172 -12.277  62.805  0.00  0.00     0.084 H 
BRANCH  13  20
ATOM     20  O2  KRS d   1      15.091 -15.041  67.938  0.00  0.00    -0.361 OA
ATOM     21  H2  KRS d   1      15.442 -15.902  67.745  0.00  0.00     0.217 HD
ENDBRANCH  13  20
BRANCH  10  22
ATOM     22  O1  KRS d   1      16.888 -11.098  65.979  0.00  0.00    -0.360 OA
ATOM     23  H4  KRS d   1      16.895 -10.641  65.146  0.00  0.00     0.217 HD
ENDBRANCH  10  22
ENDBRANCH   1   4
BRANCH   1  24
ATOM     24  C11 KRS d   1      13.094 -12.110  60.133  0.00  0.00     0.041 C 
ATOM     25  O5  KRS d   1      11.973 -11.368  60.633  0.00  0.00    -0.381 OA
ATOM     26  C12 KRS d   1      10.751 -12.105  60.582  0.00  0.00     0.035 C 
ATOM     27  C13 KRS d   1      10.400 -12.331  59.121  0.00  0.00    -0.041 C 
ATOM     28  H11 KRS d   1      10.880 -13.074  61.086  0.00  0.00     0.082 H 
ATOM     29  C14 KRS d   1      11.515 -13.140  58.475  0.00  0.00    -0.060 C 
ATOM     30  H15 KRS d   1      10.300 -11.362  58.609  0.00  0.00     0.036 H 
ATOM     31  H16 KRS d   1       9.451 -12.883  59.049  0.00  0.00     0.036 H 
ATOM     32  C15 KRS d   1      12.862 -12.452  58.665  0.00  0.00    -0.041 C 
ATOM     33  H17 KRS d   1      11.310 -13.241  57.399  0.00  0.00     0.033 H 
ATOM     34  H18 KRS d   1      11.551 -14.138  58.937  0.00  0.00     0.033 H 
ATOM     35  H19 KRS d   1      13.662 -13.124  58.321  0.00  0.00     0.036 H 
ATOM     36  H20 KRS d   1      12.881 -11.526  58.072  0.00  0.00     0.036 H 
ATOM     37  H10 KRS d   1      13.997 -11.488  60.213  0.00  0.00     0.083 H 
BRANCH  26  38
ATOM     38  C16 KRS d   1       9.648 -11.321  61.273  0.00  0.00    -0.052 C 
ATOM     39  H12 KRS d   1       8.710 -11.893  61.231  0.00  0.00     0.030 H 
ATOM     40  H13 KRS d   1       9.511 -10.355  60.765  0.00  0.00     0.030 H 
ATOM     41  H14 KRS d   1       9.924 -11.147  62.323  0.00  0.00     0.030 H 
ENDBRANCH  26  38
ENDBRANCH   1  24
TORSDOF 5
