REMARK  5 active torsions:
REMARK  status: ('A' for Active; 'I' for Inactive)
REMARK    1  A    between atoms: C3_6  and  O2_7 
REMARK    2  A    between atoms: C1_9  and  O1_10 
REMARK    3  A    between atoms: C7_12  and  C10_14 
REMARK    4  A    between atoms: C10_14  and  C11_15 
REMARK    5  A    between atoms: C12_17  and  C16_18 
ROOT
ATOM      1  C10 KRS d   1       5.774   7.272 -15.197  0.00  0.00    -0.016 C 
ATOM      2  H8  KRS d   1       6.255   6.405 -15.673  0.00  0.00     0.040 H 
ATOM      3  H9  KRS d   1       5.690   8.091 -15.927  0.00  0.00     0.040 H 
ENDROOT
BRANCH   1   4
ATOM      4  C7  KRS d   1       6.624   7.735 -14.018  0.00  0.00     0.054 C 
ATOM      5  O3  KRS d   1       6.003   8.874 -13.413  0.00  0.00    -0.311 OA
ATOM      6  C8  KRS d   1       6.728   9.357 -12.247  0.00  0.00     0.297 C 
ATOM      7  O4  KRS d   1       6.133   9.959 -11.369  0.00  0.00    -0.259 OA
ATOM      8  C9  KRS d   1       8.202   9.119 -12.167  0.00  0.00     0.079 A 
ATOM      9  C5  KRS d   1       8.873   8.458 -13.303  0.00  0.00    -0.034 A 
ATOM     10  C1  KRS d   1       9.021   9.520 -11.001  0.00  0.00     0.085 A 
ATOM     11  C4  KRS d   1      10.244   8.237 -13.243  0.00  0.00    -0.044 A 
ATOM     12  C6  KRS d   1       8.043   8.049 -14.495  0.00  0.00    -0.015 C 
ATOM     13  C3  KRS d   1      10.982   8.626 -12.124  0.00  0.00     0.068 A 
ATOM     14  H1  KRS d   1      10.746   7.757 -14.075  0.00  0.00     0.088 H 
ATOM     15  C2  KRS d   1      10.386   9.254 -11.029  0.00  0.00    -0.018 A 
ATOM     16  H3  KRS d   1      11.000   9.540 -10.183  0.00  0.00     0.092 H 
ATOM     17  H6  KRS d   1       8.482   7.156 -14.963  0.00  0.00     0.044 H 
ATOM     18  H7  KRS d   1       8.015   8.870 -15.226  0.00  0.00     0.044 H 
ATOM     19  H5  KRS d   1       6.677   6.926 -13.274  0.00  0.00     0.084 H 
BRANCH  13  20
ATOM     20  O2  KRS d   1      12.323   8.389 -12.101  0.00  0.00    -0.361 OA
ATOM     21  H2  KRS d   1      12.736   8.841 -12.828  0.00  0.00     0.217 HD
ENDBRANCH  13  20
BRANCH  10  22
ATOM     22  O1  KRS d   1       8.448  10.133  -9.928  0.00  0.00    -0.360 OA
ATOM     23  H4  KRS d   1       7.516  10.233 -10.082  0.00  0.00     0.217 HD
ENDBRANCH  10  22
ENDBRANCH   1   4
BRANCH   1  24
ATOM     24  C11 KRS d   1       4.378   6.875 -14.723  0.00  0.00     0.041 C 
ATOM     25  O5  KRS d   1       4.451   5.697 -13.914  0.00  0.00    -0.381 OA
ATOM     26  C12 KRS d   1       4.945   4.554 -14.615  0.00  0.00     0.035 C 
ATOM     27  C13 KRS d   1       3.989   4.198 -15.745  0.00  0.00    -0.041 C 
ATOM     28  H11 KRS d   1       5.927   4.796 -15.047  0.00  0.00     0.082 H 
ATOM     29  C14 KRS d   1       3.857   5.385 -16.690  0.00  0.00    -0.060 C 
ATOM     30  H15 KRS d   1       3.002   3.951 -15.326  0.00  0.00     0.036 H 
ATOM     31  H16 KRS d   1       4.381   3.331 -16.297  0.00  0.00     0.036 H 
ATOM     32  C15 KRS d   1       3.458   6.636 -15.918  0.00  0.00    -0.041 C 
ATOM     33  H17 KRS d   1       3.088   5.164 -17.445  0.00  0.00     0.033 H 
ATOM     34  H18 KRS d   1       4.821   5.560 -17.190  0.00  0.00     0.033 H 
ATOM     35  H19 KRS d   1       3.514   7.504 -16.591  0.00  0.00     0.036 H 
ATOM     36  H20 KRS d   1       2.426   6.518 -15.556  0.00  0.00     0.036 H 
ATOM     37  H10 KRS d   1       3.964   7.695 -14.118  0.00  0.00     0.083 H 
BRANCH  26  38
ATOM     38  C16 KRS d   1       5.112   3.389 -13.646  0.00  0.00    -0.052 C 
ATOM     39  H12 KRS d   1       5.492   2.512 -14.190  0.00  0.00     0.030 H 
ATOM     40  H13 KRS d   1       4.139   3.146 -13.193  0.00  0.00     0.030 H 
ATOM     41  H14 KRS d   1       5.825   3.668 -12.856  0.00  0.00     0.030 H 
ENDBRANCH  26  38
ENDBRANCH   1  24
TORSDOF 5
