REMARK  12 active torsions:
REMARK  status: ('A' for Active; 'I' for Inactive)
REMARK    1  A    between atoms: C1_1  and  C3_3 
REMARK    2  A    between atoms: N3_9  and  C1_1 
REMARK    3  A    between atoms: C2_2  and  N2_8 
REMARK    4  A    between atoms: C4_4  and  N3_9 
REMARK    5  A    between atoms: N2_8  and  C18_25 
REMARK    6  A    between atoms: N2_8  and  S2_26 
REMARK    7  A    between atoms: N3_9  and  S1_10 
REMARK    8  A    between atoms: S1_10  and  C12_16 
REMARK    9  A    between atoms: C17_21  and  N4_22 
REMARK   10  A    between atoms: C18_25  and  C19_27 
REMARK   11  A    between atoms: S2_26  and  C25_33 
REMARK   12  A    between atoms: C30_38  and  N5_43 
ROOT
ATOM      1  C2  4B1 d   1      57.802  34.183  25.180  0.00  0.00     0.068 C 
ATOM      2  C4  4B1 d   1      59.254  33.892  24.996  0.00  0.00     0.068 C 
ATOM      3  N1  4B1 d   1      58.173  33.428  23.013  0.00  0.00    -0.071 N 
ATOM      4  C5  4B1 d   1      57.130  33.686  23.937  0.00  0.00     0.103 C 
ATOM      5  C6  4B1 d   1      59.373  34.019  23.532  0.00  0.00     0.103 C 
ATOM      6  H3  4B1 d   1      57.450  33.540  26.000  0.00  0.00     0.079 H 
ATOM      7  H4  4B1 d   1      59.828  34.715  25.448  0.00  0.00     0.079 H 
ATOM      8  H5  4B1 d   1      57.948  33.836  22.119  0.00  0.00     0.277 HD
ATOM      9  H6  4B1 d   1      58.299  32.434  22.906  0.00  0.00     0.277 HD
ATOM     10  H7  4B1 d   1      56.446  34.450  23.539  0.00  0.00     0.079 H 
ATOM     11  H8  4B1 d   1      56.568  32.764  24.148  0.00  0.00     0.079 H 
ATOM     12  H9  4B1 d   1      60.260  33.480  23.167  0.00  0.00     0.079 H 
ATOM     13  H10 4B1 d   1      59.441  35.077  23.239  0.00  0.00     0.079 H 
ENDROOT
BRANCH   1  14
ATOM     14  N2  4B1 d   1      57.486  35.563  25.626  0.00  0.00    -0.294 N 
BRANCH  14  15
ATOM     15  C18 4B1 d   1      57.918  36.684  24.832  0.00  0.00     0.029 C 
ATOM     16  H20 4B1 d   1      57.300  37.550  25.112  0.00  0.00     0.072 H 
ATOM     17  H21 4B1 d   1      57.740  36.433  23.776  0.00  0.00     0.072 H 
BRANCH  15  18
ATOM     18  C19 4B1 d   1      59.208  37.047  24.954  0.00  0.00    -0.040 A 
ATOM     19  C20 4B1 d   1      59.830  37.023  26.154  0.00  0.00    -0.075 A 
ATOM     20  C22 4B1 d   1      61.120  37.434  26.301  0.00  0.00    -0.082 A 
ATOM     21  H22 4B1 d   1      59.288  36.667  27.022  0.00  0.00     0.084 H 
ATOM     22  C24 4B1 d   1      61.794  37.877  25.207  0.00  0.00    -0.083 A 
ATOM     23  H24 4B1 d   1      61.600  37.408  27.272  0.00  0.00     0.083 H 
ATOM     24  C23 4B1 d   1      61.163  37.907  23.984  0.00  0.00    -0.082 A 
ATOM     25  H26 4B1 d   1      62.823  38.205  25.297  0.00  0.00     0.083 H 
ATOM     26  C21 4B1 d   1      59.871  37.495  23.857  0.00  0.00    -0.075 A 
ATOM     27  H25 4B1 d   1      61.700  38.263  23.112  0.00  0.00     0.083 H 
ATOM     28  H23 4B1 d   1      59.378  37.524  22.892  0.00  0.00     0.084 H 
ENDBRANCH  15  18
ENDBRANCH  14  15
BRANCH  14  29
ATOM     29  S2  4B1 d   1      56.710  35.709  26.668  0.00  0.00     0.261 S 
ATOM     30  O3  4B1 d   1      57.277  34.902  27.731  0.00  0.00    -0.200 OA
ATOM     31  O4  4B1 d   1      56.615  37.090  27.192  0.00  0.00    -0.200 OA
BRANCH  29  32
ATOM     32  C25 4B1 d   1      55.258  35.229  26.388  0.00  0.00     0.079 A 
ATOM     33  C26 4B1 d   1      54.892  34.000  26.839  0.00  0.00    -0.058 A 
ATOM     34  C28 4B1 d   1      53.629  33.544  26.635  0.00  0.00    -0.050 A 
ATOM     35  H27 4B1 d   1      55.611  33.381  27.364  0.00  0.00     0.086 H 
ATOM     36  C30 4B1 d   1      52.712  34.274  25.930  0.00  0.00     0.102 A 
ATOM     37  H29 4B1 d   1      53.341  32.580  27.040  0.00  0.00     0.087 H 
ATOM     38  C29 4B1 d   1      53.057  35.513  25.482  0.00  0.00    -0.050 A 
ATOM     39  C27 4B1 d   1      54.321  35.988  25.717  0.00  0.00    -0.058 A 
ATOM     40  H30 4B1 d   1      52.337  36.119  24.944  0.00  0.00     0.087 H 
ATOM     41  H28 4B1 d   1      54.590  36.979  25.369  0.00  0.00     0.086 H 
BRANCH  36  42
ATOM     42  N5  4B1 d   1      51.521  33.772  25.726  0.00  0.00    -0.116 N 
ATOM     43  O7  4B1 d   1      50.627  34.458  24.958  0.00  0.00    -0.532 OA
ATOM     44  O8  4B1 d   1      51.113  32.597  26.384  0.00  0.00    -0.532 OA
ENDBRANCH  36  42
ENDBRANCH  29  32
ENDBRANCH  14  29
ENDBRANCH   1  14
BRANCH   2  45
ATOM     45  N3  4B1 d   1      59.773  32.664  25.660  0.00  0.00    -0.294 N 
BRANCH  45  46
ATOM     46  C1  4B1 d   1      59.359  31.339  25.226  0.00  0.00     0.029 C 
ATOM     47  H1  4B1 d   1      59.522  31.272  24.140  0.00  0.00     0.072 H 
ATOM     48  H2  4B1 d   1      59.994  30.601  25.739  0.00  0.00     0.072 H 
BRANCH  46  49
ATOM     49  C3  4B1 d   1      58.053  31.017  25.476  0.00  0.00    -0.040 A 
ATOM     50  C7  4B1 d   1      57.533  31.054  26.721  0.00  0.00    -0.075 A 
ATOM     51  C9  4B1 d   1      56.238  30.705  26.936  0.00  0.00    -0.082 A 
ATOM     52  H11 4B1 d   1      58.153  31.364  27.555  0.00  0.00     0.084 H 
ATOM     53  C11 4B1 d   1      55.427  30.332  25.931  0.00  0.00    -0.083 A 
ATOM     54  H13 4B1 d   1      55.847  30.728  27.947  0.00  0.00     0.083 H 
ATOM     55  C10 4B1 d   1      55.975  30.305  24.696  0.00  0.00    -0.082 A 
ATOM     56  H15 4B1 d   1      54.390  30.067  26.102  0.00  0.00     0.083 H 
ATOM     57  C8  4B1 d   1      57.275  30.625  24.451  0.00  0.00    -0.075 A 
ATOM     58  H14 4B1 d   1      55.349  30.014  23.860  0.00  0.00     0.083 H 
ATOM     59  H12 4B1 d   1      57.677  30.565  23.446  0.00  0.00     0.084 H 
ENDBRANCH  46  49
ENDBRANCH  45  46
BRANCH  45  60
ATOM     60  S1  4B1 d   1      60.773  32.707  26.607  0.00  0.00     0.261 S 
ATOM     61  O5  4B1 d   1      60.566  33.755  27.592  0.00  0.00    -0.200 OA
ATOM     62  O6  4B1 d   1      60.951  31.472  27.408  0.00  0.00    -0.200 OA
BRANCH  60  63
ATOM     63  C12 4B1 d   1      62.037  32.952  25.937  0.00  0.00     0.079 A 
ATOM     64  C13 4B1 d   1      62.596  31.884  25.304  0.00  0.00    -0.058 A 
ATOM     65  C15 4B1 d   1      63.784  32.075  24.679  0.00  0.00    -0.050 A 
ATOM     66  H16 4B1 d   1      62.109  30.916  25.300  0.00  0.00     0.086 H 
ATOM     67  C17 4B1 d   1      64.427  33.276  24.665  0.00  0.00     0.102 A 
ATOM     68  H18 4B1 d   1      64.242  31.236  24.168  0.00  0.00     0.087 H 
ATOM     69  C16 4B1 d   1      63.844  34.327  25.284  0.00  0.00    -0.050 A 
ATOM     70  C14 4B1 d   1      62.651  34.174  25.922  0.00  0.00    -0.058 A 
ATOM     71  H19 4B1 d   1      64.329  35.297  25.272  0.00  0.00     0.087 H 
ATOM     72  H17 4B1 d   1      62.188  35.020  26.418  0.00  0.00     0.086 H 
BRANCH  67  73
ATOM     73  N4  4B1 d   1      65.551  33.404  24.021  0.00  0.00    -0.116 N 
ATOM     74  O1  4B1 d   1      66.063  32.331  23.272  0.00  0.00    -0.532 OA
ATOM     75  O2  4B1 d   1      66.208  34.622  24.023  0.00  0.00    -0.532 OA
ENDBRANCH  67  73
ENDBRANCH  60  63
ENDBRANCH  45  60
ENDBRANCH   2  45
TORSDOF 12
