REMARK  12 active torsions:
REMARK  status: ('A' for Active; 'I' for Inactive)
REMARK    1  A    between atoms: C6_2  and  N43_41 
REMARK    2  A    between atoms: C27_5  and  S9_7 
REMARK    3  A    between atoms: S9_7  and  N32_10 
REMARK    4  A    between atoms: N32_10  and  C33_11 
REMARK    5  A    between atoms: N32_10  and  C24_18 
REMARK    6  A    between atoms: C33_11  and  C34_12 
REMARK    7  A    between atoms: C23_22  and  N28_23 
REMARK    8  A    between atoms: N28_23  and  C7_24 
REMARK    9  A    between atoms: N28_23  and  S8_31 
REMARK   10  A    between atoms: C7_24  and  C12_25 
REMARK   11  A    between atoms: S8_31  and  C26_32 
REMARK   12  A    between atoms: C4_35  and  N42_40 
ROOT
ATOM      1  C24 G3G d   1       0.581  67.428 184.776  0.00  0.00     0.068 C 
ATOM      2  C25 G3G d   1       0.765  67.873 183.328  0.00  0.00     0.103 C 
ATOM      3  N22 G3G d   1       0.092  66.860 182.539  0.00  0.00    -0.071 N 
ATOM      4  C21 G3G d   1      -0.763  65.977 183.307  0.00  0.00     0.103 C 
ATOM      5  C23 G3G d   1      -0.340  66.203 184.755  0.00  0.00     0.068 C 
ATOM      6  H12 G3G d   1       0.142  68.230 185.387  0.00  0.00     0.079 H 
ATOM      7  H13 G3G d   1       1.833  67.918 183.070  0.00  0.00     0.079 H 
ATOM      8  H14 G3G d   1       0.306  68.859 183.165  0.00  0.00     0.079 H 
ATOM      9  H15 G3G d   1       0.793  66.300 182.080  0.00  0.00     0.277 HD
ATOM     10  H16 G3G d   1      -0.474  67.324 181.846  0.00  0.00     0.277 HD
ATOM     11  H17 G3G d   1      -0.603  64.929 183.014  0.00  0.00     0.079 H 
ATOM     12  H18 G3G d   1      -1.822  66.240 183.165  0.00  0.00     0.079 H 
ATOM     13  H19 G3G d   1       0.186  65.325 185.157  0.00  0.00     0.079 H 
ENDROOT
BRANCH   1  14
ATOM     14  N32 G3G d   1       1.910  67.064 185.281  0.00  0.00    -0.294 N 
BRANCH  14  15
ATOM     15  S9  G3G d   1       2.476  67.721 186.539  0.00  0.00     0.261 S 
ATOM     16  O40 G3G d   1       3.588  66.960 187.029  0.00  0.00    -0.200 OA
ATOM     17  O11 G3G d   1       1.456  67.781 187.547  0.00  0.00    -0.200 OA
BRANCH  15  18
ATOM     18  C27 G3G d   1       3.000  69.198 186.227  0.00  0.00     0.079 A 
ATOM     19  C20 G3G d   1       4.149  69.388 185.465  0.00  0.00    -0.058 A 
ATOM     20  C5  G3G d   1       4.608  70.675 185.204  0.00  0.00    -0.056 A 
ATOM     21  H3  G3G d   1       4.687  68.532 185.074  0.00  0.00     0.086 H 
ATOM     22  C6  G3G d   1       3.923  71.774 185.708  0.00  0.00     0.025 A 
ATOM     23  H2  G3G d   1       5.501  70.821 184.607  0.00  0.00     0.086 H 
ATOM     24  C2  G3G d   1       2.779  71.585 186.476  0.00  0.00    -0.056 A 
ATOM     25  C18 G3G d   1       2.322  70.298 186.739  0.00  0.00    -0.058 A 
ATOM     26  H1  G3G d   1       2.243  72.441 186.870  0.00  0.00     0.086 H 
ATOM     27  H4  G3G d   1       1.435  70.153 187.345  0.00  0.00     0.086 H 
BRANCH  22  28
ATOM     28  N43 G3G d   1       4.369  73.029 185.453  0.00  0.00    -0.399 N 
ATOM     29  H33 G3G d   1       3.860  73.842 185.827  0.00  0.00     0.156 HD
ATOM     30  H34 G3G d   1       5.217  73.169 184.885  0.00  0.00     0.156 HD
ENDBRANCH  22  28
ENDBRANCH  15  18
ENDBRANCH  14  15
BRANCH  14  31
ATOM     31  C33 G3G d   1       2.675  66.083 184.509  0.00  0.00     0.029 C 
ATOM     32  H5  G3G d   1       3.745  66.314 184.621  0.00  0.00     0.072 H 
ATOM     33  H6  G3G d   1       2.388  66.176 183.451  0.00  0.00     0.072 H 
BRANCH  31  34
ATOM     34  C34 G3G d   1       2.450  64.644 184.939  0.00  0.00    -0.040 A 
ATOM     35  C38 G3G d   1       2.606  64.264 186.267  0.00  0.00    -0.075 A 
ATOM     36  C39 G3G d   1       2.393  62.946 186.651  0.00  0.00    -0.082 A 
ATOM     37  H7  G3G d   1       2.896  65.001 187.008  0.00  0.00     0.084 H 
ATOM     38  C37 G3G d   1       2.015  62.001 185.706  0.00  0.00    -0.083 A 
ATOM     39  H8  G3G d   1       2.522  62.655 187.687  0.00  0.00     0.083 H 
ATOM     40  C36 G3G d   1       1.853  62.376 184.377  0.00  0.00    -0.082 A 
ATOM     41  H9  G3G d   1       1.847  60.972 186.004  0.00  0.00     0.083 H 
ATOM     42  C35 G3G d   1       2.067  63.696 183.996  0.00  0.00    -0.075 A 
ATOM     43  H10 G3G d   1       1.560  61.639 183.638  0.00  0.00     0.083 H 
ATOM     44  H11 G3G d   1       1.935  63.987 182.960  0.00  0.00     0.084 H 
ENDBRANCH  31  34
ENDBRANCH  14  31
ENDBRANCH   1  14
BRANCH   5  45
ATOM     45  N28 G3G d   1      -1.570  66.452 185.513  0.00  0.00    -0.294 N 
BRANCH  45  46
ATOM     46  C7  G3G d   1      -2.413  67.568 185.077  0.00  0.00     0.029 C 
ATOM     47  H20 G3G d   1      -3.463  67.296 185.258  0.00  0.00     0.072 H 
ATOM     48  H21 G3G d   1      -2.254  67.718 183.999  0.00  0.00     0.072 H 
BRANCH  46  49
ATOM     49  C12 G3G d   1      -2.135  68.883 185.784  0.00  0.00    -0.040 A 
ATOM     50  C14 G3G d   1      -1.747  69.995 185.043  0.00  0.00    -0.075 A 
ATOM     51  C30 G3G d   1      -1.490  71.206 185.676  0.00  0.00    -0.082 A 
ATOM     52  H22 G3G d   1      -1.645  69.917 183.967  0.00  0.00     0.084 H 
ATOM     53  C31 G3G d   1      -1.628  71.312 187.055  0.00  0.00    -0.083 A 
ATOM     54  H23 G3G d   1      -1.182  72.067 185.094  0.00  0.00     0.083 H 
ATOM     55  C29 G3G d   1      -2.021  70.205 187.798  0.00  0.00    -0.082 A 
ATOM     56  H24 G3G d   1      -1.430  72.256 187.550  0.00  0.00     0.083 H 
ATOM     57  C13 G3G d   1      -2.277  68.997 187.162  0.00  0.00    -0.075 A 
ATOM     58  H25 G3G d   1      -2.128  70.284 188.874  0.00  0.00     0.083 H 
ATOM     59  H26 G3G d   1      -2.590  68.138 187.744  0.00  0.00     0.084 H 
ENDBRANCH  46  49
ENDBRANCH  45  46
BRANCH  45  60
ATOM     60  S8  G3G d   1      -1.961  65.532 186.667  0.00  0.00     0.261 S 
ATOM     61  O41 G3G d   1      -0.810  65.284 187.489  0.00  0.00    -0.200 OA
ATOM     62  O10 G3G d   1      -2.995  66.125 187.466  0.00  0.00    -0.200 OA
BRANCH  60  63
ATOM     63  C26 G3G d   1      -2.509  64.139 186.111  0.00  0.00     0.079 A 
ATOM     64  C17 G3G d   1      -3.865  63.985 185.846  0.00  0.00    -0.058 A 
ATOM     65  C1  G3G d   1      -4.351  62.773 185.367  0.00  0.00    -0.056 A 
ATOM     66  H27 G3G d   1      -4.546  64.812 186.013  0.00  0.00     0.086 H 
ATOM     67  C4  G3G d   1      -3.480  61.711 185.157  0.00  0.00     0.025 A 
ATOM     68  H28 G3G d   1      -5.408  62.657 185.158  0.00  0.00     0.086 H 
ATOM     69  C3  G3G d   1      -2.125  61.861 185.425  0.00  0.00    -0.056 A 
ATOM     70  C19 G3G d   1      -1.639  63.073 185.905  0.00  0.00    -0.058 A 
ATOM     71  H29 G3G d   1      -1.446  61.033 185.260  0.00  0.00     0.086 H 
ATOM     72  H30 G3G d   1      -0.582  63.187 186.119  0.00  0.00     0.086 H 
BRANCH  67  73
ATOM     73  N42 G3G d   1      -3.953  60.530 184.690  0.00  0.00    -0.399 N 
ATOM     74  H31 G3G d   1      -4.958  60.420 184.492  0.00  0.00     0.156 HD
ATOM     75  H32 G3G d   1      -3.308  59.742 184.533  0.00  0.00     0.156 HD
ENDBRANCH  67  73
ENDBRANCH  60  63
ENDBRANCH  45  60
ENDBRANCH   5  45
TORSDOF 12
