REMARK  5 active torsions:
REMARK  status: ('A' for Active; 'I' for Inactive)
REMARK    1  A    between atoms: O1_1  and  C2_2 
REMARK    2  A    between atoms: C5_5  and  C10_10 
REMARK    3  A    between atoms: C12_12  and  C15_15 
REMARK    4  A    between atoms: C18_18  and  O21_21 
REMARK    5  A    between atoms: O21_21  and  S22_22 
ROOT
ATOM      1  C10 2WN d   1       0.200  -0.214  -6.541  0.00  0.00     0.203 A 
ATOM      2  O11 2WN d   1      -0.485   0.499  -5.673  0.00  0.00    -0.268 OA
ATOM      3  C12 2WN d   1       0.000   0.000  -4.536  0.00  0.00     0.203 A 
ATOM      4  N13 2WN d   1       0.858  -0.916  -4.731  0.00  0.00    -0.121 NA
ATOM      5  N14 2WN d   1       1.008  -1.061  -5.906  0.00  0.00    -0.121 NA
ENDROOT
BRANCH   3   6
ATOM      6  C15 2WN d   1      -0.475   0.451  -3.351  0.00  0.00     0.019 A 
ATOM      7  C16 2WN d   1      -0.951   1.744  -3.204  0.00  0.00    -0.066 A 
ATOM      8  C17 2WN d   1      -1.397   2.183  -1.966  0.00  0.00    -0.048 A 
ATOM      9  H4  2WN d   1      -0.975   2.413  -4.057  0.00  0.00     0.085 H 
ATOM     10  C18 2WN d   1      -1.366   1.324  -0.872  0.00  0.00     0.091 A 
ATOM     11  H5  2WN d   1      -1.769   3.195  -1.851  0.00  0.00     0.087 H 
ATOM     12  C19 2WN d   1      -0.890   0.026  -1.024  0.00  0.00    -0.048 A 
ATOM     13  C20 2WN d   1      -0.445  -0.413  -2.263  0.00  0.00    -0.066 A 
ATOM     14  H6  2WN d   1      -0.867  -0.644  -0.172  0.00  0.00     0.087 H 
ATOM     15  H7  2WN d   1      -0.076  -1.425  -2.382  0.00  0.00     0.085 H 
BRANCH  10  16
ATOM     16  O21 2WN d   1      -1.799   1.750   0.345  0.00  0.00    -0.208 OA
BRANCH  16  17
ATOM     17  S22 2WN d   1      -0.612   1.754   1.310  0.00  0.00     0.444 S 
ATOM     18  O23 2WN d   1       0.620   2.271   0.564  0.00  0.00    -0.164 OA
ATOM     19  O25 2WN d   1      -0.348   0.330   1.804  0.00  0.00    -0.164 OA
ATOM     20  F26 2WN d   1      -0.874   2.544   2.353  0.00  0.00    -0.081 F 
ENDBRANCH  16  17
ENDBRANCH  10  16
ENDBRANCH   3   6
BRANCH   1  21
ATOM     21  C5  2WN d   1       0.000   0.000  -7.865  0.00  0.00     0.022 C 
ATOM     22  C4  2WN d   1      -0.303   1.096  -8.445  0.00  0.00    -0.045 C 
ATOM     23  C3  2WN d   1      -0.384   1.188  -9.827  0.00  0.00     0.069 C 
ATOM     24  H2  2WN d   1      -0.502   1.976  -7.843  0.00  0.00     0.087 H 
ATOM     25  C2  2WN d   1       0.000   0.000 -10.600  0.00  0.00     0.109 C 
ATOM     26 CL9  2WN d   1      -0.894   2.659 -10.559  0.00  0.00    -0.081 Cl
ATOM     27  C7  2WN d   1       0.369  -1.112 -10.036  0.00  0.00     0.069 C 
ATOM     28  C6  2WN d   1       0.446  -1.197  -8.657  0.00  0.00    -0.045 C 
ATOM     29 CL8  2WN d   1       0.789  -2.472 -10.987  0.00  0.00    -0.081 Cl
ATOM     30  H3  2WN d   1       0.814  -2.091  -8.167  0.00  0.00     0.087 H 
BRANCH  25  31
ATOM     31  O1  2WN d   1      -0.128   0.183 -11.954  0.00  0.00    -0.357 OA
ATOM     32  H1  2WN d   1       0.429   0.902 -12.229  0.00  0.00     0.217 HD
ENDBRANCH  25  31
ENDBRANCH   1  21
TORSDOF 5
