REMARK  5 active torsions:
REMARK  status: ('A' for Active; 'I' for Inactive)
REMARK    1  A    between atoms: C21_2  and  C3'_3 
REMARK    2  A    between atoms: C21_2  and  C1'_11 
REMARK    3  A    between atoms: C3'_3  and  C2'_4 
REMARK    4  A    between atoms: C39_9  and  O7'_10 
REMARK    5  A    between atoms: C1'_11  and  N3_12 
ROOT
ATOM      1  O4' HFG d   1     179.180   9.760  31.035  0.00  0.00    -0.296 OA
ATOM      2  C21 HFG d   1     178.526  10.799  31.453  0.00  0.00     0.147 C 
ENDROOT
BRANCH   2   3
ATOM      3  C3' HFG d   1     177.083  11.078  31.004  0.00  0.00     0.021 C 
ATOM      4  H1  HFG d   1     177.114  11.796  30.171  0.00  0.00     0.047 H 
ATOM      5  H2  HFG d   1     176.538  11.522  31.850  0.00  0.00     0.047 H 
BRANCH   3   6
ATOM      6  C2' HFG d   1     176.314   9.831  30.537  0.00  0.00     0.132 C 
ATOM      7  N1' HFG d   1     176.930   9.248  29.333  0.00  0.00    -0.068 N 
ATOM      8  C6' HFG d   1     176.108   8.105  28.796  0.00  0.00     0.082 C 
ATOM      9  H4  HFG d   1     177.850   8.909  29.566  0.00  0.00     0.277 HD
ATOM     10  H5  HFG d   1     177.004   9.961  28.624  0.00  0.00     0.277 HD
ATOM     11  C5' HFG d   1     175.697   7.084  29.845  0.00  0.00    -0.040 C 
ATOM     12  H6  HFG d   1     176.698   7.588  28.025  0.00  0.00     0.075 H 
ATOM     13  H7  HFG d   1     175.196   8.520  28.343  0.00  0.00     0.075 H 
ATOM     14  C4' HFG d   1     175.198   7.708  31.079  0.00  0.00    -0.038 C 
ATOM     15  H8  HFG d   1     176.571   6.463  30.093  0.00  0.00     0.035 H 
ATOM     16  H9  HFG d   1     174.903   6.449  29.426  0.00  0.00     0.035 H 
ATOM     17  C39 HFG d   1     176.148   8.798  31.603  0.00  0.00     0.063 C 
ATOM     18  H10 HFG d   1     175.090   6.931  31.850  0.00  0.00     0.036 H 
ATOM     19  H11 HFG d   1     174.217   8.161  30.875  0.00  0.00     0.036 H 
ATOM     20  H12 HFG d   1     177.126   8.355  31.842  0.00  0.00     0.086 H 
ATOM     21  H3  HFG d   1     175.304  10.166  30.259  0.00  0.00     0.088 H 
BRANCH  17  22
ATOM     22  O7' HFG d   1     175.598   9.379  32.773  0.00  0.00    -0.393 OA
ATOM     23  H13 HFG d   1     174.755   9.765  32.567  0.00  0.00     0.210 HD
ENDBRANCH  17  22
ENDBRANCH   3   6
ENDBRANCH   2   3
BRANCH   2  24
ATOM     24  C1' HFG d   1     179.164  11.813  32.412  0.00  0.00     0.058 C 
ATOM     25  H14 HFG d   1     178.800  11.640  33.435  0.00  0.00     0.076 H 
ATOM     26  H15 HFG d   1     178.907  12.836  32.099  0.00  0.00     0.076 H 
BRANCH  24  27
ATOM     27  N3  HFG d   1     180.565  11.635  32.365  0.00  0.00    -0.301 N 
ATOM     28  C4  HFG d   1     181.327  12.148  31.253  0.00  0.00     0.261 A 
ATOM     29  O11 HFG d   1     180.749  12.745  30.353  0.00  0.00    -0.267 OA
ATOM     30  C10 HFG d   1     182.774  11.958  31.214  0.00  0.00     0.063 A 
ATOM     31  C5  HFG d   1     183.550  12.469  30.110  0.00  0.00    -0.043 A 
ATOM     32  C9  HFG d   1     183.395  11.279  32.206  0.00  0.00     0.075 A 
ATOM     33  C6  HFG d   1     184.884  12.282  30.095  0.00  0.00     0.052 A 
ATOM     34  H16 HFG d   1     183.063  12.999  29.299  0.00  0.00     0.087 H 
ATOM     35  C7  HFG d   1     185.510  11.582  31.114  0.00  0.00     0.035 A 
ATOM     36 CL1  HFG d   1     185.926  12.917  28.779  0.00  0.00    -0.083 Cl
ATOM     37  C8  HFG d   1     184.741  11.079  32.190  0.00  0.00    -0.036 A 
ATOM     38 BR1  HFG d   1     187.409  11.221  31.176  0.00  0.00    -0.049 Br
ATOM     39  H18 HFG d   1     185.221  10.537  32.997  0.00  0.00     0.089 H 
ATOM     40  N1  HFG d   1     182.590  10.724  33.348  0.00  0.00    -0.243 NA
ATOM     41  C2  HFG d   1     181.208  10.927  33.394  0.00  0.00     0.070 A 
ATOM     42  H17 HFG d   1     180.629  10.536  34.229  0.00  0.00     0.144 H 
ENDBRANCH  24  27
ENDBRANCH   2  24
TORSDOF 5
