REMARK  19 active torsions:
REMARK  status: ('A' for Active; 'I' for Inactive)
REMARK    1  A    between atoms: C2_1  and  O39_38 
REMARK    2  A    between atoms: S8_7  and  C5_4 
REMARK    3  A    between atoms: N11_10  and  S8_7 
REMARK    4  A    between atoms: N11_10  and  C12_11 
REMARK    5  A    between atoms: C16_15  and  N11_10 
REMARK    6  A    between atoms: C12_11  and  C13_12 
REMARK    7  A    between atoms: C13_12  and  C14_13 
REMARK    8  A    between atoms: C13_12  and  C15_14 
REMARK    9  A    between atoms: C17_16  and  C16_15 
REMARK   10  A    between atoms: C17_16  and  O18_17 
REMARK   11  A    between atoms: C19_18  and  C17_16 
REMARK   12  A    between atoms: C19_18  and  N20_19 
REMARK   13  A    between atoms: C32_31  and  C19_18 
REMARK       I    between atoms: N20_19  and  C21_20 
REMARK   14  A    between atoms: C21_20  and  O23_22 
REMARK   15  A    between atoms: O23_22  and  C24_23 
REMARK   16  A    between atoms: C30_29  and  O41_40 
REMARK   17  A    between atoms: C38_37  and  C32_31 
REMARK   18  A    between atoms: O39_38  and  C40_39 
REMARK   19  A    between atoms: O41_40  and  C42_41 
ROOT
ATOM      1  C19 G04 d   1      -7.836 -16.614  -0.917  0.00  0.00     0.043 C 
ATOM      2  H18 G04 d   1      -7.540 -15.607  -1.246  0.00  0.00     0.077 H 
ENDROOT
BRANCH   1   3
ATOM      3  C17 G04 d   1      -9.267 -16.869  -1.430  0.00  0.00     0.071 C 
ATOM      4  H16 G04 d   1      -9.972 -16.249  -0.856  0.00  0.00     0.088 H 
BRANCH   3   5
ATOM      5  C16 G04 d   1      -9.392 -16.533  -2.903  0.00  0.00     0.031 C 
ATOM      6  H14 G04 d   1      -8.556 -17.019  -3.427  0.00  0.00     0.069 H 
ATOM      7  H15 G04 d   1     -10.343 -16.954  -3.260  0.00  0.00     0.069 H 
BRANCH   5   8
ATOM      8  N11 G04 d   1      -9.374 -15.113  -3.264  0.00  0.00    -0.304 N 
BRANCH   8   9
ATOM      9  S8  G04 d   1      -8.142 -14.531  -4.020  0.00  0.00     0.260 S 
ATOM     10  O9  G04 d   1      -7.010 -15.397  -3.817  0.00  0.00    -0.200 OA
ATOM     11  O10 G04 d   1      -7.983 -13.159  -3.684  0.00  0.00    -0.200 OA
BRANCH   9  12
ATOM     12  C5  G04 d   1      -8.504 -14.599  -5.651  0.00  0.00     0.079 A 
ATOM     13  C4  G04 d   1      -8.374 -15.828  -6.332  0.00  0.00    -0.058 A 
ATOM     14  C3  G04 d   1      -8.831 -15.931  -7.636  0.00  0.00    -0.049 A 
ATOM     15  H2  G04 d   1      -7.922 -16.682  -5.841  0.00  0.00     0.086 H 
ATOM     16  C2  G04 d   1      -9.375 -14.842  -8.268  0.00  0.00     0.068 A 
ATOM     17  H1  G04 d   1      -8.758 -16.877  -8.159  0.00  0.00     0.087 H 
ATOM     18  C7  G04 d   1      -9.534 -13.623  -7.612  0.00  0.00    -0.049 A 
ATOM     19  C6  G04 d   1      -9.080 -13.516  -6.298  0.00  0.00    -0.058 A 
ATOM     20  H4  G04 d   1      -9.999 -12.780  -8.110  0.00  0.00     0.087 H 
ATOM     21  H3  G04 d   1      -9.179 -12.572  -5.774  0.00  0.00     0.086 H 
BRANCH  16  22
ATOM     22  O39 G04 d   1      -9.787 -14.999  -9.571  0.00  0.00    -0.356 OA
BRANCH  22  23
ATOM     23  C40 G04 d   1     -10.484 -13.917 -10.165  0.00  0.00     0.010 C 
ATOM     24  H35 G04 d   1     -10.751 -14.177 -11.200  0.00  0.00     0.066 H 
ATOM     25  H36 G04 d   1      -9.842 -13.024 -10.166  0.00  0.00     0.066 H 
ATOM     26  H37 G04 d   1     -11.399 -13.711  -9.591  0.00  0.00     0.066 H 
ENDBRANCH  22  23
ENDBRANCH  16  22
ENDBRANCH   9  12
ENDBRANCH   8   9
BRANCH   8  27
ATOM     27  C12 G04 d   1     -10.602 -14.263  -3.323  0.00  0.00     0.008 C 
ATOM     28  H5  G04 d   1     -11.190 -14.592  -4.192  0.00  0.00     0.066 H 
ATOM     29  H6  G04 d   1     -10.277 -13.223  -3.472  0.00  0.00     0.066 H 
BRANCH  27  30
ATOM     30  C13 G04 d   1     -11.525 -14.285  -2.111  0.00  0.00    -0.045 C 
ATOM     31  H7  G04 d   1     -11.683 -15.332  -1.812  0.00  0.00     0.041 H 
BRANCH  30  32
ATOM     32  C14 G04 d   1     -10.859 -13.523  -0.932  0.00  0.00    -0.072 C 
ATOM     33  H8  G04 d   1     -11.528 -13.541  -0.059  0.00  0.00     0.028 H 
ATOM     34  H9  G04 d   1     -10.671 -12.480  -1.228  0.00  0.00     0.028 H 
ATOM     35  H10 G04 d   1      -9.906 -14.008  -0.674  0.00  0.00     0.028 H 
ENDBRANCH  30  32
BRANCH  30  36
ATOM     36  C15 G04 d   1     -12.873 -13.668  -2.428  0.00  0.00    -0.072 C 
ATOM     37  H11 G04 d   1     -13.338 -14.212  -3.263  0.00  0.00     0.028 H 
ATOM     38  H12 G04 d   1     -12.737 -12.613  -2.709  0.00  0.00     0.028 H 
ATOM     39  H13 G04 d   1     -13.522 -13.731  -1.542  0.00  0.00     0.028 H 
ENDBRANCH  30  36
ENDBRANCH  27  30
ENDBRANCH   8  27
ENDBRANCH   5   8
ENDBRANCH   3   5
BRANCH   3  40
ATOM     40  O18 G04 d   1      -9.592 -18.279  -1.249  0.00  0.00    -0.392 OA
ATOM     41  H17 G04 d   1      -8.989 -18.809  -1.756  0.00  0.00     0.210 HD
ENDBRANCH   3  40
ENDBRANCH   1   3
BRANCH   1  42
ATOM     42  N20 G04 d   1      -7.711 -16.724   0.588  0.00  0.00    -0.341 N 
ATOM     43  C21 G04 d   1      -7.764 -15.565   1.366  0.00  0.00     0.292 C 
ATOM     44  O22 G04 d   1      -8.456 -14.422   1.121  0.00  0.00    -0.143 OA
ATOM     45  H19 G04 d   1      -7.592 -17.618   1.021  0.00  0.00     0.164 HD
BRANCH  43  46
ATOM     46  O23 G04 d   1      -7.612 -16.124   2.703  0.00  0.00    -0.307 OA
BRANCH  46  47
ATOM     47  C24 G04 d   1      -7.413 -15.178   3.750  0.00  0.00     0.079 C 
ATOM     48  C25 G04 d   1      -8.476 -15.376   4.818  0.00  0.00     0.048 C 
ATOM     49  O26 G04 d   1      -8.101 -16.559   5.477  0.00  0.00    -0.358 OA
ATOM     50  H21 G04 d   1      -9.470 -15.485   4.361  0.00  0.00     0.078 H 
ATOM     51  H22 G04 d   1      -8.486 -14.528   5.518  0.00  0.00     0.078 H 
ATOM     52  C27 G04 d   1      -6.684 -16.605   5.529  0.00  0.00     0.139 C 
ATOM     53  O28 G04 d   1      -6.239 -17.862   5.007  0.00  0.00    -0.358 OA
ATOM     54  C31 G04 d   1      -6.168 -15.544   4.561  0.00  0.00     0.048 C 
ATOM     55  H23 G04 d   1      -6.316 -16.441   6.553  0.00  0.00     0.129 H 
ATOM     56  C29 G04 d   1      -5.441 -17.719   3.793  0.00  0.00     0.047 C 
ATOM     57  C30 G04 d   1      -5.051 -16.256   3.807  0.00  0.00     0.069 C 
ATOM     58  H24 G04 d   1      -6.035 -17.960   2.899  0.00  0.00     0.078 H 
ATOM     59  H25 G04 d   1      -4.551 -18.365   3.827  0.00  0.00     0.078 H 
ATOM     60  H26 G04 d   1      -4.898 -15.853   2.795  0.00  0.00     0.087 H 
ATOM     61  H27 G04 d   1      -5.772 -14.654   5.072  0.00  0.00     0.055 H 
ATOM     62  H20 G04 d   1      -7.382 -14.152   3.355  0.00  0.00     0.088 H 
BRANCH  57  63
ATOM     63  O41 G04 d   1      -3.912 -16.137   4.602  0.00  0.00    -0.388 OA
BRANCH  63  64
ATOM     64  C42 G04 d   1      -2.869 -15.738   3.771  0.00  0.00     0.005 C 
ATOM     65  H38 G04 d   1      -1.948 -15.632   4.363  0.00  0.00     0.066 H 
ATOM     66  H39 G04 d   1      -3.119 -14.773   3.307  0.00  0.00     0.066 H 
ATOM     67  H40 G04 d   1      -2.716 -16.494   2.986  0.00  0.00     0.066 H 
ENDBRANCH  63  64
ENDBRANCH  57  63
ENDBRANCH  46  47
ENDBRANCH  43  46
ENDBRANCH   1  42
BRANCH   1  68
ATOM     68  C32 G04 d   1      -6.807 -17.636  -1.392  0.00  0.00    -0.020 C 
ATOM     69  H28 G04 d   1      -6.753 -17.615  -2.490  0.00  0.00     0.043 H 
ATOM     70  H29 G04 d   1      -7.110 -18.640  -1.059  0.00  0.00     0.043 H 
BRANCH  68  71
ATOM     71  C38 G04 d   1      -5.428 -17.304  -0.810  0.00  0.00    -0.056 A 
ATOM     72  C33 G04 d   1      -4.881 -18.213   0.115  0.00  0.00    -0.077 A 
ATOM     73  C34 G04 d   1      -3.643 -17.896   0.687  0.00  0.00    -0.082 A 
ATOM     74  H30 G04 d   1      -5.401 -19.128   0.376  0.00  0.00     0.084 H 
ATOM     75  C35 G04 d   1      -2.938 -16.729   0.355  0.00  0.00    -0.083 A 
ATOM     76  H31 G04 d   1      -3.213 -18.577   1.413  0.00  0.00     0.083 H 
ATOM     77  C36 G04 d   1      -3.510 -15.849  -0.569  0.00  0.00    -0.082 A 
ATOM     78  H32 G04 d   1      -1.974 -16.515   0.803  0.00  0.00     0.083 H 
ATOM     79  C37 G04 d   1      -4.754 -16.113  -1.121  0.00  0.00    -0.077 A 
ATOM     80  H33 G04 d   1      -2.975 -14.951  -0.857  0.00  0.00     0.083 H 
ATOM     81  H34 G04 d   1      -5.208 -15.396  -1.796  0.00  0.00     0.084 H 
ENDBRANCH  68  71
ENDBRANCH   1  68
TORSDOF 19
