REMARK  25 active torsions:
REMARK  status: ('A' for Active; 'I' for Inactive)
REMARK    1  A    between atoms: C_1  and  CH3_3 
REMARK       I    between atoms: N_4  and  C_1 
REMARK    2  A    between atoms: CA_5  and  N_4 
REMARK    3  A    between atoms: C_6  and  CA_5 
REMARK    4  A    between atoms: CA_5  and  CB_8 
REMARK       I    between atoms: N_11  and  C_6 
REMARK    5  A    between atoms: CB_8  and  CG1_9 
REMARK    6  A    between atoms: CB_8  and  CG2_10 
REMARK    7  A    between atoms: CA_12  and  N_11 
REMARK    8  A    between atoms: C_13  and  CA_12 
REMARK    9  A    between atoms: CA_12  and  CB_15 
REMARK       I    between atoms: N_19  and  C_13 
REMARK   10  A    between atoms: CB_15  and  CG_16 
REMARK   11  A    between atoms: CG_16  and  CD1_17 
REMARK   12  A    between atoms: CG_16  and  CD2_18 
REMARK   13  A    between atoms: CA_20  and  N_19 
REMARK   14  A    between atoms: C_21  and  CA_20 
REMARK   15  A    between atoms: CA_20  and  CB_23 
REMARK       I    between atoms: NAC_30  and  C_21 
REMARK   16  A    between atoms: CB_23  and  OG1_24 
REMARK   17  A    between atoms: CB_23  and  CG2_25 
REMARK   18  A    between atoms: CAO_27  and  CAK_26 
REMARK   19  A    between atoms: CAR_29  and  CAO_27 
REMARK   20  A    between atoms: CAR_29  and  NAC_30 
REMARK   21  A    between atoms: CAR_29  and  CAL_31 
REMARK   22  A    between atoms: CAL_31  and  CAH_32 
REMARK   23  A    between atoms: CAH_32  and  CAG_33 
REMARK   24  A    between atoms: CAG_33  and  CAI_34 
REMARK   25  A    between atoms: CAI_34  and  NAM_35 
ROOT
ATOM      1  C   LEU d   1       1.160   3.970   8.511  0.00  0.00     0.241 C 
ATOM      2  O   LEU d   1       2.351   4.128   8.220  0.00  0.00    -0.271 OA
ATOM      3  N   THR d   1       0.393   3.039   7.957  0.00  0.00    -0.344 N 
ATOM      4  H24 THR d   1      -0.508   2.853   8.348  0.00  0.00     0.163 HD
ENDROOT
BRANCH   1   5
ATOM      5  CA  LEU d   1       0.479   4.834   9.569  0.00  0.00     0.089 C 
ATOM      6  H14 LEU d   1      -0.297   4.230  10.062  0.00  0.00     0.087 H 
BRANCH   5   7
ATOM      7  N   LEU d   1       1.427   5.276  10.586  0.00  0.00    -0.346 N 
ATOM      8  C   VAL d   1       1.871   4.458  11.539  0.00  0.00     0.241 C 
ATOM      9  O   VAL d   1       1.545   3.267  11.611  0.00  0.00    -0.271 OA
ATOM     10  H13 LEU d   1       1.753   6.221  10.567  0.00  0.00     0.163 HD
BRANCH   8  11
ATOM     11  CA  VAL d   1       2.813   5.072  12.574  0.00  0.00     0.092 C 
ATOM     12  H5  VAL d   1       2.577   6.142  12.671  0.00  0.00     0.088 H 
BRANCH  11  13
ATOM     13  N   VAL d   1       2.624   4.436  13.875  0.00  0.00    -0.348 N 
ATOM     14  C   ACE d   1       2.690   5.145  14.997  0.00  0.00     0.214 C 
ATOM     15  O   ACE d   1       2.446   6.349  14.986  0.00  0.00    -0.274 OA
ATOM     16  H4  VAL d   1       2.442   3.454  13.922  0.00  0.00     0.163 HD
BRANCH  14  17
ATOM     17  CH3 ACE d   1       2.583   4.347  16.263  0.00  0.00    -0.003 C 
ATOM     18  H1  ACE d   1       2.841   3.298  16.058  0.00  0.00     0.040 H 
ATOM     19  H2  ACE d   1       1.553   4.403  16.646  0.00  0.00     0.040 H 
ATOM     20  H3  ACE d   1       3.276   4.755  17.014  0.00  0.00     0.040 H 
ENDBRANCH  14  17
ENDBRANCH  11  13
BRANCH  11  21
ATOM     21  CB  VAL d   1       4.279   4.932  12.112  0.00  0.00    -0.033 C 
ATOM     22  H6  VAL d   1       4.922   5.421  12.859  0.00  0.00     0.042 H 
BRANCH  21  23
ATOM     23  CG1 VAL d   1       4.649   3.467  12.058  0.00  0.00    -0.071 C 
ATOM     24  H7  VAL d   1       5.694   3.365  11.729  0.00  0.00     0.028 H 
ATOM     25  H8  VAL d   1       3.988   2.948  11.348  0.00  0.00     0.028 H 
ATOM     26  H9  VAL d   1       4.534   3.023  13.058  0.00  0.00     0.028 H 
ENDBRANCH  21  23
BRANCH  21  27
ATOM     27  CG2 VAL d   1       4.519   5.624  10.769  0.00  0.00    -0.071 C 
ATOM     28  H10 VAL d   1       4.239   6.685  10.848  0.00  0.00     0.028 H 
ATOM     29  H11 VAL d   1       3.908   5.140   9.993  0.00  0.00     0.028 H 
ATOM     30  H12 VAL d   1       5.583   5.545  10.501  0.00  0.00     0.028 H 
ENDBRANCH  21  27
ENDBRANCH  11  21
ENDBRANCH   8  11
ENDBRANCH   5   7
BRANCH   5  31
ATOM     31  CB  LEU d   1      -0.194   6.041   8.901  0.00  0.00    -0.035 C 
ATOM     32  H15 LEU d   1       0.223   6.117   7.886  0.00  0.00     0.037 H 
ATOM     33  H16 LEU d   1       0.095   6.929   9.483  0.00  0.00     0.037 H 
BRANCH  31  34
ATOM     34  CG  LEU d   1      -1.719   6.081   8.758  0.00  0.00    -0.059 C 
ATOM     35  H17 LEU d   1      -2.049   5.110   8.360  0.00  0.00     0.038 H 
BRANCH  34  36
ATOM     36  CD1 LEU d   1      -2.397   6.296  10.102  0.00  0.00    -0.073 C 
ATOM     37  H18 LEU d   1      -3.488   6.319   9.963  0.00  0.00     0.028 H 
ATOM     38  H19 LEU d   1      -2.062   7.251  10.533  0.00  0.00     0.028 H 
ATOM     39  H20 LEU d   1      -2.132   5.473  10.782  0.00  0.00     0.028 H 
ENDBRANCH  34  36
BRANCH  34  40
ATOM     40  CD2 LEU d   1      -2.138   7.169   7.774  0.00  0.00    -0.073 C 
ATOM     41  H21 LEU d   1      -1.640   7.001   6.808  0.00  0.00     0.028 H 
ATOM     42  H22 LEU d   1      -1.847   8.153   8.170  0.00  0.00     0.028 H 
ATOM     43  H23 LEU d   1      -3.229   7.138   7.635  0.00  0.00     0.028 H 
ENDBRANCH  34  40
ENDBRANCH  31  34
ENDBRANCH   5  31
ENDBRANCH   1   5
BRANCH   3  44
ATOM     44  CA  THR d   1       0.834   2.281   6.791  0.00  0.00     0.113 C 
ATOM     45  H25 THR d   1       1.808   2.677   6.468  0.00  0.00     0.091 H 
BRANCH  44  46
ATOM     46  C   THR d   1      -0.182   2.473   5.676  0.00  0.00     0.243 C 
ATOM     47  O   THR d   1      -1.317   2.895   5.940  0.00  0.00    -0.271 OA
ATOM     48  NAC CKC d   1       0.068   1.964   4.472  0.00  0.00    -0.348 N 
ATOM     49  H35 CKC d   1       0.931   1.474   4.346  0.00  0.00     0.163 HD
BRANCH  48  50
ATOM     50  CAR CKC d   1      -0.838   2.070   3.305  0.00  0.00     0.069 C 
ATOM     51  H34 CKC d   1      -1.551   2.888   3.486  0.00  0.00     0.084 H 
BRANCH  50  52
ATOM     52  CAO CKC d   1      -1.613   0.791   3.108  0.00  0.00     0.145 C 
ATOM     53  OAF CKC d   1      -2.238   0.628   2.060  0.00  0.00    -0.296 OA
BRANCH  52  54
ATOM     54  CAK CKC d   1      -1.773  -0.146   4.281  0.00  0.00    -0.019 C 
ATOM     55  H31 CKC d   1      -1.125   0.185   5.106  0.00  0.00     0.037 H 
ATOM     56  H32 CKC d   1      -1.489  -1.165   3.978  0.00  0.00     0.037 H 
ATOM     57  H33 CKC d   1      -2.821  -0.141   4.614  0.00  0.00     0.037 H 
ENDBRANCH  52  54
ENDBRANCH  50  52
BRANCH  50  58
ATOM     58  CAL CKC d   1      -0.029   2.389   2.050  0.00  0.00    -0.040 C 
ATOM     59  H36 CKC d   1       0.011   1.506   1.396  0.00  0.00     0.036 H 
ATOM     60  H37 CKC d   1       0.993   2.686   2.329  0.00  0.00     0.036 H 
BRANCH  58  61
ATOM     61  CAH CKC d   1      -0.722   3.533   1.331  0.00  0.00    -0.061 C 
ATOM     62  H38 CKC d   1      -0.916   4.337   2.056  0.00  0.00     0.033 H 
ATOM     63  H39 CKC d   1      -1.677   3.166   0.926  0.00  0.00     0.033 H 
BRANCH  61  64
ATOM     64  CAG CKC d   1       0.101   4.100   0.190  0.00  0.00    -0.043 C 
ATOM     65  H40 CKC d   1      -0.519   4.794  -0.396  0.00  0.00     0.035 H 
ATOM     66  H41 CKC d   1       0.442   3.278  -0.456  0.00  0.00     0.035 H 
BRANCH  64  67
ATOM     67  CAI CKC d   1       1.300   4.839   0.733  0.00  0.00     0.080 C 
ATOM     68  H42 CKC d   1       2.065   4.128   1.078  0.00  0.00     0.075 H 
ATOM     69  H43 CKC d   1       1.004   5.492   1.567  0.00  0.00     0.075 H 
BRANCH  67  70
ATOM     70  NAM CKC d   1       1.810   5.637  -0.387  0.00  0.00    -0.079 N 
ATOM     71  H44 CKC d   1       2.619   6.159  -0.087  0.00  0.00     0.274 HD
ATOM     72  H45 CKC d   1       1.095   6.275  -0.698  0.00  0.00     0.274 HD
ATOM     73  H46 CKC d   1       2.068   5.025  -1.146  0.00  0.00     0.274 HD
ENDBRANCH  67  70
ENDBRANCH  64  67
ENDBRANCH  61  64
ENDBRANCH  58  61
ENDBRANCH  50  58
ENDBRANCH  48  50
ENDBRANCH  44  46
BRANCH  44  74
ATOM     74  CB  THR d   1       0.993   0.760   7.068  0.00  0.00     0.060 C 
ATOM     75  H26 THR d   1       1.337   0.278   6.141  0.00  0.00     0.086 H 
BRANCH  74  76
ATOM     76  OG1 THR d   1      -0.275   0.197   7.428  0.00  0.00    -0.393 OA
ATOM     77  H27 THR d   1      -0.171  -0.732   7.596  0.00  0.00     0.210 HD
ENDBRANCH  74  76
BRANCH  74  78
ATOM     78  CG2 THR d   1       2.038   0.481   8.165  0.00  0.00    -0.050 C 
ATOM     79  H28 THR d   1       2.118  -0.604   8.328  0.00  0.00     0.031 H 
ATOM     80  H29 THR d   1       1.728   0.970   9.100  0.00  0.00     0.031 H 
ATOM     81  H30 THR d   1       3.015   0.877   7.850  0.00  0.00     0.031 H 
ENDBRANCH  74  78
ENDBRANCH  44  74
ENDBRANCH   3  44
TORSDOF 25
