REMARK WARNING: 32 MAX_TORS EXCEEDED!!!
REMARK  34 active torsions:
REMARK  status: ('A' for Active; 'I' for Inactive)
REMARK    1  A    between atoms: O88_1  and  C79_2 
REMARK    2  A    between atoms: C80_3  and  O87_4 
REMARK    3  A    between atoms: C81_5  and  O86_6 
REMARK    4  A    between atoms: C82_7  and  C84_8 
REMARK    5  A    between atoms: C84_8  and  O85_9 
REMARK    6  A    between atoms: C78_11  and  O64_12 
REMARK    7  A    between atoms: O64_12  and  C64_13 
REMARK    8  A    between atoms: C64_13  and  C54_14 
REMARK    9  A    between atoms: C25_18  and  O25_19 
REMARK   10  A    between atoms: C35_20  and  O35_21 
REMARK   11  A    between atoms: C55_23  and  C65_24 
REMARK   12  A    between atoms: C65_24  and  O65_25 
REMARK   13  A    between atoms: C26_29  and  O26_30 
REMARK   14  A    between atoms: C36_31  and  O36_32 
REMARK   15  A    between atoms: C56_34  and  C66_35 
REMARK   16  A    between atoms: C66_35  and  O66_36 
REMARK   17  A    between atoms: C27_40  and  O27_41 
REMARK   18  A    between atoms: C37_42  and  O37_43 
REMARK   19  A    between atoms: C57_45  and  C67_46 
REMARK   20  A    between atoms: C67_46  and  O67_47 
REMARK   21  A    between atoms: C24_50  and  O24_51 
REMARK   22  A    between atoms: C34_52  and  O34_53 
REMARK   23  A    between atoms: C53_56  and  C63_57 
REMARK   24  A    between atoms: C63_57  and  O63_58 
REMARK   25  A    between atoms: C23_61  and  O23_62 
REMARK   26  A    between atoms: C33_63  and  O33_64 
REMARK   27  A    between atoms: C52_67  and  C62_68 
REMARK   28  A    between atoms: C62_68  and  O62_69 
REMARK   29  A    between atoms: C22_72  and  O22_73 
REMARK   30  A    between atoms: C32_74  and  O32_75 
REMARK   31  A    between atoms: C51_78  and  C61_80 
REMARK   32  A    between atoms: C61_80  and  O61_81 
REMARK   33  A    between atoms: C31_82  and  O31_83 
REMARK   34  A    between atoms: C21_84  and  O21_85 
ROOT
ATOM      1  C54 4CQ d   1      40.152 -22.333  14.029  0.00  0.00     0.089 C 
ATOM      2  C44 4CQ d   1      41.439 -23.127  13.770  0.00  0.00     0.096 C 
ATOM      3  O44 4CQ d   1      41.488 -24.218  14.668  0.00  0.00    -0.348 OA
ATOM      4  C15 4CQ d   1      42.395 -24.107  15.772  0.00  0.00     0.159 C 
ATOM      5  C25 4CQ d   1      43.452 -25.217  15.669  0.00  0.00     0.110 C 
ATOM      6  C35 4CQ d   1      42.786 -26.562  15.880  0.00  0.00     0.092 C 
ATOM      7  O55 4CQ d   1      41.666 -24.239  16.993  0.00  0.00    -0.348 OA
ATOM      8  C55 4CQ d   1      40.976 -25.492  17.197  0.00  0.00     0.089 C 
ATOM      9  C45 4CQ d   1      41.994 -26.616  17.179  0.00  0.00     0.096 C 
ATOM     10  O45 4CQ d   1      41.306 -27.849  17.227  0.00  0.00    -0.348 OA
ATOM     11  C16 4CQ d   1      41.347 -28.617  18.444  0.00  0.00     0.159 C 
ATOM     12  C26 4CQ d   1      41.825 -30.021  18.097  0.00  0.00     0.110 C 
ATOM     13  C36 4CQ d   1      40.842 -30.745  17.171  0.00  0.00     0.092 C 
ATOM     14  O56 4CQ d   1      40.020 -28.748  18.930  0.00  0.00    -0.348 OA
ATOM     15  C56 4CQ d   1      39.104 -29.349  18.012  0.00  0.00     0.089 C 
ATOM     16  C46 4CQ d   1      39.486 -30.779  17.773  0.00  0.00     0.096 C 
ATOM     17  O46 4CQ d   1      38.662 -31.362  16.771  0.00  0.00    -0.348 OA
ATOM     18  C17 4CQ d   1      37.900 -32.547  17.119  0.00  0.00     0.159 C 
ATOM     19  C27 4CQ d   1      37.928 -33.510  15.945  0.00  0.00     0.110 C 
ATOM     20  C37 4CQ d   1      37.177 -32.925  14.747  0.00  0.00     0.092 C 
ATOM     21  O57 4CQ d   1      36.531 -32.226  17.351  0.00  0.00    -0.348 OA
ATOM     22  C57 4CQ d   1      35.880 -31.521  16.309  0.00  0.00     0.089 C 
ATOM     23  O54 4CQ d   1      39.932 -21.367  13.000  0.00  0.00    -0.348 OA
ATOM     24  C14 4CQ d   1      39.883 -21.908  11.665  0.00  0.00     0.159 C 
ATOM     25  C24 4CQ d   1      41.200 -22.610  11.340  0.00  0.00     0.110 C 
ATOM     26  C34 4CQ d   1      41.466 -23.718  12.350  0.00  0.00     0.092 C 
ATOM     27  O43 4CQ d   1      38.813 -22.866  11.521  0.00  0.00    -0.348 OA
ATOM     28  C43 4CQ d   1      37.656 -22.443  10.834  0.00  0.00     0.096 C 
ATOM     29  C53 4CQ d   1      36.394 -22.612  11.700  0.00  0.00     0.089 C 
ATOM     30  O53 4CQ d   1      35.164 -22.656  10.972  0.00  0.00    -0.348 OA
ATOM     31  C13 4CQ d   1      35.186 -23.350   9.713  0.00  0.00     0.159 C 
ATOM     32  C23 4CQ d   1      36.303 -22.934   8.799  0.00  0.00     0.110 C 
ATOM     33  C33 4CQ d   1      37.653 -23.139   9.506  0.00  0.00     0.092 C 
ATOM     34  O42 4CQ d   1      35.383 -24.725   9.997  0.00  0.00    -0.348 OA
ATOM     35  C42 4CQ d   1      34.246 -25.543   9.670  0.00  0.00     0.096 C 
ATOM     36  C52 4CQ d   1      33.514 -25.916  10.948  0.00  0.00     0.089 C 
ATOM     37  O52 4CQ d   1      32.540 -26.977  10.734  0.00  0.00    -0.348 OA
ATOM     38  C12 4CQ d   1      33.003 -28.138  10.047  0.00  0.00     0.159 C 
ATOM     39  C22 4CQ d   1      33.623 -27.765   8.715  0.00  0.00     0.110 C 
ATOM     40  C32 4CQ d   1      34.764 -26.765   8.932  0.00  0.00     0.092 C 
ATOM     41  O41 4CQ d   1      33.940 -28.785  10.893  0.00  0.00    -0.348 OA
ATOM     42  C41 4CQ d   1      33.545 -30.045  11.478  0.00  0.00     0.096 C 
ATOM     43  C51 4CQ d   1      33.253 -29.961  12.993  0.00  0.00     0.089 C 
ATOM     44  O51 4CQ d   1      33.054 -31.255  13.537  0.00  0.00    -0.348 OA
ATOM     45  C31 4CQ d   1      34.711 -30.999  11.213  0.00  0.00     0.092 C 
ATOM     46  C21 4CQ d   1      34.409 -32.347  11.861  0.00  0.00     0.110 C 
ATOM     47  C11 4CQ d   1      34.106 -32.195  13.342  0.00  0.00     0.159 C 
ATOM     48  O47 4CQ d   1      35.243 -31.710  14.023  0.00  0.00    -0.348 OA
ATOM     49  C47 4CQ d   1      35.768 -32.446  15.116  0.00  0.00     0.096 C 
ATOM     50  H14 4CQ d   1      39.326 -23.058  13.985  0.00  0.00     0.090 H 
ATOM     51  H15 4CQ d   1      42.309 -22.471  13.917  0.00  0.00     0.091 H 
ATOM     52  H16 4CQ d   1      42.891 -23.125  15.746  0.00  0.00     0.133 H 
ATOM     53  H17 4CQ d   1      44.197 -25.059  16.462  0.00  0.00     0.094 H 
ATOM     54  H19 4CQ d   1      42.109 -26.753  15.034  0.00  0.00     0.091 H 
ATOM     55  H21 4CQ d   1      40.243 -25.652  16.392  0.00  0.00     0.090 H 
ATOM     56  H25 4CQ d   1      42.672 -26.524  18.040  0.00  0.00     0.091 H 
ATOM     57  H26 4CQ d   1      42.002 -28.143  19.190  0.00  0.00     0.133 H 
ATOM     58  H27 4CQ d   1      41.968 -30.596  19.024  0.00  0.00     0.094 H 
ATOM     59  H29 4CQ d   1      40.788 -30.161  16.240  0.00  0.00     0.091 H 
ATOM     60  H31 4CQ d   1      39.161 -28.807  17.056  0.00  0.00     0.090 H 
ATOM     61  H35 4CQ d   1      39.455 -31.360  18.707  0.00  0.00     0.091 H 
ATOM     62  H36 4CQ d   1      38.335 -33.017  18.014  0.00  0.00     0.133 H 
ATOM     63  H37 4CQ d   1      37.445 -34.451  16.247  0.00  0.00     0.094 H 
ATOM     64  H39 4CQ d   1      37.739 -32.040  14.415  0.00  0.00     0.091 H 
ATOM     65  H41 4CQ d   1      36.487 -30.652  16.016  0.00  0.00     0.090 H 
ATOM     66  H45 4CQ d   1      39.724 -21.083  10.955  0.00  0.00     0.133 H 
ATOM     67  H46 4CQ d   1      42.015 -21.875  11.415  0.00  0.00     0.094 H 
ATOM     68  H48 4CQ d   1      40.654 -24.456  12.272  0.00  0.00     0.091 H 
ATOM     69  H50 4CQ d   1      37.751 -21.366  10.634  0.00  0.00     0.091 H 
ATOM     70  H51 4CQ d   1      36.500 -23.619  12.130  0.00  0.00     0.090 H 
ATOM     71  H55 4CQ d   1      34.225 -23.195   9.201  0.00  0.00     0.133 H 
ATOM     72  H56 4CQ d   1      36.191 -21.868   8.554  0.00  0.00     0.094 H 
ATOM     73  H58 4CQ d   1      37.809 -24.215   9.671  0.00  0.00     0.091 H 
ATOM     74  H60 4CQ d   1      33.560 -24.986   9.015  0.00  0.00     0.091 H 
ATOM     75  H61 4CQ d   1      34.248 -26.237  11.701  0.00  0.00     0.090 H 
ATOM     76  H65 4CQ d   1      32.155 -28.814   9.861  0.00  0.00     0.133 H 
ATOM     77  H66 4CQ d   1      32.853 -27.301   8.081  0.00  0.00     0.094 H 
ATOM     78  H68 4CQ d   1      35.557 -27.250   9.521  0.00  0.00     0.091 H 
ATOM     79  H70 4CQ d   1      32.639 -30.411  10.972  0.00  0.00     0.091 H 
ATOM     80  H71 4CQ d   1      34.131 -29.495  13.463  0.00  0.00     0.090 H 
ATOM     81  H75 4CQ d   1      35.642 -30.584  11.626  0.00  0.00     0.091 H 
ATOM     82  H77 4CQ d   1      33.533 -32.782  11.359  0.00  0.00     0.094 H 
ATOM     83  H79 4CQ d   1      33.813 -33.172  13.755  0.00  0.00     0.133 H 
ATOM     84  H80 4CQ d   1      35.118 -33.302  15.351  0.00  0.00     0.091 H 
ENDROOT
BRANCH   1  85
ATOM     85  C64 4CQ d   1      40.067 -21.659  15.388  0.00  0.00     0.049 C 
ATOM     86  H12 4CQ d   1      40.341 -22.369  16.183  0.00  0.00     0.078 H 
ATOM     87  H13 4CQ d   1      40.740 -20.790  15.425  0.00  0.00     0.078 H 
BRANCH  85  88
ATOM     88  O64 4CQ d   1      38.699 -21.237  15.546  0.00  0.00    -0.356 OA
BRANCH  88  89
ATOM     89  C78 4CQ d   1      38.406 -20.730  16.826  0.00  0.00     0.158 C 
ATOM     90  C79 4CQ d   1      36.896 -20.526  16.976  0.00  0.00     0.110 C 
ATOM     91  C80 4CQ d   1      36.361 -19.414  16.096  0.00  0.00     0.092 C 
ATOM     92  H2  4CQ d   1      36.696 -20.259  18.024  0.00  0.00     0.094 H 
ATOM     93  C81 4CQ d   1      37.193 -18.160  16.385  0.00  0.00     0.090 C 
ATOM     94  H3  4CQ d   1      36.474 -19.678  15.034  0.00  0.00     0.091 H 
ATOM     95  C82 4CQ d   1      38.704 -18.442  16.148  0.00  0.00     0.089 C 
ATOM     96  H5  4CQ d   1      37.037 -17.861  17.432  0.00  0.00     0.091 H 
ATOM     97  O83 4CQ d   1      39.109 -19.493  17.034  0.00  0.00    -0.348 OA
ATOM     98  H7  4CQ d   1      38.837 -18.785  15.111  0.00  0.00     0.090 H 
ATOM     99  H11 4CQ d   1      38.740 -21.457  17.581  0.00  0.00     0.133 H 
BRANCH  90 100
ATOM    100  O88 4CQ d   1      36.190 -21.736  16.671  0.00  0.00    -0.388 OA
ATOM    101  H1  4CQ d   1      36.322 -21.956  15.757  0.00  0.00     0.210 HD
ENDBRANCH  90 100
BRANCH  91 102
ATOM    102  O87 4CQ d   1      34.954 -19.280  16.398  0.00  0.00    -0.390 OA
ATOM    103  H4  4CQ d   1      34.512 -20.100  16.212  0.00  0.00     0.210 HD
ENDBRANCH  91 102
BRANCH  93 104
ATOM    104  O86 4CQ d   1      36.796 -17.089  15.518  0.00  0.00    -0.390 OA
ATOM    105  H6  4CQ d   1      37.319 -16.319  15.708  0.00  0.00     0.210 HD
ENDBRANCH  93 104
BRANCH  95 106
ATOM    106  C84 4CQ d   1      39.565 -17.179  16.344  0.00  0.00     0.043 C 
ATOM    107  H8  4CQ d   1      39.215 -16.394  15.657  0.00  0.00     0.078 H 
ATOM    108  H9  4CQ d   1      40.615 -17.420  16.120  0.00  0.00     0.078 H 
BRANCH 106 109
ATOM    109  O85 4CQ d   1      39.470 -16.696  17.701  0.00  0.00    -0.398 OA
ATOM    110  H10 4CQ d   1      39.775 -17.369  18.298  0.00  0.00     0.209 HD
ENDBRANCH 106 109
ENDBRANCH  95 106
ENDBRANCH  88  89
ENDBRANCH  85  88
ENDBRANCH   1  85
BRANCH  26 111
ATOM    111  O34 4CQ d   1      42.714 -24.407  12.068  0.00  0.00    -0.390 OA
ATOM    112  H49 4CQ d   1      42.850 -25.090  12.714  0.00  0.00     0.210 HD
ENDBRANCH  26 111
BRANCH  25 113
ATOM    113  O24 4CQ d   1      41.169 -23.106  10.001  0.00  0.00    -0.388 OA
ATOM    114  H47 4CQ d   1      41.991 -23.541   9.806  0.00  0.00     0.210 HD
ENDBRANCH  25 113
BRANCH   5 115
ATOM    115  O25 4CQ d   1      44.131 -25.217  14.408  0.00  0.00    -0.388 OA
ATOM    116  H18 4CQ d   1      43.500 -25.349  13.710  0.00  0.00     0.210 HD
ENDBRANCH   5 115
BRANCH   6 117
ATOM    117  O35 4CQ d   1      43.745 -27.575  15.952  0.00  0.00    -0.390 OA
ATOM    118  H20 4CQ d   1      43.312 -28.410  16.084  0.00  0.00     0.210 HD
ENDBRANCH   6 117
BRANCH   8 119
ATOM    119  C65 4CQ d   1      40.251 -25.422  18.537  0.00  0.00     0.043 C 
ATOM    120  H22 4CQ d   1      40.970 -25.253  19.352  0.00  0.00     0.078 H 
ATOM    121  H23 4CQ d   1      39.699 -26.355  18.722  0.00  0.00     0.078 H 
BRANCH 119 122
ATOM    122  O65 4CQ d   1      39.350 -24.327  18.439  0.00  0.00    -0.398 OA
ATOM    123  H24 4CQ d   1      38.741 -24.482  17.727  0.00  0.00     0.209 HD
ENDBRANCH 119 122
ENDBRANCH   8 119
BRANCH  29 124
ATOM    124  C63 4CQ d   1      36.298 -21.693  12.900  0.00  0.00     0.043 C 
ATOM    125  H52 4CQ d   1      35.790 -20.760  12.614  0.00  0.00     0.078 H 
ATOM    126  H53 4CQ d   1      37.307 -21.462  13.273  0.00  0.00     0.078 H 
BRANCH 124 127
ATOM    127  O63 4CQ d   1      35.552 -22.355  13.912  0.00  0.00    -0.398 OA
ATOM    128  H54 4CQ d   1      35.483 -21.791  14.673  0.00  0.00     0.209 HD
ENDBRANCH 124 127
ENDBRANCH  29 124
BRANCH  33 129
ATOM    129  O33 4CQ d   1      38.711 -22.638   8.677  0.00  0.00    -0.390 OA
ATOM    130  H59 4CQ d   1      39.544 -22.766   9.116  0.00  0.00     0.210 HD
ENDBRANCH  33 129
BRANCH  32 131
ATOM    131  O23 4CQ d   1      36.227 -23.705   7.577  0.00  0.00    -0.388 OA
ATOM    132  H57 4CQ d   1      36.308 -24.629   7.781  0.00  0.00     0.210 HD
ENDBRANCH  32 131
BRANCH  12 133
ATOM    133  O26 4CQ d   1      43.030 -29.945  17.368  0.00  0.00    -0.388 OA
ATOM    134  H28 4CQ d   1      42.884 -29.454  16.568  0.00  0.00     0.210 HD
ENDBRANCH  12 133
BRANCH  13 135
ATOM    135  O36 4CQ d   1      41.228 -32.072  16.817  0.00  0.00    -0.390 OA
ATOM    136  H30 4CQ d   1      40.570 -32.450  16.245  0.00  0.00     0.210 HD
ENDBRANCH  13 135
BRANCH  15 137
ATOM    137  C66 4CQ d   1      37.687 -29.254  18.529  0.00  0.00     0.043 C 
ATOM    138  H32 4CQ d   1      37.091 -30.095  18.146  0.00  0.00     0.078 H 
ATOM    139  H33 4CQ d   1      37.233 -28.306  18.206  0.00  0.00     0.078 H 
BRANCH 137 140
ATOM    140  O66 4CQ d   1      37.742 -29.306  19.945  0.00  0.00    -0.398 OA
ATOM    141  H34 4CQ d   1      38.262 -28.579  20.267  0.00  0.00     0.209 HD
ENDBRANCH 137 140
ENDBRANCH  15 137
BRANCH  36 142
ATOM    142  C62 4CQ d   1      32.731 -24.695  11.458  0.00  0.00     0.043 C 
ATOM    143  H62 4CQ d   1      31.774 -24.590  10.927  0.00  0.00     0.078 H 
ATOM    144  H63 4CQ d   1      33.318 -23.773  11.340  0.00  0.00     0.078 H 
BRANCH 142 145
ATOM    145  O62 4CQ d   1      32.521 -24.994  12.834  0.00  0.00    -0.398 OA
ATOM    146  H64 4CQ d   1      32.026 -25.801  12.909  0.00  0.00     0.209 HD
ENDBRANCH 142 145
ENDBRANCH  36 142
BRANCH  40 147
ATOM    147  O32 4CQ d   1      35.300 -26.308   7.702  0.00  0.00    -0.390 OA
ATOM    148  H69 4CQ d   1      36.002 -25.692   7.873  0.00  0.00     0.210 HD
ENDBRANCH  40 147
BRANCH  39 149
ATOM    149  O22 4CQ d   1      34.131 -28.922   8.056  0.00  0.00    -0.388 OA
ATOM    150  H67 4CQ d   1      34.794 -29.330   8.601  0.00  0.00     0.210 HD
ENDBRANCH  39 149
BRANCH  19 151
ATOM    151  O27 4CQ d   1      39.287 -33.779  15.557  0.00  0.00    -0.388 OA
ATOM    152  H38 4CQ d   1      39.710 -32.967  15.304  0.00  0.00     0.210 HD
ENDBRANCH  19 151
BRANCH  20 153
ATOM    153  O37 4CQ d   1      37.154 -33.848  13.650  0.00  0.00    -0.390 OA
ATOM    154  H40 4CQ d   1      36.683 -33.461  12.921  0.00  0.00     0.210 HD
ENDBRANCH  20 153
BRANCH  22 155
ATOM    155  C67 4CQ d   1      34.554 -31.018  16.840  0.00  0.00     0.043 C 
ATOM    156  H42 4CQ d   1      33.816 -30.976  16.025  0.00  0.00     0.078 H 
ATOM    157  H43 4CQ d   1      34.680 -30.015  17.273  0.00  0.00     0.078 H 
BRANCH 155 158
ATOM    158  O67 4CQ d   1      34.112 -31.935  17.853  0.00  0.00    -0.398 OA
ATOM    159  H44 4CQ d   1      34.756 -31.969  18.551  0.00  0.00     0.209 HD
ENDBRANCH 155 158
ENDBRANCH  22 155
BRANCH  43 160
ATOM    160  C61 4CQ d   1      32.013 -29.184  13.423  0.00  0.00     0.043 C 
ATOM    161  H72 4CQ d   1      32.120 -28.131  13.124  0.00  0.00     0.078 H 
ATOM    162  H73 4CQ d   1      31.905 -29.245  14.516  0.00  0.00     0.078 H 
BRANCH 160 163
ATOM    163  O61 4CQ d   1      30.835 -29.746  12.791  0.00  0.00    -0.398 OA
ATOM    164  H74 4CQ d   1      30.927 -29.692  11.847  0.00  0.00     0.209 HD
ENDBRANCH 160 163
ENDBRANCH  43 160
BRANCH  45 165
ATOM    165  O31 4CQ d   1      34.836 -31.174   9.790  0.00  0.00    -0.390 OA
ATOM    166  H76 4CQ d   1      35.003 -30.332   9.382  0.00  0.00     0.210 HD
ENDBRANCH  45 165
BRANCH  46 167
ATOM    167  O21 4CQ d   1      35.506 -33.241  11.736  0.00  0.00    -0.388 OA
ATOM    168  H78 4CQ d   1      36.269 -32.866  12.161  0.00  0.00     0.210 HD
ENDBRANCH  46 167
TORSDOF 34
