REMARK  28 active torsions:
REMARK  status: ('A' for Active; 'I' for Inactive)
REMARK    1  A    between atoms: O64_1  and  C64_2 
REMARK    2  A    between atoms: C64_2  and  C54_3 
REMARK    3  A    between atoms: C25_7  and  O25_8 
REMARK    4  A    between atoms: C35_9  and  O35_10 
REMARK    5  A    between atoms: C55_12  and  C65_13 
REMARK    6  A    between atoms: C65_13  and  O65_14 
REMARK    7  A    between atoms: C26_18  and  O26_19 
REMARK    8  A    between atoms: C36_20  and  O36_21 
REMARK    9  A    between atoms: C56_23  and  C66_24 
REMARK   10  A    between atoms: C66_24  and  O66_25 
REMARK   11  A    between atoms: C27_29  and  O27_30 
REMARK   12  A    between atoms: C37_31  and  O37_32 
REMARK   13  A    between atoms: C57_34  and  C67_35 
REMARK   14  A    between atoms: C67_35  and  O67_36 
REMARK   15  A    between atoms: C24_39  and  O24_40 
REMARK   16  A    between atoms: C34_41  and  O34_42 
REMARK   17  A    between atoms: C53_45  and  C63_46 
REMARK   18  A    between atoms: C63_46  and  O63_47 
REMARK   19  A    between atoms: C23_50  and  O23_51 
REMARK   20  A    between atoms: C33_52  and  O33_53 
REMARK   21  A    between atoms: C52_56  and  C62_57 
REMARK   22  A    between atoms: C62_57  and  O62_58 
REMARK   23  A    between atoms: C22_61  and  O22_62 
REMARK   24  A    between atoms: C32_63  and  O32_64 
REMARK   25  A    between atoms: C51_67  and  C61_69 
REMARK   26  A    between atoms: C61_69  and  O61_70 
REMARK   27  A    between atoms: C31_71  and  O31_72 
REMARK   28  A    between atoms: C21_73  and  O21_74 
ROOT
ATOM      1  C54 4CQ d   1      -9.681  -9.866   9.093  0.00  0.00     0.089 C 
ATOM      2  C44 4CQ d   1      -8.163  -9.536   9.010  0.00  0.00     0.096 C 
ATOM      3  O44 4CQ d   1      -7.672  -9.082  10.272  0.00  0.00    -0.348 OA
ATOM      4  C15 4CQ d   1      -7.029  -7.825  10.351  0.00  0.00     0.159 C 
ATOM      5  C25 4CQ d   1      -5.758  -8.057  11.172  0.00  0.00     0.110 C 
ATOM      6  C35 4CQ d   1      -6.119  -8.420  12.602  0.00  0.00     0.092 C 
ATOM      7  O55 4CQ d   1      -7.835  -6.857  11.001  0.00  0.00    -0.348 OA
ATOM      8  C55 4CQ d   1      -8.278  -7.181  12.314  0.00  0.00     0.089 C 
ATOM      9  C45 4CQ d   1      -7.043  -7.344  13.193  0.00  0.00     0.096 C 
ATOM     10  O45 4CQ d   1      -7.412  -7.758  14.504  0.00  0.00    -0.348 OA
ATOM     11  C16 4CQ d   1      -7.265  -6.852  15.588  0.00  0.00     0.159 C 
ATOM     12  C26 4CQ d   1      -6.467  -7.553  16.682  0.00  0.00     0.110 C 
ATOM     13  C36 4CQ d   1      -7.198  -8.786  17.188  0.00  0.00     0.092 C 
ATOM     14  O56 4CQ d   1      -8.605  -6.553  16.068  0.00  0.00    -0.348 OA
ATOM     15  C56 4CQ d   1      -9.312  -7.778  16.327  0.00  0.00     0.089 C 
ATOM     16  C46 4CQ d   1      -8.640  -8.423  17.573  0.00  0.00     0.096 C 
ATOM     17  O46 4CQ d   1      -9.278  -9.645  17.934  0.00  0.00    -0.348 OA
ATOM     18  C17 4CQ d   1      -9.994  -9.635  19.188  0.00  0.00     0.159 C 
ATOM     19  C27 4CQ d   1      -9.439 -10.729  20.092  0.00  0.00     0.110 C 
ATOM     20  C37 4CQ d   1      -9.736 -12.083  19.464  0.00  0.00     0.092 C 
ATOM     21  O57 4CQ d   1     -11.378  -9.832  18.919  0.00  0.00    -0.348 OA
ATOM     22  C57 4CQ d   1     -11.713 -11.049  18.271  0.00  0.00     0.089 C 
ATOM     23  O54 4CQ d   1     -10.072 -10.525   7.890  0.00  0.00    -0.348 OA
ATOM     24  C14 4CQ d   1      -9.428 -11.728   7.562  0.00  0.00     0.159 C 
ATOM     25  C24 4CQ d   1      -7.932 -11.430   7.376  0.00  0.00     0.110 C 
ATOM     26  C34 4CQ d   1      -7.363 -10.742   8.606  0.00  0.00     0.092 C 
ATOM     27  O43 4CQ d   1      -9.583 -12.575   8.660  0.00  0.00    -0.348 OA
ATOM     28  C43 4CQ d   1     -10.271 -13.800   8.301  0.00  0.00     0.096 C 
ATOM     29  C53 4CQ d   1     -11.720 -13.709   8.696  0.00  0.00     0.089 C 
ATOM     30  O53 4CQ d   1     -12.391 -14.959   9.020  0.00  0.00    -0.348 OA
ATOM     31  C13 4CQ d   1     -11.633 -16.073   9.506  0.00  0.00     0.159 C 
ATOM     32  C23 4CQ d   1     -10.337 -16.260   8.748  0.00  0.00     0.110 C 
ATOM     33  C33 4CQ d   1      -9.524 -14.985   8.851  0.00  0.00     0.092 C 
ATOM     34  O42 4CQ d   1     -11.388 -15.828  10.883  0.00  0.00    -0.348 OA
ATOM     35  C42 4CQ d   1     -12.120 -16.642  11.811  0.00  0.00     0.096 C 
ATOM     36  C52 4CQ d   1     -13.159 -15.864  12.634  0.00  0.00     0.089 C 
ATOM     37  O52 4CQ d   1     -13.750 -16.741  13.600  0.00  0.00    -0.348 OA
ATOM     38  C12 4CQ d   1     -12.862 -17.314  14.545  0.00  0.00     0.159 C 
ATOM     39  C22 4CQ d   1     -11.844 -18.140  13.773  0.00  0.00     0.110 C 
ATOM     40  C32 4CQ d   1     -11.110 -17.283  12.753  0.00  0.00     0.092 C 
ATOM     41  O41 4CQ d   1     -12.194 -16.289  15.259  0.00  0.00    -0.348 OA
ATOM     42  C41 4CQ d   1     -12.534 -16.040  16.616  0.00  0.00     0.096 C 
ATOM     43  C51 4CQ d   1     -13.227 -14.683  16.795  0.00  0.00     0.089 C 
ATOM     44  O51 4CQ d   1     -13.419 -14.397  18.181  0.00  0.00    -0.348 OA
ATOM     45  C31 4CQ d   1     -11.236 -16.043  17.387  0.00  0.00     0.092 C 
ATOM     46  C21 4CQ d   1     -11.511 -15.708  18.844  0.00  0.00     0.110 C 
ATOM     47  C11 4CQ d   1     -12.207 -14.357  18.924  0.00  0.00     0.159 C 
ATOM     48  O47 4CQ d   1     -11.290 -13.408  18.367  0.00  0.00    -0.348 OA
ATOM     49  C47 4CQ d   1     -11.186 -12.217  19.108  0.00  0.00     0.096 C 
ATOM     50  H4  4CQ d   1      -9.845 -10.538   9.948  0.00  0.00     0.090 H 
ATOM     51  H5  4CQ d   1      -8.019  -8.743   8.261  0.00  0.00     0.091 H 
ATOM     52  H6  4CQ d   1      -6.776  -7.468   9.342  0.00  0.00     0.133 H 
ATOM     53  H7  4CQ d   1      -5.163  -7.132  11.175  0.00  0.00     0.094 H 
ATOM     54  H9  4CQ d   1      -6.662  -9.376  12.588  0.00  0.00     0.091 H 
ATOM     55  H11 4CQ d   1      -8.842  -8.125  12.314  0.00  0.00     0.090 H 
ATOM     56  H15 4CQ d   1      -6.508  -6.384  13.246  0.00  0.00     0.091 H 
ATOM     57  H16 4CQ d   1      -6.753  -5.933  15.268  0.00  0.00     0.133 H 
ATOM     58  H17 4CQ d   1      -6.327  -6.852  17.518  0.00  0.00     0.094 H 
ATOM     59  H19 4CQ d   1      -7.235  -9.537  16.385  0.00  0.00     0.091 H 
ATOM     60  H21 4CQ d   1      -9.181  -8.459  15.473  0.00  0.00     0.090 H 
ATOM     61  H25 4CQ d   1      -8.658  -7.719  18.418  0.00  0.00     0.091 H 
ATOM     62  H26 4CQ d   1      -9.858  -8.661  19.681  0.00  0.00     0.133 H 
ATOM     63  H27 4CQ d   1      -9.919 -10.676  21.080  0.00  0.00     0.094 H 
ATOM     64  H29 4CQ d   1      -9.150 -12.153  18.536  0.00  0.00     0.091 H 
ATOM     65  H31 4CQ d   1     -11.202 -11.085  17.297  0.00  0.00     0.090 H 
ATOM     66  H35 4CQ d   1      -9.855 -12.175   6.652  0.00  0.00     0.133 H 
ATOM     67  H36 4CQ d   1      -7.803 -10.768   6.507  0.00  0.00     0.094 H 
ATOM     68  H38 4CQ d   1      -7.385 -11.463   9.436  0.00  0.00     0.091 H 
ATOM     69  H40 4CQ d   1     -10.247 -13.891   7.205  0.00  0.00     0.091 H 
ATOM     70  H41 4CQ d   1     -11.709 -13.134   9.634  0.00  0.00     0.090 H 
ATOM     71  H45 4CQ d   1     -12.231 -16.990   9.399  0.00  0.00     0.133 H 
ATOM     72  H46 4CQ d   1     -10.576 -16.456   7.692  0.00  0.00     0.094 H 
ATOM     73  H48 4CQ d   1      -9.233 -14.802   9.896  0.00  0.00     0.091 H 
ATOM     74  H50 4CQ d   1     -12.646 -17.427  11.248  0.00  0.00     0.091 H 
ATOM     75  H51 4CQ d   1     -12.653 -15.028  13.140  0.00  0.00     0.090 H 
ATOM     76  H55 4CQ d   1     -13.417 -17.954  15.246  0.00  0.00     0.133 H 
ATOM     77  H56 4CQ d   1     -12.375 -18.951  13.252  0.00  0.00     0.094 H 
ATOM     78  H58 4CQ d   1     -10.552 -16.492  13.275  0.00  0.00     0.091 H 
ATOM     79  H60 4CQ d   1     -13.198 -16.836  16.985  0.00  0.00     0.091 H 
ATOM     80  H61 4CQ d   1     -12.589 -13.908  16.345  0.00  0.00     0.090 H 
ATOM     81  H65 4CQ d   1     -10.589 -15.258  16.968  0.00  0.00     0.091 H 
ATOM     82  H67 4CQ d   1     -12.146 -16.479  19.305  0.00  0.00     0.094 H 
ATOM     83  H69 4CQ d   1     -12.428 -14.100  19.971  0.00  0.00     0.133 H 
ATOM     84  H70 4CQ d   1     -11.784 -12.289  20.029  0.00  0.00     0.091 H 
ENDROOT
BRANCH   1  85
ATOM     85  C64 4CQ d   1     -10.540  -8.657   9.270  0.00  0.00     0.043 C 
ATOM     86  H2  4CQ d   1     -10.083  -8.002  10.026  0.00  0.00     0.078 H 
ATOM     87  H3  4CQ d   1     -10.604  -8.121   8.311  0.00  0.00     0.078 H 
BRANCH  85  88
ATOM     88  O64 4CQ d   1     -11.879  -9.011   9.702  0.00  0.00    -0.398 OA
ATOM     89  H1  4CQ d   1     -11.832  -9.470  10.533  0.00  0.00     0.209 HD
ENDBRANCH  85  88
ENDBRANCH   1  85
BRANCH  26  90
ATOM     90  O34 4CQ d   1      -5.973 -10.336   8.379  0.00  0.00    -0.390 OA
ATOM     91  H39 4CQ d   1      -5.638  -9.909   9.159  0.00  0.00     0.210 HD
ENDBRANCH  26  90
BRANCH  25  92
ATOM     92  O24 4CQ d   1      -7.250 -12.645   7.139  0.00  0.00    -0.388 OA
ATOM     93  H37 4CQ d   1      -7.373 -13.226   7.881  0.00  0.00     0.210 HD
ENDBRANCH  25  92
BRANCH   5  94
ATOM     94  O25 4CQ d   1      -4.977  -9.111  10.597  0.00  0.00    -0.388 OA
ATOM     95  H8  4CQ d   1      -5.488  -9.912  10.584  0.00  0.00     0.210 HD
ENDBRANCH   5  94
BRANCH   6  96
ATOM     96  O35 4CQ d   1      -4.944  -8.584  13.420  0.00  0.00    -0.390 OA
ATOM     97  H10 4CQ d   1      -5.205  -8.810  14.305  0.00  0.00     0.210 HD
ENDBRANCH   6  96
BRANCH   8  98
ATOM     98  C65 4CQ d   1      -9.196  -6.048  12.720  0.00  0.00     0.043 C 
ATOM     99  H12 4CQ d   1      -8.735  -5.080  12.473  0.00  0.00     0.078 H 
ATOM    100  H13 4CQ d   1      -9.398  -6.093  13.800  0.00  0.00     0.078 H 
BRANCH  98 101
ATOM    101  O65 4CQ d   1     -10.436  -6.219  11.970  0.00  0.00    -0.398 OA
ATOM    102  H14 4CQ d   1     -10.822  -7.060  12.186  0.00  0.00     0.209 HD
ENDBRANCH  98 101
ENDBRANCH   8  98
BRANCH  29 103
ATOM    103  C63 4CQ d   1     -12.601 -12.906   7.725  0.00  0.00     0.043 C 
ATOM    104  H42 4CQ d   1     -13.188 -13.572   7.076  0.00  0.00     0.078 H 
ATOM    105  H43 4CQ d   1     -11.995 -12.229   7.104  0.00  0.00     0.078 H 
BRANCH 103 106
ATOM    106  O63 4CQ d   1     -13.448 -12.173   8.618  0.00  0.00    -0.398 OA
ATOM    107  H44 4CQ d   1     -14.045 -11.632   8.114  0.00  0.00     0.209 HD
ENDBRANCH 103 106
ENDBRANCH  29 103
BRANCH  33 108
ATOM    108  O33 4CQ d   1      -8.394 -15.162   8.026  0.00  0.00    -0.390 OA
ATOM    109  H49 4CQ d   1      -7.894 -15.909   8.332  0.00  0.00     0.210 HD
ENDBRANCH  33 108
BRANCH  32 110
ATOM    110  O23 4CQ d   1      -9.538 -17.362   9.251  0.00  0.00    -0.388 OA
ATOM    111  H47 4CQ d   1      -8.740 -17.432   8.740  0.00  0.00     0.210 HD
ENDBRANCH  32 110
BRANCH  12 112
ATOM    112  O26 4CQ d   1      -5.178  -7.955  16.184  0.00  0.00    -0.388 OA
ATOM    113  H18 4CQ d   1      -5.294  -8.552  15.454  0.00  0.00     0.210 HD
ENDBRANCH  12 112
BRANCH  13 114
ATOM    114  O36 4CQ d   1      -6.454  -9.328  18.286  0.00  0.00    -0.390 OA
ATOM    115  H20 4CQ d   1      -5.582  -9.563  17.991  0.00  0.00     0.210 HD
ENDBRANCH  13 114
BRANCH  15 116
ATOM    116  C66 4CQ d   1     -10.815  -7.505  16.476  0.00  0.00     0.043 C 
ATOM    117  H22 4CQ d   1     -11.364  -8.443  16.643  0.00  0.00     0.078 H 
ATOM    118  H23 4CQ d   1     -11.209  -7.004  15.579  0.00  0.00     0.078 H 
BRANCH 116 119
ATOM    119  O66 4CQ d   1     -10.919  -6.658  17.607  0.00  0.00    -0.398 OA
ATOM    120  H24 4CQ d   1     -10.430  -5.859  17.449  0.00  0.00     0.209 HD
ENDBRANCH 116 119
ENDBRANCH  15 116
BRANCH  36 121
ATOM    121  C62 4CQ d   1     -14.309 -15.326  11.805  0.00  0.00     0.043 C 
ATOM    122  H52 4CQ d   1     -13.963 -14.480  11.193  0.00  0.00     0.078 H 
ATOM    123  H53 4CQ d   1     -15.121 -14.992  12.467  0.00  0.00     0.078 H 
BRANCH 121 124
ATOM    124  O62 4CQ d   1     -14.779 -16.381  10.954  0.00  0.00    -0.398 OA
ATOM    125  H54 4CQ d   1     -15.073 -17.110  11.488  0.00  0.00     0.209 HD
ENDBRANCH 121 124
ENDBRANCH  36 121
BRANCH  40 126
ATOM    126  O32 4CQ d   1     -10.192 -18.101  12.022  0.00  0.00    -0.390 OA
ATOM    127  H59 4CQ d   1      -9.733 -17.567  11.384  0.00  0.00     0.210 HD
ENDBRANCH  40 126
BRANCH  39 128
ATOM    128  O22 4CQ d   1     -10.867 -18.702  14.640  0.00  0.00    -0.388 OA
ATOM    129  H57 4CQ d   1     -10.409 -18.004  15.093  0.00  0.00     0.210 HD
ENDBRANCH  39 128
BRANCH  19 130
ATOM    130  O27 4CQ d   1      -8.039 -10.515  20.237  0.00  0.00    -0.388 OA
ATOM    131  H28 4CQ d   1      -7.624 -10.553  19.383  0.00  0.00     0.210 HD
ENDBRANCH  19 130
BRANCH  20 132
ATOM    132  O37 4CQ d   1      -9.347 -13.166  20.310  0.00  0.00    -0.390 OA
ATOM    133  H30 4CQ d   1      -9.549 -13.989  19.882  0.00  0.00     0.210 HD
ENDBRANCH  20 132
BRANCH  22 134
ATOM    134  C67 4CQ d   1     -13.199 -11.059  18.004  0.00  0.00     0.043 C 
ATOM    135  H32 4CQ d   1     -13.757 -10.994  18.950  0.00  0.00     0.078 H 
ATOM    136  H33 4CQ d   1     -13.485 -11.979  17.472  0.00  0.00     0.078 H 
BRANCH 134 137
ATOM    137  O67 4CQ d   1     -13.467  -9.907  17.187  0.00  0.00    -0.398 OA
ATOM    138  H34 4CQ d   1     -14.396  -9.869  16.990  0.00  0.00     0.209 HD
ENDBRANCH 134 137
ENDBRANCH  22 134
BRANCH  43 139
ATOM    139  C61 4CQ d   1     -14.584 -14.633  16.157  0.00  0.00     0.043 C 
ATOM    140  H62 4CQ d   1     -14.506 -14.826  15.077  0.00  0.00     0.078 H 
ATOM    141  H63 4CQ d   1     -15.047 -13.649  16.321  0.00  0.00     0.078 H 
BRANCH 139 142
ATOM    142  O61 4CQ d   1     -15.355 -15.655  16.788  0.00  0.00    -0.398 OA
ATOM    143  H64 4CQ d   1     -15.407 -15.480  17.720  0.00  0.00     0.209 HD
ENDBRANCH 139 142
ENDBRANCH  43 139
BRANCH  45 144
ATOM    144  O31 4CQ d   1     -10.540 -17.293  17.271  0.00  0.00    -0.390 OA
ATOM    145  H66 4CQ d   1     -10.342 -17.460  16.357  0.00  0.00     0.210 HD
ENDBRANCH  45 144
BRANCH  46 146
ATOM    146  O21 4CQ d   1     -10.239 -15.668  19.486  0.00  0.00    -0.388 OA
ATOM    147  H68 4CQ d   1      -9.700 -15.002  19.076  0.00  0.00     0.210 HD
ENDBRANCH  46 146
TORSDOF 28
