REMARK  6 active torsions:
REMARK  status: ('A' for Active; 'I' for Inactive)
REMARK    1  A    between atoms: C10_1  and  N11_16 
REMARK    2  A    between atoms: N18_20  and  C17_4 
REMARK    3  A    between atoms: N03_9  and  C02_8 
REMARK    4  A    between atoms: S04_10  and  N03_9 
REMARK    5  A    between atoms: C07_13  and  S04_10 
REMARK    6  A    between atoms: C19_21  and  N18_20 
ROOT
ATOM      1  C10 4CV d   1      46.632   9.465  84.296  0.00  0.00     0.037 A 
ATOM      2  C17 4CV d   1      47.724   9.273  85.138  0.00  0.00     0.056 A 
ATOM      3  C07 4CV d   1      48.309  11.562  84.838  0.00  0.00     0.081 A 
ATOM      4  C08 4CV d   1      47.244  11.773  84.001  0.00  0.00    -0.059 A 
ATOM      5  C09 4CV d   1      46.401  10.712  83.736  0.00  0.00    -0.059 A 
ATOM      6  C29 4CV d   1      48.566  10.338  85.407  0.00  0.00    -0.033 A 
ATOM      7  H   4CV d   1      47.068  12.747  83.559  0.00  0.00     0.086 H 
ATOM      8  H   4CV d   1      45.548  10.856  83.082  0.00  0.00     0.086 H 
ATOM      9  H   4CV d   1      49.421  10.208  86.061  0.00  0.00     0.089 H 
ENDROOT
BRANCH   2  10
ATOM     10  N18 4CV d   1      47.938   7.989  85.686  0.00  0.00    -0.339 N 
ATOM     11  H   4CV d   1      47.427   7.217  85.235  0.00  0.00     0.167 HD
BRANCH  10  12
ATOM     12  C19 4CV d   1      48.759   7.630  86.768  0.00  0.00     0.145 A 
ATOM     13  C28 4CV d   1      48.723   6.333  87.279  0.00  0.00     0.075 A 
ATOM     14  C26 4CV d   1      48.031   5.116  87.005  0.00  0.00     0.044 A 
ATOM     15  C23 4CV d   1      49.549   6.046  88.353  0.00  0.00     0.144 A 
ATOM     16  C25 4CV d   1      48.437   4.151  87.888  0.00  0.00    -0.003 A 
ATOM     17 BR2  4CV d   1      46.743   4.840  85.634  0.00  0.00    -0.049 Br
ATOM     18  N24 4CV d   1      49.364   4.737  88.703  0.00  0.00    -0.349 N 
ATOM     19  H   4CV d   1      48.090   3.120  87.932  0.00  0.00     0.113 H 
ATOM     20  H1  4CV d   1      49.855   4.260  89.473  0.00  0.00     0.167 HD
ATOM     21  N22 4CV d   1      50.392   6.888  88.959  0.00  0.00    -0.223 NA
ATOM     22  C21 4CV d   1      50.343   8.090  88.373  0.00  0.00     0.091 A 
ATOM     23  N20 4CV d   1      49.597   8.500  87.341  0.00  0.00    -0.223 NA
ATOM     24  H   4CV d   1      51.003   8.839  88.795  0.00  0.00     0.146 H 
ENDBRANCH  10  12
ENDBRANCH   2  10
BRANCH   1  25
ATOM     25  N11 4CV d   1      45.757   8.386  84.014  0.00  0.00    -0.278 NA
ATOM     26  C12 4CV d   1      44.861   8.189  85.154  0.00  0.00     0.004 C 
ATOM     27  C13 4CV d   1      43.944   7.017  84.853  0.00  0.00     0.031 C 
ATOM     28  H   4CV d   1      45.452   7.975  86.057  0.00  0.00     0.059 H 
ATOM     29  H   4CV d   1      44.261   9.097  85.315  0.00  0.00     0.059 H 
ATOM     30  O14 4CV d   1      43.225   7.262  83.640  0.00  0.00    -0.389 OA
ATOM     31  H   4CV d   1      43.231   6.890  85.681  0.00  0.00     0.076 H 
ATOM     32  H   4CV d   1      44.545   6.102  84.743  0.00  0.00     0.076 H 
ATOM     33  C15 4CV d   1      44.135   7.374  82.538  0.00  0.00     0.031 C 
ATOM     34  C16 4CV d   1      45.040   8.578  82.756  0.00  0.00     0.004 C 
ATOM     35  H   4CV d   1      43.568   7.504  81.605  0.00  0.00     0.076 H 
ATOM     36  H   4CV d   1      44.746   6.462  82.472  0.00  0.00     0.076 H 
ATOM     37  H   4CV d   1      44.434   9.495  82.808  0.00  0.00     0.059 H 
ATOM     38  H   4CV d   1      45.758   8.660  81.927  0.00  0.00     0.059 H 
ENDBRANCH   1  25
BRANCH   3  39
ATOM     39  S04 4CV d   1      49.367  12.925  85.201  0.00  0.00     0.258 S 
ATOM     40  O05 4CV d   1      49.006  13.305  86.558  0.00  0.00    -0.201 OA
ATOM     41  O06 4CV d   1      49.243  13.857  84.081  0.00  0.00    -0.201 OA
BRANCH  39  42
ATOM     42  N03 4CV d   1      50.921  12.184  85.289  0.00  0.00    -0.320 N 
ATOM     43  H   4CV d   1      51.218  11.647  86.079  0.00  0.00     0.171 HD
BRANCH  42  44
ATOM     44  C02 4CV d   1      51.781  12.403  84.108  0.00  0.00    -0.011 C 
ATOM     45  H   4CV d   1      52.745  11.895  84.257  0.00  0.00     0.057 H 
ATOM     46  H   4CV d   1      51.952  13.481  83.974  0.00  0.00     0.057 H 
ATOM     47  H   4CV d   1      51.286  11.996  83.214  0.00  0.00     0.057 H 
ENDBRANCH  42  44
ENDBRANCH  39  42
ENDBRANCH   3  39
TORSDOF 6
