REMARK  5 active torsions:
REMARK  status: ('A' for Active; 'I' for Inactive)
REMARK    1  A    between atoms: C17_2  and  N18_1 
REMARK    2  A    between atoms: N18_1  and  C20_6 
REMARK    3  A    between atoms: S07_12  and  C10_4 
REMARK    4  A    between atoms: N05_11  and  C01_10 
REMARK    5  A    between atoms: N05_11  and  S07_12 
ROOT
ATOM      1  C17 4CW d   1      11.815  18.836  11.403  0.00  0.00     0.035 A 
ATOM      2  C13 4CW d   1      10.547  17.373  12.873  0.00  0.00    -0.079 A 
ATOM      3  C10 4CW d   1      12.522  16.580  11.768  0.00  0.00     0.081 A 
ATOM      4  C11 4CW d   1      11.443  16.322  12.616  0.00  0.00    -0.060 A 
ATOM      5  C32 4CW d   1      12.749  17.813  11.131  0.00  0.00    -0.035 A 
ATOM      6  C15 4CW d   1      10.732  18.612  12.253  0.00  0.00    -0.057 A 
ATOM      7  H2  4CW d   1       9.714  17.224  13.550  0.00  0.00     0.083 H 
ATOM      8  H3  4CW d   1      11.302  15.344  13.061  0.00  0.00     0.085 H 
ATOM      9  H5  4CW d   1      13.593  17.969  10.469  0.00  0.00     0.089 H 
ATOM     10  H10 4CW d   1      10.023  19.411  12.436  0.00  0.00     0.086 H 
ENDROOT
BRANCH   1  11
ATOM     11  N18 4CW d   1      11.898  20.157  10.906  0.00  0.00    -0.339 N 
ATOM     12  H1  4CW d   1      11.242  20.852  11.291  0.00  0.00     0.167 HD
BRANCH  11  13
ATOM     13  C20 4CW d   1      12.807  20.595   9.926  0.00  0.00     0.162 A 
ATOM     14  N21 4CW d   1      13.826  19.841   9.532  0.00  0.00    -0.222 NA
ATOM     15  C22 4CW d   1      14.667  20.298   8.575  0.00  0.00     0.091 A 
ATOM     16  N24 4CW d   1      14.506  21.550   8.057  0.00  0.00    -0.222 NA
ATOM     17  H11 4CW d   1      15.472  19.666   8.218  0.00  0.00     0.146 H 
ATOM     18  C25 4CW d   1      13.502  22.347   8.449  0.00  0.00     0.162 A 
ATOM     19  N26 4CW d   1      13.072  23.673   8.109  0.00  0.00    -0.333 N 
ATOM     20  C31 4CW d   1      12.596  21.865   9.410  0.00  0.00     0.149 A 
ATOM     21  C28 4CW d   1      11.915  23.934   8.879  0.00  0.00     0.066 A 
ATOM     22  H12 4CW d   1      13.519  24.311   7.435  0.00  0.00     0.168 HD
ATOM     23  N30 4CW d   1      11.631  22.879   9.673  0.00  0.00    -0.236 NA
ATOM     24  H4  4CW d   1      11.335  24.855   8.838  0.00  0.00     0.143 H 
ENDBRANCH  11  13
ENDBRANCH   1  11
BRANCH   3  25
ATOM     25  S07 4CW d   1      13.628  15.196  11.423  0.00  0.00     0.258 S 
ATOM     26  O08 4CW d   1      13.309  14.775  10.065  0.00  0.00    -0.201 OA
ATOM     27  O09 4CW d   1      13.462  14.138  12.465  0.00  0.00    -0.201 OA
BRANCH  25  28
ATOM     28  N05 4CW d   1      15.232  15.850  11.340  0.00  0.00    -0.320 N 
ATOM     29  H9  4CW d   1      15.797  15.884  10.515  0.00  0.00     0.171 HD
BRANCH  28  30
ATOM     30  C01 4CW d   1      15.640  16.350  12.672  0.00  0.00    -0.011 C 
ATOM     31  H6  4CW d   1      16.658  16.763  12.613  0.00  0.00     0.057 H 
ATOM     32  H7  4CW d   1      15.622  15.522  13.396  0.00  0.00     0.057 H 
ATOM     33  H8  4CW d   1      14.943  17.137  12.998  0.00  0.00     0.057 H 
ENDBRANCH  28  30
ENDBRANCH  25  28
ENDBRANCH   3  25
TORSDOF 5
