REMARK  5 active torsions:
REMARK  status: ('A' for Active; 'I' for Inactive)
REMARK       I    between atoms: N1_10  and  C9_12 
REMARK    1  A    between atoms: C9_12  and  C10_14 
REMARK    2  A    between atoms: C10_14  and  C19_15 
REMARK    3  A    between atoms: C11_21  and  C12_22 
REMARK    4  A    between atoms: C15_25  and  O2_26 
REMARK    5  A    between atoms: O2_26  and  C18_27 
ROOT
ATOM      1  C10 Y80 d   1     -10.429   6.590  -0.944  0.00  0.00     0.043 C 
ATOM      2  C11 Y80 d   1     -10.718   6.121  -2.180  0.00  0.00    -0.057 C 
ATOM      3  H13 Y80 d   1     -11.767   5.841  -2.271  0.00  0.00     0.086 H 
ENDROOT
BRANCH   1   4
ATOM      4  C9  Y80 d   1     -11.638   6.427  -0.078  0.00  0.00     0.259 C 
ATOM      5  N1  Y80 d   1     -12.911   6.913  -0.425  0.00  0.00    -0.303 N 
ATOM      6  C3  Y80 d   1     -13.155   7.689  -1.611  0.00  0.00     0.064 A 
ATOM      7  C2  Y80 d   1     -14.054   6.549   0.366  0.00  0.00     0.077 C 
ATOM      8  C4  Y80 d   1     -14.336   7.372  -2.401  0.00  0.00     0.062 A 
ATOM      9  C8  Y80 d   1     -12.376   8.763  -2.003  0.00  0.00    -0.055 A 
ATOM     10  N2  Y80 d   1     -15.039   6.325  -1.921  0.00  0.00    -0.324 N 
ATOM     11  C5  Y80 d   1     -14.620   8.120  -3.538  0.00  0.00    -0.055 A 
ATOM     12  C1  Y80 d   1     -14.957   5.894  -0.613  0.00  0.00     0.240 C 
ATOM     13  H1  Y80 d   1     -15.650   5.837  -2.545  0.00  0.00     0.169 HD
ATOM     14  O3  Y80 d   1     -15.627   4.853  -0.289  0.00  0.00    -0.271 OA
ATOM     15  C6  Y80 d   1     -13.779   9.174  -3.917  0.00  0.00    -0.081 A 
ATOM     16  H2  Y80 d   1     -15.495   7.887  -4.133  0.00  0.00     0.087 H 
ATOM     17  C7  Y80 d   1     -12.687   9.495  -3.148  0.00  0.00    -0.081 A 
ATOM     18  H3  Y80 d   1     -13.990   9.737  -4.819  0.00  0.00     0.083 H 
ATOM     19  H4  Y80 d   1     -12.058  10.330  -3.436  0.00  0.00     0.083 H 
ATOM     20  H5  Y80 d   1     -11.511   9.040  -1.411  0.00  0.00     0.087 H 
ATOM     21  H6  Y80 d   1     -13.771   5.851   1.168  0.00  0.00     0.079 H 
ATOM     22  H7  Y80 d   1     -14.528   7.439   0.804  0.00  0.00     0.079 H 
ATOM     23  O1  Y80 d   1     -11.509   5.835   0.971  0.00  0.00    -0.267 OA
ENDBRANCH   1   4
BRANCH   1  24
ATOM     24  C19 Y80 d   1      -9.122   7.166  -0.474  0.00  0.00    -0.021 A 
ATOM     25  C24 Y80 d   1      -8.562   8.189  -1.186  0.00  0.00    -0.072 A 
ATOM     26  C23 Y80 d   1      -7.430   8.829  -0.734  0.00  0.00    -0.082 A 
ATOM     27  H8  Y80 d   1      -9.015   8.501  -2.120  0.00  0.00     0.084 H 
ATOM     28  C22 Y80 d   1      -6.834   8.373   0.415  0.00  0.00    -0.083 A 
ATOM     29  H9  Y80 d   1      -7.019   9.674  -1.274  0.00  0.00     0.083 H 
ATOM     30  C21 Y80 d   1      -7.334   7.331   1.128  0.00  0.00    -0.082 A 
ATOM     31  H10 Y80 d   1      -5.932   8.862   0.766  0.00  0.00     0.083 H 
ATOM     32  C20 Y80 d   1      -8.521   6.725   0.679  0.00  0.00    -0.072 A 
ATOM     33  H11 Y80 d   1      -6.831   6.976   2.020  0.00  0.00     0.083 H 
ATOM     34  H12 Y80 d   1      -8.961   5.910   1.243  0.00  0.00     0.084 H 
ENDBRANCH   1  24
BRANCH   2  35
ATOM     35  C12 Y80 d   1      -9.988   5.894  -3.420  0.00  0.00    -0.035 C 
ATOM     36  C17 Y80 d   1     -10.683   5.893  -4.619  0.00  0.00    -0.070 C 
ATOM     37  C16 Y80 d   1     -10.039   5.595  -5.814  0.00  0.00    -0.050 C 
ATOM     38  H14 Y80 d   1     -11.741   6.127  -4.625  0.00  0.00     0.084 H 
ATOM     39  C15 Y80 d   1      -8.718   5.159  -5.739  0.00  0.00     0.068 C 
ATOM     40  H15 Y80 d   1     -10.545   5.698  -6.767  0.00  0.00     0.087 H 
ATOM     41  C14 Y80 d   1      -8.080   5.079  -4.543  0.00  0.00    -0.050 C 
ATOM     42  C13 Y80 d   1      -8.690   5.410  -3.366  0.00  0.00    -0.070 C 
ATOM     43  H19 Y80 d   1      -7.050   4.741  -4.521  0.00  0.00     0.087 H 
ATOM     44  H20 Y80 d   1      -8.175   5.298  -2.419  0.00  0.00     0.084 H 
BRANCH  39  45
ATOM     45  O2  Y80 d   1      -8.103   4.859  -6.919  0.00  0.00    -0.356 OA
BRANCH  45  46
ATOM     46  C18 Y80 d   1      -6.780   4.342  -7.093  0.00  0.00     0.010 C 
ATOM     47  H16 Y80 d   1      -6.578   4.206  -8.166  0.00  0.00     0.066 H 
ATOM     48  H17 Y80 d   1      -6.694   3.374  -6.578  0.00  0.00     0.066 H 
ATOM     49  H18 Y80 d   1      -6.051   5.049  -6.669  0.00  0.00     0.066 H 
ENDBRANCH  45  46
ENDBRANCH  39  45
ENDBRANCH   2  35
TORSDOF 5
