REMARK  2 active torsions:
REMARK  status: ('A' for Active; 'I' for Inactive)
REMARK       I    between atoms: C2_2  and  N_3 
REMARK    1  A    between atoms: C2_2  and  C3_14 
REMARK    2  A    between atoms: C6_16  and  C7_20 
ROOT
ATOM      1  C3  Y81 d   1       9.934  -6.322  -0.833  0.00  0.00     0.050 C 
ATOM      2  C13 Y81 d   1       9.885  -5.843  -2.130  0.00  0.00    -0.054 C 
ATOM      3  C6  Y81 d   1       8.692  -5.765  -2.784  0.00  0.00    -0.007 C 
ATOM      4  C5  Y81 d   1       7.631  -6.177  -2.058  0.00  0.00     0.013 C 
ATOM      5  N1  Y81 d   1       7.658  -6.576  -0.740  0.00  0.00    -0.271 NA
ATOM      6  C4  Y81 d   1       8.824  -6.711  -0.171  0.00  0.00     0.017 C 
ATOM      7  H8  Y81 d   1      10.796  -5.529  -2.626  0.00  0.00     0.086 H 
ATOM      8  H9  Y81 d   1       6.670  -6.196  -2.558  0.00  0.00     0.116 H 
ATOM      9  H10 Y81 d   1       8.901  -7.132   0.825  0.00  0.00     0.116 H 
ENDROOT
BRANCH   1  10
ATOM     10  C2  Y81 d   1      11.289  -6.362  -0.052  0.00  0.00     0.260 C 
ATOM     11  O1  Y81 d   1      11.328  -5.974   1.038  0.00  0.00    -0.267 OA
ATOM     12  N   Y81 d   1      12.440  -6.636  -0.616  0.00  0.00    -0.303 N 
ATOM     13  C1  Y81 d   1      13.716  -6.300   0.139  0.00  0.00     0.077 C 
ATOM     14  C14 Y81 d   1      12.622  -7.356  -1.852  0.00  0.00     0.064 A 
ATOM     15  C   Y81 d   1      14.524  -5.640  -0.878  0.00  0.00     0.240 C 
ATOM     16  H1  Y81 d   1      14.210  -7.211   0.509  0.00  0.00     0.079 H 
ATOM     17  H2  Y81 d   1      13.512  -5.625   0.983  0.00  0.00     0.079 H 
ATOM     18  N2  Y81 d   1      14.525  -6.170  -2.196  0.00  0.00    -0.324 N 
ATOM     19  O   Y81 d   1      15.246  -4.639  -0.513  0.00  0.00    -0.271 OA
ATOM     20  C19 Y81 d   1      13.746  -7.099  -2.613  0.00  0.00     0.062 A 
ATOM     21  H7  Y81 d   1      15.182  -5.790  -2.847  0.00  0.00     0.169 HD
ATOM     22  C18 Y81 d   1      13.997  -7.802  -3.821  0.00  0.00    -0.055 A 
ATOM     23  C17 Y81 d   1      13.139  -8.842  -4.255  0.00  0.00    -0.081 A 
ATOM     24  H3  Y81 d   1      14.860  -7.538  -4.421  0.00  0.00     0.087 H 
ATOM     25  C16 Y81 d   1      12.078  -9.134  -3.461  0.00  0.00    -0.081 A 
ATOM     26  H4  Y81 d   1      13.321  -9.380  -5.178  0.00  0.00     0.083 H 
ATOM     27  C15 Y81 d   1      11.811  -8.368  -2.309  0.00  0.00    -0.055 A 
ATOM     28  H5  Y81 d   1      11.430  -9.965  -3.716  0.00  0.00     0.083 H 
ATOM     29  H6  Y81 d   1      10.910  -8.590  -1.748  0.00  0.00     0.087 H 
ENDBRANCH   1  10
BRANCH   3  30
ATOM     30  C7  Y81 d   1       8.584  -5.263  -4.179  0.00  0.00    -0.025 A 
ATOM     31  C12 Y81 d   1       7.494  -4.513  -4.587  0.00  0.00    -0.072 A 
ATOM     32  C11 Y81 d   1       7.261  -4.145  -5.934  0.00  0.00    -0.082 A 
ATOM     33  H11 Y81 d   1       6.782  -4.191  -3.836  0.00  0.00     0.084 H 
ATOM     34  C10 Y81 d   1       8.259  -4.490  -6.836  0.00  0.00    -0.083 A 
ATOM     35  H12 Y81 d   1       6.360  -3.627  -6.242  0.00  0.00     0.083 H 
ATOM     36  C9  Y81 d   1       9.403  -5.272  -6.438  0.00  0.00    -0.082 A 
ATOM     37  H13 Y81 d   1       8.176  -4.163  -7.866  0.00  0.00     0.083 H 
ATOM     38  C8  Y81 d   1       9.503  -5.633  -5.098  0.00  0.00    -0.072 A 
ATOM     39  H14 Y81 d   1      10.158  -5.568  -7.157  0.00  0.00     0.083 H 
ATOM     40  H15 Y81 d   1      10.348  -6.232  -4.780  0.00  0.00     0.084 H 
ENDBRANCH   3  30
TORSDOF 2
