REMARK  10 active torsions:
REMARK  status: ('A' for Active; 'I' for Inactive)
REMARK    1  A    between atoms: C1_1  and  C15_19 
REMARK    2  A    between atoms: C1_1  and  C2_2 
REMARK    3  A    between atoms: C2_2  and  C3_3 
REMARK    4  A    between atoms: C2_2  and  C16_20 
REMARK    5  A    between atoms: C2_2  and  C17_21 
REMARK    6  A    between atoms: O2_31  and  C7_7 
REMARK    7  A    between atoms: C12_15  and  N3_14 
REMARK       I    between atoms: C14_18  and  N4_17 
REMARK    8  A    between atoms: C15_19  and  C14_18 
REMARK    9  A    between atoms: C21_28  and  C22_29 
REMARK   10  A    between atoms: C23_30  and  O2_31 
ROOT
ATOM      1  C4  4C9 d   1      -7.470 -13.871 -12.930  0.00  0.00     0.073 C 
ATOM      2  C15 4C9 d   1      -8.567 -14.085 -12.033  0.00  0.00     0.108 C 
ATOM      3  N5  4C9 d   1      -6.529 -13.683 -13.622  0.00  0.00    -0.196 NA
ATOM      4  H14 4C9 d   1      -8.826 -13.057 -11.740  0.00  0.00     0.077 H 
ENDROOT
BRANCH   2   5
ATOM      5  C1  4C9 d   1      -9.875 -14.739 -12.465  0.00  0.00    -0.036 C 
ATOM      6  H1  4C9 d   1     -10.460 -14.827 -11.538  0.00  0.00     0.036 H 
ATOM      7  H2  4C9 d   1      -9.583 -15.741 -12.811  0.00  0.00     0.036 H 
BRANCH   5   8
ATOM      8  C2  4C9 d   1     -11.102 -14.140 -13.741  0.00  0.00    -0.050 C 
BRANCH   8   9
ATOM      9  C3  4C9 d   1     -10.380 -13.843 -15.130  0.00  0.00    -0.070 C 
ATOM     10  H3  4C9 d   1     -11.123 -13.493 -15.862  0.00  0.00     0.028 H 
ATOM     11  H4  4C9 d   1      -9.906 -14.764 -15.501  0.00  0.00     0.028 H 
ATOM     12  H5  4C9 d   1      -9.613 -13.068 -14.986  0.00  0.00     0.028 H 
ENDBRANCH   8   9
BRANCH   8  13
ATOM     13  C16 4C9 d   1     -11.813 -12.743 -13.148  0.00  0.00    -0.070 C 
ATOM     14  H15 4C9 d   1     -12.543 -12.364 -13.879  0.00  0.00     0.028 H 
ATOM     15  H16 4C9 d   1     -11.038 -11.982 -12.976  0.00  0.00     0.028 H 
ATOM     16  H17 4C9 d   1     -12.325 -12.966 -12.200  0.00  0.00     0.028 H 
ENDBRANCH   8  13
BRANCH   8  17
ATOM     17  C17 4C9 d   1     -12.251 -15.264 -13.949  0.00  0.00    -0.070 C 
ATOM     18  H18 4C9 d   1     -12.975 -14.914 -14.700  0.00  0.00     0.028 H 
ATOM     19  H19 4C9 d   1     -12.769 -15.440 -12.995  0.00  0.00     0.028 H 
ATOM     20  H20 4C9 d   1     -11.789 -16.201 -14.294  0.00  0.00     0.028 H 
ENDBRANCH   8  17
ENDBRANCH   5   8
ENDBRANCH   2   5
BRANCH   2  21
ATOM     21  C14 4C9 d   1      -8.349 -14.872 -10.728  0.00  0.00     0.237 C 
ATOM     22  N4  4C9 d   1      -8.979 -14.796  -9.503  0.00  0.00    -0.349 N 
ATOM     23  C13 4C9 d   1      -8.717 -15.717  -8.373  0.00  0.00     0.018 C 
ATOM     24  C18 4C9 d   1     -10.028 -13.801  -9.179  0.00  0.00    -0.002 C 
ATOM     25  C12 4C9 d   1      -8.503 -15.002  -7.021  0.00  0.00     0.052 C 
ATOM     26  H12 4C9 d   1      -9.576 -16.396  -8.274  0.00  0.00     0.067 H 
ATOM     27  H13 4C9 d   1      -7.813 -16.300  -8.604  0.00  0.00     0.067 H 
ATOM     28  C20 4C9 d   1      -9.742 -14.102  -6.797  0.00  0.00    -0.041 C 
ATOM     29  H11 4C9 d   1      -7.593 -14.385  -7.063  0.00  0.00     0.078 H 
ATOM     30  C19 4C9 d   1      -9.755 -13.072  -7.885  0.00  0.00    -0.048 C 
ATOM     31  H25 4C9 d   1      -9.676 -13.610  -5.815  0.00  0.00     0.036 H 
ATOM     32  H26 4C9 d   1     -10.659 -14.708  -6.843  0.00  0.00     0.036 H 
ATOM     33  H23 4C9 d   1     -10.546 -12.331  -7.695  0.00  0.00     0.035 H 
ATOM     34  H24 4C9 d   1      -8.781 -12.564  -7.936  0.00  0.00     0.035 H 
ATOM     35  H21 4C9 d   1     -10.993 -14.321  -9.094  0.00  0.00     0.064 H 
ATOM     36  H22 4C9 d   1     -10.079 -13.065  -9.995  0.00  0.00     0.064 H 
ATOM     37  O1  4C9 d   1      -7.494 -15.788 -10.868  0.00  0.00    -0.272 OA
BRANCH  25  38
ATOM     38  N3  4C9 d   1      -8.374 -15.981  -5.928  0.00  0.00    -0.244 N 
ATOM     39  C11 4C9 d   1      -7.220 -16.766  -5.635  0.00  0.00     0.164 A 
ATOM     40  C10 4C9 d   1      -7.591 -17.641  -4.577  0.00  0.00     0.088 A 
ATOM     41  N7  4C9 d   1      -5.979 -16.669  -6.223  0.00  0.00    -0.222 NA
ATOM     42  C9  4C9 d   1      -6.519 -18.475  -4.134  0.00  0.00     0.139 A 
ATOM     43  C21 4C9 d   1      -9.032 -17.391  -4.276  0.00  0.00     0.105 A 
ATOM     44  N1  4C9 d   1      -5.256 -18.403  -4.702  0.00  0.00    -0.224 NA
ATOM     45  N2  4C9 d   1      -6.640 -19.396  -3.135  0.00  0.00    -0.383 N 
ATOM     46  C30 4C9 d   1      -5.054 -17.522  -5.699  0.00  0.00     0.091 A 
ATOM     47  H33 4C9 d   1      -4.059 -17.487  -6.127  0.00  0.00     0.146 H 
ATOM     48  H9  4C9 d   1      -7.543 -19.519  -2.655  0.00  0.00     0.157 HD
ATOM     49  H10 4C9 d   1      -5.829 -19.968  -2.861  0.00  0.00     0.157 HD
ATOM     50  N6  4C9 d   1      -9.440 -16.410  -5.136  0.00  0.00    -0.169 NA
BRANCH  43  51
ATOM     51  C22 4C9 d   1      -9.962 -18.026  -3.248  0.00  0.00    -0.004 A 
ATOM     52  C5  4C9 d   1      -9.786 -18.111  -1.852  0.00  0.00    -0.068 A 
ATOM     53  C6  4C9 d   1     -10.697 -18.701  -0.972  0.00  0.00    -0.049 A 
ATOM     54  H6  4C9 d   1      -8.880 -17.689  -1.432  0.00  0.00     0.085 H 
ATOM     55  C23 4C9 d   1     -11.898 -19.265  -1.386  0.00  0.00     0.076 A 
ATOM     56  H7  4C9 d   1     -10.455 -18.720   0.085  0.00  0.00     0.087 H 
ATOM     57  C28 4C9 d   1     -12.130 -19.203  -2.772  0.00  0.00    -0.049 A 
ATOM     58  C29 4C9 d   1     -11.194 -18.602  -3.648  0.00  0.00    -0.068 A 
ATOM     59  H31 4C9 d   1     -13.043 -19.623  -3.177  0.00  0.00     0.087 H 
ATOM     60  H32 4C9 d   1     -11.438 -18.581  -4.704  0.00  0.00     0.085 H 
BRANCH  55  61
ATOM     61  O2  4C9 d   1     -12.745 -19.830  -0.429  0.00  0.00    -0.311 OA
BRANCH  61  62
ATOM     62  C7  4C9 d   1     -13.431 -21.027  -0.722  0.00  0.00     0.076 A 
ATOM     63  C8  4C9 d   1     -12.726 -22.135  -1.223  0.00  0.00    -0.050 A 
ATOM     64  C27 4C9 d   1     -13.368 -23.343  -1.523  0.00  0.00    -0.080 A 
ATOM     65  H8  4C9 d   1     -11.657 -22.052  -1.381  0.00  0.00     0.087 H 
ATOM     66  C26 4C9 d   1     -14.743 -23.484  -1.329  0.00  0.00    -0.083 A 
ATOM     67  H30 4C9 d   1     -12.792 -24.176  -1.909  0.00  0.00     0.083 H 
ATOM     68  C25 4C9 d   1     -15.437 -22.386  -0.831  0.00  0.00    -0.080 A 
ATOM     69  H29 4C9 d   1     -15.251 -24.414  -1.558  0.00  0.00     0.083 H 
ATOM     70  C24 4C9 d   1     -14.820 -21.173  -0.527  0.00  0.00    -0.050 A 
ATOM     71  H28 4C9 d   1     -16.505 -22.477  -0.672  0.00  0.00     0.083 H 
ATOM     72  H27 4C9 d   1     -15.406 -20.346  -0.142  0.00  0.00     0.087 H 
ENDBRANCH  61  62
ENDBRANCH  55  61
ENDBRANCH  43  51
ENDBRANCH  25  38
ENDBRANCH   2  21
TORSDOF 10
