REMARK WARNING: 32 MAX_TORS EXCEEDED!!!
REMARK  59 active torsions:
REMARK  status: ('A' for Active; 'I' for Inactive)
REMARK    1  A    between atoms: N_1  and  CA_2 
REMARK    2  A    between atoms: CA_2  and  C_3 
REMARK    3  A    between atoms: CA_2  and  CB_5 
REMARK       I    between atoms: C_3  and  N_6 
REMARK    4  A    between atoms: N_6  and  CA_7 
REMARK    5  A    between atoms: CA_7  and  C_8 
REMARK    6  A    between atoms: CA_7  and  CB_10 
REMARK       I    between atoms: C_8  and  N_17 
REMARK    7  A    between atoms: CB_10  and  CG_11 
REMARK    8  A    between atoms: CG_11  and  CD_12 
REMARK    9  A    between atoms: CD_12  and  NE_13 
REMARK       I    between atoms: NE_13  and  CZ_14 
REMARK       I    between atoms: CZ_14  and  NH1_15 
REMARK       I    between atoms: CZ_14  and  NH2_16 
REMARK   10  A    between atoms: N_17  and  CA_18 
REMARK   11  A    between atoms: CA_18  and  C_19 
REMARK   12  A    between atoms: CA_18  and  CB_21 
REMARK       I    between atoms: C_19  and  N_24 
REMARK   13  A    between atoms: CB_21  and  OG1_22 
REMARK   14  A    between atoms: CB_21  and  CG2_23 
REMARK   15  A    between atoms: N_24  and  CA_25 
REMARK   16  A    between atoms: CA_25  and  C_26 
REMARK   17  A    between atoms: CA_25  and  CB_28 
REMARK       I    between atoms: C_26  and  N_33 
REMARK   18  A    between atoms: CB_28  and  CG_29 
REMARK   19  A    between atoms: CG_29  and  CD_30 
REMARK   20  A    between atoms: CD_30  and  CE_31 
REMARK   21  A    between atoms: CE_31  and  NZ_32 
REMARK   22  A    between atoms: N_33  and  CA_34 
REMARK   23  A    between atoms: CA_34  and  C_35 
REMARK   24  A    between atoms: CA_34  and  CB_37 
REMARK       I    between atoms: C_35  and  N_42 
REMARK   25  A    between atoms: CB_37  and  CG_38 
REMARK   26  A    between atoms: CG_38  and  CD_39 
REMARK       I    between atoms: CD_39  and  NE2_41 
REMARK   27  A    between atoms: N_42  and  CA_43 
REMARK   28  A    between atoms: CA_43  and  C_44 
REMARK   29  A    between atoms: CA_43  and  CB_46 
REMARK       I    between atoms: C_44  and  N_49 
REMARK   30  A    between atoms: CB_46  and  OG1_47 
REMARK   31  A    between atoms: CB_46  and  CG2_48 
REMARK   32  A    between atoms: N_49  and  CA_50 
REMARK   33  A    between atoms: CA_50  and  C_51 
REMARK   34  A    between atoms: CA_50  and  CB_53 
REMARK       I    between atoms: C_51  and  N_54 
REMARK   35  A    between atoms: N_54  and  CA_55 
REMARK   36  A    between atoms: CA_55  and  C_56 
REMARK   37  A    between atoms: CA_55  and  CB_58 
REMARK       I    between atoms: C_56  and  N_65 
REMARK   38  A    between atoms: CB_58  and  CG_59 
REMARK   39  A    between atoms: CG_59  and  CD_60 
REMARK   40  A    between atoms: CD_60  and  NE_61 
REMARK       I    between atoms: NE_61  and  CZ_62 
REMARK       I    between atoms: CZ_62  and  NH1_63 
REMARK   41  A    between atoms: N_65  and  CA_66 
REMARK   42  A    between atoms: CA_66  and  CB_67 
REMARK   43  A    between atoms: CA_66  and  C_72 
REMARK   44  A    between atoms: CB_67  and  CG_68 
REMARK   45  A    between atoms: CG_68  and  CD_69 
REMARK   46  A    between atoms: CD_69  and  CE_70 
REMARK   47  A    between atoms: CE_70  and  NZ_71 
REMARK   48  A    between atoms: NZ_71  and  CM1_74 
REMARK   49  A    between atoms: NZ_71  and  CM2_75 
REMARK   50  A    between atoms: NZ_71  and  CM3_76 
REMARK       I    between atoms: C_72  and  N_77 
REMARK   51  A    between atoms: N_77  and  CA_78 
REMARK   52  A    between atoms: CA_78  and  C_79 
REMARK   53  A    between atoms: CA_78  and  CB_81 
REMARK       I    between atoms: C_79  and  N_83 
REMARK   54  A    between atoms: CB_81  and  OG_82 
REMARK   55  A    between atoms: N_83  and  CA_84 
REMARK   56  A    between atoms: CA_84  and  C_85 
REMARK   57  A    between atoms: CA_84  and  CB_87 
REMARK   58  A    between atoms: CB_87  and  OG1_88 
REMARK   59  A    between atoms: CB_87  and  CG2_89 
ROOT
ATOM      1  CA  THR d   1      -4.392 -17.495 -23.338  0.00  0.00     0.113 C 
ATOM      2  H50 THR d   1      -5.201 -17.398 -22.599  0.00  0.00     0.091 H 
ENDROOT
BRANCH   1   3
ATOM      3  N   THR d   1      -3.125 -17.346 -22.636  0.00  0.00    -0.344 N 
ATOM      4  C   GLN d   1      -2.681 -18.250 -21.767  0.00  0.00     0.241 C 
ATOM      5  O   GLN d   1      -3.305 -19.268 -21.466  0.00  0.00    -0.271 OA
ATOM      6  H49 THR d   1      -2.568 -16.535 -22.814  0.00  0.00     0.163 HD
BRANCH   4   7
ATOM      7  CA  GLN d   1      -1.341 -17.956 -21.118  0.00  0.00     0.090 C 
ATOM      8  H42 GLN d   1      -1.257 -16.875 -20.934  0.00  0.00     0.087 H 
BRANCH   7   9
ATOM      9  N   GLN d   1      -1.304 -18.659 -19.846  0.00  0.00    -0.346 N 
ATOM     10  C   LYS d   1      -1.453 -18.001 -18.703  0.00  0.00     0.241 C 
ATOM     11  O   LYS d   1      -1.387 -16.772 -18.622  0.00  0.00    -0.271 OA
ATOM     12  H41 GLN d   1      -1.165 -19.649 -19.832  0.00  0.00     0.163 HD
BRANCH  10  13
ATOM     13  CA  LYS d   1      -1.706 -18.844 -17.467  0.00  0.00     0.089 C 
ATOM     14  H29 LYS d   1      -1.545 -19.904 -17.712  0.00  0.00     0.087 H 
BRANCH  13  15
ATOM     15  N   LYS d   1      -0.785 -18.464 -16.404  0.00  0.00    -0.346 N 
ATOM     16  C   THR d   1       0.488 -18.848 -16.434  0.00  0.00     0.243 C 
ATOM     17  O   THR d   1       0.929 -19.636 -17.270  0.00  0.00    -0.271 OA
ATOM     18  H28 LYS d   1      -1.114 -17.907 -15.642  0.00  0.00     0.163 HD
BRANCH  16  19
ATOM     19  CA  THR d   1       1.402 -18.259 -15.371  0.00  0.00     0.113 C 
ATOM     20  H22 THR d   1       0.845 -18.160 -14.428  0.00  0.00     0.091 H 
BRANCH  19  21
ATOM     21  N   THR d   1       2.553 -19.125 -15.144  0.00  0.00    -0.344 N 
ATOM     22  C   ARG d   1       2.584 -20.054 -14.193  0.00  0.00     0.241 C 
ATOM     23  O   ARG d   1       1.642 -20.276 -13.431  0.00  0.00    -0.271 OA
ATOM     24  H21 THR d   1       3.356 -19.015 -15.730  0.00  0.00     0.163 HD
BRANCH  22  25
ATOM     25  CA  ARG d   1       3.891 -20.832 -14.082  0.00  0.00     0.089 C 
ATOM     26  H9  ARG d   1       4.175 -21.203 -15.078  0.00  0.00     0.087 H 
BRANCH  25  27
ATOM     27  N   ARG d   1       4.922 -19.933 -13.591  0.00  0.00    -0.346 N 
ATOM     28  C   ALA d   1       5.890 -19.483 -14.380  0.00  0.00     0.248 C 
ATOM     29  O   ALA d   1       6.023 -19.828 -15.555  0.00  0.00    -0.271 OA
ATOM     30  H8  ARG d   1       4.902 -19.646 -12.633  0.00  0.00     0.163 HD
BRANCH  28  31
ATOM     31  CA  ALA d   1       6.840 -18.481 -13.751  0.00  0.00     0.172 C 
ATOM     32  H4  ALA d   1       6.769 -18.580 -12.658  0.00  0.00     0.098 H 
BRANCH  31  33
ATOM     33  N   ALA d   1       8.224 -18.735 -14.138  0.00  0.00    -0.067 N 
ATOM     34  H1  ALA d   1       8.825 -18.053 -13.703  0.00  0.00     0.275 HD
ATOM     35  H2  ALA d   1       8.310 -18.669 -15.140  0.00  0.00     0.275 HD
ATOM     36  H3  ALA d   1       8.493 -19.659 -13.838  0.00  0.00     0.275 HD
ENDBRANCH  31  33
BRANCH  31  37
ATOM     37  CB  ALA d   1       6.427 -17.076 -14.131  0.00  0.00    -0.042 C 
ATOM     38  H5  ALA d   1       5.382 -16.907 -13.831  0.00  0.00     0.030 H 
ATOM     39  H6  ALA d   1       6.521 -16.948 -15.220  0.00  0.00     0.030 H 
ATOM     40  H7  ALA d   1       7.078 -16.352 -13.619  0.00  0.00     0.030 H 
ENDBRANCH  31  37
ENDBRANCH  28  31
ENDBRANCH  25  27
BRANCH  25  41
ATOM     41  CB  ARG d   1       3.747 -22.022 -13.137  0.00  0.00    -0.036 C 
ATOM     42  H10 ARG d   1       3.277 -22.850 -13.688  0.00  0.00     0.036 H 
ATOM     43  H11 ARG d   1       3.100 -21.725 -12.299  0.00  0.00     0.036 H 
BRANCH  41  44
ATOM     44  CG  ARG d   1       5.075 -22.512 -12.571  0.00  0.00    -0.048 C 
ATOM     45  H12 ARG d   1       5.087 -22.330 -11.486  0.00  0.00     0.035 H 
ATOM     46  H13 ARG d   1       5.893 -21.950 -13.046  0.00  0.00     0.035 H 
BRANCH  44  47
ATOM     47  CD  ARG d   1       5.289 -23.996 -12.822  0.00  0.00     0.009 C 
ATOM     48  H14 ARG d   1       6.217 -24.309 -12.322  0.00  0.00     0.064 H 
ATOM     49  H15 ARG d   1       5.383 -24.161 -13.905  0.00  0.00     0.064 H 
BRANCH  47  50
ATOM     50  NE  ARG d   1       4.186 -24.811 -12.317  0.00  0.00    -0.227 N 
ATOM     51  CZ  ARG d   1       3.842 -25.993 -12.823  0.00  0.00     0.665 C 
ATOM     52  NH1 ARG d   1       2.823 -26.672 -12.316  0.00  0.00    -0.235 N 
ATOM     53  NH2 ARG d   1       4.518 -26.497 -13.845  0.00  0.00    -0.235 N 
ATOM     54  H17 ARG d   1       2.564 -27.586 -12.714  0.00  0.00     0.174 HD
ATOM     55  H18 ARG d   1       2.290 -26.286 -11.524  0.00  0.00     0.174 HD
ATOM     56  H19 ARG d   1       5.311 -25.976 -14.245  0.00  0.00     0.174 HD
ATOM     57  H20 ARG d   1       4.250 -27.410 -14.239  0.00  0.00     0.174 HD
ATOM     58  H16 ARG d   1       3.642 -24.449 -11.521  0.00  0.00     0.177 HD
ENDBRANCH  47  50
ENDBRANCH  44  47
ENDBRANCH  41  44
ENDBRANCH  25  41
ENDBRANCH  22  25
ENDBRANCH  19  21
BRANCH  19  59
ATOM     59  CB  THR d   1       1.844 -16.863 -15.845  0.00  0.00     0.060 C 
ATOM     60  H23 THR d   1       1.290 -16.605 -16.760  0.00  0.00     0.086 H 
BRANCH  59  61
ATOM     61  OG1 THR d   1       3.248 -16.875 -16.131  0.00  0.00    -0.393 OA
ATOM     62  H24 THR d   1       3.518 -16.012 -16.423  0.00  0.00     0.210 HD
ENDBRANCH  59  61
BRANCH  59  63
ATOM     63  CG2 THR d   1       1.559 -15.817 -14.785  0.00  0.00    -0.050 C 
ATOM     64  H25 THR d   1       1.883 -14.830 -15.147  0.00  0.00     0.031 H 
ATOM     65  H26 THR d   1       2.107 -16.068 -13.865  0.00  0.00     0.031 H 
ATOM     66  H27 THR d   1       0.480 -15.794 -14.574  0.00  0.00     0.031 H 
ENDBRANCH  59  63
ENDBRANCH  19  59
ENDBRANCH  16  19
ENDBRANCH  13  15
BRANCH  13  67
ATOM     67  CB  LYS d   1      -3.159 -18.647 -17.031  0.00  0.00    -0.038 C 
ATOM     68  H30 LYS d   1      -3.766 -18.479 -17.933  0.00  0.00     0.036 H 
ATOM     69  H31 LYS d   1      -3.204 -17.756 -16.388  0.00  0.00     0.036 H 
BRANCH  67  70
ATOM     70  CG  LYS d   1      -3.764 -19.809 -16.267  0.00  0.00    -0.061 C 
ATOM     71  H32 LYS d   1      -3.165 -20.002 -15.365  0.00  0.00     0.033 H 
ATOM     72  H33 LYS d   1      -3.763 -20.704 -16.906  0.00  0.00     0.033 H 
BRANCH  70  73
ATOM     73  CD  LYS d   1      -5.190 -19.483 -15.862  0.00  0.00    -0.043 C 
ATOM     74  H34 LYS d   1      -5.779 -19.274 -16.767  0.00  0.00     0.035 H 
ATOM     75  H35 LYS d   1      -5.182 -18.593 -15.216  0.00  0.00     0.035 H 
BRANCH  73  76
ATOM     76  CE  LYS d   1      -5.836 -20.631 -15.110  0.00  0.00     0.080 C 
ATOM     77  H36 LYS d   1      -5.155 -20.971 -14.316  0.00  0.00     0.075 H 
ATOM     78  H37 LYS d   1      -6.026 -21.459 -15.809  0.00  0.00     0.075 H 
BRANCH  76  79
ATOM     79  NZ  LYS d   1      -7.123 -20.204 -14.498  0.00  0.00    -0.079 N 
ATOM     80  H38 LYS d   1      -7.534 -20.981 -14.004  0.00  0.00     0.274 HD
ATOM     81  H39 LYS d   1      -7.753 -19.894 -15.222  0.00  0.00     0.274 HD
ATOM     82  H40 LYS d   1      -6.954 -19.448 -13.853  0.00  0.00     0.274 HD
ENDBRANCH  76  79
ENDBRANCH  73  76
ENDBRANCH  70  73
ENDBRANCH  67  70
ENDBRANCH  13  67
ENDBRANCH  10  13
ENDBRANCH   7   9
BRANCH   7  83
ATOM     83  CB  GLN d   1      -0.190 -18.382 -22.032  0.00  0.00    -0.030 C 
ATOM     84  H43 GLN d   1      -0.379 -17.978 -23.038  0.00  0.00     0.037 H 
ATOM     85  H44 GLN d   1      -0.172 -19.481 -22.076  0.00  0.00     0.037 H 
BRANCH  83  86
ATOM     86  CG  GLN d   1       1.180 -17.898 -21.571  0.00  0.00     0.011 C 
ATOM     87  H45 GLN d   1       1.435 -18.409 -20.631  0.00  0.00     0.047 H 
ATOM     88  H46 GLN d   1       1.129 -16.813 -21.396  0.00  0.00     0.047 H 
BRANCH  86  89
ATOM     89  CD  GLN d   1       2.274 -18.175 -22.586  0.00  0.00     0.215 C 
ATOM     90  OE1 GLN d   1       2.495 -19.320 -22.983  0.00  0.00    -0.274 OA
ATOM     91  NE2 GLN d   1       2.960 -17.122 -23.018  0.00  0.00    -0.370 N 
ATOM     92  H47 GLN d   1       3.693 -17.243 -23.687  0.00  0.00     0.159 HD
ATOM     93  H48 GLN d   1       2.743 -16.209 -22.674  0.00  0.00     0.159 HD
ENDBRANCH  86  89
ENDBRANCH  83  86
ENDBRANCH   7  83
ENDBRANCH   4   7
ENDBRANCH   1   3
BRANCH   1  94
ATOM     94  C   THR d   1      -4.523 -18.853 -24.016  0.00  0.00     0.243 C 
ATOM     95  O   THR d   1      -3.557 -19.378 -24.560  0.00  0.00    -0.271 OA
ATOM     96  N   ALA d   1      -5.723 -19.423 -23.983  0.00  0.00    -0.346 N 
ATOM     97  H56 ALA d   1      -6.460 -18.989 -23.465  0.00  0.00     0.163 HD
BRANCH  96  98
ATOM     98  CA  ALA d   1      -5.981 -20.671 -24.690  0.00  0.00     0.086 C 
ATOM     99  H57 ALA d   1      -5.149 -21.360 -24.484  0.00  0.00     0.086 H 
BRANCH  98 100
ATOM    100  C   ALA d   1      -6.047 -20.442 -26.201  0.00  0.00     0.240 C 
ATOM    101  O   ALA d   1      -6.265 -21.385 -26.966  0.00  0.00    -0.271 OA
ATOM    102  N   ARG d   1      -5.878 -19.184 -26.612  0.00  0.00    -0.346 N 
ATOM    103  H61 ARG d   1      -5.769 -18.469 -25.922  0.00  0.00     0.163 HD
BRANCH 102 104
ATOM    104  CA  ARG d   1      -5.844 -18.799 -28.026  0.00  0.00     0.089 C 
ATOM    105  H62 ARG d   1      -5.845 -17.700 -28.062  0.00  0.00     0.087 H 
BRANCH 104 106
ATOM    106  C   ARG d   1      -7.065 -19.272 -28.822  0.00  0.00     0.241 C 
ATOM    107  O   ARG d   1      -6.956 -19.630 -29.995  0.00  0.00    -0.271 OA
ATOM    108  N   M3L d   1      -8.226 -19.264 -28.174  0.00  0.00    -0.346 N 
ATOM    109  H74 M3L d   1      -8.242 -19.000 -27.209  0.00  0.00     0.163 HD
BRANCH 108 110
ATOM    110  CA  M3L d   1      -9.491 -19.633 -28.837  0.00  0.00     0.089 C 
ATOM    111  H75 M3L d   1      -9.273 -20.444 -29.547  0.00  0.00     0.087 H 
BRANCH 110 112
ATOM    112  CB  M3L d   1     -10.523 -20.181 -27.786  0.00  0.00    -0.038 C 
ATOM    113  H76 M3L d   1     -11.542 -20.100 -28.193  0.00  0.00     0.036 H 
ATOM    114  H77 M3L d   1     -10.451 -19.595 -26.858  0.00  0.00     0.036 H 
BRANCH 112 115
ATOM    115  CG  M3L d   1     -10.203 -21.648 -27.492  0.00  0.00    -0.061 C 
ATOM    116  H78 M3L d   1      -9.393 -21.707 -26.750  0.00  0.00     0.033 H 
ATOM    117  H79 M3L d   1      -9.888 -22.149 -28.419  0.00  0.00     0.033 H 
BRANCH 115 118
ATOM    118  CD  M3L d   1     -11.462 -22.335 -26.937  0.00  0.00    -0.042 C 
ATOM    119  H80 M3L d   1     -11.948 -22.915 -27.735  0.00  0.00     0.035 H 
ATOM    120  H81 M3L d   1     -12.161 -21.575 -26.559  0.00  0.00     0.035 H 
BRANCH 118 121
ATOM    121  CE  M3L d   1     -11.058 -23.267 -25.802  0.00  0.00     0.084 C 
ATOM    122  H82 M3L d   1     -10.837 -22.671 -24.904  0.00  0.00     0.076 H 
ATOM    123  H83 M3L d   1     -10.161 -23.831 -26.098  0.00  0.00     0.076 H 
BRANCH 121 124
ATOM    124  NZ  M3L d   1     -12.157 -24.219 -25.499  0.00  0.00    -0.079 N 
BRANCH 124 125
ATOM    125  CM1 M3L d   1     -11.812 -24.928 -24.302  0.00  0.00     0.067 C 
ATOM    126  H84 M3L d   1     -12.612 -25.642 -24.055  0.00  0.00     0.068 H 
ATOM    127  H85 M3L d   1     -11.690 -24.213 -23.475  0.00  0.00     0.068 H 
ATOM    128  H86 M3L d   1     -10.870 -25.473 -24.458  0.00  0.00     0.068 H 
ENDBRANCH 124 125
BRANCH 124 129
ATOM    129  CM2 M3L d   1     -13.392 -23.496 -25.276  0.00  0.00     0.067 C 
ATOM    130  H87 M3L d   1     -13.666 -22.948 -26.189  0.00  0.00     0.068 H 
ATOM    131  H88 M3L d   1     -13.256 -22.784 -24.448  0.00  0.00     0.068 H 
ATOM    132  H89 M3L d   1     -14.192 -24.207 -25.021  0.00  0.00     0.068 H 
ENDBRANCH 124 129
BRANCH 124 133
ATOM    133  CM3 M3L d   1     -12.324 -25.124 -26.571  0.00  0.00     0.067 C 
ATOM    134  H90 M3L d   1     -11.385 -25.672 -26.738  0.00  0.00     0.068 H 
ATOM    135  H91 M3L d   1     -12.591 -24.568 -27.482  0.00  0.00     0.068 H 
ATOM    136  H92 M3L d   1     -13.126 -25.837 -26.328  0.00  0.00     0.068 H 
ENDBRANCH 124 133
ENDBRANCH 121 124
ENDBRANCH 118 121
ENDBRANCH 115 118
ENDBRANCH 112 115
ENDBRANCH 110 112
BRANCH 110 137
ATOM    137  C   M3L d   1     -10.066 -18.476 -29.628  0.00  0.00     0.241 C 
ATOM    138  O   M3L d   1     -11.000 -18.689 -30.456  0.00  0.00    -0.271 OA
ATOM    139  N   SER d   1      -9.554 -17.267 -29.405  0.00  0.00    -0.344 N 
ATOM    140  H93 SER d   1      -8.733 -17.171 -28.842  0.00  0.00     0.163 HD
BRANCH 139 141
ATOM    141  CA  SER d   1     -10.186 -16.080 -29.979  0.00  0.00     0.109 C 
ATOM    142  H94 SER d   1     -10.562 -16.364 -30.973  0.00  0.00     0.090 H 
BRANCH 141 143
ATOM    143  C   SER d   1      -9.269 -14.867 -30.172  0.00  0.00     0.243 C 
ATOM    144  O   SER d   1      -8.939 -14.175 -29.205  0.00  0.00    -0.271 OA
ATOM    145  N   THR d   1      -8.873 -14.630 -31.424  0.00  0.00    -0.342 N 
ATOM    146  H98 THR d   1      -8.949 -15.375 -32.087  0.00  0.00     0.163 HD
BRANCH 145 147
ATOM    147  CA  THR d   1      -8.331 -13.343 -31.894  0.00  0.00     0.120 C 
ATOM    148  H99 THR d   1      -9.105 -12.582 -31.716  0.00  0.00     0.093 H 
BRANCH 147 149
ATOM    149  C   THR d   1      -8.054 -13.398 -33.395  0.00  0.00     0.199 C 
ATOM    150  O   THR d   1      -8.791 -14.038 -34.147  0.00  0.00    -0.646 OA
ATOM    151  OXT THR d   1      -7.089 -12.803 -33.878  0.00  0.00    -0.646 OA
ENDBRANCH 147 149
BRANCH 147 152
ATOM    152  CB  THR d   1      -7.048 -12.879 -31.159  0.00  0.00     0.061 C 
ATOM    153 0H10 THR d   1      -6.322 -13.705 -31.138  0.00  0.00     0.086 H 
BRANCH 152 154
ATOM    154  OG1 THR d   1      -7.376 -12.491 -29.818  0.00  0.00    -0.393 OA
ATOM    155 1H10 THR d   1      -7.753 -13.232 -29.358  0.00  0.00     0.210 HD
ENDBRANCH 152 154
BRANCH 152 156
ATOM    156  CG2 THR d   1      -6.436 -11.679 -31.874  0.00  0.00    -0.050 C 
ATOM    157 2H10 THR d   1      -5.527 -11.360 -31.343  0.00  0.00     0.031 H 
ATOM    158 3H10 THR d   1      -7.161 -10.852 -31.889  0.00  0.00     0.031 H 
ATOM    159 4H10 THR d   1      -6.178 -11.959 -32.906  0.00  0.00     0.031 H 
ENDBRANCH 152 156
ENDBRANCH 147 152
ENDBRANCH 145 147
ENDBRANCH 141 143
BRANCH 141 160
ATOM    160  CB  SER d   1     -11.377 -15.662 -29.113  0.00  0.00     0.044 C 
ATOM    161  H95 SER d   1     -11.989 -16.548 -28.889  0.00  0.00     0.077 H 
ATOM    162  H96 SER d   1     -11.983 -14.928 -29.663  0.00  0.00     0.077 H 
BRANCH 160 163
ATOM    163  OG  SER d   1     -10.935 -15.082 -27.897  0.00  0.00    -0.398 OA
ATOM    164  H97 SER d   1     -10.409 -14.314 -28.087  0.00  0.00     0.209 HD
ENDBRANCH 160 163
ENDBRANCH 141 160
ENDBRANCH 139 141
ENDBRANCH 110 137
ENDBRANCH 108 110
ENDBRANCH 104 106
BRANCH 104 165
ATOM    165  CB  ARG d   1      -4.543 -19.283 -28.675  0.00  0.00    -0.036 C 
ATOM    166  H63 ARG d   1      -4.520 -18.928 -29.716  0.00  0.00     0.036 H 
ATOM    167  H64 ARG d   1      -4.535 -20.383 -28.662  0.00  0.00     0.036 H 
BRANCH 165 168
ATOM    168  CG  ARG d   1      -3.288 -18.783 -27.967  0.00  0.00    -0.048 C 
ATOM    169  H65 ARG d   1      -3.378 -18.987 -26.890  0.00  0.00     0.035 H 
ATOM    170  H66 ARG d   1      -3.192 -17.699 -28.128  0.00  0.00     0.035 H 
BRANCH 168 171
ATOM    171  CD  ARG d   1      -2.049 -19.474 -28.500  0.00  0.00     0.009 C 
ATOM    172  H67 ARG d   1      -2.235 -20.558 -28.526  0.00  0.00     0.064 H 
ATOM    173  H68 ARG d   1      -1.209 -19.262 -27.822  0.00  0.00     0.064 H 
BRANCH 171 174
ATOM    174  NE  ARG d   1      -1.687 -19.031 -29.842  0.00  0.00    -0.227 N 
ATOM    175  CZ  ARG d   1      -0.870 -19.699 -30.650  0.00  0.00     0.665 C 
ATOM    176  NH1 ARG d   1      -0.342 -20.847 -30.257  0.00  0.00    -0.235 N 
ATOM    177  NH2 ARG d   1      -0.587 -19.224 -31.851  0.00  0.00    -0.235 N 
ATOM    178  H70 ARG d   1       0.291 -21.364 -30.884  0.00  0.00     0.174 HD
ATOM    179  H71 ARG d   1      -0.564 -21.224 -29.324  0.00  0.00     0.174 HD
ATOM    180  H72 ARG d   1      -0.996 -18.331 -32.161  0.00  0.00     0.174 HD
ATOM    181  H73 ARG d   1       0.042 -19.747 -32.477  0.00  0.00     0.174 HD
ATOM    182  H69 ARG d   1      -2.089 -18.147 -30.184  0.00  0.00     0.177 HD
ENDBRANCH 171 174
ENDBRANCH 168 171
ENDBRANCH 165 168
ENDBRANCH 104 165
ENDBRANCH 102 104
ENDBRANCH  98 100
BRANCH  98 183
ATOM    183  CB  ALA d   1      -7.267 -21.314 -24.188  0.00  0.00    -0.049 C 
ATOM    184  H58 ALA d   1      -7.444 -22.253 -24.733  0.00  0.00     0.030 H 
ATOM    185  H59 ALA d   1      -8.110 -20.628 -24.356  0.00  0.00     0.030 H 
ATOM    186  H60 ALA d   1      -7.176 -21.526 -23.112  0.00  0.00     0.030 H 
ENDBRANCH  98 183
ENDBRANCH  96  98
ENDBRANCH   1  94
BRANCH   1 187
ATOM    187  CB  THR d   1      -4.563 -16.394 -24.401  0.00  0.00     0.060 C 
ATOM    188  H51 THR d   1      -4.850 -15.457 -23.902  0.00  0.00     0.086 H 
BRANCH 187 189
ATOM    189  OG1 THR d   1      -5.595 -16.772 -25.325  0.00  0.00    -0.393 OA
ATOM    190  H52 THR d   1      -6.413 -16.887 -24.855  0.00  0.00     0.210 HD
ENDBRANCH 187 189
BRANCH 187 191
ATOM    191  CG2 THR d   1      -3.266 -16.174 -25.156  0.00  0.00    -0.050 C 
ATOM    192  H53 THR d   1      -3.409 -15.385 -25.909  0.00  0.00     0.031 H 
ATOM    193  H54 THR d   1      -2.969 -17.108 -25.655  0.00  0.00     0.031 H 
ATOM    194  H55 THR d   1      -2.478 -15.869 -24.451  0.00  0.00     0.031 H 
ENDBRANCH 187 191
ENDBRANCH   1 187
TORSDOF 59
