REMARK  16 active torsions:
REMARK  status: ('A' for Active; 'I' for Inactive)
REMARK    1  A    between atoms: C2_2  and  N1_1 
REMARK    2  A    between atoms: S8_8  and  C5_5 
REMARK    3  A    between atoms: N11_11  and  S8_8 
REMARK    4  A    between atoms: N11_11  and  C12_12 
REMARK    5  A    between atoms: C16_16  and  N11_11 
REMARK    6  A    between atoms: C12_12  and  C13_13 
REMARK    7  A    between atoms: C13_13  and  C14_14 
REMARK    8  A    between atoms: C13_13  and  C15_15 
REMARK    9  A    between atoms: C17_17  and  C16_16 
REMARK   10  A    between atoms: C17_17  and  O18_18 
REMARK   11  A    between atoms: C19_19  and  C17_17 
REMARK   12  A    between atoms: C19_19  and  N20_20 
REMARK   13  A    between atoms: C32_32  and  C19_19 
REMARK       I    between atoms: N20_20  and  C21_21 
REMARK   14  A    between atoms: C21_21  and  O23_23 
REMARK   15  A    between atoms: O23_23  and  C24_24 
REMARK   16  A    between atoms: C38_38  and  C32_32 
ROOT
ATOM      1  C19 G10 d   1     -18.227  -1.568   2.244  0.00  0.00     0.044 C 
ATOM      2  H20 G10 d   1     -17.189  -1.351   1.953  0.00  0.00     0.077 H 
ENDROOT
BRANCH   1   3
ATOM      3  C17 G10 d   1     -19.098  -0.414   1.760  0.00  0.00     0.071 C 
ATOM      4  H18 G10 d   1     -18.878   0.480   2.362  0.00  0.00     0.088 H 
BRANCH   3   5
ATOM      5  C16 G10 d   1     -18.838  -0.116   0.296  0.00  0.00     0.031 C 
ATOM      6  H16 G10 d   1     -18.838  -1.072  -0.248  0.00  0.00     0.069 H 
ATOM      7  H17 G10 d   1     -19.662   0.514  -0.071  0.00  0.00     0.069 H 
BRANCH   5   8
ATOM      8  N11 G10 d   1     -17.561   0.581  -0.008  0.00  0.00    -0.304 N 
BRANCH   8   9
ATOM      9  S8  G10 d   1     -16.484  -0.217  -0.815  0.00  0.00     0.260 S 
ATOM     10  O9  G10 d   1     -16.581  -1.576  -0.358  0.00  0.00    -0.200 OA
ATOM     11  O10 G10 d   1     -15.229   0.464  -0.602  0.00  0.00    -0.200 OA
BRANCH   9  12
ATOM     12  C5  G10 d   1     -16.866  -0.174  -2.435  0.00  0.00     0.079 A 
ATOM     13  C4  G10 d   1     -17.686  -1.133  -3.048  0.00  0.00    -0.058 A 
ATOM     14  C3  G10 d   1     -18.038  -1.048  -4.397  0.00  0.00    -0.056 A 
ATOM     15  H4  G10 d   1     -18.057  -1.963  -2.458  0.00  0.00     0.086 H 
ATOM     16  C2  G10 d   1     -17.638   0.022  -5.185  0.00  0.00     0.025 A 
ATOM     17  H3  G10 d   1     -18.637  -1.836  -4.839  0.00  0.00     0.086 H 
ATOM     18  C7  G10 d   1     -16.857   1.024  -4.628  0.00  0.00    -0.056 A 
ATOM     19  C6  G10 d   1     -16.489   0.910  -3.250  0.00  0.00    -0.058 A 
ATOM     20  H6  G10 d   1     -16.534   1.872  -5.221  0.00  0.00     0.086 H 
ATOM     21  H5  G10 d   1     -15.889   1.699  -2.811  0.00  0.00     0.086 H 
BRANCH  16  22
ATOM     22  N1  G10 d   1     -18.023   0.085  -6.492  0.00  0.00    -0.399 N 
ATOM     23  H1  G10 d   1     -18.603  -0.665  -6.895  0.00  0.00     0.156 HD
ATOM     24  H2  G10 d   1     -17.734   0.882  -7.076  0.00  0.00     0.156 HD
ENDBRANCH  16  22
ENDBRANCH   9  12
ENDBRANCH   8   9
BRANCH   8  25
ATOM     25  C12 G10 d   1     -17.550   2.070  -0.141  0.00  0.00     0.008 C 
ATOM     26  H7  G10 d   1     -18.201   2.333  -0.988  0.00  0.00     0.066 H 
ATOM     27  H8  G10 d   1     -16.517   2.377  -0.364  0.00  0.00     0.066 H 
BRANCH  25  28
ATOM     28  C13 G10 d   1     -18.015   2.866   1.059  0.00  0.00    -0.045 C 
ATOM     29  H9  G10 d   1     -18.982   2.459   1.390  0.00  0.00     0.041 H 
BRANCH  28  30
ATOM     30  C14 G10 d   1     -16.978   2.729   2.181  0.00  0.00    -0.072 C 
ATOM     31  H10 G10 d   1     -17.308   3.305   3.058  0.00  0.00     0.028 H 
ATOM     32  H11 G10 d   1     -16.008   3.115   1.833  0.00  0.00     0.028 H 
ATOM     33  H12 G10 d   1     -16.874   1.669   2.457  0.00  0.00     0.028 H 
ENDBRANCH  28  30
BRANCH  28  34
ATOM     34  C15 G10 d   1     -18.173   4.362   0.804  0.00  0.00    -0.072 C 
ATOM     35  H13 G10 d   1     -18.910   4.522   0.003  0.00  0.00     0.028 H 
ATOM     36  H14 G10 d   1     -17.205   4.787   0.501  0.00  0.00     0.028 H 
ATOM     37  H15 G10 d   1     -18.518   4.856   1.724  0.00  0.00     0.028 H 
ENDBRANCH  28  34
ENDBRANCH  25  28
ENDBRANCH   8  25
ENDBRANCH   5   8
ENDBRANCH   3   5
BRANCH   3  38
ATOM     38  O18 G10 d   1     -20.492  -0.760   1.894  0.00  0.00    -0.392 OA
ATOM     39  H19 G10 d   1     -20.680  -1.524   1.362  0.00  0.00     0.210 HD
ENDBRANCH   3  38
ENDBRANCH   1   3
BRANCH   1  40
ATOM     40  N20 G10 d   1     -18.323  -1.666   3.723  0.00  0.00    -0.329 N 
ATOM     41  C21 G10 d   1     -17.373  -1.141   4.541  0.00  0.00     0.361 C 
ATOM     42  O22 G10 d   1     -16.331  -0.633   4.270  0.00  0.00    -0.238 OA
ATOM     43  H21 G10 d   1     -19.109  -2.132   4.129  0.00  0.00     0.165 HD
BRANCH  41  44
ATOM     44  O23 G10 d   1     -17.711  -1.324   5.889  0.00  0.00    -0.296 OA
BRANCH  44  45
ATOM     45  C24 G10 d   1     -16.747  -1.107   6.928  0.00  0.00     0.084 C 
ATOM     46  C25 G10 d   1     -17.453  -0.256   7.973  0.00  0.00     0.048 C 
ATOM     47  O26 G10 d   1     -18.242  -1.217   8.690  0.00  0.00    -0.358 OA
ATOM     48  H23 G10 d   1     -18.091   0.505   7.499  0.00  0.00     0.078 H 
ATOM     49  H24 G10 d   1     -16.728   0.236   8.638  0.00  0.00     0.078 H 
ATOM     50  C27 G10 d   1     -17.587  -2.488   8.683  0.00  0.00     0.142 C 
ATOM     51  O28 G10 d   1     -18.487  -3.423   8.023  0.00  0.00    -0.355 OA
ATOM     52  C31 G10 d   1     -16.426  -2.402   7.714  0.00  0.00     0.086 C 
ATOM     53  H25 G10 d   1     -17.287  -2.809   9.691  0.00  0.00     0.130 H 
ATOM     54  C29 G10 d   1     -17.990  -3.980   6.811  0.00  0.00     0.084 C 
ATOM     55  C30 G10 d   1     -16.509  -3.674   6.841  0.00  0.00     0.275 C 
ATOM     56  H26 G10 d   1     -18.468  -3.508   5.940  0.00  0.00     0.083 H 
ATOM     57  H27 G10 d   1     -18.163  -5.066   6.781  0.00  0.00     0.083 H 
ATOM     58  F39 G10 d   1     -15.997  -3.495   5.603  0.00  0.00    -0.203 F 
ATOM     59  F40 G10 d   1     -15.704  -4.500   7.453  0.00  0.00    -0.203 F 
ATOM     60  H28 G10 d   1     -15.450  -2.337   8.217  0.00  0.00     0.060 H 
ATOM     61  H22 G10 d   1     -15.836  -0.636   6.530  0.00  0.00     0.088 H 
ENDBRANCH  44  45
ENDBRANCH  41  44
ENDBRANCH   1  40
BRANCH   1  62
ATOM     62  C32 G10 d   1     -18.605  -2.968   1.700  0.00  0.00    -0.020 C 
ATOM     63  H29 G10 d   1     -18.539  -2.969   0.602  0.00  0.00     0.043 H 
ATOM     64  H30 G10 d   1     -19.631  -3.220   2.006  0.00  0.00     0.043 H 
BRANCH  62  65
ATOM     65  C38 G10 d   1     -17.629  -3.993   2.276  0.00  0.00    -0.056 A 
ATOM     66  C33 G10 d   1     -18.117  -4.934   3.209  0.00  0.00    -0.077 A 
ATOM     67  C34 G10 d   1     -17.313  -5.915   3.779  0.00  0.00    -0.082 A 
ATOM     68  H31 G10 d   1     -19.162  -4.890   3.493  0.00  0.00     0.084 H 
ATOM     69  C35 G10 d   1     -15.957  -5.893   3.461  0.00  0.00    -0.083 A 
ATOM     70  H32 G10 d   1     -17.725  -6.666   4.444  0.00  0.00     0.083 H 
ATOM     71  C36 G10 d   1     -15.430  -4.945   2.573  0.00  0.00    -0.082 A 
ATOM     72  H33 G10 d   1     -15.295  -6.625   3.910  0.00  0.00     0.083 H 
ATOM     73  C37 G10 d   1     -16.279  -3.969   1.998  0.00  0.00    -0.077 A 
ATOM     74  H34 G10 d   1     -14.374  -4.959   2.327  0.00  0.00     0.083 H 
ATOM     75  H35 G10 d   1     -15.870  -3.208   1.343  0.00  0.00     0.084 H 
ENDBRANCH  62  65
ENDBRANCH   1  62
TORSDOF 16
