REMARK  6 active torsions:
REMARK  status: ('A' for Active; 'I' for Inactive)
REMARK    1  A    between atoms: N6_27  and  C9_6 
REMARK    2  A    between atoms: C8_8  and  N2_19 
REMARK    3  A    between atoms: C6_10  and  S_23 
REMARK    4  A    between atoms: N2_19  and  C12_14 
REMARK    5  A    between atoms: S_23  and  N3_22 
REMARK    6  A    between atoms: N3_22  and  C11_28 
ROOT
ATOM      1  C5  4EF d   1      -7.948 -23.593 -37.800  0.00  0.00    -0.059 A 
ATOM      2  C9  4EF d   1      -9.299 -21.628 -38.040  0.00  0.00     0.037 A 
ATOM      3  C10 4EF d   1      -8.093 -22.227 -37.733  0.00  0.00    -0.059 A 
ATOM      4  C8  4EF d   1     -10.389 -22.387 -38.418  0.00  0.00     0.056 A 
ATOM      5  C7  4EF d   1     -10.253 -23.761 -38.487  0.00  0.00    -0.033 A 
ATOM      6  C6  4EF d   1      -9.036 -24.341 -38.180  0.00  0.00     0.081 A 
ATOM      7  H2  4EF d   1      -7.003 -24.066 -37.560  0.00  0.00     0.086 H 
ATOM      8  H3  4EF d   1      -7.251 -21.613 -37.436  0.00  0.00     0.086 H 
ATOM      9  H4  4EF d   1     -11.094 -24.379 -38.780  0.00  0.00     0.089 H 
ENDROOT
BRANCH   4  10
ATOM     10  N2  4EF d   1     -11.580 -21.679 -38.695  0.00  0.00    -0.339 N 
ATOM     11  H11 4EF d   1     -11.519 -20.652 -38.642  0.00  0.00     0.167 HD
BRANCH  10  12
ATOM     12  C12 4EF d   1     -12.833 -22.205 -39.033  0.00  0.00     0.145 A 
ATOM     13  C1  4EF d   1     -13.953 -21.392 -39.143  0.00  0.00     0.079 A 
ATOM     14  C2  4EF d   1     -15.154 -21.970 -39.497  0.00  0.00     0.144 A 
ATOM     15  C4  4EF d   1     -14.239 -20.010 -38.984  0.00  0.00     0.067 A 
ATOM     16  N1  4EF d   1     -16.120 -21.007 -39.550  0.00  0.00    -0.348 N 
ATOM     17  N5  4EF d   1     -15.352 -23.257 -39.751  0.00  0.00    -0.223 NA
ATOM     18  C3  4EF d   1     -15.576 -19.799 -39.240  0.00  0.00     0.001 A 
ATOM     19  H5  4EF d   1     -17.109 -21.170 -39.788  0.00  0.00     0.167 HD
ATOM     20  H1  4EF d   1     -16.099 -18.845 -39.202  0.00  0.00     0.114 H 
ATOM     21  C13 4EF d   1     -14.214 -23.935 -39.606  0.00  0.00     0.091 A 
ATOM     22  N4  4EF d   1     -12.996 -23.505 -39.272  0.00  0.00    -0.223 NA
ATOM     23  H6  4EF d   1     -14.290 -25.001 -39.788  0.00  0.00     0.146 H 
ATOM     24 CL   4EF d   1     -13.106 -18.820 -38.553  0.00  0.00    -0.082 Cl
ENDBRANCH  10  12
ENDBRANCH   4  10
BRANCH   2  25
ATOM     25  N6  4EF d   1      -9.462 -20.237 -37.964  0.00  0.00    -0.278 NA
ATOM     26  C14 4EF d   1      -9.079 -19.551 -39.190  0.00  0.00     0.004 C 
ATOM     27  C16 4EF d   1      -9.425 -18.084 -39.005  0.00  0.00     0.031 C 
ATOM     28  H7  4EF d   1      -7.999 -19.665 -39.365  0.00  0.00     0.059 H 
ATOM     29  H8  4EF d   1      -9.635 -19.965 -40.044  0.00  0.00     0.059 H 
ATOM     30  O3  4EF d   1      -8.728 -17.584 -37.866  0.00  0.00    -0.389 OA
ATOM     31  H12 4EF d   1     -10.509 -17.977 -38.851  0.00  0.00     0.076 H 
ATOM     32  H13 4EF d   1      -9.124 -17.518 -39.899  0.00  0.00     0.076 H 
ATOM     33  C17 4EF d   1      -9.212 -18.231 -36.682  0.00  0.00     0.031 C 
ATOM     34  C15 4EF d   1      -8.881 -19.710 -36.740  0.00  0.00     0.004 C 
ATOM     35  H14 4EF d   1      -8.734 -17.783 -35.798  0.00  0.00     0.076 H 
ATOM     36  H15 4EF d   1     -10.302 -18.102 -36.614  0.00  0.00     0.076 H 
ATOM     37  H9  4EF d   1      -9.309 -20.226 -35.868  0.00  0.00     0.059 H 
ATOM     38  H10 4EF d   1      -7.790 -19.851 -36.750  0.00  0.00     0.059 H 
ENDBRANCH   2  25
BRANCH   6  39
ATOM     39  S   4EF d   1      -8.816 -26.111 -38.244  0.00  0.00     0.258 S 
ATOM     40  O2  4EF d   1      -7.393 -26.335 -38.358  0.00  0.00    -0.201 OA
ATOM     41  O1  4EF d   1      -9.553 -26.681 -37.139  0.00  0.00    -0.201 OA
BRANCH  39  42
ATOM     42  N3  4EF d   1      -9.678 -26.557 -39.654  0.00  0.00    -0.320 N 
ATOM     43  H16 4EF d   1     -10.652 -26.783 -39.630  0.00  0.00     0.171 HD
BRANCH  42  44
ATOM     44  C11 4EF d   1      -8.904 -26.588 -40.900  0.00  0.00    -0.011 C 
ATOM     45  H17 4EF d   1      -9.560 -26.886 -41.732  0.00  0.00     0.057 H 
ATOM     46  H18 4EF d   1      -8.082 -27.313 -40.803  0.00  0.00     0.057 H 
ATOM     47  H19 4EF d   1      -8.490 -25.589 -41.099  0.00  0.00     0.057 H 
ENDBRANCH  42  44
ENDBRANCH  39  42
ENDBRANCH   6  39
TORSDOF 6
