REMARK WARNING: 32 MAX_TORS EXCEEDED!!!
REMARK  50 active torsions:
REMARK  status: ('A' for Active; 'I' for Inactive)
REMARK    1  A    between atoms: N_1  and  CA_2 
REMARK    2  A    between atoms: CA_2  and  C_3 
REMARK    3  A    between atoms: CA_2  and  CB_5 
REMARK       I    between atoms: C_3  and  N_6 
REMARK    4  A    between atoms: N_6  and  CA_7 
REMARK    5  A    between atoms: CA_7  and  C_8 
REMARK    6  A    between atoms: CA_7  and  CB_10 
REMARK       I    between atoms: C_8  and  N_17 
REMARK    7  A    between atoms: CB_10  and  CG_11 
REMARK    8  A    between atoms: CG_11  and  CD_12 
REMARK    9  A    between atoms: CD_12  and  NE_13 
REMARK       I    between atoms: NE_13  and  CZ_14 
REMARK       I    between atoms: CZ_14  and  NH1_15 
REMARK       I    between atoms: CZ_14  and  NH2_16 
REMARK   10  A    between atoms: N_17  and  CA_18 
REMARK   11  A    between atoms: CA_18  and  C_19 
REMARK   12  A    between atoms: CA_18  and  CB_21 
REMARK       I    between atoms: C_19  and  N_24 
REMARK   13  A    between atoms: CB_21  and  OG1_22 
REMARK   14  A    between atoms: CB_21  and  CG2_23 
REMARK   15  A    between atoms: N_24  and  CA_25 
REMARK   16  A    between atoms: CA_25  and  CB_26 
REMARK   17  A    between atoms: CA_25  and  C_31 
REMARK   18  A    between atoms: CB_26  and  CG_27 
REMARK   19  A    between atoms: CG_27  and  CD_28 
REMARK   20  A    between atoms: CD_28  and  CE_29 
REMARK   21  A    between atoms: CE_29  and  NZ_30 
REMARK   22  A    between atoms: NZ_30  and  CM1_33 
REMARK   23  A    between atoms: NZ_30  and  CM2_34 
REMARK   24  A    between atoms: NZ_30  and  CM3_35 
REMARK       I    between atoms: C_31  and  N_36 
REMARK   25  A    between atoms: N_36  and  CA_37 
REMARK   26  A    between atoms: CA_37  and  C_38 
REMARK   27  A    between atoms: CA_37  and  CB_40 
REMARK       I    between atoms: C_38  and  N_45 
REMARK   28  A    between atoms: CB_40  and  CG_41 
REMARK   29  A    between atoms: CG_41  and  CD_42 
REMARK       I    between atoms: CD_42  and  NE2_44 
REMARK   30  A    between atoms: N_45  and  CA_46 
REMARK   31  A    between atoms: CA_46  and  C_47 
REMARK   32  A    between atoms: CA_46  and  CB_49 
REMARK       I    between atoms: C_47  and  N_52 
REMARK   33  A    between atoms: CB_49  and  OG1_50 
REMARK   34  A    between atoms: CB_49  and  CG2_51 
REMARK   35  A    between atoms: N_52  and  CA_53 
REMARK   36  A    between atoms: CA_53  and  C_54 
REMARK   37  A    between atoms: CA_53  and  CB_56 
REMARK       I    between atoms: C_54  and  N_57 
REMARK   38  A    between atoms: N_57  and  CA_58 
REMARK   39  A    between atoms: CA_58  and  C_59 
REMARK   40  A    between atoms: CA_58  and  CB_61 
REMARK       I    between atoms: C_59  and  N_68 
REMARK   41  A    between atoms: CB_61  and  CG_62 
REMARK   42  A    between atoms: CG_62  and  CD_63 
REMARK   43  A    between atoms: CD_63  and  NE_64 
REMARK       I    between atoms: NE_64  and  CZ_65 
REMARK       I    between atoms: CZ_65  and  NH1_66 
REMARK   44  A    between atoms: N_68  and  CA_69 
REMARK   45  A    between atoms: CA_69  and  C_70 
REMARK   46  A    between atoms: CA_69  and  CB_72 
REMARK   47  A    between atoms: CB_72  and  CG_73 
REMARK   48  A    between atoms: CG_73  and  CD_74 
REMARK   49  A    between atoms: CD_74  and  CE_75 
REMARK   50  A    between atoms: CE_75  and  NZ_76 
ROOT
ATOM      1  CA  GLN d   1     -71.986  -1.819  28.793  0.00  0.00     0.090 C 
ATOM      2  H48 GLN d   1     -71.803  -0.805  29.178  0.00  0.00     0.087 H 
ENDROOT
BRANCH   1   3
ATOM      3  N   GLN d   1     -70.823  -2.223  27.993  0.00  0.00    -0.346 N 
ATOM      4  C   M3L d   1     -69.595  -2.042  28.481  0.00  0.00     0.241 C 
ATOM      5  O   M3L d   1     -69.387  -1.542  29.609  0.00  0.00    -0.271 OA
ATOM      6  H47 GLN d   1     -70.951  -2.631  27.089  0.00  0.00     0.163 HD
BRANCH   4   7
ATOM      7  CA  M3L d   1     -68.382  -2.449  27.663  0.00  0.00     0.089 C 
ATOM      8  H29 M3L d   1     -67.796  -3.122  28.306  0.00  0.00     0.087 H 
BRANCH   7   9
ATOM      9  N   M3L d   1     -68.785  -3.268  26.492  0.00  0.00    -0.346 N 
ATOM     10  C   THR d   1     -69.051  -4.567  26.636  0.00  0.00     0.243 C 
ATOM     11  O   THR d   1     -68.903  -5.166  27.704  0.00  0.00    -0.271 OA
ATOM     12  H28 M3L d   1     -68.857  -2.843  25.590  0.00  0.00     0.163 HD
BRANCH  10  13
ATOM     13  CA  THR d   1     -69.558  -5.305  25.411  0.00  0.00     0.113 C 
ATOM     14  H22 THR d   1     -69.170  -4.809  24.509  0.00  0.00     0.091 H 
BRANCH  13  15
ATOM     15  N   THR d   1     -69.072  -6.677  25.431  0.00  0.00    -0.344 N 
ATOM     16  C   ARG d   1     -68.765  -7.346  24.320  0.00  0.00     0.241 C 
ATOM     17  O   ARG d   1     -68.833  -6.861  23.177  0.00  0.00    -0.271 OA
ATOM     18  H21 THR d   1     -68.964  -7.136  26.313  0.00  0.00     0.163 HD
BRANCH  16  19
ATOM     19  CA  ARG d   1     -68.340  -8.793  24.560  0.00  0.00     0.089 C 
ATOM     20  H9  ARG d   1     -67.841  -8.845  25.539  0.00  0.00     0.087 H 
BRANCH  19  21
ATOM     21  N   ARG d   1     -69.521  -9.623  24.598  0.00  0.00    -0.346 N 
ATOM     22  C   ALA d   1     -70.197  -9.769  25.729  0.00  0.00     0.248 C 
ATOM     23  O   ALA d   1     -69.796  -9.325  26.813  0.00  0.00    -0.271 OA
ATOM     24  H8  ARG d   1     -69.830 -10.089  23.769  0.00  0.00     0.163 HD
BRANCH  22  25
ATOM     25  CA  ALA d   1     -71.514 -10.527  25.631  0.00  0.00     0.172 C 
ATOM     26  H4  ALA d   1     -71.486 -11.160  24.732  0.00  0.00     0.098 H 
BRANCH  25  27
ATOM     27  N   ALA d   1     -71.700 -11.388  26.792  0.00  0.00    -0.067 N 
ATOM     28  H1  ALA d   1     -72.576 -11.880  26.708  0.00  0.00     0.275 HD
ATOM     29  H2  ALA d   1     -71.709 -10.826  27.629  0.00  0.00     0.275 HD
ATOM     30  H3  ALA d   1     -70.944 -12.053  26.842  0.00  0.00     0.275 HD
ENDBRANCH  25  27
BRANCH  25  31
ATOM     31  CB  ALA d   1     -72.676  -9.546  25.496  0.00  0.00    -0.042 C 
ATOM     32  H5  ALA d   1     -72.516  -8.907  24.615  0.00  0.00     0.030 H 
ATOM     33  H6  ALA d   1     -72.733  -8.919  26.398  0.00  0.00     0.030 H 
ATOM     34  H7  ALA d   1     -73.616 -10.105  25.377  0.00  0.00     0.030 H 
ENDBRANCH  25  31
ENDBRANCH  22  25
ENDBRANCH  19  21
BRANCH  19  35
ATOM     35  CB  ARG d   1     -67.364  -9.310  23.511  0.00  0.00    -0.036 C 
ATOM     36  H10 ARG d   1     -66.660  -8.508  23.243  0.00  0.00     0.036 H 
ATOM     37  H11 ARG d   1     -67.923  -9.621  22.616  0.00  0.00     0.036 H 
BRANCH  35  38
ATOM     38  CG  ARG d   1     -66.586 -10.501  24.058  0.00  0.00    -0.048 C 
ATOM     39  H12 ARG d   1     -67.254 -11.083  24.710  0.00  0.00     0.035 H 
ATOM     40  H13 ARG d   1     -65.738 -10.122  24.647  0.00  0.00     0.035 H 
BRANCH  38  41
ATOM     41  CD  ARG d   1     -66.049 -11.418  22.982  0.00  0.00     0.009 C 
ATOM     42  H14 ARG d   1     -66.850 -11.609  22.253  0.00  0.00     0.064 H 
ATOM     43  H15 ARG d   1     -65.745 -12.366  23.450  0.00  0.00     0.064 H 
BRANCH  41  44
ATOM     44  NE  ARG d   1     -64.904 -10.863  22.276  0.00  0.00    -0.227 N 
ATOM     45  CZ  ARG d   1     -63.689 -10.672  22.787  0.00  0.00     0.665 C 
ATOM     46  NH1 ARG d   1     -63.426 -10.951  24.058  0.00  0.00    -0.235 N 
ATOM     47  NH2 ARG d   1     -62.726 -10.181  22.011  0.00  0.00    -0.235 N 
ATOM     48  H17 ARG d   1     -62.480 -10.796  24.434  0.00  0.00     0.174 HD
ATOM     49  H18 ARG d   1     -64.168 -11.322  24.668  0.00  0.00     0.174 HD
ATOM     50  H19 ARG d   1     -62.922  -9.962  21.024  0.00  0.00     0.174 HD
ATOM     51  H20 ARG d   1     -61.785 -10.020  22.398  0.00  0.00     0.174 HD
ATOM     52  H16 ARG d   1     -65.046 -10.594  21.292  0.00  0.00     0.177 HD
ENDBRANCH  41  44
ENDBRANCH  38  41
ENDBRANCH  35  38
ENDBRANCH  19  35
ENDBRANCH  16  19
ENDBRANCH  13  15
BRANCH  13  53
ATOM     53  CB  THR d   1     -71.097  -5.250  25.377  0.00  0.00     0.060 C 
ATOM     54  H23 THR d   1     -71.449  -5.760  24.468  0.00  0.00     0.086 H 
BRANCH  53  55
ATOM     55  OG1 THR d   1     -71.534  -3.890  25.352  0.00  0.00    -0.393 OA
ATOM     56  H24 THR d   1     -71.187  -3.461  24.578  0.00  0.00     0.210 HD
ENDBRANCH  53  55
BRANCH  53  57
ATOM     57  CG2 THR d   1     -71.696  -5.939  26.594  0.00  0.00    -0.050 C 
ATOM     58  H25 THR d   1     -72.793  -5.884  26.543  0.00  0.00     0.031 H 
ATOM     59  H26 THR d   1     -71.346  -5.438  27.509  0.00  0.00     0.031 H 
ATOM     60  H27 THR d   1     -71.382  -6.993  26.610  0.00  0.00     0.031 H 
ENDBRANCH  53  57
ENDBRANCH  13  53
ENDBRANCH  10  13
ENDBRANCH   7   9
BRANCH   7  61
ATOM     61  CB  M3L d   1     -67.414  -1.243  27.341  0.00  0.00    -0.038 C 
ATOM     62  H30 M3L d   1     -67.199  -0.699  28.273  0.00  0.00     0.036 H 
ATOM     63  H31 M3L d   1     -67.910  -0.568  26.628  0.00  0.00     0.036 H 
BRANCH  61  64
ATOM     64  CG  M3L d   1     -66.084  -1.730  26.727  0.00  0.00    -0.061 C 
ATOM     65  H32 M3L d   1     -66.299  -2.356  25.848  0.00  0.00     0.033 H 
ATOM     66  H33 M3L d   1     -65.536  -2.322  27.474  0.00  0.00     0.033 H 
BRANCH  64  67
ATOM     67  CD  M3L d   1     -65.212  -0.522  26.293  0.00  0.00    -0.042 C 
ATOM     68  H34 M3L d   1     -64.159  -0.836  26.242  0.00  0.00     0.035 H 
ATOM     69  H35 M3L d   1     -65.319   0.285  27.033  0.00  0.00     0.035 H 
BRANCH  67  70
ATOM     70  CE  M3L d   1     -65.651  -0.004  24.915  0.00  0.00     0.084 C 
ATOM     71  H36 M3L d   1     -66.745   0.112  24.908  0.00  0.00     0.076 H 
ATOM     72  H37 M3L d   1     -65.355  -0.734  24.147  0.00  0.00     0.076 H 
BRANCH  70  73
ATOM     73  NZ  M3L d   1     -65.018   1.318  24.602  0.00  0.00    -0.079 N 
BRANCH  73  74
ATOM     74  CM1 M3L d   1     -65.256   1.688  23.222  0.00  0.00     0.067 C 
ATOM     75  H38 M3L d   1     -64.783   2.660  23.016  0.00  0.00     0.068 H 
ATOM     76  H39 M3L d   1     -66.339   1.762  23.044  0.00  0.00     0.068 H 
ATOM     77  H40 M3L d   1     -64.827   0.923  22.558  0.00  0.00     0.068 H 
ENDBRANCH  73  74
BRANCH  73  78
ATOM     78  CM2 M3L d   1     -65.596   2.323  25.474  0.00  0.00     0.067 C 
ATOM     79  H41 M3L d   1     -65.417   2.045  26.523  0.00  0.00     0.068 H 
ATOM     80  H42 M3L d   1     -66.679   2.388  25.292  0.00  0.00     0.068 H 
ATOM     81  H43 M3L d   1     -65.130   3.298  25.269  0.00  0.00     0.068 H 
ENDBRANCH  73  78
BRANCH  73  82
ATOM     82  CM3 M3L d   1     -63.616   1.281  24.827  0.00  0.00     0.067 C 
ATOM     83  H44 M3L d   1     -63.160   0.523  24.173  0.00  0.00     0.068 H 
ATOM     84  H45 M3L d   1     -63.420   1.024  25.878  0.00  0.00     0.068 H 
ATOM     85  H46 M3L d   1     -63.183   2.267  24.603  0.00  0.00     0.068 H 
ENDBRANCH  73  82
ENDBRANCH  70  73
ENDBRANCH  67  70
ENDBRANCH  64  67
ENDBRANCH  61  64
ENDBRANCH   7  61
ENDBRANCH   4   7
ENDBRANCH   1   3
BRANCH   1  86
ATOM     86  C   GLN d   1     -72.147  -2.762  29.986  0.00  0.00     0.241 C 
ATOM     87  O   GLN d   1     -71.825  -3.945  29.885  0.00  0.00    -0.271 OA
ATOM     88  N   THR d   1     -72.656  -2.251  31.108  0.00  0.00    -0.344 N 
ATOM     89  H55 THR d   1     -73.070  -1.341  31.095  0.00  0.00     0.163 HD
BRANCH  88  90
ATOM     90  CA  THR d   1     -72.614  -3.010  32.355  0.00  0.00     0.113 C 
ATOM     91  H56 THR d   1     -72.003  -3.904  32.160  0.00  0.00     0.091 H 
BRANCH  90  92
ATOM     92  C   THR d   1     -73.962  -3.483  32.902  0.00  0.00     0.243 C 
ATOM     93  O   THR d   1     -74.005  -4.215  33.888  0.00  0.00    -0.271 OA
ATOM     94  N   ALA d   1     -75.058  -3.070  32.282  0.00  0.00    -0.346 N 
ATOM     95  H62 ALA d   1     -74.984  -2.558  31.426  0.00  0.00     0.163 HD
BRANCH  94  96
ATOM     96  CA  ALA d   1     -76.376  -3.361  32.845  0.00  0.00     0.086 C 
ATOM     97  H63 ALA d   1     -76.325  -3.194  33.931  0.00  0.00     0.086 H 
BRANCH  96  98
ATOM     98  C   ALA d   1     -76.789  -4.812  32.610  0.00  0.00     0.240 C 
ATOM     99  O   ALA d   1     -76.431  -5.429  31.609  0.00  0.00    -0.271 OA
ATOM    100  N   ARG d   1     -77.551  -5.340  33.551  0.00  0.00    -0.346 N 
ATOM    101  H67 ARG d   1     -77.799  -4.780  34.342  0.00  0.00     0.163 HD
BRANCH 100 102
ATOM    102  CA  ARG d   1     -78.042  -6.705  33.478  0.00  0.00     0.089 C 
ATOM    103  H68 ARG d   1     -78.159  -7.000  32.425  0.00  0.00     0.087 H 
BRANCH 102 104
ATOM    104  C   ARG d   1     -79.404  -6.728  34.161  0.00  0.00     0.241 C 
ATOM    105  O   ARG d   1     -79.507  -6.403  35.344  0.00  0.00    -0.271 OA
ATOM    106  N   LYS d   1     -80.444  -7.075  33.405  0.00  0.00    -0.345 N 
ATOM    107  H80 LYS d   1     -80.279  -7.364  32.462  0.00  0.00     0.163 HD
BRANCH 106 108
ATOM    108  CA  LYS d   1     -81.821  -7.048  33.906  0.00  0.00     0.096 C 
ATOM    109  H81 LYS d   1     -82.037  -6.030  34.264  0.00  0.00     0.089 H 
BRANCH 108 110
ATOM    110  C   LYS d   1     -82.017  -8.017  35.069  0.00  0.00     0.196 C 
ATOM    111  O   LYS d   1     -81.846  -9.228  34.909  0.00  0.00    -0.646 OA
ATOM    112  OXT LYS d   1     -82.348  -7.599  36.181  0.00  0.00    -0.646 OA
ENDBRANCH 108 110
BRANCH 108 113
ATOM    113  CB  LYS d   1     -82.800  -7.388  32.785  0.00  0.00    -0.037 C 
ATOM    114  H82 LYS d   1     -83.724  -6.812  32.945  0.00  0.00     0.036 H 
ATOM    115  H83 LYS d   1     -83.025  -8.464  32.836  0.00  0.00     0.036 H 
BRANCH 113 116
ATOM    116  CG  LYS d   1     -82.269  -7.070  31.377  0.00  0.00    -0.061 C 
ATOM    117  H84 LYS d   1     -81.316  -7.599  31.226  0.00  0.00     0.033 H 
ATOM    118  H85 LYS d   1     -82.104  -5.986  31.293  0.00  0.00     0.033 H 
BRANCH 116 119
ATOM    119  CD  LYS d   1     -83.262  -7.510  30.294  0.00  0.00    -0.043 C 
ATOM    120  H86 LYS d   1     -84.217  -6.989  30.459  0.00  0.00     0.035 H 
ATOM    121  H87 LYS d   1     -83.417  -8.596  30.378  0.00  0.00     0.035 H 
BRANCH 119 122
ATOM    122  CE  LYS d   1     -82.768  -7.193  28.880  0.00  0.00     0.080 C 
ATOM    123  H88 LYS d   1     -83.551  -7.484  28.165  0.00  0.00     0.075 H 
ATOM    124  H89 LYS d   1     -81.859  -7.783  28.689  0.00  0.00     0.075 H 
BRANCH 122 125
ATOM    125  NZ  LYS d   1     -82.448  -5.752  28.668  0.00  0.00    -0.079 N 
ATOM    126  H90 LYS d   1     -82.130  -5.614  27.721  0.00  0.00     0.274 HD
ATOM    127  H91 LYS d   1     -81.723  -5.471  29.310  0.00  0.00     0.274 HD
ATOM    128  H92 LYS d   1     -83.274  -5.197  28.829  0.00  0.00     0.274 HD
ENDBRANCH 122 125
ENDBRANCH 119 122
ENDBRANCH 116 119
ENDBRANCH 113 116
ENDBRANCH 108 113
ENDBRANCH 106 108
ENDBRANCH 102 104
BRANCH 102 129
ATOM    129  CB  ARG d   1     -77.049  -7.657  34.145  0.00  0.00    -0.036 C 
ATOM    130  H69 ARG d   1     -76.964  -7.363  35.202  0.00  0.00     0.036 H 
ATOM    131  H70 ARG d   1     -76.076  -7.526  33.648  0.00  0.00     0.036 H 
BRANCH 129 132
ATOM    132  CG  ARG d   1     -77.389  -9.128  34.105  0.00  0.00    -0.048 C 
ATOM    133  H71 ARG d   1     -77.380  -9.480  33.063  0.00  0.00     0.035 H 
ATOM    134  H72 ARG d   1     -78.388  -9.288  34.537  0.00  0.00     0.035 H 
BRANCH 132 135
ATOM    135  CD  ARG d   1     -76.346  -9.904  34.920  0.00  0.00     0.009 C 
ATOM    136  H73 ARG d   1     -75.892  -9.220  35.653  0.00  0.00     0.064 H 
ATOM    137  H74 ARG d   1     -75.569 -10.275  34.235  0.00  0.00     0.064 H 
BRANCH 135 138
ATOM    138  NE  ARG d   1     -76.921 -11.041  35.635  0.00  0.00    -0.227 N 
ATOM    139  CZ  ARG d   1     -76.658 -11.348  36.900  0.00  0.00     0.665 C 
ATOM    140  NH1 ARG d   1     -75.816 -10.607  37.604  0.00  0.00    -0.235 N 
ATOM    141  NH2 ARG d   1     -77.237 -12.401  37.462  0.00  0.00    -0.235 N 
ATOM    142  H76 ARG d   1     -75.614 -10.848  38.585  0.00  0.00     0.174 HD
ATOM    143  H77 ARG d   1     -75.363  -9.790  37.171  0.00  0.00     0.174 HD
ATOM    144  H78 ARG d   1     -77.892 -12.980  36.918  0.00  0.00     0.174 HD
ATOM    145  H79 ARG d   1     -77.031 -12.640  38.443  0.00  0.00     0.174 HD
ATOM    146  H75 ARG d   1     -77.577 -11.647  35.122  0.00  0.00     0.177 HD
ENDBRANCH 135 138
ENDBRANCH 132 135
ENDBRANCH 129 132
ENDBRANCH 102 129
ENDBRANCH 100 102
ENDBRANCH  96  98
BRANCH  96 147
ATOM    147  CB  ALA d   1     -77.420  -2.418  32.264  0.00  0.00    -0.049 C 
ATOM    148  H64 ALA d   1     -78.404  -2.649  32.697  0.00  0.00     0.030 H 
ATOM    149  H65 ALA d   1     -77.461  -2.544  31.172  0.00  0.00     0.030 H 
ATOM    150  H66 ALA d   1     -77.149  -1.379  32.503  0.00  0.00     0.030 H 
ENDBRANCH  96 147
ENDBRANCH  94  96
ENDBRANCH  90  92
BRANCH  90 151
ATOM    151  CB  THR d   1     -71.944  -2.192  33.478  0.00  0.00     0.060 C 
ATOM    152  H57 THR d   1     -72.006  -2.761  34.417  0.00  0.00     0.086 H 
BRANCH 151 153
ATOM    153  OG1 THR d   1     -72.624  -0.939  33.643  0.00  0.00    -0.393 OA
ATOM    154  H58 THR d   1     -73.532  -1.100  33.871  0.00  0.00     0.210 HD
ENDBRANCH 151 153
BRANCH 151 155
ATOM    155  CG2 THR d   1     -70.506  -1.940  33.158  0.00  0.00    -0.050 C 
ATOM    156  H59 THR d   1     -70.047  -1.356  33.969  0.00  0.00     0.031 H 
ATOM    157  H60 THR d   1     -70.433  -1.378  32.215  0.00  0.00     0.031 H 
ATOM    158  H61 THR d   1     -69.980  -2.900  33.054  0.00  0.00     0.031 H 
ENDBRANCH 151 155
ENDBRANCH  90 151
ENDBRANCH  88  90
ENDBRANCH   1  86
BRANCH   1 159
ATOM    159  CB  GLN d   1     -73.262  -1.778  27.941  0.00  0.00    -0.030 C 
ATOM    160  H49 GLN d   1     -72.998  -1.356  26.960  0.00  0.00     0.037 H 
ATOM    161  H50 GLN d   1     -73.981  -1.115  28.444  0.00  0.00     0.037 H 
BRANCH 159 162
ATOM    162  CG  GLN d   1     -73.948  -3.113  27.703  0.00  0.00     0.011 C 
ATOM    163  H51 GLN d   1     -73.179  -3.888  27.569  0.00  0.00     0.047 H 
ATOM    164  H52 GLN d   1     -74.559  -3.040  26.791  0.00  0.00     0.047 H 
BRANCH 162 165
ATOM    165  CD  GLN d   1     -74.843  -3.508  28.860  0.00  0.00     0.215 C 
ATOM    166  OE1 GLN d   1     -75.542  -2.666  29.434  0.00  0.00    -0.274 OA
ATOM    167  NE2 GLN d   1     -74.803  -4.789  29.233  0.00  0.00    -0.370 N 
ATOM    168  H53 GLN d   1     -75.373  -5.107  29.991  0.00  0.00     0.159 HD
ATOM    169  H54 GLN d   1     -74.204  -5.431  28.755  0.00  0.00     0.159 HD
ENDBRANCH 162 165
ENDBRANCH 159 162
ENDBRANCH   1 159
TORSDOF 50
