REMARK  6 active torsions:
REMARK  status: ('A' for Active; 'I' for Inactive)
REMARK    1  A    between atoms: CAU_6  and  CAB_7 
REMARK    2  A    between atoms: CAB_7  and  PAA_8 
REMARK    3  A    between atoms: CAJ_19  and  N1_20 
REMARK    4  A    between atoms: C5_27  and  CAR_28 
REMARK    5  A    between atoms: CAR_28  and  CAS_29 
REMARK    6  A    between atoms: CAS_29  and  PBD_30 
ROOT
ATOM      1  CAB 2O2 d   1      -6.360   1.913  -4.444  0.00  0.00     0.312 C 
ATOM      2  OAH 2O2 d   1      -7.637   2.446  -3.748  0.00  0.00    -0.332 OA
ATOM      3  OAD 2O2 d   1      -5.877   3.064  -5.200  0.00  0.00    -0.338 OA
ATOM      4  CAC 2O2 d   1      -5.612   4.199  -4.332  0.00  0.00     0.050 C 
ATOM      5  CAE 2O2 d   1      -6.669   4.359  -3.237  0.00  0.00     0.087 C 
ATOM      6  OAF 2O2 d   1      -7.859   5.127  -3.856  0.00  0.00    -0.356 OA
ATOM      7  CAG 2O2 d   1      -7.320   3.168  -2.691  0.00  0.00     0.074 C 
ATOM      8  CAI 2O2 d   1      -8.670   3.851  -2.124  0.00  0.00     0.003 C 
ATOM      9  CAJ 2O2 d   1      -8.987   4.858  -3.037  0.00  0.00     0.116 C 
ATOM     10  H6  2O2 d   1      -5.596   5.114  -4.943  0.00  0.00     0.078 H 
ATOM     11  H7  2O2 d   1      -4.630   4.058  -3.857  0.00  0.00     0.078 H 
ATOM     12  H8  2O2 d   1      -6.215   4.925  -2.410  0.00  0.00     0.090 H 
ATOM     13  H9  2O2 d   1      -6.737   2.614  -1.940  0.00  0.00     0.087 H 
ATOM     14  H10 2O2 d   1      -8.495   4.278  -1.125  0.00  0.00     0.043 H 
ATOM     15  H11 2O2 d   1      -9.482   3.111  -2.070  0.00  0.00     0.043 H 
ATOM     16  H12 2O2 d   1      -9.290   5.761  -2.486  0.00  0.00     0.118 H 
ENDROOT
BRANCH   9  17
ATOM     17  N1  2O2 d   1     -10.044   4.462  -3.968  0.00  0.00    -0.281 N 
ATOM     18  C6  2O2 d   1      -9.691   3.931  -5.191  0.00  0.00     0.002 A 
ATOM     19  C5  2O2 d   1     -10.642   3.560  -6.092  0.00  0.00     0.048 A 
ATOM     20  H13 2O2 d   1      -8.638   3.807  -5.439  0.00  0.00     0.113 H 
ATOM     21  C4  2O2 d   1     -11.988   3.785  -5.780  0.00  0.00     0.261 A 
ATOM     22  N3  2O2 d   1     -12.329   4.390  -4.575  0.00  0.00    -0.275 N 
ATOM     23  O4  2O2 d   1     -12.936   3.487  -6.520  0.00  0.00    -0.267 OA
ATOM     24  C2  2O2 d   1     -11.333   4.732  -3.664  0.00  0.00     0.331 A 
ATOM     25  H14 2O2 d   1     -13.288   4.579  -4.363  0.00  0.00     0.173 HD
ATOM     26  O2  2O2 d   1     -11.652   5.249  -2.590  0.00  0.00    -0.246 OA
BRANCH  19  27
ATOM     27  CAR 2O2 d   1     -10.163   2.924  -7.241  0.00  0.00    -0.057 C 
ATOM     28  H15 2O2 d   1      -9.147   2.534  -7.286  0.00  0.00     0.085 H 
BRANCH  27  29
ATOM     29  CAS 2O2 d   1     -11.076   2.799  -8.386  0.00  0.00     0.018 C 
ATOM     30  H16 2O2 d   1     -12.079   3.218  -8.327  0.00  0.00     0.098 H 
BRANCH  29  31
ATOM     31  PBD 2O2 d   1     -10.617   2.073  -9.679  0.00  0.00     0.284 P 
ATOM     32  OBF 2O2 d   1     -11.055   0.704  -9.618  0.00  0.00    -0.636 OA
ATOM     33  OBG 2O2 d   1     -11.405   2.732 -10.725  0.00  0.00    -0.636 OA
ATOM     34  OBE 2O2 d   1      -9.194   2.313  -9.779  0.00  0.00    -0.636 OA
ENDBRANCH  29  31
ENDBRANCH  27  29
ENDBRANCH  19  27
ENDBRANCH   9  17
BRANCH   1  35
ATOM     35  CAU 2O2 d   1      -6.800   0.957  -5.362  0.00  0.00     0.018 A 
ATOM     36  CAV 2O2 d   1      -6.062   0.654  -6.501  0.00  0.00    -0.071 A 
ATOM     37  CAW 2O2 d   1      -6.513  -0.335  -7.390  0.00  0.00    -0.082 A 
ATOM     38  H1  2O2 d   1      -5.137   1.182  -6.703  0.00  0.00     0.084 H 
ATOM     39  CAX 2O2 d   1      -7.739  -0.992  -7.225  0.00  0.00    -0.083 A 
ATOM     40  H2  2O2 d   1      -5.889  -0.600  -8.236  0.00  0.00     0.083 H 
ATOM     41  CAY 2O2 d   1      -8.529  -0.654  -6.130  0.00  0.00    -0.082 A 
ATOM     42  H3  2O2 d   1      -8.065  -1.746  -7.933  0.00  0.00     0.083 H 
ATOM     43  CAZ 2O2 d   1      -8.043   0.328  -5.191  0.00  0.00    -0.071 A 
ATOM     44  H4  2O2 d   1      -9.496  -1.122  -5.985  0.00  0.00     0.083 H 
ATOM     45  H5  2O2 d   1      -8.653   0.586  -4.333  0.00  0.00     0.084 H 
ENDBRANCH   1  35
BRANCH   1  46
ATOM     46  PAA 2O2 d   1      -4.913   1.268  -3.380  0.00  0.00     0.330 P 
ATOM     47  OBB 2O2 d   1      -4.391   2.272  -2.481  0.00  0.00    -0.636 OA
ATOM     48  OBC 2O2 d   1      -5.510   0.169  -2.607  0.00  0.00    -0.636 OA
ATOM     49  OBA 2O2 d   1      -3.880   0.724  -4.396  0.00  0.00    -0.636 OA
ENDBRANCH   1  46
TORSDOF 6
