REMARK  5 active torsions:
REMARK  status: ('A' for Active; 'I' for Inactive)
REMARK    1  A    between atoms: CAU_6  and  CAB_7 
REMARK    2  A    between atoms: CAB_7  and  PAA_8 
REMARK    3  A    between atoms: CAJ_19  and  N1_20 
REMARK    4  A    between atoms: C5_27  and  CAR_28 
REMARK    5  A    between atoms: CAS_29  and  PBD_30 
ROOT
ATOM      1  CAB 2O2 d   1      -4.519  24.749  30.530  0.00  0.00     0.312 C 
ATOM      2  OAH 2O2 d   1      -4.971  25.355  29.311  0.00  0.00    -0.332 OA
ATOM      3  OAD 2O2 d   1      -3.359  25.407  30.966  0.00  0.00    -0.338 OA
ATOM      4  CAC 2O2 d   1      -3.473  26.855  31.048  0.00  0.00     0.050 C 
ATOM      5  CAE 2O2 d   1      -4.073  27.439  29.909  0.00  0.00     0.087 C 
ATOM      6  OAF 2O2 d   1      -3.082  27.593  28.895  0.00  0.00    -0.356 OA
ATOM      7  CAG 2O2 d   1      -5.172  26.750  29.280  0.00  0.00     0.074 C 
ATOM      8  CAI 2O2 d   1      -5.086  27.257  27.838  0.00  0.00     0.003 C 
ATOM      9  CAJ 2O2 d   1      -3.618  27.843  27.731  0.00  0.00     0.116 C 
ATOM     10  H6  2O2 d   1      -2.464  27.278  31.165  0.00  0.00     0.078 H 
ATOM     11  H7  2O2 d   1      -4.081  27.107  31.929  0.00  0.00     0.078 H 
ATOM     12  H8  2O2 d   1      -4.439  28.430  30.215  0.00  0.00     0.090 H 
ATOM     13  H9  2O2 d   1      -6.134  27.005  29.748  0.00  0.00     0.087 H 
ATOM     14  H10 2O2 d   1      -5.835  28.041  27.653  0.00  0.00     0.043 H 
ATOM     15  H11 2O2 d   1      -5.232  26.433  27.124  0.00  0.00     0.043 H 
ATOM     16  H12 2O2 d   1      -3.630  28.918  27.500  0.00  0.00     0.118 H 
ENDROOT
BRANCH   9  17
ATOM     17  N1  2O2 d   1      -2.824  27.089  26.720  0.00  0.00    -0.281 N 
ATOM     18  C6  2O2 d   1      -3.220  25.791  26.203  0.00  0.00     0.002 A 
ATOM     19  C5  2O2 d   1      -2.463  25.171  25.214  0.00  0.00     0.048 A 
ATOM     20  H13 2O2 d   1      -4.112  25.302  26.591  0.00  0.00     0.113 H 
ATOM     21  C4  2O2 d   1      -1.357  25.860  24.769  0.00  0.00     0.261 A 
ATOM     22  N3  2O2 d   1      -1.018  27.096  25.285  0.00  0.00    -0.275 N 
ATOM     23  O4  2O2 d   1      -0.644  25.440  23.872  0.00  0.00    -0.267 OA
ATOM     24  C2  2O2 d   1      -1.725  27.655  26.245  0.00  0.00     0.331 A 
ATOM     25  H14 2O2 d   1      -0.219  27.576  24.922  0.00  0.00     0.173 HD
ATOM     26  O2  2O2 d   1      -1.377  28.756  26.665  0.00  0.00    -0.246 OA
BRANCH  19  27
ATOM     27  CAR 2O2 d   1      -2.703  23.910  24.591  0.00  0.00    -0.057 C 
ATOM     28  CAS 2O2 d   1      -2.977  22.728  25.227  0.00  0.00     0.018 C 
ATOM     29  H16 2O2 d   1      -3.114  22.757  26.307  0.00  0.00     0.098 H 
ATOM     30  H15 2O2 d   1      -2.665  23.885  23.503  0.00  0.00     0.085 H 
BRANCH  28  31
ATOM     31  PBD 2O2 d   1      -3.121  21.203  24.447  0.00  0.00     0.284 P 
ATOM     32  OBF 2O2 d   1      -4.711  20.780  24.645  0.00  0.00    -0.636 OA
ATOM     33  OBG 2O2 d   1      -2.898  21.298  22.841  0.00  0.00    -0.636 OA
ATOM     34  OBE 2O2 d   1      -2.197  20.152  25.029  0.00  0.00    -0.636 OA
ENDBRANCH  28  31
ENDBRANCH  19  27
ENDBRANCH   9  17
BRANCH   1  35
ATOM     35  CAU 2O2 d   1      -4.170  23.303  30.131  0.00  0.00     0.018 A 
ATOM     36  CAV 2O2 d   1      -4.853  22.767  29.041  0.00  0.00    -0.071 A 
ATOM     37  CAW 2O2 d   1      -4.642  21.478  28.622  0.00  0.00    -0.082 A 
ATOM     38  H1  2O2 d   1      -5.569  23.384  28.511  0.00  0.00     0.084 H 
ATOM     39  CAX 2O2 d   1      -3.697  20.723  29.296  0.00  0.00    -0.083 A 
ATOM     40  H2  2O2 d   1      -5.198  21.063  27.789  0.00  0.00     0.083 H 
ATOM     41  CAY 2O2 d   1      -2.981  21.227  30.376  0.00  0.00    -0.082 A 
ATOM     42  H3  2O2 d   1      -3.509  19.706  28.971  0.00  0.00     0.083 H 
ATOM     43  CAZ 2O2 d   1      -3.207  22.540  30.809  0.00  0.00    -0.071 A 
ATOM     44  H4  2O2 d   1      -2.250  20.606  30.881  0.00  0.00     0.083 H 
ATOM     45  H5  2O2 d   1      -2.654  22.955  31.644  0.00  0.00     0.084 H 
ENDBRANCH   1  35
BRANCH   1  46
ATOM     46  PAA 2O2 d   1      -5.818  24.692  31.876  0.00  0.00     0.330 P 
ATOM     47  OBB 2O2 d   1      -5.031  24.127  33.099  0.00  0.00    -0.636 OA
ATOM     48  OBC 2O2 d   1      -6.433  26.147  32.090  0.00  0.00    -0.636 OA
ATOM     49  OBA 2O2 d   1      -6.871  23.681  31.561  0.00  0.00    -0.636 OA
ENDBRANCH   1  46
TORSDOF 5
