REMARK WARNING: 32 MAX_TORS EXCEEDED!!!
REMARK  43 active torsions:
REMARK  status: ('A' for Active; 'I' for Inactive)
REMARK    1  A    between atoms: N_1  and  CA_2 
REMARK    2  A    between atoms: CA_2  and  C_3 
REMARK    3  A    between atoms: CA_2  and  CB_5 
REMARK       I    between atoms: C_3  and  N_9 
REMARK    4  A    between atoms: CB_5  and  CG_6 
REMARK    5  A    between atoms: CG_6  and  CD1_7 
REMARK    6  A    between atoms: CG_6  and  CD2_8 
REMARK    7  A    between atoms: N_9  and  CA_10 
REMARK    8  A    between atoms: CA_10  and  C_11 
REMARK    9  A    between atoms: CA_10  and  CB_13 
REMARK       I    between atoms: C_11  and  N_16 
REMARK   10  A    between atoms: CB_13  and  OG1_14 
REMARK   11  A    between atoms: CB_13  and  CG2_15 
REMARK   12  A    between atoms: N_16  and  CA_17 
REMARK   13  A    between atoms: CA_17  and  C_18 
REMARK       I    between atoms: C_18  and  N_20 
REMARK   14  A    between atoms: N_20  and  CA_21 
REMARK   15  A    between atoms: CA_21  and  C_22 
REMARK   16  A    between atoms: CA_21  and  CB_24 
REMARK       I    between atoms: C_22  and  N_26 
REMARK   17  A    between atoms: CB_24  and  SG_25 
REMARK   18  A    between atoms: N_26  and  CA_27 
REMARK   19  A    between atoms: CA_27  and  C_28 
REMARK       I    between atoms: C_28  and  N_30 
REMARK   20  A    between atoms: N_30  and  CA_31 
REMARK   21  A    between atoms: CA_31  and  C_32 
REMARK   22  A    between atoms: CA_31  and  CB_34 
REMARK       I    between atoms: C_32  and  N_38 
REMARK   23  A    between atoms: CB_34  and  CG_35 
REMARK   24  A    between atoms: N_38  and  CA_39 
REMARK   25  A    between atoms: CA_39  and  C_40 
REMARK   26  A    between atoms: CA_39  and  CB_42 
REMARK       I    between atoms: C_40  and  N_46 
REMARK   27  A    between atoms: CB_42  and  CG1_43 
REMARK   28  A    between atoms: CB_42  and  CG2_44 
REMARK   29  A    between atoms: CG1_43  and  CD1_45 
REMARK   30  A    between atoms: N_46  and  CA_47 
REMARK   31  A    between atoms: CA_47  and  C_48 
REMARK   32  A    between atoms: CA_47  and  CB_50 
REMARK       I    between atoms: C_48  and  N_54 
REMARK   33  A    between atoms: CB_50  and  CG1_51 
REMARK   34  A    between atoms: CB_50  and  CG2_52 
REMARK   35  A    between atoms: CG1_51  and  CD1_53 
REMARK   36  A    between atoms: N_54  and  CA_55 
REMARK   37  A    between atoms: CA_55  and  C_56 
REMARK   38  A    between atoms: CA_55  and  CB_58 
REMARK       I    between atoms: C_56  and  N_59 
REMARK   39  A    between atoms: N_59  and  CA_60 
REMARK   40  A    between atoms: CA_60  and  C_61 
REMARK   41  A    between atoms: CA_60  and  CB_63 
REMARK   42  A    between atoms: CB_63  and  CG_64 
REMARK   43  A    between atoms: CG_64  and  CD_65 
ROOT
ATOM      1  CA  ASP d   1     -15.517 -12.307  15.560  0.00  0.00     0.098 C 
ATOM      2  H33 ASP d   1     -14.720 -11.665  15.963  0.00  0.00     0.088 H 
ENDROOT
BRANCH   1   3
ATOM      3  N   ASP d   1     -15.632 -12.062  14.118  0.00  0.00    -0.346 N 
ATOM      4  C   GLY d   1     -14.660 -11.549  13.360  0.00  0.00     0.236 C 
ATOM      5  O   GLY d   1     -13.538 -11.232  13.786  0.00  0.00    -0.272 OA
ATOM      6  H32 ASP d   1     -16.497 -12.295  13.673  0.00  0.00     0.163 HD
BRANCH   4   7
ATOM      7  CA  GLY d   1     -15.014 -11.357  11.895  0.00  0.00     0.069 C 
ATOM      8  H30 GLY d   1     -15.645 -12.199  11.576  0.00  0.00     0.078 H 
ATOM      9  H31 GLY d   1     -15.577 -10.418  11.793  0.00  0.00     0.078 H 
BRANCH   7  10
ATOM     10  N   GLY d   1     -13.844 -11.295  11.016  0.00  0.00    -0.351 N 
ATOM     11  C   CYS d   1     -13.123 -12.385  10.791  0.00  0.00     0.241 C 
ATOM     12  O   CYS d   1     -13.330 -13.447  11.385  0.00  0.00    -0.271 OA
ATOM     13  H29 GLY d   1     -13.589 -10.430  10.585  0.00  0.00     0.163 HD
BRANCH  11  14
ATOM     14  CA  CYS d   1     -12.020 -12.293   9.730  0.00  0.00     0.097 C 
ATOM     15  H25 CYS d   1     -12.400 -12.801   8.831  0.00  0.00     0.088 H 
BRANCH  14  16
ATOM     16  N   CYS d   1     -11.670 -10.927   9.325  0.00  0.00    -0.346 N 
ATOM     17  C   GLY d   1     -11.600 -10.584   8.039  0.00  0.00     0.236 C 
ATOM     18  O   GLY d   1     -11.879 -11.361   7.121  0.00  0.00    -0.272 OA
ATOM     19  H24 CYS d   1     -11.480 -10.241  10.027  0.00  0.00     0.163 HD
BRANCH  17  20
ATOM     20  CA  GLY d   1     -11.157  -9.169   7.725  0.00  0.00     0.069 C 
ATOM     21  H22 GLY d   1     -11.879  -8.453   8.144  0.00  0.00     0.078 H 
ATOM     22  H23 GLY d   1     -10.164  -8.986   8.161  0.00  0.00     0.078 H 
BRANCH  20  23
ATOM     23  N   GLY d   1     -11.094  -9.012   6.275  0.00  0.00    -0.350 N 
ATOM     24  C   THR d   1     -10.409  -8.042   5.677  0.00  0.00     0.243 C 
ATOM     25  O   THR d   1      -9.834  -7.147   6.300  0.00  0.00    -0.271 OA
ATOM     26  H21 GLY d   1     -11.590  -9.666   5.704  0.00  0.00     0.163 HD
BRANCH  24  27
ATOM     27  CA  THR d   1     -10.410  -8.062   4.141  0.00  0.00     0.113 C 
ATOM     28  H15 THR d   1     -11.453  -8.190   3.816  0.00  0.00     0.091 H 
BRANCH  27  29
ATOM     29  N   THR d   1      -9.934  -6.801   3.589  0.00  0.00    -0.344 N 
ATOM     30  C   LEU d   1     -10.736  -5.951   2.956  0.00  0.00     0.249 C 
ATOM     31  O   LEU d   1     -11.945  -6.149   2.799  0.00  0.00    -0.271 OA
ATOM     32  H14 THR d   1      -8.967  -6.566   3.690  0.00  0.00     0.163 HD
BRANCH  30  33
ATOM     33  CA  LEU d   1     -10.066  -4.681   2.424  0.00  0.00     0.176 C 
ATOM     34  H4  LEU d   1      -9.057  -4.948   2.076  0.00  0.00     0.099 H 
BRANCH  33  35
ATOM     35  N   LEU d   1     -10.810  -4.097   1.265  0.00  0.00    -0.066 N 
ATOM     36  H1  LEU d   1     -10.337  -3.266   0.947  0.00  0.00     0.275 HD
ATOM     37  H2  LEU d   1     -11.747  -3.861   1.552  0.00  0.00     0.275 HD
ATOM     38  H3  LEU d   1     -10.847  -4.770   0.516  0.00  0.00     0.275 HD
ENDBRANCH  33  35
BRANCH  33  39
ATOM     39  CB  LEU d   1      -9.929  -3.657   3.555  0.00  0.00    -0.028 C 
ATOM     40  H5  LEU d   1      -9.275  -4.109   4.316  0.00  0.00     0.037 H 
ATOM     41  H6  LEU d   1     -10.935  -3.512   3.975  0.00  0.00     0.037 H 
BRANCH  39  42
ATOM     42  CG  LEU d   1      -9.368  -2.266   3.262  0.00  0.00    -0.059 C 
ATOM     43  H7  LEU d   1      -9.842  -1.894   2.341  0.00  0.00     0.038 H 
BRANCH  42  44
ATOM     44  CD1 LEU d   1      -9.736  -1.341   4.398  0.00  0.00    -0.073 C 
ATOM     45  H8  LEU d   1      -9.336  -0.336   4.197  0.00  0.00     0.028 H 
ATOM     46  H9  LEU d   1      -9.308  -1.724   5.336  0.00  0.00     0.028 H 
ATOM     47  H10 LEU d   1     -10.831  -1.289   4.488  0.00  0.00     0.028 H 
ENDBRANCH  42  44
BRANCH  42  48
ATOM     48  CD2 LEU d   1      -7.857  -2.271   3.038  0.00  0.00    -0.073 C 
ATOM     49  H11 LEU d   1      -7.612  -2.950   2.208  0.00  0.00     0.028 H 
ATOM     50  H12 LEU d   1      -7.352  -2.613   3.953  0.00  0.00     0.028 H 
ATOM     51  H13 LEU d   1      -7.519  -1.254   2.792  0.00  0.00     0.028 H 
ENDBRANCH  42  48
ENDBRANCH  39  42
ENDBRANCH  33  39
ENDBRANCH  30  33
ENDBRANCH  27  29
BRANCH  27  52
ATOM     52  CB  THR d   1      -9.597  -9.271   3.581  0.00  0.00     0.060 C 
ATOM     53  H16 THR d   1      -9.944 -10.193   4.070  0.00  0.00     0.086 H 
BRANCH  52  54
ATOM     54  OG1 THR d   1      -8.202  -9.088   3.854  0.00  0.00    -0.393 OA
ATOM     55  H17 THR d   1      -7.714  -9.827   3.511  0.00  0.00     0.210 HD
ENDBRANCH  52  54
BRANCH  52  56
ATOM     56  CG2 THR d   1      -9.802  -9.399   2.059  0.00  0.00    -0.050 C 
ATOM     57  H18 THR d   1      -9.223 -10.255   1.682  0.00  0.00     0.031 H 
ATOM     58  H19 THR d   1      -9.460  -8.478   1.564  0.00  0.00     0.031 H 
ATOM     59  H20 THR d   1     -10.870  -9.556   1.845  0.00  0.00     0.031 H 
ENDBRANCH  52  56
ENDBRANCH  27  52
ENDBRANCH  24  27
ENDBRANCH  20  23
ENDBRANCH  17  20
ENDBRANCH  14  16
BRANCH  14  60
ATOM     60  CB  CYS d   1     -10.777 -13.056  10.204  0.00  0.00     0.001 C 
ATOM     61  H26 CYS d   1     -10.062 -13.115   9.370  0.00  0.00     0.052 H 
ATOM     62  H27 CYS d   1     -11.080 -14.071  10.500  0.00  0.00     0.052 H 
BRANCH  60  63
ATOM     63  SG  CYS d   1      -9.957 -12.264  11.612  0.00  0.00    -0.180 SA
ATOM     64  H28 CYS d   1      -9.151 -12.807  11.879  0.00  0.00     0.101 HD
ENDBRANCH  60  63
ENDBRANCH  14  60
ENDBRANCH  11  14
ENDBRANCH   7  10
ENDBRANCH   4   7
ENDBRANCH   1   3
BRANCH   1  65
ATOM     65  C   ASP d   1     -15.184 -13.767  15.847  0.00  0.00     0.241 C 
ATOM     66  O   ASP d   1     -15.370 -14.646  14.991  0.00  0.00    -0.271 OA
ATOM     67  N   ILE d   1     -14.740 -14.025  17.072  0.00  0.00    -0.346 N 
ATOM     68  H36 ILE d   1     -14.598 -13.270  17.712  0.00  0.00     0.163 HD
BRANCH  67  69
ATOM     69  CA  ILE d   1     -14.455 -15.390  17.501  0.00  0.00     0.092 C 
ATOM     70  H37 ILE d   1     -14.992 -16.067  16.821  0.00  0.00     0.088 H 
BRANCH  69  71
ATOM     71  C   ILE d   1     -14.974 -15.645  18.911  0.00  0.00     0.241 C 
ATOM     72  O   ILE d   1     -15.070 -14.728  19.724  0.00  0.00    -0.271 OA
ATOM     73  N   ILE d   1     -15.335 -16.899  19.169  0.00  0.00    -0.346 N 
ATOM     74  H47 ILE d   1     -15.363 -17.552  18.412  0.00  0.00     0.163 HD
BRANCH  73  75
ATOM     75  CA  ILE d   1     -15.692 -17.366  20.506  0.00  0.00     0.092 C 
ATOM     76  H48 ILE d   1     -16.158 -16.548  21.075  0.00  0.00     0.088 H 
BRANCH  75  77
ATOM     77  C   ILE d   1     -14.386 -17.769  21.188  0.00  0.00     0.241 C 
ATOM     78  O   ILE d   1     -13.406 -18.075  20.505  0.00  0.00    -0.271 OA
ATOM     79  N   ALA d   1     -14.371 -17.754  22.521  0.00  0.00    -0.346 N 
ATOM     80  H58 ALA d   1     -15.210 -17.512  23.009  0.00  0.00     0.163 HD
BRANCH  79  81
ATOM     81  CA  ALA d   1     -13.175 -18.078  23.296  0.00  0.00     0.086 C 
ATOM     82  H59 ALA d   1     -12.372 -17.395  22.982  0.00  0.00     0.086 H 
BRANCH  81  83
ATOM     83  C   ALA d   1     -12.698 -19.512  23.059  0.00  0.00     0.240 C 
ATOM     84  O   ALA d   1     -13.496 -20.397  22.722  0.00  0.00    -0.271 OA
ATOM     85  N   GLU d   1     -11.391 -19.713  23.257  0.00  0.00    -0.345 N 
ATOM     86  H63 GLU d   1     -10.814 -18.909  23.399  0.00  0.00     0.163 HD
BRANCH  85  87
ATOM     87  CA  GLU d   1     -10.741 -21.033  23.281  0.00  0.00     0.097 C 
ATOM     88  H64 GLU d   1      -9.715 -20.880  23.648  0.00  0.00     0.089 H 
BRANCH  87  89
ATOM     89  C   GLU d   1     -10.629 -21.637  21.892  0.00  0.00     0.196 C 
ATOM     90  O   GLU d   1      -9.651 -21.388  21.191  0.00  0.00    -0.646 OA
ATOM     91  OXT GLU d   1     -11.516 -22.375  21.470  0.00  0.00    -0.646 OA
ENDBRANCH  87  89
BRANCH  87  92
ATOM     92  CB  GLU d   1     -11.434 -21.988  24.268  0.00  0.00    -0.028 C 
ATOM     93  H65 GLU d   1     -12.509 -21.989  24.036  0.00  0.00     0.037 H 
ATOM     94  H66 GLU d   1     -11.279 -21.593  25.283  0.00  0.00     0.037 H 
BRANCH  92  95
ATOM     95  CG  GLU d   1     -10.950 -23.441  24.252  0.00  0.00     0.018 C 
ATOM     96  H67 GLU d   1     -10.880 -23.773  23.206  0.00  0.00     0.049 H 
ATOM     97  H68 GLU d   1     -11.687 -24.059  24.785  0.00  0.00     0.049 H 
BRANCH  95  98
ATOM     98  CD  GLU d   1      -9.589 -23.636  24.912  0.00  0.00     0.172 C 
ATOM     99  OE1 GLU d   1      -8.575 -23.134  24.375  0.00  0.00    -0.648 OA
ATOM    100  OE2 GLU d   1      -9.531 -24.311  25.959  0.00  0.00    -0.648 OA
ENDBRANCH  95  98
ENDBRANCH  92  95
ENDBRANCH  87  92
ENDBRANCH  85  87
ENDBRANCH  81  83
BRANCH  81 101
ATOM    101  CB  ALA d   1     -13.442 -17.862  24.791  0.00  0.00    -0.049 C 
ATOM    102  H60 ALA d   1     -12.536 -18.108  25.365  0.00  0.00     0.030 H 
ATOM    103  H61 ALA d   1     -14.268 -18.512  25.114  0.00  0.00     0.030 H 
ATOM    104  H62 ALA d   1     -13.713 -16.810  24.967  0.00  0.00     0.030 H 
ENDBRANCH  81 101
ENDBRANCH  79  81
ENDBRANCH  75  77
BRANCH  75 105
ATOM    105  CB  ILE d   1     -16.715 -18.539  20.400  0.00  0.00    -0.030 C 
ATOM    106  H49 ILE d   1     -16.403 -19.178  19.561  0.00  0.00     0.043 H 
BRANCH 105 107
ATOM    107  CG1 ILE d   1     -18.118 -17.995  20.092  0.00  0.00    -0.063 C 
ATOM    108  H50 ILE d   1     -18.729 -18.826  19.708  0.00  0.00     0.033 H 
ATOM    109  H51 ILE d   1     -18.021 -17.222  19.316  0.00  0.00     0.033 H 
BRANCH 107 110
ATOM    110  CD1 ILE d   1     -18.861 -17.371  21.300  0.00  0.00    -0.076 C 
ATOM    111  H55 ILE d   1     -19.850 -17.013  20.977  0.00  0.00     0.027 H 
ATOM    112  H56 ILE d   1     -18.276 -16.526  21.694  0.00  0.00     0.027 H 
ATOM    113  H57 ILE d   1     -18.984 -18.130  22.087  0.00  0.00     0.027 H 
ENDBRANCH 107 110
ENDBRANCH 105 107
BRANCH 105 114
ATOM    114  CG2 ILE d   1     -16.755 -19.410  21.656  0.00  0.00    -0.071 C 
ATOM    115  H52 ILE d   1     -15.746 -19.794  21.868  0.00  0.00     0.028 H 
ATOM    116  H53 ILE d   1     -17.443 -20.253  21.496  0.00  0.00     0.028 H 
ATOM    117  H54 ILE d   1     -17.105 -18.809  22.508  0.00  0.00     0.028 H 
ENDBRANCH 105 114
ENDBRANCH  75 105
ENDBRANCH  73  75
ENDBRANCH  69  71
BRANCH  69 118
ATOM    118  CB  ILE d   1     -12.940 -15.731  17.398  0.00  0.00    -0.030 C 
ATOM    119  H38 ILE d   1     -12.568 -15.304  16.455  0.00  0.00     0.043 H 
BRANCH 118 120
ATOM    120  CG1 ILE d   1     -12.741 -17.257  17.312  0.00  0.00    -0.063 C 
ATOM    121  H39 ILE d   1     -13.385 -17.638  16.506  0.00  0.00     0.033 H 
ATOM    122  H40 ILE d   1     -13.055 -17.695  18.271  0.00  0.00     0.033 H 
BRANCH 120 123
ATOM    123  CD1 ILE d   1     -11.321 -17.714  17.032  0.00  0.00    -0.076 C 
ATOM    124  H44 ILE d   1     -11.291 -18.813  16.991  0.00  0.00     0.027 H 
ATOM    125  H45 ILE d   1     -10.657 -17.358  17.833  0.00  0.00     0.027 H 
ATOM    126  H46 ILE d   1     -10.986 -17.302  16.069  0.00  0.00     0.027 H 
ENDBRANCH 120 123
ENDBRANCH 118 120
BRANCH 118 127
ATOM    127  CG2 ILE d   1     -12.128 -15.056  18.554  0.00  0.00    -0.071 C 
ATOM    128  H41 ILE d   1     -12.319 -13.973  18.553  0.00  0.00     0.028 H 
ATOM    129  H42 ILE d   1     -11.054 -15.239  18.403  0.00  0.00     0.028 H 
ATOM    130  H43 ILE d   1     -12.440 -15.482  19.519  0.00  0.00     0.028 H 
ENDBRANCH 118 127
ENDBRANCH  69 118
ENDBRANCH  67  69
ENDBRANCH   1  65
BRANCH   1 131
ATOM    131  CB  ASP d   1     -16.842 -11.989  16.277  0.00  0.00     0.043 C 
ATOM    132  H34 ASP d   1     -16.765 -12.330  17.320  0.00  0.00     0.052 H 
ATOM    133  H35 ASP d   1     -17.652 -12.535  15.771  0.00  0.00     0.052 H 
BRANCH 131 134
ATOM    134  CG  ASP d   1     -17.186 -10.516  16.279  0.00  0.00     0.175 C 
ATOM    135  OD1 ASP d   1     -16.257  -9.674  16.264  0.00  0.00    -0.648 OA
ATOM    136  OD2 ASP d   1     -18.406 -10.197  16.314  0.00  0.00    -0.648 OA
ENDBRANCH 131 134
ENDBRANCH   1 131
TORSDOF 43
