REMARK WARNING: 32 MAX_TORS EXCEEDED!!!
REMARK  53 active torsions:
REMARK  status: ('A' for Active; 'I' for Inactive)
REMARK    1  A    between atoms: CA_2  and  C_3 
REMARK       I    between atoms: C_3  and  N_8 
REMARK    2  A    between atoms: N_8  and  CA_9 
REMARK    3  A    between atoms: CA_9  and  C_10 
REMARK    4  A    between atoms: CA_9  and  CB_12 
REMARK       I    between atoms: C_10  and  N_19 
REMARK    5  A    between atoms: CB_12  and  CG_13 
REMARK    6  A    between atoms: CG_13  and  CD_14 
REMARK    7  A    between atoms: CD_14  and  NE_15 
REMARK       I    between atoms: NE_15  and  CZ_16 
REMARK       I    between atoms: CZ_16  and  NH1_17 
REMARK    8  A    between atoms: N_19  and  CA_20 
REMARK    9  A    between atoms: CA_20  and  C_21 
REMARK   10  A    between atoms: CA_20  and  CB_23 
REMARK       I    between atoms: C_21  and  N_27 
REMARK   11  A    between atoms: CB_23  and  CG_24 
REMARK   12  A    between atoms: N_27  and  CA_28 
REMARK   13  A    between atoms: CA_28  and  C_29 
REMARK   14  A    between atoms: CA_28  and  CB_31 
REMARK       I    between atoms: C_29  and  N_33 
REMARK   15  A    between atoms: CB_31  and  OG_32 
REMARK   16  A    between atoms: N_33  and  CA_34 
REMARK   17  A    between atoms: CA_34  and  C_35 
REMARK   18  A    between atoms: CA_34  and  CB_37 
REMARK       I    between atoms: C_35  and  N_45 
REMARK   19  A    between atoms: CB_37  and  CG_38 
REMARK   20  A    between atoms: CZ_43  and  OH_44 
REMARK   21  A    between atoms: N_45  and  CA_46 
REMARK   22  A    between atoms: CA_46  and  C_47 
REMARK   23  A    between atoms: CA_46  and  CB_49 
REMARK       I    between atoms: C_47  and  N_51 
REMARK   24  A    between atoms: CB_49  and  OG_50 
REMARK   25  A    between atoms: N_51  and  CA_52 
REMARK   26  A    between atoms: CA_52  and  C_53 
REMARK       I    between atoms: C_53  and  N_55 
REMARK   27  A    between atoms: N_55  and  CA_56 
REMARK   28  A    between atoms: CA_56  and  C_57 
REMARK   29  A    between atoms: CA_56  and  CB_59 
REMARK       I    between atoms: C_57  and  N_63 
REMARK   30  A    between atoms: CB_59  and  CG_60 
REMARK   31  A    between atoms: N_63  and  CA_64 
REMARK   32  A    between atoms: CA_64  and  C_65 
REMARK   33  A    between atoms: CA_64  and  CB_67 
REMARK       I    between atoms: C_65  and  N_68 
REMARK   34  A    between atoms: N_68  and  CA_69 
REMARK   35  A    between atoms: CA_69  and  C_70 
REMARK   36  A    between atoms: CA_69  and  CB_72 
REMARK       I    between atoms: C_70  and  N_76 
REMARK   37  A    between atoms: CB_72  and  CG_73 
REMARK   38  A    between atoms: CG_73  and  CD1_74 
REMARK   39  A    between atoms: CG_73  and  CD2_75 
REMARK   40  A    between atoms: N_76  and  CA_77 
REMARK   41  A    between atoms: CA_77  and  C_78 
REMARK   42  A    between atoms: CA_77  and  CB_80 
REMARK       I    between atoms: C_78  and  N_88 
REMARK   43  A    between atoms: CB_80  and  CG_81 
REMARK   44  A    between atoms: CZ_86  and  OH_87 
REMARK   45  A    between atoms: N_88  and  CA_89 
REMARK   46  A    between atoms: CA_89  and  C_90 
REMARK   47  A    between atoms: CA_89  and  CB_92 
REMARK       I    between atoms: C_90  and  N_97 
REMARK   48  A    between atoms: CB_92  and  CG_93 
REMARK   49  A    between atoms: CG_93  and  CD_94 
REMARK   50  A    between atoms: N_97  and  CA_98 
REMARK   51  A    between atoms: CA_98  and  C_99 
REMARK   52  A    between atoms: CA_98  and  CB_101 
REMARK   53  A    between atoms: CB_101  and  CG_102 
ROOT
ATOM      1  CA  GLY d   1      11.361 -12.703 -14.102  0.00  0.00     0.069 C 
ATOM      2  H47 GLY d   1      11.086 -13.261 -13.195  0.00  0.00     0.078 H 
ATOM      3  H48 GLY d   1      10.453 -12.467 -14.676  0.00  0.00     0.078 H 
ENDROOT
BRANCH   1   4
ATOM      4  N   GLY d   1      12.245 -13.538 -14.928  0.00  0.00    -0.350 N 
ATOM      5  C   SER d   1      13.216 -14.265 -14.379  0.00  0.00     0.242 C 
ATOM      6  O   SER d   1      13.420 -14.298 -13.168  0.00  0.00    -0.271 OA
ATOM      7  H46 GLY d   1      12.115 -13.560 -15.919  0.00  0.00     0.163 HD
BRANCH   5   8
ATOM      8  CA  SER d   1      14.113 -15.062 -15.329  0.00  0.00     0.109 C 
ATOM      9  H42 SER d   1      14.215 -16.079 -14.923  0.00  0.00     0.090 H 
BRANCH   8  10
ATOM     10  N   SER d   1      13.531 -15.178 -16.661  0.00  0.00    -0.344 N 
ATOM     11  C   TYR d   1      12.740 -16.200 -16.977  0.00  0.00     0.241 C 
ATOM     12  O   TYR d   1      12.576 -17.177 -16.245  0.00  0.00    -0.271 OA
ATOM     13  H41 SER d   1      13.729 -14.479 -17.348  0.00  0.00     0.163 HD
BRANCH  11  14
ATOM     14  CA  TYR d   1      12.011 -16.103 -18.305  0.00  0.00     0.093 C 
ATOM     15  H33 TYR d   1      12.659 -15.615 -19.048  0.00  0.00     0.088 H 
BRANCH  14  16
ATOM     16  N   TYR d   1      11.661 -17.446 -18.777  0.00  0.00    -0.346 N 
ATOM     17  C   SER d   1      11.722 -17.800 -20.056  0.00  0.00     0.243 C 
ATOM     18  O   SER d   1      12.227 -17.090 -20.930  0.00  0.00    -0.271 OA
ATOM     19  H32 TYR d   1      11.363 -18.126 -18.107  0.00  0.00     0.163 HD
BRANCH  17  20
ATOM     20  CA  SER d   1      11.117 -19.170 -20.407  0.00  0.00     0.109 C 
ATOM     21  H28 SER d   1      10.091 -19.203 -20.013  0.00  0.00     0.090 H 
BRANCH  20  22
ATOM     22  N   SER d   1      11.057 -19.330 -21.854  0.00  0.00    -0.344 N 
ATOM     23  C   ASP d   1       9.909 -19.201 -22.509  0.00  0.00     0.241 C 
ATOM     24  O   ASP d   1       8.821 -19.121 -21.941  0.00  0.00    -0.271 OA
ATOM     25  H27 SER d   1      11.893 -19.540 -22.361  0.00  0.00     0.163 HD
BRANCH  23  26
ATOM     26  CA  ASP d   1       9.991 -19.187 -24.034  0.00  0.00     0.098 C 
ATOM     27  H24 ASP d   1      10.839 -19.811 -24.353  0.00  0.00     0.088 H 
BRANCH  26  28
ATOM     28  N   ASP d   1       8.772 -19.728 -24.588  0.00  0.00    -0.346 N 
ATOM     29  C   ARG d   1       8.439 -21.002 -24.432  0.00  0.00     0.241 C 
ATOM     30  O   ARG d   1       9.221 -21.850 -24.000  0.00  0.00    -0.271 OA
ATOM     31  H23 ASP d   1       8.162 -19.125 -25.103  0.00  0.00     0.163 HD
BRANCH  29  32
ATOM     32  CA  ARG d   1       7.019 -21.382 -24.838  0.00  0.00     0.089 C 
ATOM     33  H11 ARG d   1       6.629 -20.647 -25.558  0.00  0.00     0.087 H 
BRANCH  32  34
ATOM     34  N   ARG d   1       7.062 -22.695 -25.472  0.00  0.00    -0.346 N 
ATOM     35  C   PRO d   1       7.727 -22.897 -26.609  0.00  0.00     0.249 C 
ATOM     36  O   PRO d   1       8.176 -21.982 -27.302  0.00  0.00    -0.271 OA
ATOM     37  H10 ARG d   1       6.582 -23.461 -25.044  0.00  0.00     0.163 HD
BRANCH  35  38
ATOM     38  CA  PRO d   1       7.918 -24.346 -27.056  0.00  0.00     0.178 C 
ATOM     39  N   PRO d   1       8.223 -24.435 -28.481  0.00  0.00    -0.062 N 
ATOM     40  CD  PRO d   1       9.221 -25.477 -28.761  0.00  0.00     0.083 C 
ATOM     41  H1  PRO d   1       8.582 -23.547 -28.794  0.00  0.00     0.278 HD
ATOM     42  H2  PRO d   1       7.376 -24.651 -28.983  0.00  0.00     0.278 HD
ATOM     43  CG  PRO d   1      10.061 -25.451 -27.527  0.00  0.00    -0.040 C 
ATOM     44  H8  PRO d   1       9.815 -25.230 -29.653  0.00  0.00     0.075 H 
ATOM     45  H9  PRO d   1       8.744 -26.459 -28.898  0.00  0.00     0.075 H 
ATOM     46  CB  PRO d   1       9.172 -24.929 -26.390  0.00  0.00    -0.028 C 
ATOM     47  H6  PRO d   1      10.419 -26.464 -27.292  0.00  0.00     0.035 H 
ATOM     48  H7  PRO d   1      10.922 -24.782 -27.671  0.00  0.00     0.035 H 
ATOM     49  H4  PRO d   1       8.896 -25.752 -25.714  0.00  0.00     0.036 H 
ATOM     50  H5  PRO d   1       9.699 -24.148 -25.822  0.00  0.00     0.036 H 
ATOM     51  H3  PRO d   1       7.021 -24.933 -26.808  0.00  0.00     0.099 H 
ENDBRANCH  35  38
ENDBRANCH  32  34
BRANCH  32  52
ATOM     52  CB  ARG d   1       6.126 -21.376 -23.583  0.00  0.00    -0.036 C 
ATOM     53  H12 ARG d   1       6.393 -20.491 -22.987  0.00  0.00     0.036 H 
ATOM     54  H13 ARG d   1       6.351 -22.287 -23.009  0.00  0.00     0.036 H 
BRANCH  52  55
ATOM     55  CG  ARG d   1       4.609 -21.337 -23.822  0.00  0.00    -0.048 C 
ATOM     56  H14 ARG d   1       4.407 -20.784 -24.751  0.00  0.00     0.035 H 
ATOM     57  H15 ARG d   1       4.126 -20.824 -22.977  0.00  0.00     0.035 H 
BRANCH  55  58
ATOM     58  CD  ARG d   1       4.034 -22.738 -23.944  0.00  0.00     0.009 C 
ATOM     59  H16 ARG d   1       4.403 -23.339 -23.100  0.00  0.00     0.064 H 
ATOM     60  H17 ARG d   1       4.387 -23.177 -24.889  0.00  0.00     0.064 H 
BRANCH  58  61
ATOM     61  NE  ARG d   1       2.570 -22.778 -23.934  0.00  0.00    -0.227 N 
ATOM     62  CZ  ARG d   1       1.840 -23.337 -22.972  0.00  0.00     0.665 C 
ATOM     63  NH1 ARG d   1       2.425 -23.918 -21.932  0.00  0.00    -0.235 N 
ATOM     64  NH2 ARG d   1       0.521 -23.322 -23.049  0.00  0.00    -0.235 N 
ATOM     65  H19 ARG d   1       1.851 -24.348 -21.192  0.00  0.00     0.174 HD
ATOM     66  H20 ARG d   1       3.453 -23.939 -21.864  0.00  0.00     0.174 HD
ATOM     67  H21 ARG d   1       0.057 -22.874 -23.852  0.00  0.00     0.174 HD
ATOM     68  H22 ARG d   1      -0.043 -23.759 -22.306  0.00  0.00     0.174 HD
ATOM     69  H18 ARG d   1       2.072 -22.344 -24.724  0.00  0.00     0.177 HD
ENDBRANCH  58  61
ENDBRANCH  55  58
ENDBRANCH  52  55
ENDBRANCH  32  52
ENDBRANCH  29  32
ENDBRANCH  26  28
BRANCH  26  70
ATOM     70  CB  ASP d   1      10.208 -17.760 -24.541  0.00  0.00     0.043 C 
ATOM     71  H25 ASP d   1      11.050 -17.314 -23.991  0.00  0.00     0.052 H 
ATOM     72  H26 ASP d   1       9.296 -17.176 -24.351  0.00  0.00     0.052 H 
BRANCH  70  73
ATOM     73  CG  ASP d   1      10.518 -17.710 -26.030  0.00  0.00     0.175 C 
ATOM     74  OD1 ASP d   1      11.048 -18.704 -26.573  0.00  0.00    -0.648 OA
ATOM     75  OD2 ASP d   1      10.226 -16.678 -26.662  0.00  0.00    -0.648 OA
ENDBRANCH  70  73
ENDBRANCH  26  70
ENDBRANCH  23  26
ENDBRANCH  20  22
BRANCH  20  76
ATOM     76  CB  SER d   1      11.905 -20.312 -19.766  0.00  0.00     0.044 C 
ATOM     77  H29 SER d   1      11.394 -21.265 -19.968  0.00  0.00     0.077 H 
ATOM     78  H30 SER d   1      11.962 -20.149 -18.680  0.00  0.00     0.077 H 
BRANCH  76  79
ATOM     79  OG  SER d   1      13.212 -20.361 -20.300  0.00  0.00    -0.398 OA
ATOM     80  H31 SER d   1      13.692 -21.074 -19.895  0.00  0.00     0.209 HD
ENDBRANCH  76  79
ENDBRANCH  20  76
ENDBRANCH  17  20
ENDBRANCH  14  16
BRANCH  14  81
ATOM     81  CB  TYR d   1      10.742 -15.264 -18.100  0.00  0.00    -0.014 C 
ATOM     82  H34 TYR d   1      11.047 -14.256 -17.783  0.00  0.00     0.043 H 
ATOM     83  H35 TYR d   1      10.146 -15.734 -17.304  0.00  0.00     0.043 H 
BRANCH  81  84
ATOM     84  CG  TYR d   1       9.862 -15.126 -19.327  0.00  0.00    -0.056 A 
ATOM     85  CD1 TYR d   1       8.918 -16.096 -19.647  0.00  0.00    -0.074 A 
ATOM     86  CE1 TYR d   1       8.114 -15.974 -20.777  0.00  0.00    -0.051 A 
ATOM     87  H36 TYR d   1       8.806 -16.962 -19.005  0.00  0.00     0.084 H 
ATOM     88  CZ  TYR d   1       8.237 -14.861 -21.598  0.00  0.00     0.065 A 
ATOM     89  H38 TYR d   1       7.393 -16.747 -21.016  0.00  0.00     0.087 H 
ATOM     90  CE2 TYR d   1       9.153 -13.876 -21.297  0.00  0.00    -0.051 A 
ATOM     91  CD2 TYR d   1       9.967 -14.012 -20.165  0.00  0.00    -0.074 A 
ATOM     92  H39 TYR d   1       9.243 -13.002 -21.932  0.00  0.00     0.087 H 
ATOM     93  H37 TYR d   1      10.691 -13.239 -19.935  0.00  0.00     0.084 H 
BRANCH  88  94
ATOM     94  OH  TYR d   1       7.429 -14.738 -22.717  0.00  0.00    -0.361 OA
ATOM     95  H40 TYR d   1       6.859 -15.496 -22.780  0.00  0.00     0.217 HD
ENDBRANCH  88  94
ENDBRANCH  81  84
ENDBRANCH  14  81
ENDBRANCH  11  14
ENDBRANCH   8  10
BRANCH   8  96
ATOM     96  CB  SER d   1      15.510 -14.430 -15.374  0.00  0.00     0.044 C 
ATOM     97  H43 SER d   1      16.101 -14.931 -16.155  0.00  0.00     0.077 H 
ATOM     98  H44 SER d   1      15.996 -14.573 -14.398  0.00  0.00     0.077 H 
BRANCH  96  99
ATOM     99  OG  SER d   1      15.457 -13.042 -15.660  0.00  0.00    -0.398 OA
ATOM    100  H45 SER d   1      16.339 -12.690 -15.679  0.00  0.00     0.209 HD
ENDBRANCH  96  99
ENDBRANCH   8  96
ENDBRANCH   5   8
ENDBRANCH   1   4
BRANCH   1 101
ATOM    101  C   GLY d   1      12.043 -11.401 -13.695  0.00  0.00     0.236 C 
ATOM    102  O   GLY d   1      12.907 -10.891 -14.428  0.00  0.00    -0.272 OA
ATOM    103  N   ASP d   1      11.657 -10.867 -12.534  0.00  0.00    -0.346 N 
ATOM    104  H49 ASP d   1      10.933 -11.317 -12.012  0.00  0.00     0.163 HD
BRANCH 103 105
ATOM    105  CA  ASP d   1      12.260  -9.641 -11.998  0.00  0.00     0.098 C 
ATOM    106  H50 ASP d   1      13.229  -9.514 -12.503  0.00  0.00     0.088 H 
BRANCH 105 107
ATOM    107  C   ASP d   1      12.557  -9.756 -10.501  0.00  0.00     0.241 C 
ATOM    108  O   ASP d   1      12.177 -10.740  -9.873  0.00  0.00    -0.271 OA
ATOM    109  N   ALA d   1      13.255  -8.773  -9.931  0.00  0.00    -0.346 N 
ATOM    110  H53 ALA d   1      13.520  -7.975 -10.472  0.00  0.00     0.163 HD
BRANCH 109 111
ATOM    111  CA  ALA d   1      13.635  -8.854  -8.523  0.00  0.00     0.086 C 
ATOM    112  H54 ALA d   1      12.743  -9.165  -7.960  0.00  0.00     0.086 H 
BRANCH 111 113
ATOM    113  C   ALA d   1      14.089  -7.518  -7.960  0.00  0.00     0.240 C 
ATOM    114  O   ALA d   1      14.510  -6.631  -8.694  0.00  0.00    -0.271 OA
ATOM    115  N   LEU d   1      13.983  -7.391  -6.643  0.00  0.00    -0.346 N 
ATOM    116  H58 LEU d   1      13.405  -8.034  -6.139  0.00  0.00     0.163 HD
BRANCH 115 117
ATOM    117  CA  LEU d   1      14.683  -6.343  -5.907  0.00  0.00     0.089 C 
ATOM    118  H59 LEU d   1      14.379  -5.355  -6.283  0.00  0.00     0.087 H 
BRANCH 117 119
ATOM    119  C   LEU d   1      16.185  -6.544  -6.135  0.00  0.00     0.241 C 
ATOM    120  O   LEU d   1      16.622  -7.654  -6.468  0.00  0.00    -0.271 OA
ATOM    121  N   TYR d   1      16.967  -5.483  -5.976  0.00  0.00    -0.346 N 
ATOM    122  H69 TYR d   1      16.565  -4.609  -5.703  0.00  0.00     0.163 HD
BRANCH 121 123
ATOM    123  CA  TYR d   1      18.408  -5.578  -6.196  0.00  0.00     0.093 C 
ATOM    124  H70 TYR d   1      18.547  -5.933  -7.228  0.00  0.00     0.088 H 
BRANCH 123 125
ATOM    125  C   TYR d   1      19.090  -6.600  -5.276  0.00  0.00     0.241 C 
ATOM    126  O   TYR d   1      18.810  -6.663  -4.075  0.00  0.00    -0.271 OA
ATOM    127  N   GLU d   1      19.979  -7.399  -5.861  0.00  0.00    -0.346 N 
ATOM    128  H78 GLU d   1      20.028  -7.409  -6.860  0.00  0.00     0.163 HD
BRANCH 127 129
ATOM    129  CA  GLU d   1      20.890  -8.266  -5.106  0.00  0.00     0.090 C 
ATOM    130  H79 GLU d   1      20.938  -7.919  -4.063  0.00  0.00     0.087 H 
BRANCH 129 131
ATOM    131  C   GLU d   1      22.275  -8.195  -5.739  0.00  0.00     0.241 C 
ATOM    132  O   GLU d   1      22.381  -8.122  -6.968  0.00  0.00    -0.271 OA
ATOM    133  N   PHE d   1      23.334  -8.213  -4.926  0.00  0.00    -0.344 N 
ATOM    134  H84 PHE d   1      23.220  -8.206  -3.933  0.00  0.00     0.163 HD
BRANCH 133 135
ATOM    135  CA  PHE d   1      24.661  -8.243  -5.527  0.00  0.00     0.100 C 
ATOM    136  H85 PHE d   1      24.636  -7.552  -6.383  0.00  0.00     0.090 H 
BRANCH 135 137
ATOM    137  C   PHE d   1      24.992  -9.623  -6.065  0.00  0.00     0.197 C 
ATOM    138  O   PHE d   1      24.777 -10.645  -5.421  0.00  0.00    -0.646 OA
ATOM    139  OXT PHE d   1      25.492  -9.791  -7.173  0.00  0.00    -0.646 OA
ENDBRANCH 135 137
BRANCH 135 140
ATOM    140  CB  PHE d   1      25.769  -7.764  -4.602  0.00  0.00    -0.013 C 
ATOM    141  H86 PHE d   1      25.783  -8.406  -3.709  0.00  0.00     0.043 H 
ATOM    142  H87 PHE d   1      25.555  -6.727  -4.305  0.00  0.00     0.043 H 
BRANCH 140 143
ATOM    143  CG  PHE d   1      27.126  -7.808  -5.247  0.00  0.00    -0.056 A 
ATOM    144  CD1 PHE d   1      27.339  -7.180  -6.466  0.00  0.00    -0.077 A 
ATOM    145  CE1 PHE d   1      28.570  -7.222  -7.076  0.00  0.00    -0.082 A 
ATOM    146  H88 PHE d   1      26.523  -6.649  -6.944  0.00  0.00     0.084 H 
ATOM    147  CZ  PHE d   1      29.611  -7.903  -6.477  0.00  0.00    -0.083 A 
ATOM    148  H90 PHE d   1      28.723  -6.721  -8.025  0.00  0.00     0.083 H 
ATOM    149  CE2 PHE d   1      29.411  -8.542  -5.267  0.00  0.00    -0.082 A 
ATOM    150  H92 PHE d   1      30.584  -7.937  -6.955  0.00  0.00     0.083 H 
ATOM    151  CD2 PHE d   1      28.172  -8.498  -4.661  0.00  0.00    -0.077 A 
ATOM    152  H91 PHE d   1      30.227  -9.077  -4.795  0.00  0.00     0.083 H 
ATOM    153  H89 PHE d   1      28.017  -9.009  -3.717  0.00  0.00     0.084 H 
ENDBRANCH 140 143
ENDBRANCH 135 140
ENDBRANCH 133 135
ENDBRANCH 129 131
BRANCH 129 154
ATOM    154  CB  GLU d   1      20.424  -9.725  -5.132  0.00  0.00    -0.029 C 
ATOM    155  H80 GLU d   1      20.784 -10.208  -4.212  0.00  0.00     0.037 H 
ATOM    156  H81 GLU d   1      20.886 -10.209  -6.005  0.00  0.00     0.037 H 
BRANCH 154 157
ATOM    157  CG  GLU d   1      18.919  -9.951  -5.218  0.00  0.00     0.018 C 
ATOM    158  H82 GLU d   1      18.535  -9.438  -6.112  0.00  0.00     0.049 H 
ATOM    159  H83 GLU d   1      18.446  -9.526  -4.320  0.00  0.00     0.049 H 
BRANCH 157 160
ATOM    160  CD  GLU d   1      18.561 -11.424  -5.308  0.00  0.00     0.172 C 
ATOM    161  OE1 GLU d   1      17.633 -11.761  -6.079  0.00  0.00    -0.648 OA
ATOM    162  OE2 GLU d   1      19.207 -12.245  -4.610  0.00  0.00    -0.648 OA
ENDBRANCH 157 160
ENDBRANCH 154 157
ENDBRANCH 129 154
ENDBRANCH 127 129
ENDBRANCH 123 125
BRANCH 123 163
ATOM    163  CB  TYR d   1      19.099  -4.204  -6.092  0.00  0.00    -0.014 C 
ATOM    164  H71 TYR d   1      18.933  -3.793  -5.085  0.00  0.00     0.043 H 
ATOM    165  H72 TYR d   1      18.665  -3.526  -6.841  0.00  0.00     0.043 H 
BRANCH 163 166
ATOM    166  CG  TYR d   1      20.583  -4.324  -6.337  0.00  0.00    -0.056 A 
ATOM    167  CD1 TYR d   1      21.093  -4.409  -7.643  0.00  0.00    -0.074 A 
ATOM    168  CE1 TYR d   1      22.452  -4.569  -7.868  0.00  0.00    -0.051 A 
ATOM    169  H73 TYR d   1      20.415  -4.349  -8.487  0.00  0.00     0.084 H 
ATOM    170  CZ  TYR d   1      23.315  -4.657  -6.783  0.00  0.00     0.065 A 
ATOM    171  H75 TYR d   1      22.837  -4.625  -8.880  0.00  0.00     0.087 H 
ATOM    172  CE2 TYR d   1      22.831  -4.587  -5.485  0.00  0.00    -0.051 A 
ATOM    173  CD2 TYR d   1      21.474  -4.433  -5.268  0.00  0.00    -0.074 A 
ATOM    174  H76 TYR d   1      23.513  -4.653  -4.645  0.00  0.00     0.087 H 
ATOM    175  H74 TYR d   1      21.096  -4.396  -4.253  0.00  0.00     0.084 H 
BRANCH 170 176
ATOM    176  OH  TYR d   1      24.664  -4.805  -6.976  0.00  0.00    -0.361 OA
ATOM    177  H77 TYR d   1      24.848  -4.838  -7.907  0.00  0.00     0.217 HD
ENDBRANCH 170 176
ENDBRANCH 163 166
ENDBRANCH 123 163
ENDBRANCH 121 123
ENDBRANCH 117 119
BRANCH 117 178
ATOM    178  CB  LEU d   1      14.346  -6.443  -4.416  0.00  0.00    -0.035 C 
ATOM    179  H60 LEU d   1      15.034  -5.778  -3.873  0.00  0.00     0.037 H 
ATOM    180  H61 LEU d   1      14.519  -7.484  -4.104  0.00  0.00     0.037 H 
BRANCH 178 181
ATOM    181  CG  LEU d   1      12.915  -6.066  -4.007  0.00  0.00    -0.059 C 
ATOM    182  H62 LEU d   1      12.225  -6.676  -4.608  0.00  0.00     0.038 H 
BRANCH 181 183
ATOM    183  CD1 LEU d   1      12.665  -6.397  -2.530  0.00  0.00    -0.073 C 
ATOM    184  H63 LEU d   1      11.635  -6.119  -2.261  0.00  0.00     0.028 H 
ATOM    185  H64 LEU d   1      13.373  -5.834  -1.903  0.00  0.00     0.028 H 
ATOM    186  H65 LEU d   1      12.808  -7.475  -2.367  0.00  0.00     0.028 H 
ENDBRANCH 181 183
BRANCH 181 187
ATOM    187  CD2 LEU d   1      12.610  -4.585  -4.308  0.00  0.00    -0.073 C 
ATOM    188  H66 LEU d   1      12.799  -4.381  -5.372  0.00  0.00     0.028 H 
ATOM    189  H67 LEU d   1      13.258  -3.945  -3.691  0.00  0.00     0.028 H 
ATOM    190  H68 LEU d   1      11.556  -4.373  -4.075  0.00  0.00     0.028 H 
ENDBRANCH 181 187
ENDBRANCH 178 181
ENDBRANCH 117 178
ENDBRANCH 115 117
ENDBRANCH 111 113
BRANCH 111 191
ATOM    191  CB  ALA d   1      14.725  -9.918  -8.306  0.00  0.00    -0.049 C 
ATOM    192  H55 ALA d   1      14.992  -9.958  -7.239  0.00  0.00     0.030 H 
ATOM    193  H56 ALA d   1      15.615  -9.657  -8.897  0.00  0.00     0.030 H 
ATOM    194  H57 ALA d   1      14.348 -10.900  -8.626  0.00  0.00     0.030 H 
ENDBRANCH 111 191
ENDBRANCH 109 111
ENDBRANCH 105 107
BRANCH 105 195
ATOM    195  CB  ASP d   1      11.411  -8.396 -12.344  0.00  0.00     0.043 C 
ATOM    196  H51 ASP d   1      11.210  -8.403 -13.425  0.00  0.00     0.052 H 
ATOM    197  H52 ASP d   1      11.991  -7.498 -12.084  0.00  0.00     0.052 H 
BRANCH 195 198
ATOM    198  CG  ASP d   1      10.063  -8.336 -11.600  0.00  0.00     0.175 C 
ATOM    199  OD1 ASP d   1       9.681  -9.273 -10.857  0.00  0.00    -0.648 OA
ATOM    200  OD2 ASP d   1       9.361  -7.319 -11.777  0.00  0.00    -0.648 OA
ENDBRANCH 195 198
ENDBRANCH 105 195
ENDBRANCH 103 105
ENDBRANCH   1 101
TORSDOF 53
