REMARK  9 active torsions:
REMARK  status: ('A' for Active; 'I' for Inactive)
REMARK       I    between atoms: C19_2  and  N3_3 
REMARK    1  A    between atoms: C19_2  and  C18_4 
REMARK    2  A    between atoms: C20_5  and  N4_6 
REMARK    3  A    between atoms: N_7  and  C1_8 
REMARK    4  A    between atoms: C1_8  and  C3_9 
REMARK    5  A    between atoms: C1_8  and  C2_10 
REMARK    6  A    between atoms: C1_8  and  C_11 
REMARK    7  A    between atoms: C4_12  and  C5_14 
REMARK    8  A    between atoms: C11_19  and  O_24 
REMARK    9  A    between atoms: O_24  and  C12_25 
ROOT
ATOM      1  C5  UW4 d   1       0.278 -20.884 -31.148  0.00  0.00    -0.004 A 
ATOM      2  C10 UW4 d   1       1.211 -20.279 -30.316  0.00  0.00    -0.068 A 
ATOM      3  C9  UW4 d   1       2.533 -20.285 -30.625  0.00  0.00    -0.053 A 
ATOM      4  C8  UW4 d   1       2.997 -20.911 -31.799  0.00  0.00     0.070 A 
ATOM      5  N2  UW4 d   1       4.338 -20.902 -32.066  0.00  0.00    -0.224 NA
ATOM      6  C11 UW4 d   1       4.717 -21.530 -33.143  0.00  0.00     0.165 A 
ATOM      7  C16 UW4 d   1       3.884 -22.157 -34.062  0.00  0.00    -0.031 A 
ATOM      8  C17 UW4 d   1       2.556 -22.155 -33.809  0.00  0.00    -0.067 A 
ATOM      9  C7  UW4 d   1       2.065 -21.536 -32.650  0.00  0.00    -0.006 A 
ATOM     10  C6  UW4 d   1       0.696 -21.507 -32.294  0.00  0.00    -0.059 A 
ATOM     11  H14 UW4 d   1       0.878 -19.794 -29.405  0.00  0.00     0.085 H 
ATOM     12  H15 UW4 d   1       3.240 -19.802 -29.960  0.00  0.00     0.087 H 
ATOM     13  H16 UW4 d   1       4.285 -22.631 -34.950  0.00  0.00     0.090 H 
ATOM     14  H17 UW4 d   1       1.871 -22.631 -34.501  0.00  0.00     0.085 H 
ATOM     15  H18 UW4 d   1      -0.033 -21.985 -32.938  0.00  0.00     0.086 H 
ENDROOT
BRANCH   1  16
ATOM     16  C4  UW4 d   1      -1.150 -20.818 -30.805  0.00  0.00     0.107 A 
ATOM     17  C18 UW4 d   1      -2.077 -21.863 -30.644  0.00  0.00     0.108 A 
ATOM     18  C20 UW4 d   1      -3.235 -21.263 -30.159  0.00  0.00     0.136 A 
ATOM     19  N   UW4 d   1      -2.980 -19.944 -30.056  0.00  0.00    -0.244 N 
ATOM     20  N1  UW4 d   1      -1.678 -19.640 -30.480  0.00  0.00    -0.168 NA
BRANCH  17  21
ATOM     21  C19 UW4 d   1      -1.929 -23.283 -30.922  0.00  0.00     0.255 C 
ATOM     22  O1  UW4 d   1      -2.913 -24.034 -30.814  0.00  0.00    -0.268 OA
ATOM     23  N3  UW4 d   1      -0.730 -23.754 -31.234  0.00  0.00    -0.366 N 
ATOM     24  H1  UW4 d   1       0.047 -23.130 -31.315  0.00  0.00     0.159 HD
ATOM     25  H2  UW4 d   1      -0.602 -24.734 -31.388  0.00  0.00     0.159 HD
ENDBRANCH  17  21
BRANCH  18  26
ATOM     26  N4  UW4 d   1      -4.391 -21.869 -29.855  0.00  0.00    -0.383 N 
ATOM     27  H3  UW4 d   1      -4.484 -22.888 -29.970  0.00  0.00     0.157 HD
ATOM     28  H4  UW4 d   1      -5.187 -21.315 -29.506  0.00  0.00     0.157 HD
ENDBRANCH  18  26
BRANCH  19  29
ATOM     29  C1  UW4 d   1      -3.846 -18.812 -29.564  0.00  0.00     0.047 C 
BRANCH  29  30
ATOM     30  C3  UW4 d   1      -2.982 -17.644 -29.104  0.00  0.00    -0.052 C 
ATOM     31  H5  UW4 d   1      -3.628 -16.828 -28.749  0.00  0.00     0.030 H 
ATOM     32  H6  UW4 d   1      -2.370 -17.287 -29.945  0.00  0.00     0.030 H 
ATOM     33  H7  UW4 d   1      -2.325 -17.974 -28.286  0.00  0.00     0.030 H 
ENDBRANCH  29  30
BRANCH  29  34
ATOM     34  C2  UW4 d   1      -4.718 -18.335 -30.714  0.00  0.00    -0.052 C 
ATOM     35  H8  UW4 d   1      -5.357 -17.508 -30.371  0.00  0.00     0.030 H 
ATOM     36  H9  UW4 d   1      -5.349 -19.165 -31.064  0.00  0.00     0.030 H 
ATOM     37  H10 UW4 d   1      -4.079 -17.987 -31.539  0.00  0.00     0.030 H 
ENDBRANCH  29  34
BRANCH  29  38
ATOM     38  C   UW4 d   1      -4.714 -19.302 -28.408  0.00  0.00    -0.052 C 
ATOM     39  H11 UW4 d   1      -5.346 -18.477 -28.049  0.00  0.00     0.030 H 
ATOM     40  H12 UW4 d   1      -4.069 -19.654 -27.589  0.00  0.00     0.030 H 
ATOM     41  H13 UW4 d   1      -5.352 -20.129 -28.753  0.00  0.00     0.030 H 
ENDBRANCH  29  38
ENDBRANCH  19  29
ENDBRANCH   1  16
BRANCH   6  42
ATOM     42  O   UW4 d   1       6.026 -21.733 -33.375  0.00  0.00    -0.329 OA
BRANCH  42  43
ATOM     43  C12 UW4 d   1       6.924 -21.572 -32.234  0.00  0.00     0.047 C 
ATOM     44  C15 UW4 d   1       8.382 -21.895 -32.565  0.00  0.00    -0.040 C 
ATOM     45  C14 UW4 d   1       8.772 -20.571 -31.900  0.00  0.00    -0.060 C 
ATOM     46  H20 UW4 d   1       8.605 -21.949 -33.641  0.00  0.00     0.036 H 
ATOM     47  H21 UW4 d   1       8.776 -22.791 -32.064  0.00  0.00     0.036 H 
ATOM     48  C13 UW4 d   1       7.296 -20.114 -31.964  0.00  0.00    -0.040 C 
ATOM     49  H22 UW4 d   1       9.461 -19.954 -32.495  0.00  0.00     0.033 H 
ATOM     50  H23 UW4 d   1       9.166 -20.679 -30.879  0.00  0.00     0.033 H 
ATOM     51  H24 UW4 d   1       6.901 -19.707 -31.022  0.00  0.00     0.036 H 
ATOM     52  H25 UW4 d   1       7.066 -19.422 -32.788  0.00  0.00     0.036 H 
ATOM     53  H19 UW4 d   1       6.525 -22.110 -31.361  0.00  0.00     0.084 H 
ENDBRANCH  42  43
ENDBRANCH   6  42
TORSDOF 9
