REMARK  11 active torsions:
REMARK  status: ('A' for Active; 'I' for Inactive)
REMARK    1  A    between atoms: C6_4  and  C10_26 
REMARK    2  A    between atoms: C23_20  and  C1_5 
REMARK    3  A    between atoms: N1_6  and  C28_18 
REMARK    4  A    between atoms: C2_10  and  C3_9 
REMARK    5  A    between atoms: C28_18  and  C29_17 
REMARK    6  A    between atoms: C24_21  and  C23_20 
REMARK    7  A    between atoms: C24_21  and  C27_22 
REMARK    8  A    between atoms: C24_21  and  C26_23 
REMARK    9  A    between atoms: C24_21  and  C25_24 
REMARK   10  A    between atoms: C13_29  and  C16_33 
REMARK   11  A    between atoms: C21_34  and  C22_35 
ROOT
ATOM      1  C7  4DV d   1      10.103  17.704  28.237  0.00  0.00    -0.070 A 
ATOM      2  C6  4DV d   1      10.792  17.129  27.153  0.00  0.00    -0.025 A 
ATOM      3  C1  4DV d   1      14.177  17.116  30.372  0.00  0.00     0.020 A 
ATOM      4  N1  4DV d   1      12.927  17.631  30.718  0.00  0.00    -0.345 N 
ATOM      5  C5  4DV d   1      12.139  16.753  27.350  0.00  0.00    -0.059 A 
ATOM      6  C4  4DV d   1      12.786  16.961  28.588  0.00  0.00    -0.001 A 
ATOM      7  C2  4DV d   1      14.107  16.691  29.048  0.00  0.00    -0.027 A 
ATOM      8  C9  4DV d   1      12.069  17.544  29.632  0.00  0.00     0.045 A 
ATOM      9  C8  4DV d   1      10.721  17.924  29.477  0.00  0.00    -0.055 A 
ATOM     10  H1  4DV d   1       9.064  17.985  28.110  0.00  0.00     0.084 H 
ATOM     11  H2  4DV d   1      12.687  16.296  26.535  0.00  0.00     0.086 H 
ATOM     12  H20 4DV d   1      10.174  18.376  30.297  0.00  0.00     0.087 H 
ENDROOT
BRANCH   2  13
ATOM     13  C10 4DV d   1      10.125  16.882  25.862  0.00  0.00    -0.023 A 
ATOM     14  C15 4DV d   1       9.047  17.663  25.388  0.00  0.00    -0.071 A 
ATOM     15  C14 4DV d   1       8.433  17.375  24.154  0.00  0.00    -0.068 A 
ATOM     16  H21 4DV d   1       8.688  18.495  25.983  0.00  0.00     0.084 H 
ATOM     17  C13 4DV d   1       8.882  16.295  23.369  0.00  0.00     0.013 A 
ATOM     18  H22 4DV d   1       7.610  17.988  23.806  0.00  0.00     0.085 H 
ATOM     19  C12 4DV d   1       9.943  15.524  23.853  0.00  0.00     0.128 A 
ATOM     20  F1  4DV d   1      10.401  14.485  23.139  0.00  0.00    -0.205 F 
ATOM     21  C11 4DV d   1      10.556  15.804  25.072  0.00  0.00    -0.034 A 
ATOM     22  H23 4DV d   1      11.375  15.182  25.415  0.00  0.00     0.089 H 
BRANCH  17  23
ATOM     23  C16 4DV d   1       8.267  15.952  22.077  0.00  0.00    -0.017 A 
ATOM     24  C21 4DV d   1       8.702  16.469  20.825  0.00  0.00    -0.051 A 
ATOM     25  C20 4DV d   1       8.041  16.055  19.650  0.00  0.00    -0.076 A 
ATOM     26  C19 4DV d   1       6.977  15.147  19.689  0.00  0.00    -0.082 A 
ATOM     27  H27 4DV d   1       8.365  16.450  18.694  0.00  0.00     0.084 H 
ATOM     28  C18 4DV d   1       6.554  14.632  20.911  0.00  0.00    -0.082 A 
ATOM     29  H28 4DV d   1       6.484  14.846  18.771  0.00  0.00     0.083 H 
ATOM     30  C17 4DV d   1       7.195  15.030  22.087  0.00  0.00    -0.072 A 
ATOM     31  H29 4DV d   1       5.732  13.926  20.950  0.00  0.00     0.083 H 
ATOM     32  H30 4DV d   1       6.861  14.620  23.034  0.00  0.00     0.084 H 
BRANCH  24  33
ATOM     33  C22 4DV d   1       9.837  17.452  20.679  0.00  0.00    -0.050 C 
ATOM     34  H24 4DV d   1       9.977  17.695  19.615  0.00  0.00     0.033 H 
ATOM     35  H25 4DV d   1      10.761  17.007  21.078  0.00  0.00     0.033 H 
ATOM     36  H26 4DV d   1       9.601  18.370  21.237  0.00  0.00     0.033 H 
ENDBRANCH  24  33
ENDBRANCH  17  23
ENDBRANCH   2  13
BRANCH   7  37
ATOM     37  C3  4DV d   1      15.183  16.064  28.214  0.00  0.00    -0.049 C 
ATOM     38  H3  4DV d   1      16.102  15.970  28.811  0.00  0.00     0.033 H 
ATOM     39  H4  4DV d   1      15.380  16.695  27.335  0.00  0.00     0.033 H 
ATOM     40  H5  4DV d   1      14.857  15.067  27.884  0.00  0.00     0.033 H 
ENDBRANCH   7  37
BRANCH   4  41
ATOM     41  C28 4DV d   1      12.423  17.780  32.088  0.00  0.00     0.024 C 
ATOM     42  H10 4DV d   1      11.648  18.560  32.090  0.00  0.00     0.072 H 
ATOM     43  H11 4DV d   1      13.258  18.091  32.733  0.00  0.00     0.072 H 
BRANCH  41  44
ATOM     44  C29 4DV d   1      11.826  16.513  32.658  0.00  0.00    -0.040 A 
ATOM     45  C30 4DV d   1      10.459  16.211  32.504  0.00  0.00    -0.074 A 
ATOM     46  C31 4DV d   1       9.923  15.037  33.044  0.00  0.00    -0.061 A 
ATOM     47  H7  4DV d   1       9.816  16.895  31.962  0.00  0.00     0.084 H 
ATOM     48  C32 4DV d   1      10.758  14.158  33.731  0.00  0.00     0.034 A 
ATOM     49  H6  4DV d   1       8.869  14.813  32.929  0.00  0.00     0.086 H 
ATOM     50 CL1  4DV d   1      10.096  12.721  34.390  0.00  0.00    -0.084 Cl
ATOM     51  C33 4DV d   1      12.117  14.434  33.897  0.00  0.00    -0.061 A 
ATOM     52  C34 4DV d   1      12.651  15.611  33.359  0.00  0.00    -0.074 A 
ATOM     53  H8  4DV d   1      12.753  13.743  34.438  0.00  0.00     0.086 H 
ATOM     54  H9  4DV d   1      13.706  15.830  33.482  0.00  0.00     0.084 H 
ENDBRANCH  41  44
ENDBRANCH   4  41
BRANCH   3  55
ATOM     55  C23 4DV d   1      15.356  17.054  31.316  0.00  0.00    -0.010 C 
ATOM     56  H12 4DV d   1      15.981  16.204  31.004  0.00  0.00     0.044 H 
ATOM     57  H13 4DV d   1      14.959  16.867  32.325  0.00  0.00     0.044 H 
BRANCH  55  58
ATOM     58  C24 4DV d   1      16.281  18.300  31.407  0.00  0.00     0.046 C 
BRANCH  58  59
ATOM     59  C27 4DV d   1      17.345  18.111  32.497  0.00  0.00     0.181 C 
ATOM     60  O1  4DV d   1      18.402  18.725  32.539  0.00  0.00    -0.647 OA
ATOM     61  O2  4DV d   1      17.048  17.211  33.457  0.00  0.00    -0.647 OA
ENDBRANCH  58  59
BRANCH  58  62
ATOM     62  C26 4DV d   1      15.544  19.637  31.613  0.00  0.00    -0.059 C 
ATOM     63  H14 4DV d   1      16.277  20.456  31.665  0.00  0.00     0.029 H 
ATOM     64  H15 4DV d   1      14.970  19.599  32.551  0.00  0.00     0.029 H 
ATOM     65  H16 4DV d   1      14.859  19.811  30.770  0.00  0.00     0.029 H 
ENDBRANCH  58  62
BRANCH  58  66
ATOM     66  C25 4DV d   1      17.037  18.429  30.057  0.00  0.00    -0.059 C 
ATOM     67  H17 4DV d   1      17.586  17.498  29.854  0.00  0.00     0.029 H 
ATOM     68  H18 4DV d   1      17.746  19.268  30.113  0.00  0.00     0.029 H 
ATOM     69  H19 4DV d   1      16.314  18.612  29.248  0.00  0.00     0.029 H 
ENDBRANCH  58  66
ENDBRANCH  55  58
ENDBRANCH   3  55
TORSDOF 11
