REMARK WARNING: 32 MAX_TORS EXCEEDED!!!
REMARK  42 active torsions:
REMARK  status: ('A' for Active; 'I' for Inactive)
REMARK    1  A    between atoms: N_1  and  CA_2 
REMARK    2  A    between atoms: CA_2  and  C_3 
REMARK    3  A    between atoms: CA_2  and  CB_5 
REMARK       I    between atoms: C_3  and  N_13 
REMARK    4  A    between atoms: CB_5  and  CG_6 
REMARK    5  A    between atoms: CZ_11  and  OH_12 
REMARK    6  A    between atoms: N_13  and  CA_14 
REMARK    7  A    between atoms: CA_14  and  C_15 
REMARK    8  A    between atoms: CA_14  and  CB_17 
REMARK       I    between atoms: C_15  and  N_22 
REMARK    9  A    between atoms: CB_17  and  CG_18 
REMARK   10  A    between atoms: CG_18  and  CD_19 
REMARK       I    between atoms: CD_19  and  NE2_21 
REMARK   11  A    between atoms: N_22  and  CA_23 
REMARK   12  A    between atoms: CA_23  and  C_24 
REMARK       I    between atoms: C_24  and  N_26 
REMARK   13  A    between atoms: N_26  and  CA_27 
REMARK   14  A    between atoms: CA_27  and  C_28 
REMARK       I    between atoms: C_28  and  N_30 
REMARK   15  A    between atoms: N_30  and  CA_31 
REMARK   16  A    between atoms: CA_31  and  C_32 
REMARK       I    between atoms: C_32  and  N_34 
REMARK   17  A    between atoms: N_34  and  CA_35 
REMARK   18  A    between atoms: CA_35  and  C_36 
REMARK   19  A    between atoms: CA_35  and  CB_38 
REMARK       I    between atoms: C_36  and  N_43 
REMARK   20  A    between atoms: CB_38  and  CG_39 
REMARK   21  A    between atoms: CG_39  and  CD_40 
REMARK   22  A    between atoms: N_43  and  CA_44 
REMARK   23  A    between atoms: CA_44  and  C_45 
REMARK   24  A    between atoms: CA_44  and  CB_47 
REMARK       I    between atoms: C_45  and  N_52 
REMARK   25  A    between atoms: CB_47  and  CG_48 
REMARK   26  A    between atoms: CG_48  and  CD_49 
REMARK   27  A    between atoms: N_52  and  CA_53 
REMARK   28  A    between atoms: CA_53  and  C_54 
REMARK   29  A    between atoms: CA_53  and  CB_56 
REMARK       I    between atoms: C_54  and  N_60 
REMARK   30  A    between atoms: CB_56  and  CG_57 
REMARK   31  A    between atoms: CG_57  and  SD_58 
REMARK   32  A    between atoms: SD_58  and  CE_59 
REMARK   33  A    between atoms: N_60  and  CA_61 
REMARK   34  A    between atoms: CA_61  and  C_62 
REMARK   35  A    between atoms: CA_61  and  CB_64 
REMARK       I    between atoms: C_62  and  N_65 
REMARK   36  A    between atoms: N_65  and  CA_66 
REMARK   37  A    between atoms: CA_66  and  C_67 
REMARK   38  A    between atoms: CA_66  and  CB_69 
REMARK       I    between atoms: C_67  and  N_73 
REMARK   39  A    between atoms: CB_69  and  CG_70 
REMARK   40  A    between atoms: CG_70  and  CD1_71 
REMARK   41  A    between atoms: CG_70  and  CD2_72 
REMARK   42  A    between atoms: CA_74  and  C_75 
ROOT
ATOM      1  C   GLU d   1      13.812  14.435  15.213  0.00  0.00     0.241 C 
ATOM      2  O   GLU d   1      14.033  15.265  14.359  0.00  0.00    -0.271 OA
ATOM      3  N   GLU d   1      13.606  14.787  16.493  0.00  0.00    -0.346 N 
ATOM      4  H35 GLU d   1      13.470  14.078  17.185  0.00  0.00     0.163 HD
ENDROOT
BRANCH   1   5
ATOM      5  CA  GLU d   1      13.757  12.952  14.828  0.00  0.00     0.090 C 
ATOM      6  H30 GLU d   1      12.871  12.492  15.290  0.00  0.00     0.087 H 
BRANCH   5   7
ATOM      7  N   GLU d   1      13.676  12.862  13.366  0.00  0.00    -0.346 N 
ATOM      8  C   GLY d   1      12.866  12.037  12.739  0.00  0.00     0.236 C 
ATOM      9  O   GLY d   1      12.154  11.188  13.298  0.00  0.00    -0.272 OA
ATOM     10  H29 GLU d   1      14.265  13.457  12.819  0.00  0.00     0.163 HD
BRANCH   8  11
ATOM     11  CA  GLY d   1      12.911  12.180  11.232  0.00  0.00     0.069 C 
ATOM     12  H27 GLY d   1      12.903  13.250  10.977  0.00  0.00     0.078 H 
ATOM     13  H28 GLY d   1      13.839  11.722  10.860  0.00  0.00     0.078 H 
BRANCH  11  14
ATOM     14  N   GLY d   1      11.769  11.530  10.579  0.00  0.00    -0.351 N 
ATOM     15  C   GLY d   1      10.566  12.064  10.701  0.00  0.00     0.235 C 
ATOM     16  O   GLY d   1      10.373  13.046  11.423  0.00  0.00    -0.272 OA
ATOM     17  H26 GLY d   1      11.899  10.693  10.048  0.00  0.00     0.163 HD
BRANCH  15  18
ATOM     18  CA  GLY d   1       9.446  11.402   9.942  0.00  0.00     0.069 C 
ATOM     19  H24 GLY d   1       8.965  10.668  10.606  0.00  0.00     0.078 H 
ATOM     20  H25 GLY d   1       8.716  12.175   9.659  0.00  0.00     0.078 H 
BRANCH  18  21
ATOM     21  N   GLY d   1       9.869  10.722   8.748  0.00  0.00    -0.351 N 
ATOM     22  C   GLY d   1      10.320  11.418   7.707  0.00  0.00     0.235 C 
ATOM     23  O   GLY d   1      10.585  12.611   7.776  0.00  0.00    -0.272 OA
ATOM     24  H23 GLY d   1       9.824   9.724   8.700  0.00  0.00     0.163 HD
BRANCH  22  25
ATOM     25  CA  GLY d   1      10.546  10.640   6.446  0.00  0.00     0.069 C 
ATOM     26  H21 GLY d   1       9.886  11.032   5.658  0.00  0.00     0.078 H 
ATOM     27  H22 GLY d   1      11.595  10.754   6.136  0.00  0.00     0.078 H 
BRANCH  25  28
ATOM     28  N   GLY d   1      10.257   9.214   6.651  0.00  0.00    -0.351 N 
ATOM     29  C   GLN d   1      11.256   8.416   6.998  0.00  0.00     0.240 C 
ATOM     30  O   GLN d   1      12.372   8.863   7.251  0.00  0.00    -0.271 OA
ATOM     31  H20 GLY d   1       9.331   8.855   6.532  0.00  0.00     0.163 HD
BRANCH  29  32
ATOM     32  CA  GLN d   1      10.958   6.923   7.109  0.00  0.00     0.090 C 
ATOM     33  H13 GLN d   1       9.934   6.784   7.486  0.00  0.00     0.087 H 
BRANCH  32  34
ATOM     34  N   GLN d   1      11.040   6.306   5.780  0.00  0.00    -0.346 N 
ATOM     35  C   TYR d   1      10.048   6.394   4.893  0.00  0.00     0.249 C 
ATOM     36  O   TYR d   1       8.947   6.890   5.140  0.00  0.00    -0.271 OA
ATOM     37  H12 GLN d   1      11.867   5.803   5.531  0.00  0.00     0.163 HD
BRANCH  35  38
ATOM     38  CA  TYR d   1      10.314   5.772   3.515  0.00  0.00     0.179 C 
ATOM     39  H4  TYR d   1      10.814   4.808   3.692  0.00  0.00     0.099 H 
BRANCH  38  40
ATOM     40  N   TYR d   1       9.053   5.485   2.793  0.00  0.00    -0.066 N 
ATOM     41  H1  TYR d   1       9.265   5.079   1.895  0.00  0.00     0.275 HD
ATOM     42  H2  TYR d   1       8.539   6.342   2.661  0.00  0.00     0.275 HD
ATOM     43  H3  TYR d   1       8.497   4.839   3.331  0.00  0.00     0.275 HD
ENDBRANCH  38  40
BRANCH  38  44
ATOM     44  CB  TYR d   1      11.265   6.617   2.647  0.00  0.00    -0.006 C 
ATOM     45  H5  TYR d   1      11.062   6.367   1.595  0.00  0.00     0.043 H 
ATOM     46  H6  TYR d   1      12.294   6.323   2.902  0.00  0.00     0.043 H 
BRANCH  44  47
ATOM     47  CG  TYR d   1      11.175   8.128   2.782  0.00  0.00    -0.056 A 
ATOM     48  CD1 TYR d   1      12.310   8.880   3.052  0.00  0.00    -0.074 A 
ATOM     49  CE1 TYR d   1      12.248  10.260   3.166  0.00  0.00    -0.051 A 
ATOM     50  H7  TYR d   1      13.263   8.379   3.176  0.00  0.00     0.084 H 
ATOM     51  CZ  TYR d   1      11.037  10.894   2.994  0.00  0.00     0.065 A 
ATOM     52  H9  TYR d   1      13.141  10.833   3.388  0.00  0.00     0.087 H 
ATOM     53  CE2 TYR d   1       9.900  10.167   2.706  0.00  0.00    -0.051 A 
ATOM     54  CD2 TYR d   1       9.972   8.798   2.603  0.00  0.00    -0.074 A 
ATOM     55  H10 TYR d   1       8.953  10.674   2.561  0.00  0.00     0.087 H 
ATOM     56  H8  TYR d   1       9.075   8.232   2.378  0.00  0.00     0.084 H 
BRANCH  51  57
ATOM     57  OH  TYR d   1      10.951  12.256   3.090  0.00  0.00    -0.361 OA
ATOM     58  H11 TYR d   1      11.808  12.613   3.291  0.00  0.00     0.217 HD
ENDBRANCH  51  57
ENDBRANCH  44  47
ENDBRANCH  38  44
ENDBRANCH  35  38
ENDBRANCH  32  34
BRANCH  32  59
ATOM     59  CB  GLN d   1      11.940   6.330   8.138  0.00  0.00    -0.030 C 
ATOM     60  H14 GLN d   1      11.788   6.874   9.082  0.00  0.00     0.037 H 
ATOM     61  H15 GLN d   1      12.957   6.522   7.764  0.00  0.00     0.037 H 
BRANCH  59  62
ATOM     62  CG  GLN d   1      11.853   4.844   8.457  0.00  0.00     0.011 C 
ATOM     63  H16 GLN d   1      11.914   4.271   7.520  0.00  0.00     0.047 H 
ATOM     64  H17 GLN d   1      10.892   4.638   8.951  0.00  0.00     0.047 H 
BRANCH  62  65
ATOM     65  CD  GLN d   1      12.994   4.410   9.383  0.00  0.00     0.215 C 
ATOM     66  OE1 GLN d   1      13.816   5.231   9.839  0.00  0.00    -0.274 OA
ATOM     67  NE2 GLN d   1      13.070   3.107   9.639  0.00  0.00    -0.370 N 
ATOM     68  H18 GLN d   1      13.791   2.756  10.236  0.00  0.00     0.159 HD
ATOM     69  H19 GLN d   1      12.406   2.478   9.234  0.00  0.00     0.159 HD
ENDBRANCH  62  65
ENDBRANCH  59  62
ENDBRANCH  32  59
ENDBRANCH  29  32
ENDBRANCH  25  28
ENDBRANCH  22  25
ENDBRANCH  18  21
ENDBRANCH  15  18
ENDBRANCH  11  14
ENDBRANCH   8  11
ENDBRANCH   5   7
BRANCH   5  70
ATOM     70  CB  GLU d   1      15.008  12.181  15.251  0.00  0.00    -0.029 C 
ATOM     71  H31 GLU d   1      14.852  11.118  15.016  0.00  0.00     0.037 H 
ATOM     72  H32 GLU d   1      15.135  12.302  16.337  0.00  0.00     0.037 H 
BRANCH  70  73
ATOM     73  CG  GLU d   1      16.295  12.637  14.566  0.00  0.00     0.018 C 
ATOM     74  H33 GLU d   1      16.391  13.726  14.685  0.00  0.00     0.049 H 
ATOM     75  H34 GLU d   1      16.232  12.389  13.496  0.00  0.00     0.049 H 
BRANCH  73  76
ATOM     76  CD  GLU d   1      17.514  11.983  15.138  0.00  0.00     0.172 C 
ATOM     77  OE1 GLU d   1      18.610  12.212  14.594  0.00  0.00    -0.648 OA
ATOM     78  OE2 GLU d   1      17.406  11.229  16.147  0.00  0.00    -0.648 OA
ENDBRANCH  73  76
ENDBRANCH  70  73
ENDBRANCH   5  70
ENDBRANCH   1   5
BRANCH   3  79
ATOM     79  CA  GLU d   1      13.578  16.206  16.888  0.00  0.00     0.090 C 
ATOM     80  H36 GLU d   1      14.360  16.749  16.336  0.00  0.00     0.087 H 
BRANCH  79  81
ATOM     81  C   GLU d   1      13.877  16.281  18.388  0.00  0.00     0.241 C 
ATOM     82  O   GLU d   1      13.582  15.350  19.151  0.00  0.00    -0.271 OA
ATOM     83  N   MET d   1      14.541  17.357  18.792  0.00  0.00    -0.346 N 
ATOM     84  H41 MET d   1      15.004  17.938  18.122  0.00  0.00     0.163 HD
BRANCH  83  85
ATOM     85  CA  MET d   1      14.598  17.699  20.231  0.00  0.00     0.090 C 
ATOM     86  H42 MET d   1      14.989  16.825  20.773  0.00  0.00     0.087 H 
BRANCH  85  87
ATOM     87  C   MET d   1      13.254  18.061  20.830  0.00  0.00     0.241 C 
ATOM     88  O   MET d   1      12.297  18.357  20.136  0.00  0.00    -0.271 OA
ATOM     89  N   ALA d   1      13.200  18.070  22.168  0.00  0.00    -0.346 N 
ATOM     90  H50 ALA d   1      13.998  17.742  22.673  0.00  0.00     0.163 HD
BRANCH  89  91
ATOM     91  CA  ALA d   1      12.038  18.533  22.938  0.00  0.00     0.086 C 
ATOM     92  H51 ALA d   1      11.163  17.920  22.676  0.00  0.00     0.086 H 
BRANCH  91  93
ATOM     93  C   ALA d   1      11.732  20.004  22.646  0.00  0.00     0.240 C 
ATOM     94  O   ALA d   1      12.634  20.791  22.362  0.00  0.00    -0.271 OA
ATOM     95  N   LEU d   1      10.455  20.339  22.708  0.00  0.00    -0.346 N 
ATOM     96  H55 LEU d   1       9.773  19.621  22.848  0.00  0.00     0.163 HD
BRANCH  95  97
ATOM     97  CA  LEU d   1      10.008  21.717  22.580  0.00  0.00     0.090 C 
ATOM     98  H56 LEU d   1      10.601  22.239  21.814  0.00  0.00     0.087 H 
BRANCH  97  99
ATOM     99  C   LEU d   1      10.174  22.393  23.945  0.00  0.00     0.243 C 
ATOM    100  O   LEU d   1       9.683  21.870  24.931  0.00  0.00    -0.271 OA
ATOM    101  N   PRO d   1      10.851  23.556  23.990  0.00  0.00    -0.336 N 
ATOM    102  CA  PRO d   1      11.054  24.290  25.220  0.00  0.00     0.098 C 
ATOM    103  CD  PRO d   1      11.575  24.167  22.856  0.00  0.00    -0.001 C 
ATOM    104  CB  PRO d   1      12.072  25.362  24.819  0.00  0.00    -0.035 C 
ATOM    105  H66 PRO d   1      11.467  23.632  25.999  0.00  0.00     0.089 H 
ATOM    106  CG  PRO d   1      11.877  25.551  23.341  0.00  0.00    -0.048 C 
ATOM    107  H67 PRO d   1      13.096  25.022  25.033  0.00  0.00     0.036 H 
ATOM    108  H68 PRO d   1      11.877  26.301  25.358  0.00  0.00     0.036 H 
ATOM    109  H69 PRO d   1      12.790  25.944  22.870  0.00  0.00     0.035 H 
ATOM    110  H70 PRO d   1      11.037  26.232  23.138  0.00  0.00     0.035 H 
ATOM    111  H71 PRO d   1      10.944  24.195  21.955  0.00  0.00     0.064 H 
ATOM    112  H72 PRO d   1      12.502  23.616  22.638  0.00  0.00     0.064 H 
BRANCH 102 113
ATOM    113  C   PRO d   1       9.749  24.922  25.740  0.00  0.00     0.196 C 
ATOM    114  O   PRO d   1       9.619  25.239  26.923  0.00  0.00    -0.646 OA
ATOM    115  OXT PRO d   1       8.780  25.138  25.007  0.00  0.00    -0.646 OA
ENDBRANCH 102 113
ENDBRANCH  97  99
BRANCH  97 116
ATOM    116  CB  LEU d   1       8.523  21.755  22.215  0.00  0.00    -0.035 C 
ATOM    117  H57 LEU d   1       8.239  22.810  22.090  0.00  0.00     0.037 H 
ATOM    118  H58 LEU d   1       7.963  21.321  23.057  0.00  0.00     0.037 H 
BRANCH 116 119
ATOM    119  CG  LEU d   1       8.104  21.014  20.954  0.00  0.00    -0.059 C 
ATOM    120  H59 LEU d   1       8.294  19.935  21.051  0.00  0.00     0.038 H 
BRANCH 119 121
ATOM    121  CD1 LEU d   1       6.611  21.294  20.851  0.00  0.00    -0.073 C 
ATOM    122  H60 LEU d   1       6.205  20.795  19.959  0.00  0.00     0.028 H 
ATOM    123  H61 LEU d   1       6.446  22.379  20.772  0.00  0.00     0.028 H 
ATOM    124  H62 LEU d   1       6.103  20.910  21.748  0.00  0.00     0.028 H 
ENDBRANCH 119 121
BRANCH 119 125
ATOM    125  CD2 LEU d   1       8.851  21.553  19.738  0.00  0.00    -0.073 C 
ATOM    126  H63 LEU d   1       9.924  21.336  19.841  0.00  0.00     0.028 H 
ATOM    127  H64 LEU d   1       8.702  22.641  19.668  0.00  0.00     0.028 H 
ATOM    128  H65 LEU d   1       8.466  21.071  18.828  0.00  0.00     0.028 H 
ENDBRANCH 119 125
ENDBRANCH 116 119
ENDBRANCH  97 116
ENDBRANCH  95  97
ENDBRANCH  91  93
BRANCH  91 129
ATOM    129  CB  ALA d   1      12.341  18.390  24.427  0.00  0.00    -0.049 C 
ATOM    130  H52 ALA d   1      11.476  18.735  25.012  0.00  0.00     0.030 H 
ATOM    131  H53 ALA d   1      13.222  18.998  24.682  0.00  0.00     0.030 H 
ATOM    132  H54 ALA d   1      12.544  17.334  24.660  0.00  0.00     0.030 H 
ENDBRANCH  91 129
ENDBRANCH  89  91
ENDBRANCH  85  87
BRANCH  85 133
ATOM    133  CB  MET d   1      15.553  18.875  20.428  0.00  0.00    -0.030 C 
ATOM    134  H43 MET d   1      15.699  19.025  21.508  0.00  0.00     0.037 H 
ATOM    135  H44 MET d   1      15.090  19.773  19.992  0.00  0.00     0.037 H 
BRANCH 133 136
ATOM    136  CG  MET d   1      16.903  18.682  19.791  0.00  0.00    -0.021 C 
ATOM    137  H45 MET d   1      17.348  19.660  19.556  0.00  0.00     0.049 H 
ATOM    138  H46 MET d   1      16.799  18.095  18.866  0.00  0.00     0.049 H 
BRANCH 136 139
ATOM    139  SD  MET d   1      17.946  17.804  20.953  0.00  0.00    -0.173 SA
BRANCH 139 140
ATOM    140  CE  MET d   1      18.257  19.019  22.261  0.00  0.00    -0.035 C 
ATOM    141  H47 MET d   1      18.898  18.570  23.034  0.00  0.00     0.041 H 
ATOM    142  H48 MET d   1      17.301  19.327  22.710  0.00  0.00     0.041 H 
ATOM    143  H49 MET d   1      18.761  19.898  21.833  0.00  0.00     0.041 H 
ENDBRANCH 139 140
ENDBRANCH 136 139
ENDBRANCH 133 136
ENDBRANCH  85 133
ENDBRANCH  83  85
ENDBRANCH  79  81
BRANCH  79 144
ATOM    144  CB  GLU d   1      12.202  16.856  16.561  0.00  0.00    -0.029 C 
ATOM    145  H37 GLU d   1      11.463  16.487  17.287  0.00  0.00     0.037 H 
ATOM    146  H38 GLU d   1      11.905  16.549  15.547  0.00  0.00     0.037 H 
BRANCH 144 147
ATOM    147  CG  GLU d   1      12.214  18.392  16.619  0.00  0.00     0.018 C 
ATOM    148  H39 GLU d   1      13.126  18.745  16.115  0.00  0.00     0.049 H 
ATOM    149  H40 GLU d   1      12.240  18.693  17.677  0.00  0.00     0.049 H 
BRANCH 147 150
ATOM    150  CD  GLU d   1      11.019  19.072  15.964  0.00  0.00     0.172 C 
ATOM    151  OE1 GLU d   1      10.379  19.922  16.636  0.00  0.00    -0.648 OA
ATOM    152  OE2 GLU d   1      10.736  18.800  14.764  0.00  0.00    -0.648 OA
ENDBRANCH 147 150
ENDBRANCH 144 147
ENDBRANCH  79 144
ENDBRANCH   3  79
TORSDOF 42
