REMARK  11 active torsions:
REMARK  status: ('A' for Active; 'I' for Inactive)
REMARK    1  A    between atoms: S20_22  and  C17_3 
REMARK    2  A    between atoms: C24_4  and  N23_25 
REMARK    3  A    between atoms: C27_28  and  C28_5 
REMARK    4  A    between atoms: O02_7  and  C01_6 
REMARK    5  A    between atoms: C03_8  and  O02_7 
REMARK    6  A    between atoms: C09_14  and  C06_11 
REMARK    7  A    between atoms: C12_16  and  C11_15 
REMARK    8  A    between atoms: N13_17  and  C12_16 
REMARK    9  A    between atoms: C14_18  and  N13_17 
REMARK   10  A    between atoms: N23_25  and  S20_22 
REMARK   11  A    between atoms: C31_31  and  C33_33 
ROOT
ATOM      1  C12 4EL d   1       1.414   4.893 -42.139  0.00  0.00     0.016 C 
ATOM      2  H12 4EL d   1       1.405   5.070 -43.225  0.00  0.00     0.071 H 
ATOM      3  H13 4EL d   1       2.199   5.508 -41.674  0.00  0.00     0.071 H 
ENDROOT
BRANCH   1   4
ATOM      4  C11 4EL d   1       1.717   3.419 -41.878  0.00  0.00    -0.039 A 
ATOM      5  C10 4EL d   1       0.728   2.556 -41.418  0.00  0.00    -0.065 A 
ATOM      6  C09 4EL d   1       1.026   1.220 -41.185  0.00  0.00    -0.023 A 
ATOM      7  H1  4EL d   1      -0.275   2.926 -41.241  0.00  0.00     0.085 H 
ATOM      8  C32 4EL d   1       2.309   0.753 -41.410  0.00  0.00    -0.056 A 
ATOM      9  C31 4EL d   1       3.292   1.619 -41.868  0.00  0.00     0.042 A 
ATOM     10  H20 4EL d   1       2.546  -0.289 -41.229  0.00  0.00     0.086 H 
ATOM     11  C30 4EL d   1       2.997   2.948 -42.102  0.00  0.00    -0.059 A 
ATOM     12  H19 4EL d   1       3.768   3.620 -42.461  0.00  0.00     0.086 H 
BRANCH   6  13
ATOM     13  C06 4EL d   1       0.046   0.350 -40.720  0.00  0.00    -0.008 A 
ATOM     14  C05 4EL d   1      -0.931   0.806 -39.847  0.00  0.00    -0.067 A 
ATOM     15  C04 4EL d   1      -1.889  -0.084 -39.395  0.00  0.00    -0.031 A 
ATOM     16  H10 4EL d   1      -0.944   1.841 -39.525  0.00  0.00     0.085 H 
ATOM     17  C03 4EL d   1      -1.823  -1.398 -39.827  0.00  0.00     0.163 A 
ATOM     18  H9  4EL d   1      -2.672   0.239 -38.719  0.00  0.00     0.090 H 
ATOM     19  N08 4EL d   1      -0.878  -1.808 -40.658  0.00  0.00    -0.236 NA
ATOM     20  C07 4EL d   1       0.050  -0.981 -41.108  0.00  0.00     0.016 A 
ATOM     21  H11 4EL d   1       0.817  -1.345 -41.783  0.00  0.00     0.116 H 
BRANCH  17  22
ATOM     22  O02 4EL d   1      -2.784  -2.317 -39.385  0.00  0.00    -0.339 OA
BRANCH  22  23
ATOM     23  C01 4EL d   1      -3.558  -1.883 -38.304  0.00  0.00     0.012 C 
ATOM     24  H6  4EL d   1      -4.279  -2.667 -38.031  0.00  0.00     0.067 H 
ATOM     25  H7  4EL d   1      -4.100  -0.968 -38.585  0.00  0.00     0.067 H 
ATOM     26  H8  4EL d   1      -2.903  -1.672 -37.446  0.00  0.00     0.067 H 
ENDBRANCH  22  23
ENDBRANCH  17  22
ENDBRANCH   6  13
BRANCH   9  27
ATOM     27  C33 4EL d   1       4.710   1.116 -42.122  0.00  0.00     0.209 C 
ATOM     28  O34 4EL d   1       5.693   1.761 -41.664  0.00  0.00    -0.644 OA
ATOM     29  O35 4EL d   1       4.895   0.055 -42.776  0.00  0.00    -0.644 OA
ENDBRANCH   9  27
ENDBRANCH   1   4
BRANCH   1  30
ATOM     30  N13 4EL d   1       0.128   5.274 -41.588  0.00  0.00    -0.386 N 
ATOM     31  H14 4EL d   1      -0.690   5.350 -42.209  0.00  0.00     0.160 HD
BRANCH  30  32
ATOM     32  C14 4EL d   1      -0.018   5.550 -40.168  0.00  0.00     0.028 A 
ATOM     33  C15 4EL d   1      -1.150   6.207 -39.711  0.00  0.00    -0.056 A 
ATOM     34  C16 4EL d   1      -1.299   6.472 -38.358  0.00  0.00    -0.058 A 
ATOM     35  H2  4EL d   1      -1.919   6.514 -40.411  0.00  0.00     0.087 H 
ATOM     36  C17 4EL d   1      -0.314   6.082 -37.465  0.00  0.00     0.080 A 
ATOM     37  H15 4EL d   1      -2.185   6.984 -37.999  0.00  0.00     0.086 H 
ATOM     38  C18 4EL d   1       0.820   5.424 -37.918  0.00  0.00    -0.058 A 
ATOM     39  C19 4EL d   1       0.967   5.159 -39.271  0.00  0.00    -0.056 A 
ATOM     40  H16 4EL d   1       1.588   5.118 -37.217  0.00  0.00     0.086 H 
ATOM     41  H17 4EL d   1       1.852   4.646 -39.629  0.00  0.00     0.087 H 
BRANCH  36  42
ATOM     42  S20 4EL d   1      -0.525   6.435 -35.695  0.00  0.00     0.264 S 
ATOM     43  O21 4EL d   1      -0.524   7.878 -35.439  0.00  0.00    -0.200 OA
ATOM     44  O22 4EL d   1       0.623   5.973 -34.913  0.00  0.00    -0.200 OA
BRANCH  42  45
ATOM     45  N23 4EL d   1      -1.958   5.696 -35.135  0.00  0.00    -0.257 N 
ATOM     46  H18 4EL d   1      -2.587   6.179 -34.526  0.00  0.00     0.181 HD
BRANCH  45  47
ATOM     47  C24 4EL d   1      -2.228   4.343 -35.575  0.00  0.00     0.203 A 
ATOM     48  N25 4EL d   1      -1.341   3.486 -36.045  0.00  0.00    -0.123 NA
ATOM     49  N26 4EL d   1      -1.823   2.263 -36.402  0.00  0.00    -0.145 NA
ATOM     50  C27 4EL d   1      -3.119   2.065 -36.240  0.00  0.00     0.097 A 
ATOM     51  S29 4EL d   1      -3.752   3.534 -35.590  0.00  0.00    -0.033 SA
BRANCH  50  52
ATOM     52  C28 4EL d   1      -3.893   0.791 -36.566  0.00  0.00    -0.028 C 
ATOM     53  H3  4EL d   1      -3.202   0.035 -36.966  0.00  0.00     0.036 H 
ATOM     54  H4  4EL d   1      -4.667   1.014 -37.315  0.00  0.00     0.036 H 
ATOM     55  H5  4EL d   1      -4.368   0.406 -35.651  0.00  0.00     0.036 H 
ENDBRANCH  50  52
ENDBRANCH  45  47
ENDBRANCH  42  45
ENDBRANCH  36  42
ENDBRANCH  30  32
ENDBRANCH   1  30
TORSDOF 11
