REMARK  1 active torsions:
REMARK  status: ('A' for Active; 'I' for Inactive)
REMARK    1  A    between atoms: C19_20  and  C23_19 
ROOT
ATOM      1  C7  4DZ d   1      11.419  12.789  34.560  0.00  0.00    -0.062 A 
ATOM      2  C6  4DZ d   1       9.728  14.189  33.539  0.00  0.00    -0.062 A 
ATOM      3  C1  4DZ d   1      10.308  16.095  32.168  0.00  0.00     0.100 C 
ATOM      4  C5  4DZ d   1      10.071  13.090  34.331  0.00  0.00    -0.080 A 
ATOM      5  C2  4DZ d   1      13.784  13.208  34.278  0.00  0.00     0.100 C 
ATOM      6  C19 4DZ d   1      12.088  14.691  33.203  0.00  0.00     0.051 A 
ATOM      7  C14 4DZ d   1      12.428  13.583  33.999  0.00  0.00     0.060 A 
ATOM      8  N25 4DZ d   1      14.884  12.909  34.501  0.00  0.00    -0.191 NA
ATOM      9  C13 4DZ d   1      10.732  14.988  32.977  0.00  0.00     0.060 A 
ATOM     10  N24 4DZ d   1       9.955  16.984  31.512  0.00  0.00    -0.191 NA
ATOM     11  H1  4DZ d   1      11.684  11.937  35.175  0.00  0.00     0.085 H 
ATOM     12  H2  4DZ d   1       8.685  14.423  33.359  0.00  0.00     0.085 H 
ATOM     13  H3  4DZ d   1       9.295  12.472  34.767  0.00  0.00     0.083 H 
ENDROOT
BRANCH   6  14
ATOM     14  C23 4DZ d   1      13.113  15.522  32.605  0.00  0.00     0.142 A 
ATOM     15  N27 4DZ d   1      13.245  15.613  31.249  0.00  0.00    -0.227 NA
ATOM     16  C21 4DZ d   1      14.389  16.325  30.964  0.00  0.00     0.098 A 
ATOM     17  C17 4DZ d   1      15.003  16.709  29.749  0.00  0.00     0.006 A 
ATOM     18  C20 4DZ d   1      14.909  16.640  32.219  0.00  0.00     0.075 A 
ATOM     19  C18 4DZ d   1      16.215  17.464  29.812  0.00  0.00    -0.011 A 
ATOM     20  C10 4DZ d   1      14.409  16.347  28.513  0.00  0.00    -0.068 A 
ATOM     21  C12 4DZ d   1      16.784  17.824  28.560  0.00  0.00    -0.050 A 
ATOM     22  C15 4DZ d   1      16.778  17.808  31.095  0.00  0.00    -0.012 A 
ATOM     23  C22 4DZ d   1      16.194  17.460  27.337  0.00  0.00     0.035 A 
ATOM     24  H7  4DZ d   1      17.703  18.398  28.548  0.00  0.00     0.087 H 
ATOM     25 CL   4DZ d   1      16.938  17.927  25.857  0.00  0.00    -0.084 Cl
ATOM     26  C11 4DZ d   1      15.010  16.725  27.314  0.00  0.00    -0.061 A 
ATOM     27  H6  4DZ d   1      14.559  16.449  26.368  0.00  0.00     0.086 H 
ATOM     28  C8  4DZ d   1      17.976  18.553  31.270  0.00  0.00    -0.071 A 
ATOM     29  C16 4DZ d   1      16.114  17.391  32.295  0.00  0.00     0.004 A 
ATOM     30  C3  4DZ d   1      18.482  18.861  32.541  0.00  0.00    -0.082 A 
ATOM     31  H8  4DZ d   1      18.515  18.894  30.393  0.00  0.00     0.084 H 
ATOM     32  C4  4DZ d   1      17.810  18.440  33.686  0.00  0.00    -0.082 A 
ATOM     33  H5  4DZ d   1      19.401  19.429  32.633  0.00  0.00     0.083 H 
ATOM     34  C9  4DZ d   1      16.631  17.707  33.572  0.00  0.00    -0.070 A 
ATOM     35  H4  4DZ d   1      18.204  18.683  34.666  0.00  0.00     0.083 H 
ATOM     36  H11 4DZ d   1      16.109  17.378  34.464  0.00  0.00     0.084 H 
ATOM     37  H9  4DZ d   1      13.488  15.776  28.501  0.00  0.00     0.085 H 
ATOM     38  N26 4DZ d   1      14.099  16.136  33.222  0.00  0.00    -0.338 N 
ATOM     39  H10 4DZ d   1      14.239  16.224  34.239  0.00  0.00     0.167 HD
ENDBRANCH   6  14
TORSDOF 1
