REMARK  11 active torsions:
REMARK  status: ('A' for Active; 'I' for Inactive)
REMARK    1  A    between atoms: C22_18  and  O1_1 
REMARK    2  A    between atoms: O1_1  and  C25_19 
REMARK    3  A    between atoms: C6_4  and  C9_29 
REMARK    4  A    between atoms: N1_6  and  C19_15 
REMARK    5  A    between atoms: C2_10  and  C3_9 
REMARK    6  A    between atoms: C16_13  and  C28_12 
REMARK    7  A    between atoms: C25_19  and  C27_20 
REMARK    8  A    between atoms: C25_19  and  C26_21 
REMARK    9  A    between atoms: C9_29  and  C12_30 
REMARK   10  A    between atoms: C9_29  and  C11_31 
REMARK   11  A    between atoms: C9_29  and  C10_32 
ROOT
ATOM      1  C1  4U8 d   1      15.813  16.866  27.257  0.00  0.00    -0.070 A 
ATOM      2  N1  4U8 d   1      16.168  17.301  31.005  0.00  0.00    -0.305 N 
ATOM      3  C2  4U8 d   1      17.008  17.500  26.878  0.00  0.00    -0.025 A 
ATOM      4  C16 4U8 d   1      17.294  17.952  31.529  0.00  0.00     0.118 A 
ATOM      5  C15 4U8 d   1      18.091  18.324  30.457  0.00  0.00    -0.038 A 
ATOM      6  C17 4U8 d   1      16.280  17.272  29.606  0.00  0.00     0.050 A 
ATOM      7  C18 4U8 d   1      15.436  16.744  28.603  0.00  0.00    -0.055 A 
ATOM      8  C14 4U8 d   1      17.476  17.908  29.258  0.00  0.00    -0.006 A 
ATOM      9  C13 4U8 d   1      17.837  18.020  27.895  0.00  0.00    -0.060 A 
ATOM     10  H2  4U8 d   1      15.165  16.460  26.489  0.00  0.00     0.084 H 
ATOM     11  H5  4U8 d   1      19.040  18.853  30.529  0.00  0.00     0.088 H 
ATOM     12  H17 4U8 d   1      14.508  16.251  28.870  0.00  0.00     0.087 H 
ATOM     13  H18 4U8 d   1      18.765  18.513  27.627  0.00  0.00     0.086 H 
ENDROOT
BRANCH   3  14
ATOM     14  C3  4U8 d   1      17.393  17.619  25.458  0.00  0.00    -0.026 A 
ATOM     15  C4  4U8 d   1      18.021  18.775  24.963  0.00  0.00    -0.072 A 
ATOM     16  C5  4U8 d   1      18.388  18.886  23.611  0.00  0.00    -0.075 A 
ATOM     17  H4  4U8 d   1      18.227  19.598  25.638  0.00  0.00     0.084 H 
ATOM     18  C6  4U8 d   1      18.147  17.845  22.690  0.00  0.00    -0.051 A 
ATOM     19  H3  4U8 d   1      18.869  19.795  23.267  0.00  0.00     0.084 H 
ATOM     20  C7  4U8 d   1      17.513  16.689  23.199  0.00  0.00    -0.075 A 
ATOM     21  C8  4U8 d   1      17.149  16.577  24.549  0.00  0.00    -0.072 A 
ATOM     22  H1  4U8 d   1      17.302  15.865  22.527  0.00  0.00     0.084 H 
ATOM     23  H19 4U8 d   1      16.670  15.669  24.897  0.00  0.00     0.084 H 
BRANCH  18  24
ATOM     24  C9  4U8 d   1      18.541  17.942  21.195  0.00  0.00    -0.024 C 
BRANCH  24  25
ATOM     25  C12 4U8 d   1      19.937  18.558  20.937  0.00  0.00    -0.066 C 
ATOM     26  H20 4U8 d   1      20.131  18.587  19.855  0.00  0.00     0.028 H 
ATOM     27  H21 4U8 d   1      20.705  17.945  21.431  0.00  0.00     0.028 H 
ATOM     28  H22 4U8 d   1      19.967  19.580  21.342  0.00  0.00     0.028 H 
ENDBRANCH  24  25
BRANCH  24  29
ATOM     29  C11 4U8 d   1      18.565  16.546  20.528  0.00  0.00    -0.066 C 
ATOM     30  H23 4U8 d   1      17.593  16.052  20.677  0.00  0.00     0.028 H 
ATOM     31  H24 4U8 d   1      19.360  15.936  20.982  0.00  0.00     0.028 H 
ATOM     32  H25 4U8 d   1      18.759  16.657  19.451  0.00  0.00     0.028 H 
ENDBRANCH  24  29
BRANCH  24  33
ATOM     33  C10 4U8 d   1      17.521  18.831  20.450  0.00  0.00    -0.066 C 
ATOM     34  H26 4U8 d   1      17.494  19.827  20.915  0.00  0.00     0.028 H 
ATOM     35  H27 4U8 d   1      16.523  18.372  20.509  0.00  0.00     0.028 H 
ATOM     36  H28 4U8 d   1      17.819  18.927  19.395  0.00  0.00     0.028 H 
ENDBRANCH  24  33
ENDBRANCH  18  24
ENDBRANCH   3  14
BRANCH   2  37
ATOM     37  C19 4U8 d   1      14.989  16.895  31.707  0.00  0.00     0.040 A 
ATOM     38  C24 4U8 d   1      14.246  17.817  32.460  0.00  0.00    -0.054 A 
ATOM     39  C23 4U8 d   1      13.089  17.406  33.143  0.00  0.00    -0.049 A 
ATOM     40  H6  4U8 d   1      14.566  18.851  32.515  0.00  0.00     0.087 H 
ATOM     41  C22 4U8 d   1      12.652  16.078  33.079  0.00  0.00     0.069 A 
ATOM     42  H7  4U8 d   1      12.528  18.127  33.727  0.00  0.00     0.087 H 
ATOM     43  C21 4U8 d   1      13.398  15.163  32.318  0.00  0.00    -0.049 A 
ATOM     44  C20 4U8 d   1      14.557  15.562  31.640  0.00  0.00    -0.054 A 
ATOM     45  H15 4U8 d   1      13.072  14.131  32.254  0.00  0.00     0.087 H 
ATOM     46  H16 4U8 d   1      15.121  14.839  31.062  0.00  0.00     0.087 H 
BRANCH  41  47
ATOM     47  O1  4U8 d   1      11.533  15.597  33.716  0.00  0.00    -0.347 OA
BRANCH  47  48
ATOM     48  C25 4U8 d   1      11.090  14.230  33.652  0.00  0.00     0.038 C 
ATOM     49  H8  4U8 d   1      11.271  13.816  32.649  0.00  0.00     0.082 H 
BRANCH  48  50
ATOM     50  C27 4U8 d   1      11.808  13.379  34.698  0.00  0.00    -0.052 C 
ATOM     51  H9  4U8 d   1      11.454  12.340  34.631  0.00  0.00     0.030 H 
ATOM     52  H10 4U8 d   1      11.595  13.775  35.702  0.00  0.00     0.030 H 
ATOM     53  H11 4U8 d   1      12.892  13.410  34.514  0.00  0.00     0.030 H 
ENDBRANCH  48  50
BRANCH  48  54
ATOM     54  C26 4U8 d   1       9.595  14.258  33.961  0.00  0.00    -0.052 C 
ATOM     55  H12 4U8 d   1       9.194  13.234  33.927  0.00  0.00     0.030 H 
ATOM     56  H13 4U8 d   1       9.078  14.879  33.215  0.00  0.00     0.030 H 
ATOM     57  H14 4U8 d   1       9.436  14.681  34.964  0.00  0.00     0.030 H 
ENDBRANCH  48  54
ENDBRANCH  47  48
ENDBRANCH  41  47
ENDBRANCH   2  37
BRANCH   4  58
ATOM     58  C28 4U8 d   1      17.596  18.206  32.921  0.00  0.00     0.227 C 
ATOM     59  O2  4U8 d   1      17.161  17.211  33.731  0.00  0.00    -0.643 OA
ATOM     60  O3  4U8 d   1      18.360  19.060  33.338  0.00  0.00    -0.643 OA
ENDBRANCH   4  58
TORSDOF 11
