REMARK  5 active torsions:
REMARK  status: ('A' for Active; 'I' for Inactive)
REMARK    1  A    between atoms: C6_2  and  C7_1 
REMARK    2  A    between atoms: C18_17  and  C1_3 
REMARK    3  A    between atoms: C2_9  and  C4_6 
REMARK    4  A    between atoms: C8_22  and  C9_23 
REMARK    5  A    between atoms: C12_26  and  C13_27 
ROOT
ATOM      1  C6  4U9 d   1      16.178  16.789  27.220  0.00  0.00     0.110 A 
ATOM      2  C5  4U9 d   1      14.633  15.849  28.638  0.00  0.00     0.016 A 
ATOM      3  C4  4U9 d   1      15.252  16.361  29.782  0.00  0.00     0.013 A 
ATOM      4  C17 4U9 d   1      16.405  17.132  29.575  0.00  0.00    -0.067 A 
ATOM      5  C16 4U9 d   1      16.882  17.352  28.279  0.00  0.00    -0.046 A 
ATOM      6  N3  4U9 d   1      15.067  16.036  27.364  0.00  0.00    -0.251 NA
ATOM      7  H1  4U9 d   1      13.736  15.256  28.778  0.00  0.00     0.116 H 
ATOM      8  H6  4U9 d   1      16.928  17.559  30.423  0.00  0.00     0.085 H 
ATOM      9  H7  4U9 d   1      17.774  17.944  28.105  0.00  0.00     0.088 H 
ENDROOT
BRANCH   3  10
ATOM     10  C2  4U9 d   1      14.730  16.113  31.117  0.00  0.00     0.104 A 
ATOM     11  N1  4U9 d   1      13.591  15.361  31.293  0.00  0.00    -0.227 NA
ATOM     12  C1  4U9 d   1      13.339  15.289  32.580  0.00  0.00     0.144 A 
ATOM     13  N2  4U9 d   1      14.290  15.988  33.269  0.00  0.00    -0.332 N 
ATOM     14  C3  4U9 d   1      15.161  16.511  32.367  0.00  0.00     0.111 A 
ATOM     15  H5  4U9 d   1      14.338  16.099  34.292  0.00  0.00     0.168 HD
ATOM     16 BR1  4U9 d   1      16.611  17.548  32.948  0.00  0.00    -0.029 Br
BRANCH  12  17
ATOM     17  C18 4U9 d   1      12.239  14.567  33.212  0.00  0.00     0.070 A 
ATOM     18  C23 4U9 d   1      12.461  13.426  34.011  0.00  0.00     0.051 A 
ATOM     19 CL1  4U9 d   1      14.056  12.807  34.350  0.00  0.00    -0.083 Cl
ATOM     20  C22 4U9 d   1      11.360  12.751  34.580  0.00  0.00    -0.061 A 
ATOM     21  C21 4U9 d   1      10.052  13.203  34.353  0.00  0.00    -0.078 A 
ATOM     22  H2  4U9 d   1      11.527  11.876  35.198  0.00  0.00     0.086 H 
ATOM     23  C20 4U9 d   1       9.829  14.328  33.558  0.00  0.00    -0.045 A 
ATOM     24  H3  4U9 d   1       9.213  12.678  34.796  0.00  0.00     0.083 H 
ATOM     25  C19 4U9 d   1      10.920  14.993  32.992  0.00  0.00     0.132 A 
ATOM     26  H4  4U9 d   1       8.820  14.682  33.381  0.00  0.00     0.088 H 
ATOM     27  F4  4U9 d   1      10.700  16.074  32.223  0.00  0.00    -0.205 F 
ENDBRANCH  12  17
ENDBRANCH   3  10
BRANCH   1  28
ATOM     28  C7  4U9 d   1      16.605  16.950  25.875  0.00  0.00    -0.041 C 
ATOM     29  C8  4U9 d   1      17.024  17.067  24.756  0.00  0.00    -0.060 C 
BRANCH  29  30
ATOM     30  C9  4U9 d   1      17.568  17.141  23.441  0.00  0.00     0.018 A 
ATOM     31  C15 4U9 d   1      17.589  16.008  22.618  0.00  0.00    -0.064 A 
ATOM     32  C14 4U9 d   1      18.129  16.099  21.329  0.00  0.00    -0.067 A 
ATOM     33  H8  4U9 d   1      17.190  15.066  22.977  0.00  0.00     0.085 H 
ATOM     34  C12 4U9 d   1      18.650  17.323  20.861  0.00  0.00     0.048 A 
ATOM     35  H9  4U9 d   1      18.147  15.225  20.688  0.00  0.00     0.084 H 
ATOM     36  C11 4U9 d   1      18.621  18.450  21.704  0.00  0.00    -0.067 A 
ATOM     37  C10 4U9 d   1      18.082  18.360  22.990  0.00  0.00    -0.064 A 
ATOM     38  H10 4U9 d   1      19.020  19.395  21.353  0.00  0.00     0.084 H 
ATOM     39  H11 4U9 d   1      18.063  19.231  23.635  0.00  0.00     0.085 H 
BRANCH  34  40
ATOM     40  C13 4U9 d   1      19.246  17.419  19.477  0.00  0.00     0.417 C 
ATOM     41  F3  4U9 d   1      20.436  16.760  19.382  0.00  0.00    -0.166 F 
ATOM     42  F2  4U9 d   1      19.501  18.704  19.100  0.00  0.00    -0.166 F 
ATOM     43  F1  4U9 d   1      18.458  16.885  18.505  0.00  0.00    -0.166 F 
ENDBRANCH  34  40
ENDBRANCH  29  30
ENDBRANCH   1  28
TORSDOF 5
