REMARK  1 active torsions:
REMARK  status: ('A' for Active; 'I' for Inactive)
REMARK    1  A    between atoms: C14_12  and  C15_13 
ROOT
ATOM      1  C4  4E1 d   1       9.800   9.910  24.254  0.00  0.00     0.020 A 
ATOM      2  C5  4E1 d   1      10.767   9.584  23.330  0.00  0.00    -0.069 A 
ATOM      3  C6  4E1 d   1       9.674   9.221  25.452  0.00  0.00     0.059 A 
ATOM      4  N1  4E1 d   1       7.944  11.260  24.882  0.00  0.00    -0.240 NA
ATOM      5  C7  4E1 d   1       8.735   9.578  26.383  0.00  0.00     0.040 A 
ATOM      6  C8  4E1 d   1       8.936   8.671  27.506  0.00  0.00     0.007 A 
ATOM      7  C9  4E1 d   1       8.273   8.555  28.711  0.00  0.00    -0.070 A 
ATOM      8  C10 4E1 d   1       8.684   7.541  29.606  0.00  0.00    -0.081 A 
ATOM      9  C11 4E1 d   1       9.747   6.677  29.284  0.00  0.00    -0.065 A 
ATOM     10  C12 4E1 d   1      10.385   6.814  28.062  0.00  0.00     0.034 A 
ATOM     11  C13 4E1 d   1       9.987   7.807  27.179  0.00  0.00     0.060 A 
ATOM     12  C14 4E1 d   1       7.855  10.620  26.077  0.00  0.00     0.147 A 
ATOM     13  I   4E1 d   1      11.961   5.568  27.584  0.00  0.00    -0.042 I 
ATOM     14  N   4E1 d   1      10.418   8.163  25.920  0.00  0.00    -0.353 N 
ATOM     15  C3  4E1 d   1       8.898  10.925  23.980  0.00  0.00     0.070 A 
ATOM     16  C   4E1 d   1      10.837  10.276  22.138  0.00  0.00    -0.082 A 
ATOM     17  C1  4E1 d   1       9.952  11.307  21.878  0.00  0.00    -0.081 A 
ATOM     18  C2  4E1 d   1       8.977  11.624  22.799  0.00  0.00    -0.054 A 
ATOM     19  H1  4E1 d   1      11.471   8.787  23.538  0.00  0.00     0.085 H 
ATOM     20  H2  4E1 d   1       7.458   9.224  28.964  0.00  0.00     0.084 H 
ATOM     21  H3  4E1 d   1       8.172   7.427  30.555  0.00  0.00     0.083 H 
ATOM     22  H4  4E1 d   1      10.063   5.913  29.985  0.00  0.00     0.085 H 
ATOM     23  H5  4E1 d   1      11.184   7.705  25.405  0.00  0.00     0.166 HD
ATOM     24  H6  4E1 d   1      11.588  10.011  21.403  0.00  0.00     0.083 H 
ATOM     25  H7  4E1 d   1      10.025  11.865  20.951  0.00  0.00     0.083 H 
ATOM     26  H8  4E1 d   1       8.274  12.423  22.593  0.00  0.00     0.087 H 
ENDROOT
BRANCH  12  27
ATOM     27  C15 4E1 d   1       6.809  11.161  26.932  0.00  0.00     0.230 C 
ATOM     28  O   4E1 d   1       5.859  11.872  26.305  0.00  0.00    -0.643 OA
ATOM     29  O1  4E1 d   1       6.882  11.054  28.145  0.00  0.00    -0.643 OA
ENDBRANCH  12  27
TORSDOF 1
