REMARK  1 active torsions:
REMARK  status: ('A' for Active; 'I' for Inactive)
REMARK    1  A    between atoms: CAM_2  and  CAP_4 
ROOT
ATOM      1  CAP 4E2 d   1      19.363  51.591  35.226  0.00  0.00     0.147 A 
ATOM      2  NAK 4E2 d   1      19.718  50.827  34.104  0.00  0.00    -0.240 NA
ATOM      3  CAQ 4E2 d   1      19.170  49.585  33.979  0.00  0.00     0.070 A 
ATOM      4  CAI 4E2 d   1      19.537  48.725  32.948  0.00  0.00    -0.053 A 
ATOM      5  CAG 4E2 d   1      18.955  47.479  32.840  0.00  0.00    -0.065 A 
ATOM      6  CAN 4E2 d   1      17.991  47.118  33.759  0.00  0.00     0.007 A 
ATOM      7  IAD 4E2 d   1      17.076  45.267  33.559  0.00  0.00    -0.045 I 
ATOM      8  CAJ 4E2 d   1      17.626  47.972  34.798  0.00  0.00    -0.053 A 
ATOM      9  CAR 4E2 d   1      18.208  49.216  34.902  0.00  0.00     0.022 A 
ATOM     10  CAU 4E2 d   1      17.827  50.074  35.944  0.00  0.00     0.059 A 
ATOM     11  CAV 4E2 d   1      18.362  51.281  36.213  0.00  0.00     0.040 A 
ATOM     12  CAS 4E2 d   1      17.675  51.789  37.373  0.00  0.00     0.007 A 
ATOM     13  CAH 4E2 d   1      17.730  52.965  38.163  0.00  0.00    -0.070 A 
ATOM     14  CAE 4E2 d   1      16.844  53.083  39.258  0.00  0.00    -0.080 A 
ATOM     15  CAF 4E2 d   1      15.928  52.085  39.583  0.00  0.00    -0.060 A 
ATOM     16  CAO 4E2 d   1      15.865  50.941  38.806  0.00  0.00     0.061 A 
ATOM     17 CLA  4E2 d   1      14.713  49.632  39.153  0.00  0.00    -0.082 Cl
ATOM     18  CAT 4E2 d   1      16.729  50.824  37.727  0.00  0.00     0.066 A 
ATOM     19  NAL 4E2 d   1      16.862  49.800  36.831  0.00  0.00    -0.353 N 
ATOM     20  H1  4E2 d   1      20.284  49.036  32.226  0.00  0.00     0.087 H 
ATOM     21  H2  4E2 d   1      19.249  46.798  32.050  0.00  0.00     0.085 H 
ATOM     22  H3  4E2 d   1      16.885  47.657  35.524  0.00  0.00     0.086 H 
ATOM     23  H4  4E2 d   1      18.435  53.755  37.933  0.00  0.00     0.084 H 
ATOM     24  H5  4E2 d   1      16.878  53.980  39.865  0.00  0.00     0.083 H 
ATOM     25  H6  4E2 d   1      15.271  52.203  40.437  0.00  0.00     0.086 H 
ATOM     26  H7  4E2 d   1      16.298  48.938  36.837  0.00  0.00     0.166 HD
ENDROOT
BRANCH   1  27
ATOM     27  CAM 4E2 d   1      20.114  52.697  35.230  0.00  0.00     0.230 C 
ATOM     28  OAA 4E2 d   1      20.780  52.851  34.134  0.00  0.00    -0.643 OA
ATOM     29  OAB 4E2 d   1      20.157  53.163  36.398  0.00  0.00    -0.643 OA
ENDBRANCH   1  27
TORSDOF 1
