REMARK  1 active torsions:
REMARK  status: ('A' for Active; 'I' for Inactive)
REMARK    1  A    between atoms: CAM_2  and  CAP_4 
ROOT
ATOM      1  CAP 4E3 d   1      19.495  51.584  35.081  0.00  0.00     0.147 C 
ATOM      2  NAK 4E3 d   1      19.771  50.846  33.854  0.00  0.00    -0.240 NA
ATOM      3  CAQ 4E3 d   1      19.172  49.602  33.796  0.00  0.00     0.070 A 
ATOM      4  CAI 4E3 d   1      19.472  48.706  32.755  0.00  0.00    -0.053 A 
ATOM      5  CAG 4E3 d   1      18.873  47.473  32.689  0.00  0.00    -0.065 A 
ATOM      6  CAN 4E3 d   1      17.931  47.151  33.659  0.00  0.00     0.007 A 
ATOM      7  CAJ 4E3 d   1      17.650  48.014  34.714  0.00  0.00    -0.053 A 
ATOM      8  CAR 4E3 d   1      18.253  49.265  34.791  0.00  0.00     0.022 A 
ATOM      9  CAU 4E3 d   1      17.893  50.122  35.850  0.00  0.00     0.059 A 
ATOM     10  CAV 4E3 d   1      18.500  51.308  36.147  0.00  0.00     0.040 A 
ATOM     11  CAS 4E3 d   1      17.845  51.795  37.321  0.00  0.00     0.007 A 
ATOM     12  CAH 4E3 d   1      17.949  52.951  38.144  0.00  0.00    -0.070 A 
ATOM     13  CAE 4E3 d   1      17.048  53.078  39.226  0.00  0.00    -0.081 A 
ATOM     14  CAF 4E3 d   1      16.109  52.096  39.575  0.00  0.00    -0.064 A 
ATOM     15  CAO 4E3 d   1      16.015  50.954  38.802  0.00  0.00     0.038 A 
ATOM     16 BRA  4E3 d   1      14.762  49.544  39.189  0.00  0.00    -0.049 Br
ATOM     17  CAT 4E3 d   1      16.848  50.843  37.688  0.00  0.00     0.061 A 
ATOM     18  NAL 4E3 d   1      16.938  49.842  36.741  0.00  0.00    -0.353 N 
ATOM     19  I   4E3 d   1      17.086  45.201  33.588  0.00  0.00    -0.045 I 
ATOM     20  H1  4E3 d   1      20.187  48.993  31.993  0.00  0.00     0.087 H 
ATOM     21  H2  4E3 d   1      19.127  46.771  31.903  0.00  0.00     0.085 H 
ATOM     22  H3  4E3 d   1      16.953  47.708  35.485  0.00  0.00     0.086 H 
ATOM     23  H4  4E3 d   1      18.696  53.711  37.947  0.00  0.00     0.084 H 
ATOM     24  H5  4E3 d   1      17.085  53.985  39.819  0.00  0.00     0.083 H 
ATOM     25  H6  4E3 d   1      15.467  52.231  40.438  0.00  0.00     0.085 H 
ATOM     26  H7  4E3 d   1      16.350  48.996  36.724  0.00  0.00     0.166 HD
ENDROOT
BRANCH   1  27
ATOM     27  CAM 4E3 d   1      20.268  52.600  35.090  0.00  0.00     0.230 C 
ATOM     28  OAA 4E3 d   1      20.968  52.700  33.980  0.00  0.00    -0.643 OA
ATOM     29  OAB 4E3 d   1      20.311  52.990  36.315  0.00  0.00    -0.643 OA
ENDBRANCH   1  27
TORSDOF 1
