REMARK  8 active torsions:
REMARK  status: ('A' for Active; 'I' for Inactive)
REMARK       I    between atoms: C02_2  and  N03_3 
REMARK    1  A    between atoms: C02_2  and  C21_21 
REMARK    2  A    between atoms: N03_3  and  C04_4 
REMARK    3  A    between atoms: N03_3  and  C15_15 
REMARK    4  A    between atoms: C07_7  and  N08_8 
REMARK       I    between atoms: N08_8  and  C09_9 
REMARK    5  A    between atoms: C09_9  and  C10_10 
REMARK    6  A    between atoms: C10_10  and  C11_11 
REMARK    7  A    between atoms: C15_15  and  C16_16 
REMARK    8  A    between atoms: C21_21  and  N22_22 
ROOT
ATOM      1  O01 R30 d   1      35.122 -20.195  36.092  0.00  0.00    -0.271 OA
ATOM      2  C02 R30 d   1      36.031 -19.610  36.749  0.00  0.00     0.244 C 
ATOM      3  N03 R30 d   1      37.329 -19.831  36.412  0.00  0.00    -0.312 N 
ENDROOT
BRANCH   3   4
ATOM      4  C04 R30 d   1      38.412 -19.204  37.117  0.00  0.00     0.037 A 
ATOM      5  C05 R30 d   1      38.965 -18.006  36.640  0.00  0.00    -0.055 A 
ATOM      6  C06 R30 d   1      40.074 -17.338  37.240  0.00  0.00    -0.055 A 
ATOM      7  H1  R30 d   1      38.521 -17.559  35.758  0.00  0.00     0.087 H 
ATOM      8  C07 R30 d   1      40.685 -17.812  38.398  0.00  0.00     0.034 A 
ATOM      9  H2  R30 d   1      40.453 -16.433  36.780  0.00  0.00     0.087 H 
ATOM     10  C13 R30 d   1      40.135 -19.009  38.899  0.00  0.00    -0.055 A 
ATOM     11  C14 R30 d   1      39.025 -19.676  38.289  0.00  0.00    -0.055 A 
ATOM     12  H9  R30 d   1      40.574 -19.445  39.789  0.00  0.00     0.087 H 
ATOM     13  H10 R30 d   1      38.643 -20.580  38.749  0.00  0.00     0.087 H 
BRANCH   8  14
ATOM     14  N08 R30 d   1      41.815 -17.146  39.036  0.00  0.00    -0.327 N 
ATOM     15  C09 R30 d   1      42.152 -15.792  38.955  0.00  0.00     0.221 C 
ATOM     16  O12 R30 d   1      41.410 -15.044  38.291  0.00  0.00    -0.273 OA
ATOM     17  H3  R30 d   1      42.414 -17.721  39.593  0.00  0.00     0.169 HD
BRANCH  15  18
ATOM     18  C10 R30 d   1      43.364 -15.095  39.610  0.00  0.00     0.006 C 
ATOM     19  H4  R30 d   1      44.007 -14.725  38.798  0.00  0.00     0.046 H 
ATOM     20  H5  R30 d   1      43.907 -15.857  40.189  0.00  0.00     0.046 H 
BRANCH  18  21
ATOM     21  C11 R30 d   1      43.092 -13.923  40.544  0.00  0.00    -0.068 C 
ATOM     22  H6  R30 d   1      44.045 -13.533  40.930  0.00  0.00     0.028 H 
ATOM     23  H7  R30 d   1      42.467 -14.261  41.384  0.00  0.00     0.028 H 
ATOM     24  H8  R30 d   1      42.568 -13.129  39.993  0.00  0.00     0.028 H 
ENDBRANCH  18  21
ENDBRANCH  15  18
ENDBRANCH   8  14
ENDBRANCH   3   4
BRANCH   3  25
ATOM     25  C15 R30 d   1      37.710 -20.815  35.375  0.00  0.00     0.027 C 
ATOM     26  H11 R30 d   1      38.140 -20.279  34.516  0.00  0.00     0.072 H 
ATOM     27  H12 R30 d   1      36.811 -21.362  35.054  0.00  0.00     0.072 H 
BRANCH  25  28
ATOM     28  C16 R30 d   1      38.743 -21.821  35.902  0.00  0.00    -0.033 A 
ATOM     29  C17 R30 d   1      40.068 -21.589  35.802  0.00  0.00    -0.037 A 
ATOM     30  S18 R30 d   1      41.020 -22.793  36.539  0.00  0.00    -0.113 SA
ATOM     31  H13 R30 d   1      40.487 -20.718  35.300  0.00  0.00     0.095 H 
ATOM     32  C19 R30 d   1      39.642 -23.656  37.053  0.00  0.00    -0.044 A 
ATOM     33  C20 R30 d   1      38.523 -23.008  36.650  0.00  0.00    -0.069 A 
ATOM     34  H14 R30 d   1      39.659 -24.586  37.619  0.00  0.00     0.095 H 
ATOM     35  H15 R30 d   1      37.524 -23.372  36.883  0.00  0.00     0.085 H 
ENDBRANCH  25  28
ENDBRANCH   3  25
BRANCH   2  36
ATOM     36  C21 R30 d   1      35.580 -18.661  37.923  0.00  0.00     0.093 C 
ATOM     37  H16 R30 d   1      36.162 -17.733  37.822  0.00  0.00     0.082 H 
ATOM     38  H17 R30 d   1      35.854 -19.165  38.861  0.00  0.00     0.082 H 
BRANCH  36  39
ATOM     39  N22 R30 d   1      34.235 -18.284  38.044  0.00  0.00    -0.240 N 
ATOM     40  N23 R30 d   1      33.348 -18.977  38.834  0.00  0.00    -0.065 NA
ATOM     41  N24 R30 d   1      32.193 -18.487  38.759  0.00  0.00    -0.130 NA
ATOM     42  C25 R30 d   1      32.246 -17.351  37.833  0.00  0.00     0.109 A 
ATOM     43  C26 R30 d   1      33.573 -17.269  37.399  0.00  0.00     0.085 A 
ATOM     44  C30 R30 d   1      31.298 -16.447  37.357  0.00  0.00    -0.051 A 
ATOM     45  C27 R30 d   1      33.985 -16.263  36.486  0.00  0.00    -0.053 A 
ATOM     46  C28 R30 d   1      33.058 -15.354  36.015  0.00  0.00    -0.081 A 
ATOM     47  H18 R30 d   1      35.018 -16.209  36.161  0.00  0.00     0.087 H 
ATOM     48  C29 R30 d   1      31.695 -15.445  36.450  0.00  0.00    -0.081 A 
ATOM     49  H19 R30 d   1      33.359 -14.577  35.321  0.00  0.00     0.083 H 
ATOM     50  H20 R30 d   1      30.964 -14.737  36.078  0.00  0.00     0.083 H 
ATOM     51  H21 R30 d   1      30.266 -16.514  37.681  0.00  0.00     0.087 H 
ENDBRANCH  36  39
ENDBRANCH   2  36
TORSDOF 8
