REMARK  13 active torsions:
REMARK  status: ('A' for Active; 'I' for Inactive)
REMARK    1  A    between atoms: O1_7  and  C1_1 
REMARK    2  A    between atoms: C2_2  and  O2_8 
REMARK    3  A    between atoms: C3_3  and  O3_9 
REMARK    4  A    between atoms: C4_4  and  O4_10 
REMARK    5  A    between atoms: C5_5  and  C6_6 
REMARK    6  A    between atoms: C6_6  and  O6_12 
REMARK    7  A    between atoms: C4_19  and  O1_7 
REMARK    8  A    between atoms: O3_9  and  S_13 
REMARK    9  A    between atoms: C2_17  and  O2_24 
REMARK   10  A    between atoms: C3_18  and  O3_25 
REMARK   11  A    between atoms: C5_20  and  C6_21 
REMARK   12  A    between atoms: C6_21  and  O6_27 
REMARK   13  A    between atoms: C1_22  and  O1_23 
ROOT
ATOM      1  C1  SGA d   1     -48.767  26.976  38.660  0.00  0.00     0.159 C 
ATOM      2  C2  SGA d   1     -47.872  28.171  39.019  0.00  0.00     0.112 C 
ATOM      3  C3  SGA d   1     -46.444  27.825  38.580  0.00  0.00     0.116 C 
ATOM      4  C4  SGA d   1     -45.937  26.530  39.273  0.00  0.00     0.091 C 
ATOM      5  C5  SGA d   1     -46.957  25.433  38.941  0.00  0.00     0.089 C 
ATOM      6  O5  SGA d   1     -48.256  25.852  39.382  0.00  0.00    -0.348 OA
ATOM      7  H1  SGA d   1     -48.667  26.778  37.583  0.00  0.00     0.133 H 
ATOM      8  H2  SGA d   1     -47.911  28.361  40.102  0.00  0.00     0.094 H 
ATOM      9  H3  SGA d   1     -46.524  27.563  37.515  0.00  0.00     0.094 H 
ATOM     10  H4  SGA d   1     -44.964  26.270  38.830  0.00  0.00     0.091 H 
ATOM     11  H5  SGA d   1     -46.980  25.315  37.848  0.00  0.00     0.090 H 
ENDROOT
BRANCH   1  12
ATOM     12  O1  SGA d   1     -50.172  27.207  38.927  0.00  0.00    -0.348 OA
BRANCH  12  13
ATOM     13  C4  BGC d   1     -51.168  26.298  39.109  0.00  0.00     0.096 C 
ATOM     14  C3  BGC d   1     -51.856  26.233  40.476  0.00  0.00     0.092 C 
ATOM     15  C2  BGC d   1     -53.233  25.613  40.453  0.00  0.00     0.110 C 
ATOM     16  H12 SGA d   1     -51.952  27.256  40.869  0.00  0.00     0.091 H 
ATOM     17  C1  BGC d   1     -54.067  26.203  39.328  0.00  0.00     0.156 C 
ATOM     18  H11 SGA d   1     -53.138  24.528  40.299  0.00  0.00     0.094 H 
ATOM     19  O5  BGC d   1     -53.454  25.807  38.110  0.00  0.00    -0.349 OA
ATOM     20  H17 SGA d   1     -54.087  27.300  39.405  0.00  0.00     0.133 H 
ATOM     21  C5  BGC d   1     -52.129  26.341  37.871  0.00  0.00     0.089 C 
ATOM     22  H14 SGA d   1     -52.356  27.416  37.925  0.00  0.00     0.090 H 
ATOM     23  H13 SGA d   1     -50.662  25.324  39.039  0.00  0.00     0.091 H 
BRANCH  14  24
ATOM     24  O3  BGC d   1     -50.998  25.478  41.322  0.00  0.00    -0.390 OA
ATOM     25  H20 SGA d   1     -50.881  24.608  40.958  0.00  0.00     0.210 HD
ENDBRANCH  14  24
BRANCH  15  26
ATOM     26  O2  BGC d   1     -53.879  25.860  41.703  0.00  0.00    -0.388 OA
ATOM     27  H19 SGA d   1     -54.739  25.456  41.699  0.00  0.00     0.210 HD
ENDBRANCH  15  26
BRANCH  17  28
ATOM     28  O1  BGC d   1     -55.409  25.690  39.390  0.00  0.00    -0.369 OA
ATOM     29  H18 SGA d   1     -55.912  26.032  38.660  0.00  0.00     0.212 HD
ENDBRANCH  17  28
BRANCH  21  30
ATOM     30  C6  BGC d   1     -51.730  26.310  36.380  0.00  0.00     0.043 C 
ATOM     31  H15 SGA d   1     -51.811  25.281  36.000  0.00  0.00     0.078 H 
ATOM     32  H16 SGA d   1     -50.693  26.660  36.271  0.00  0.00     0.078 H 
BRANCH  30  33
ATOM     33  O6  BGC d   1     -52.596  27.157  35.640  0.00  0.00    -0.398 OA
ATOM     34  H21 SGA d   1     -53.491  26.854  35.735  0.00  0.00     0.209 HD
ENDBRANCH  30  33
ENDBRANCH  21  30
ENDBRANCH  12  13
ENDBRANCH   1  12
BRANCH   2  35
ATOM     35  O2  SGA d   1     -48.275  29.336  38.303  0.00  0.00    -0.388 OA
ATOM     36  H8  SGA d   1     -47.684  30.051  38.506  0.00  0.00     0.210 HD
ENDBRANCH   2  35
BRANCH   3  37
ATOM     37  O3  SGA d   1     -45.532  28.948  38.607  0.00  0.00    -0.246 OA
BRANCH  37  38
ATOM     38  S   SGA d   1     -44.425  29.105  37.520  0.00  0.00     0.252 S 
ATOM     39  O1S SGA d   1     -44.656  30.438  36.611  0.00  0.00    -0.572 OA
ATOM     40  O2S SGA d   1     -44.469  28.017  36.600  0.00  0.00    -0.572 OA
ATOM     41  O3S SGA d   1     -43.122  29.101  38.119  0.00  0.00    -0.572 OA
ENDBRANCH  37  38
ENDBRANCH   3  37
BRANCH   5  42
ATOM     42  C6  SGA d   1     -46.612  24.072  39.546  0.00  0.00     0.043 C 
ATOM     43  H6  SGA d   1     -46.445  24.181  40.628  0.00  0.00     0.078 H 
ATOM     44  H7  SGA d   1     -45.701  23.678  39.072  0.00  0.00     0.078 H 
BRANCH  42  45
ATOM     45  O6  SGA d   1     -47.700  23.171  39.317  0.00  0.00    -0.398 OA
ATOM     46  H10 SGA d   1     -48.486  23.514  39.726  0.00  0.00     0.209 HD
ENDBRANCH  42  45
ENDBRANCH   5  42
BRANCH   4  47
ATOM     47  O4  SGA d   1     -45.756  26.585  40.696  0.00  0.00    -0.390 OA
ATOM     48  H9  SGA d   1     -45.125  27.263  40.908  0.00  0.00     0.210 HD
ENDBRANCH   4  47
TORSDOF 13
