REMARK WARNING: 32 MAX_TORS EXCEEDED!!!
REMARK  54 active torsions:
REMARK  status: ('A' for Active; 'I' for Inactive)
REMARK    1  A    between atoms: N_1  and  CA_2 
REMARK    2  A    between atoms: CA_2  and  C_3 
REMARK    3  A    between atoms: CA_2  and  CB_5 
REMARK       I    between atoms: C_3  and  N_9 
REMARK    4  A    between atoms: CB_5  and  CG_6 
REMARK    5  A    between atoms: CG_6  and  SD_7 
REMARK    6  A    between atoms: SD_7  and  CE_8 
REMARK    7  A    between atoms: N_9  and  CA_10 
REMARK    8  A    between atoms: CA_10  and  C_11 
REMARK    9  A    between atoms: CA_10  and  CB_13 
REMARK       I    between atoms: C_11  and  N_16 
REMARK   10  A    between atoms: CB_13  and  OG1_14 
REMARK   11  A    between atoms: CB_13  and  CG2_15 
REMARK   12  A    between atoms: N_16  and  CA_17 
REMARK   13  A    between atoms: CA_17  and  C_18 
REMARK   14  A    between atoms: CA_17  and  CB_20 
REMARK       I    between atoms: C_18  and  N_22 
REMARK   15  A    between atoms: CB_20  and  OG_21 
REMARK   16  A    between atoms: N_22  and  CA_23 
REMARK   17  A    between atoms: CA_23  and  C_24 
REMARK   18  A    between atoms: CA_23  and  CB_26 
REMARK       I    between atoms: C_24  and  N_33 
REMARK   19  A    between atoms: CB_26  and  CG_27 
REMARK   20  A    between atoms: N_33  and  CA_34 
REMARK   21  A    between atoms: CA_34  and  C_35 
REMARK   22  A    between atoms: CA_34  and  CB_37 
REMARK       I    between atoms: C_35  and  N_42 
REMARK   23  A    between atoms: CB_37  and  CG_38 
REMARK   24  A    between atoms: CG_38  and  CD_39 
REMARK   25  A    between atoms: N_42  and  CA_43 
REMARK   26  A    between atoms: CA_43  and  C_44 
REMARK   27  A    between atoms: CA_43  and  CB_46 
REMARK       I    between atoms: C_44  and  N_50 
REMARK   28  A    between atoms: CB_46  and  CG_47 
REMARK   29  A    between atoms: N_50  and  CA_51 
REMARK   30  A    between atoms: CA_51  and  C_52 
REMARK   31  A    between atoms: CA_51  and  CB_54 
REMARK       I    between atoms: C_52  and  N_55 
REMARK   32  A    between atoms: N_55  and  CA_56 
REMARK   33  A    between atoms: CA_56  and  C_57 
REMARK   34  A    between atoms: CA_56  and  CB_59 
REMARK       I    between atoms: C_57  and  N_63 
REMARK   35  A    between atoms: CB_59  and  CG_60 
REMARK   36  A    between atoms: N_63  and  CA_64 
REMARK   37  A    between atoms: CA_64  and  CB_65 
REMARK   38  A    between atoms: CA_64  and  C_72 
REMARK   39  A    between atoms: CB_65  and  CG2_66 
REMARK   40  A    between atoms: CB_65  and  OG1_67 
REMARK   41  A    between atoms: OG1_67  and  P_68 
REMARK       I    between atoms: C_72  and  N_74 
REMARK   42  A    between atoms: N_74  and  CA_75 
REMARK   43  A    between atoms: CA_75  and  C_76 
REMARK   44  A    between atoms: CA_75  and  CB_78 
REMARK       I    between atoms: C_76  and  N_83 
REMARK   45  A    between atoms: CB_78  and  CG_79 
REMARK   46  A    between atoms: CG_79  and  CD_80 
REMARK   47  A    between atoms: N_83  and  CA_84 
REMARK   48  A    between atoms: CA_84  and  C_85 
REMARK   49  A    between atoms: CA_84  and  CB_87 
REMARK       I    between atoms: C_85  and  N_92 
REMARK   50  A    between atoms: CB_87  and  CG_88 
REMARK   51  A    between atoms: CG_88  and  CD_89 
REMARK   52  A    between atoms: N_92  and  CA_93 
REMARK   53  A    between atoms: CA_93  and  C_94 
REMARK   54  A    between atoms: CA_93  and  CB_96 
ROOT
ATOM      1  CA  ASP d   1      46.732   6.067  14.171  0.00  0.00     0.098 C 
ATOM      2  H40 ASP d   1      46.516   5.351  14.978  0.00  0.00     0.088 H 
ENDROOT
BRANCH   1   3
ATOM      3  N   ASP d   1      47.938   5.573  13.511  0.00  0.00    -0.346 N 
ATOM      4  C   GLU d   1      48.223   4.282  13.451  0.00  0.00     0.241 C 
ATOM      5  O   GLU d   1      47.507   3.455  13.944  0.00  0.00    -0.271 OA
ATOM      6  H39 ASP d   1      48.566   6.229  13.093  0.00  0.00     0.163 HD
BRANCH   4   7
ATOM      7  CA  GLU d   1      49.519   3.862  12.807  0.00  0.00     0.090 C 
ATOM      8  H34 GLU d   1      49.362   2.855  12.392  0.00  0.00     0.087 H 
BRANCH   7   9
ATOM      9  N   GLU d   1      49.852   4.723  11.705  0.00  0.00    -0.346 N 
ATOM     10  C   PHE d   1      49.070   4.764  10.653  0.00  0.00     0.241 C 
ATOM     11  O   PHE d   1      48.091   4.068  10.565  0.00  0.00    -0.271 OA
ATOM     12  H33 GLU d   1      50.676   5.288  11.740  0.00  0.00     0.163 HD
BRANCH  10  13
ATOM     13  CA  PHE d   1      49.476   5.648   9.503  0.00  0.00     0.093 C 
ATOM     14  H25 PHE d   1      48.642   5.626   8.787  0.00  0.00     0.088 H 
BRANCH  13  15
ATOM     15  N   PHE d   1      49.793   7.054   9.703  0.00  0.00    -0.346 N 
ATOM     16  C   SER d   1      48.857   7.938  10.025  0.00  0.00     0.243 C 
ATOM     17  O   SER d   1      47.738   7.624  10.363  0.00  0.00    -0.271 OA
ATOM     18  H24 PHE d   1      50.739   7.361   9.595  0.00  0.00     0.163 HD
BRANCH  16  19
ATOM     19  CA  SER d   1      49.214   9.396   9.907  0.00  0.00     0.109 C 
ATOM     20  H20 SER d   1      50.252   9.508   9.561  0.00  0.00     0.090 H 
BRANCH  19  21
ATOM     21  N   SER d   1      48.294   9.990   8.941  0.00  0.00    -0.344 N 
ATOM     22  C   THR d   1      48.696  10.342   7.728  0.00  0.00     0.243 C 
ATOM     23  O   THR d   1      49.836  10.243   7.373  0.00  0.00    -0.271 OA
ATOM     24  H19 SER d   1      47.339  10.134   9.200  0.00  0.00     0.163 HD
BRANCH  22  25
ATOM     25  CA  THR d   1      47.653  10.836   6.743  0.00  0.00     0.113 C 
ATOM     26  H13 THR d   1      46.840  11.267   7.346  0.00  0.00     0.091 H 
BRANCH  25  27
ATOM     27  N   THR d   1      48.143  11.888   5.862  0.00  0.00    -0.344 N 
ATOM     28  C   MET d   1      48.355  13.146   6.210  0.00  0.00     0.249 C 
ATOM     29  O   MET d   1      48.221  13.572   7.325  0.00  0.00    -0.271 OA
ATOM     30  H12 THR d   1      48.335  11.637   4.913  0.00  0.00     0.163 HD
BRANCH  28  31
ATOM     31  CA  MET d   1      48.761  14.067   5.102  0.00  0.00     0.176 C 
ATOM     32  H4  MET d   1      48.069  13.937   4.257  0.00  0.00     0.099 H 
BRANCH  31  33
ATOM     33  N   MET d   1      48.676  15.437   5.565  0.00  0.00    -0.066 N 
ATOM     34  H1  MET d   1      48.949  16.061   4.821  0.00  0.00     0.275 HD
ATOM     35  H2  MET d   1      49.292  15.564   6.353  0.00  0.00     0.275 HD
ATOM     36  H3  MET d   1      47.728  15.640   5.843  0.00  0.00     0.275 HD
ENDBRANCH  31  33
BRANCH  31  37
ATOM     37  CB  MET d   1      50.177  13.725   4.630  0.00  0.00    -0.022 C 
ATOM     38  H5  MET d   1      50.172  13.695   3.530  0.00  0.00     0.037 H 
ATOM     39  H6  MET d   1      50.436  12.731   5.023  0.00  0.00     0.037 H 
BRANCH  37  40
ATOM     40  CG  MET d   1      51.255  14.700   5.069  0.00  0.00    -0.021 C 
ATOM     41  H7  MET d   1      51.463  14.520   6.134  0.00  0.00     0.049 H 
ATOM     42  H8  MET d   1      50.865  15.720   4.939  0.00  0.00     0.049 H 
BRANCH  40  43
ATOM     43  SD  MET d   1      52.794  14.581   4.179  0.00  0.00    -0.173 SA
BRANCH  43  44
ATOM     44  CE  MET d   1      52.266  13.815   2.688  0.00  0.00    -0.035 C 
ATOM     45  H9  MET d   1      53.130  13.674   2.022  0.00  0.00     0.041 H 
ATOM     46  H10 MET d   1      51.521  14.454   2.191  0.00  0.00     0.041 H 
ATOM     47  H11 MET d   1      51.816  12.838   2.917  0.00  0.00     0.041 H 
ENDBRANCH  43  44
ENDBRANCH  40  43
ENDBRANCH  37  40
ENDBRANCH  31  37
ENDBRANCH  28  31
ENDBRANCH  25  27
BRANCH  25  48
ATOM     48  CB  THR d   1      47.029   9.712   5.869  0.00  0.00     0.060 C 
ATOM     49  H14 THR d   1      47.217   9.984   4.820  0.00  0.00     0.086 H 
BRANCH  48  50
ATOM     50  OG1 THR d   1      45.613   9.677   6.069  0.00  0.00    -0.393 OA
ATOM     51  H15 THR d   1      45.236   8.989   5.533  0.00  0.00     0.210 HD
ENDBRANCH  48  50
BRANCH  48  52
ATOM     52  CG2 THR d   1      47.620   8.299   6.076  0.00  0.00    -0.050 C 
ATOM     53  H16 THR d   1      47.108   7.587   5.412  0.00  0.00     0.031 H 
ATOM     54  H17 THR d   1      47.478   7.992   7.123  0.00  0.00     0.031 H 
ATOM     55  H18 THR d   1      48.694   8.313   5.841  0.00  0.00     0.031 H 
ENDBRANCH  48  52
ENDBRANCH  25  48
ENDBRANCH  22  25
ENDBRANCH  19  21
BRANCH  19  56
ATOM     56  CB  SER d   1      49.048  10.063  11.257  0.00  0.00     0.044 C 
ATOM     57  H21 SER d   1      47.981  10.272  11.425  0.00  0.00     0.077 H 
ATOM     58  H22 SER d   1      49.612  11.008  11.262  0.00  0.00     0.077 H 
BRANCH  56  59
ATOM     59  OG  SER d   1      49.522   9.242  12.294  0.00  0.00    -0.398 OA
ATOM     60  H23 SER d   1      49.405   9.685  13.126  0.00  0.00     0.209 HD
ENDBRANCH  56  59
ENDBRANCH  19  56
ENDBRANCH  16  19
ENDBRANCH  13  15
BRANCH  13  61
ATOM     61  CB  PHE d   1      50.670   4.990   8.884  0.00  0.00    -0.014 C 
ATOM     62  H26 PHE d   1      51.328   4.634   9.690  0.00  0.00     0.043 H 
ATOM     63  H27 PHE d   1      51.204   5.737   8.278  0.00  0.00     0.043 H 
BRANCH  61  64
ATOM     64  CG  PHE d   1      50.331   3.845   8.019  0.00  0.00    -0.056 A 
ATOM     65  CD1 PHE d   1      49.551   4.029   6.921  0.00  0.00    -0.077 A 
ATOM     66  CE1 PHE d   1      49.240   2.990   6.104  0.00  0.00    -0.082 A 
ATOM     67  H28 PHE d   1      49.172   5.019   6.694  0.00  0.00     0.084 H 
ATOM     68  CZ  PHE d   1      49.707   1.752   6.397  0.00  0.00    -0.083 A 
ATOM     69  H30 PHE d   1      48.624   3.149   5.226  0.00  0.00     0.083 H 
ATOM     70  CE2 PHE d   1      50.489   1.553   7.496  0.00  0.00    -0.082 A 
ATOM     71  H32 PHE d   1      49.458   0.916   5.754  0.00  0.00     0.083 H 
ATOM     72  CD2 PHE d   1      50.795   2.595   8.301  0.00  0.00    -0.077 A 
ATOM     73  H31 PHE d   1      50.864   0.562   7.724  0.00  0.00     0.083 H 
ATOM     74  H29 PHE d   1      51.414   2.435   9.177  0.00  0.00     0.084 H 
ENDBRANCH  61  64
ENDBRANCH  13  61
ENDBRANCH  10  13
ENDBRANCH   7   9
BRANCH   7  75
ATOM     75  CB  GLU d   1      50.649   3.749  13.816  0.00  0.00    -0.029 C 
ATOM     76  H35 GLU d   1      50.513   2.811  14.374  0.00  0.00     0.037 H 
ATOM     77  H36 GLU d   1      50.573   4.601  14.507  0.00  0.00     0.037 H 
BRANCH  75  78
ATOM     78  CG  GLU d   1      52.047   3.745  13.231  0.00  0.00     0.018 C 
ATOM     79  H37 GLU d   1      52.703   4.323  13.898  0.00  0.00     0.049 H 
ATOM     80  H38 GLU d   1      52.011   4.229  12.244  0.00  0.00     0.049 H 
BRANCH  78  81
ATOM     81  CD  GLU d   1      52.636   2.364  13.063  0.00  0.00     0.172 C 
ATOM     82  OE1 GLU d   1      53.144   1.776  14.038  0.00  0.00    -0.648 OA
ATOM     83  OE2 GLU d   1      52.610   1.870  11.930  0.00  0.00    -0.648 OA
ENDBRANCH  78  81
ENDBRANCH  75  78
ENDBRANCH   7  75
ENDBRANCH   4   7
ENDBRANCH   1   3
BRANCH   1  84
ATOM     84  C   ASP d   1      45.463   6.189  13.342  0.00  0.00     0.241 C 
ATOM     85  O   ASP d   1      44.405   6.443  13.894  0.00  0.00    -0.271 OA
ATOM     86  N   ALA d   1      45.553   6.051  12.036  0.00  0.00    -0.346 N 
ATOM     87  H43 ALA d   1      46.423   5.783  11.623  0.00  0.00     0.163 HD
BRANCH  86  88
ATOM     88  CA  ALA d   1      44.402   6.285  11.199  0.00  0.00     0.086 C 
ATOM     89  H44 ALA d   1      44.091   7.333  11.322  0.00  0.00     0.086 H 
BRANCH  88  90
ATOM     90  C   ALA d   1      43.249   5.402  11.581  0.00  0.00     0.240 C 
ATOM     91  O   ALA d   1      43.416   4.448  12.291  0.00  0.00    -0.271 OA
ATOM     92  N   ASP d   1      42.061   5.721  11.107  0.00  0.00    -0.346 N 
ATOM     93  H48 ASP d   1      41.925   6.610  10.669  0.00  0.00     0.163 HD
BRANCH  92  94
ATOM     94  CA  ASP d   1      40.955   4.801  11.213  0.00  0.00     0.098 C 
ATOM     95  H49 ASP d   1      40.853   4.481  12.261  0.00  0.00     0.088 H 
BRANCH  94  96
ATOM     96  C   ASP d   1      41.247   3.590  10.352  0.00  0.00     0.241 C 
ATOM     97  O   ASP d   1      42.159   3.607   9.537  0.00  0.00    -0.271 OA
ATOM     98  N   TPO d   1      40.462   2.548  10.540  0.00  0.00    -0.344 N 
ATOM     99  H52 TPO d   1      39.696   2.626  11.179  0.00  0.00     0.163 HD
BRANCH  98 100
ATOM    100  CA  TPO d   1      40.672   1.313   9.860  0.00  0.00     0.114 C 
ATOM    101  H53 TPO d   1      41.725   1.163   9.580  0.00  0.00     0.091 H 
BRANCH 100 102
ATOM    102  CB  TPO d   1      40.206   0.196  10.744  0.00  0.00     0.076 C 
ATOM    103  H54 TPO d   1      39.171   0.368  11.074  0.00  0.00     0.087 H 
BRANCH 102 104
ATOM    104  CG2 TPO d   1      40.309  -1.097   9.985  0.00  0.00    -0.049 C 
ATOM    105  H55 TPO d   1      39.969  -1.925  10.624  0.00  0.00     0.031 H 
ATOM    106  H56 TPO d   1      41.355  -1.267   9.690  0.00  0.00     0.031 H 
ATOM    107  H57 TPO d   1      39.678  -1.045   9.085  0.00  0.00     0.031 H 
ENDBRANCH 102 104
BRANCH 102 108
ATOM    108  OG1 TPO d   1      41.069   0.131  11.838  0.00  0.00    -0.275 OA
BRANCH 108 109
ATOM    109  P   TPO d   1      40.507   0.171  13.272  0.00  0.00     0.422 P 
ATOM    110  O1P TPO d   1      41.570   0.663  14.136  0.00  0.00    -0.617 OA
ATOM    111  O2P TPO d   1      39.378   1.077  13.161  0.00  0.00    -0.617 OA
ATOM    112  O3P TPO d   1      40.205  -1.230  13.515  0.00  0.00    -0.617 OA
ENDBRANCH 108 109
ENDBRANCH 102 108
ENDBRANCH 100 102
BRANCH 100 113
ATOM    113  C   TPO d   1      39.820   1.476   8.684  0.00  0.00     0.243 C 
ATOM    114  O   TPO d   1      38.784   2.110   8.793  0.00  0.00    -0.271 OA
ATOM    115  N   GLU d   1      40.241   0.961   7.556  0.00  0.00    -0.346 N 
ATOM    116  H58 GLU d   1      41.024   0.339   7.564  0.00  0.00     0.163 HD
BRANCH 115 117
ATOM    117  CA  GLU d   1      39.609   1.267   6.320  0.00  0.00     0.090 C 
ATOM    118  H59 GLU d   1      38.827   2.029   6.452  0.00  0.00     0.087 H 
BRANCH 117 119
ATOM    119  C   GLU d   1      39.025  -0.009   5.854  0.00  0.00     0.241 C 
ATOM    120  O   GLU d   1      39.668  -1.017   5.896  0.00  0.00    -0.271 OA
ATOM    121  N   GLU d   1      37.793   0.032   5.398  0.00  0.00    -0.346 N 
ATOM    122  H64 GLU d   1      37.289   0.896   5.405  0.00  0.00     0.163 HD
BRANCH 121 123
ATOM    123  CA  GLU d   1      37.166  -1.154   4.891  0.00  0.00     0.090 C 
ATOM    124  H65 GLU d   1      37.780  -2.033   5.135  0.00  0.00     0.087 H 
BRANCH 123 125
ATOM    125  C   GLU d   1      37.050  -1.003   3.412  0.00  0.00     0.241 C 
ATOM    126  O   GLU d   1      36.863   0.093   2.920  0.00  0.00    -0.271 OA
ATOM    127  N   THR d   1      37.188  -2.112   2.701  0.00  0.00    -0.345 N 
ATOM    128  H70 THR d   1      37.401  -2.965   3.177  0.00  0.00     0.163 HD
BRANCH 127 129
ATOM    129  CA  THR d   1      37.041  -2.135   1.258  0.00  0.00     0.093 C 
ATOM    130  H71 THR d   1      35.971  -2.076   1.011  0.00  0.00     0.089 H 
BRANCH 129 131
ATOM    131  C   THR d   1      37.602  -3.431   0.726  0.00  0.00     0.196 C 
ATOM    132  O   THR d   1      37.320  -4.486   1.271  0.00  0.00    -0.646 OA
ATOM    133  OXT THR d   1      38.337  -3.422  -0.248  0.00  0.00    -0.646 OA
ENDBRANCH 129 131
BRANCH 129 134
ATOM    134  CB  THR d   1      37.760  -0.959   0.597  0.00  0.00    -0.048 C 
ATOM    135  H72 THR d   1      37.625  -1.013  -0.493  0.00  0.00     0.030 H 
ATOM    136  H73 THR d   1      38.833  -1.004   0.836  0.00  0.00     0.030 H 
ATOM    137  H74 THR d   1      37.340  -0.014   0.973  0.00  0.00     0.030 H 
ENDBRANCH 129 134
ENDBRANCH 127 129
ENDBRANCH 123 125
BRANCH 123 138
ATOM    138  CB  GLU d   1      35.791  -1.325   5.476  0.00  0.00    -0.029 C 
ATOM    139  H66 GLU d   1      35.246  -0.375   5.374  0.00  0.00     0.037 H 
ATOM    140  H67 GLU d   1      35.893  -1.577   6.542  0.00  0.00     0.037 H 
BRANCH 138 141
ATOM    141  CG  GLU d   1      34.993  -2.411   4.800  0.00  0.00     0.018 C 
ATOM    142  H68 GLU d   1      34.738  -2.083   3.782  0.00  0.00     0.049 H 
ATOM    143  H69 GLU d   1      34.069  -2.582   5.372  0.00  0.00     0.049 H 
BRANCH 141 144
ATOM    144  CD  GLU d   1      35.758  -3.703   4.716  0.00  0.00     0.172 C 
ATOM    145  OE1 GLU d   1      36.098  -4.113   3.594  0.00  0.00    -0.648 OA
ATOM    146  OE2 GLU d   1      36.030  -4.301   5.773  0.00  0.00    -0.648 OA
ENDBRANCH 141 144
ENDBRANCH 138 141
ENDBRANCH 123 138
ENDBRANCH 121 123
ENDBRANCH 117 119
BRANCH 117 147
ATOM    147  CB  GLU d   1      40.662   1.763   5.339  0.00  0.00    -0.029 C 
ATOM    148  H60 GLU d   1      41.612   1.270   5.591  0.00  0.00     0.037 H 
ATOM    149  H61 GLU d   1      40.764   2.849   5.479  0.00  0.00     0.037 H 
BRANCH 147 150
ATOM    150  CG  GLU d   1      40.388   1.511   3.866  0.00  0.00     0.018 C 
ATOM    151  H62 GLU d   1      39.856   2.382   3.456  0.00  0.00     0.049 H 
ATOM    152  H63 GLU d   1      39.752   0.618   3.778  0.00  0.00     0.049 H 
BRANCH 150 153
ATOM    153  CD  GLU d   1      41.643   1.288   3.050  0.00  0.00     0.172 C 
ATOM    154  OE1 GLU d   1      42.557   2.121   3.141  0.00  0.00    -0.648 OA
ATOM    155  OE2 GLU d   1      41.714   0.291   2.308  0.00  0.00    -0.648 OA
ENDBRANCH 150 153
ENDBRANCH 147 150
ENDBRANCH 117 147
ENDBRANCH 115 117
ENDBRANCH 100 113
ENDBRANCH  98 100
ENDBRANCH  94  96
BRANCH  94 156
ATOM    156  CB  ASP d   1      39.657   5.468  10.778  0.00  0.00     0.043 C 
ATOM    157  H50 ASP d   1      38.858   4.712  10.768  0.00  0.00     0.052 H 
ATOM    158  H51 ASP d   1      39.791   5.872   9.764  0.00  0.00     0.052 H 
BRANCH 156 159
ATOM    159  CG  ASP d   1      39.246   6.594  11.697  0.00  0.00     0.175 C 
ATOM    160  OD1 ASP d   1      39.408   6.456  12.931  0.00  0.00    -0.648 OA
ATOM    161  OD2 ASP d   1      38.762   7.621  11.178  0.00  0.00    -0.648 OA
ENDBRANCH 156 159
ENDBRANCH  94 156
ENDBRANCH  92  94
ENDBRANCH  88  90
BRANCH  88 162
ATOM    162  CB  ALA d   1      44.766   6.058   9.769  0.00  0.00    -0.049 C 
ATOM    163  H45 ALA d   1      43.886   6.237   9.134  0.00  0.00     0.030 H 
ATOM    164  H46 ALA d   1      45.108   5.021   9.638  0.00  0.00     0.030 H 
ATOM    165  H47 ALA d   1      45.572   6.749   9.482  0.00  0.00     0.030 H 
ENDBRANCH  88 162
ENDBRANCH  86  88
ENDBRANCH   1  84
BRANCH   1 166
ATOM    166  CB  ASP d   1      46.968   7.437  14.802  0.00  0.00     0.043 C 
ATOM    167  H41 ASP d   1      46.361   7.510  15.716  0.00  0.00     0.052 H 
ATOM    168  H42 ASP d   1      46.649   8.210  14.088  0.00  0.00     0.052 H 
BRANCH 166 169
ATOM    169  CG  ASP d   1      48.402   7.684  15.162  0.00  0.00     0.175 C 
ATOM    170  OD1 ASP d   1      49.100   6.709  15.450  0.00  0.00    -0.648 OA
ATOM    171  OD2 ASP d   1      48.829   8.850  15.149  0.00  0.00    -0.648 OA
ENDBRANCH 166 169
ENDBRANCH   1 166
TORSDOF 54
