REMARK  4 active torsions:
REMARK  status: ('A' for Active; 'I' for Inactive)
REMARK    1  A    between atoms: C12_5  and  N2_25 
REMARK    2  A    between atoms: C13_6  and  C14_7 
REMARK    3  A    between atoms: N2_25  and  C13_6 
REMARK    4  A    between atoms: C7_18  and  C4_17 
ROOT
ATOM      1  C1  4EJ d   1     -29.255  -9.172  -5.726  0.00  0.00     0.044 A 
ATOM      2  C2  4EJ d   1     -30.394  -8.380  -5.643  0.00  0.00    -0.062 A 
ATOM      3  C3  4EJ d   1     -30.612  -7.380  -6.572  0.00  0.00    -0.069 A 
ATOM      4  N   4EJ d   1     -28.881 -11.110  -4.061  0.00  0.00    -0.191 NA
ATOM      5  C   4EJ d   1     -29.044 -10.244  -4.785  0.00  0.00     0.099 C 
ATOM      6  C6  4EJ d   1     -28.336  -8.940  -6.739  0.00  0.00    -0.062 A 
ATOM      7  C5  4EJ d   1     -28.564  -7.941  -7.667  0.00  0.00    -0.069 A 
ATOM      8  C4  4EJ d   1     -29.704  -7.152  -7.599  0.00  0.00    -0.006 A 
ATOM      9  H1  4EJ d   1     -31.112  -8.547  -4.849  0.00  0.00     0.085 H 
ATOM     10  H2  4EJ d   1     -31.502  -6.766  -6.498  0.00  0.00     0.085 H 
ATOM     11  H11 4EJ d   1     -27.438  -9.543  -6.803  0.00  0.00     0.085 H 
ATOM     12  H12 4EJ d   1     -27.843  -7.772  -8.458  0.00  0.00     0.085 H 
ENDROOT
BRANCH   8  13
ATOM     13  C7  4EJ d   1     -29.970  -6.111  -8.612  0.00  0.00     0.088 A 
ATOM     14  N4  4EJ d   1     -29.034  -5.564  -9.466  0.00  0.00    -0.212 N 
ATOM     15  C9  4EJ d   1     -29.707  -4.696 -10.310  0.00  0.00     0.151 A 
ATOM     16  N3  4EJ d   1     -27.685  -5.828  -9.464  0.00  0.00    -0.148 NA
ATOM     17  N1  4EJ d   1     -31.004  -4.656 -10.020  0.00  0.00    -0.239 NA
ATOM     18  C10 4EJ d   1     -28.945  -4.037 -11.305  0.00  0.00    -0.033 A 
ATOM     19  C8  4EJ d   1     -31.158  -5.528  -8.973  0.00  0.00     0.033 A 
ATOM     20  H13 4EJ d   1     -32.110  -5.733  -8.486  0.00  0.00     0.118 H 
ATOM     21  C11 4EJ d   1     -27.618  -4.263 -11.356  0.00  0.00    -0.034 A 
ATOM     22  H14 4EJ d   1     -29.422  -3.362 -12.014  0.00  0.00     0.089 H 
ATOM     23  C12 4EJ d   1     -27.021  -5.124 -10.414  0.00  0.00     0.144 A 
ATOM     24  H3  4EJ d   1     -27.010  -3.783 -12.121  0.00  0.00     0.089 H 
BRANCH  23  25
ATOM     25  N2  4EJ d   1     -25.642  -5.182 -10.343  0.00  0.00    -0.369 N 
ATOM     26  H15 4EJ d   1     -25.082  -4.913 -11.165  0.00  0.00     0.161 HD
BRANCH  25  27
ATOM     27  C13 4EJ d   1     -24.965  -5.616  -9.129  0.00  0.00     0.018 C 
ATOM     28  H4  4EJ d   1     -24.025  -5.053  -9.028  0.00  0.00     0.071 H 
ATOM     29  H5  4EJ d   1     -25.614  -5.403  -8.267  0.00  0.00     0.071 H 
BRANCH  27  30
ATOM     30  C14 4EJ d   1     -24.647  -7.092  -9.144  0.00  0.00    -0.041 A 
ATOM     31  C15 4EJ d   1     -24.408  -7.779  -7.965  0.00  0.00    -0.075 A 
ATOM     32  C16 4EJ d   1     -24.120  -9.133  -7.979  0.00  0.00    -0.082 A 
ATOM     33  H6  4EJ d   1     -24.447  -7.250  -7.020  0.00  0.00     0.084 H 
ATOM     34  C17 4EJ d   1     -24.066  -9.818  -9.174  0.00  0.00    -0.083 A 
ATOM     35  H7  4EJ d   1     -23.936  -9.656  -7.048  0.00  0.00     0.083 H 
ATOM     36  C18 4EJ d   1     -24.301  -9.145 -10.354  0.00  0.00    -0.082 A 
ATOM     37  H8  4EJ d   1     -23.840 -10.878  -9.186  0.00  0.00     0.083 H 
ATOM     38  C19 4EJ d   1     -24.592  -7.792 -10.339  0.00  0.00    -0.075 A 
ATOM     39  H9  4EJ d   1     -24.258  -9.678 -11.297  0.00  0.00     0.083 H 
ATOM     40  H10 4EJ d   1     -24.779  -7.274 -11.273  0.00  0.00     0.084 H 
ENDBRANCH  27  30
ENDBRANCH  25  27
ENDBRANCH  23  25
ENDBRANCH   8  13
TORSDOF 4
