REMARK  14 active torsions:
REMARK  status: ('A' for Active; 'I' for Inactive)
REMARK    1  A    between atoms: C22_12  and  C7_4 
REMARK    2  A    between atoms: C29_29  and  C8_5 
REMARK    3  A    between atoms: N33_33  and  C21_11 
REMARK    4  A    between atoms: C24_13  and  C22_12 
REMARK    5  A    between atoms: N31_31  and  C24_13 
REMARK    6  A    between atoms: C27_28  and  C26_14 
REMARK    7  A    between atoms: C26_14  and  N32_32 
REMARK    8  A    between atoms: C28_15  and  C29_29 
REMARK    9  A    between atoms: N32_32  and  C28_15 
REMARK   10  A    between atoms: C14_22  and  C23_26 
REMARK       I    between atoms: N33_33  and  C14_22 
REMARK   11  A    between atoms: C23_26  and  C25_27 
REMARK   12  A    between atoms: C25_27  and  N31_31 
REMARK   13  A    between atoms: C27_28  and  N33_33 
REMARK   14  A    between atoms: C29_29  and  O37_37 
ROOT
ATOM      1  C14 4GQ d   1      -9.645  -9.978   9.751  0.00  0.00     0.221 C 
ATOM      2  N33 4GQ d   1      -9.474  -9.242  10.923  0.00  0.00    -0.346 N 
ATOM      3  O35 4GQ d   1      -9.568  -9.505   8.623  0.00  0.00    -0.273 OA
ENDROOT
BRANCH   2   4
ATOM      4  C21 4GQ d   1      -9.013  -9.891  12.151  0.00  0.00     0.014 C 
ATOM      5  C20 4GQ d   1      -9.786  -9.554  13.423  0.00  0.00    -0.046 C 
ATOM      6  C18 4GQ d   1      -9.376 -10.434  14.591  0.00  0.00    -0.063 C 
ATOM      7  H8  4GQ d   1     -10.860  -9.695  13.233  0.00  0.00     0.036 H 
ATOM      8  H9  4GQ d   1      -9.595  -8.503  13.686  0.00  0.00     0.036 H 
ATOM      9  C16 4GQ d   1      -7.871 -10.431  14.793  0.00  0.00    -0.065 C 
ATOM     10  H24 4GQ d   1      -9.708 -11.464  14.395  0.00  0.00     0.033 H 
ATOM     11  H25 4GQ d   1      -9.860 -10.061  15.506  0.00  0.00     0.033 H 
ATOM     12  C17 4GQ d   1      -7.142 -10.827  13.519  0.00  0.00    -0.063 C 
ATOM     13  H22 4GQ d   1      -7.551  -9.421  15.090  0.00  0.00     0.033 H 
ATOM     14  H23 4GQ d   1      -7.615 -11.145  15.589  0.00  0.00     0.033 H 
ATOM     15  C19 4GQ d   1      -7.505  -9.913  12.360  0.00  0.00    -0.046 C 
ATOM     16  H6  4GQ d   1      -7.415 -11.860  13.258  0.00  0.00     0.033 H 
ATOM     17  H7  4GQ d   1      -6.058 -10.767  13.695  0.00  0.00     0.033 H 
ATOM     18  H26 4GQ d   1      -7.018 -10.279  11.444  0.00  0.00     0.036 H 
ATOM     19  H27 4GQ d   1      -7.155  -8.893  12.579  0.00  0.00     0.036 H 
ATOM     20  H10 4GQ d   1      -9.262 -10.948  11.976  0.00  0.00     0.072 H 
ENDBRANCH   2   4
BRANCH   2  21
ATOM     21  C27 4GQ d   1      -9.295  -7.807  10.774  0.00  0.00     0.021 C 
ATOM     22  H32 4GQ d   1      -8.470  -7.490  11.428  0.00  0.00     0.067 H 
ATOM     23  H33 4GQ d   1      -9.034  -7.596   9.726  0.00  0.00     0.067 H 
BRANCH  21  24
ATOM     24  C26 4GQ d   1     -10.525  -7.004  11.132  0.00  0.00     0.096 C 
ATOM     25  H15 4GQ d   1     -10.224  -6.108  11.694  0.00  0.00     0.078 H 
ATOM     26  H16 4GQ d   1     -11.193  -7.619  11.753  0.00  0.00     0.078 H 
BRANCH  24  27
ATOM     27  N32 4GQ d   1     -11.224  -6.602   9.930  0.00  0.00    -0.071 N 
ATOM     28  H38 4GQ d   1     -11.565  -7.411   9.435  0.00  0.00     0.277 HD
ATOM     29  H39 4GQ d   1     -10.612  -6.074   9.329  0.00  0.00     0.277 HD
BRANCH  27  30
ATOM     30  C28 4GQ d   1     -12.334  -5.776  10.372  0.00  0.00     0.109 C 
ATOM     31  H17 4GQ d   1     -12.915  -6.310  11.138  0.00  0.00     0.080 H 
ATOM     32  H18 4GQ d   1     -11.954  -4.833  10.791  0.00  0.00     0.080 H 
BRANCH  30  33
ATOM     33  C29 4GQ d   1     -13.207  -5.489   9.175  0.00  0.00     0.086 C 
ATOM     34  H34 4GQ d   1     -13.407  -6.431   8.643  0.00  0.00     0.093 H 
BRANCH  33  35
ATOM     35  C8  4GQ d   1     -14.518  -4.885   9.579  0.00  0.00     0.008 A 
ATOM     36  C10 4GQ d   1     -15.560  -5.652  10.075  0.00  0.00     0.104 A 
ATOM     37  C9  4GQ d   1     -16.760  -5.068  10.421  0.00  0.00     0.069 A 
ATOM     38  O36 4GQ d   1     -15.460  -7.029  10.231  0.00  0.00    -0.339 OA
ATOM     39  C4  4GQ d   1     -16.959  -3.711  10.289  0.00  0.00    -0.054 A 
ATOM     40  N30 4GQ d   1     -17.756  -5.905  10.927  0.00  0.00    -0.323 N 
ATOM     41  C1  4GQ d   1     -15.929  -2.938   9.797  0.00  0.00    -0.080 A 
ATOM     42  H1  4GQ d   1     -17.905  -3.261  10.566  0.00  0.00     0.087 H 
ATOM     43  C2  4GQ d   1     -14.727  -3.523   9.450  0.00  0.00    -0.071 A 
ATOM     44  H19 4GQ d   1     -16.063  -1.868   9.682  0.00  0.00     0.083 H 
ATOM     45  H20 4GQ d   1     -13.927  -2.900   9.067  0.00  0.00     0.084 H 
ATOM     46  C13 4GQ d   1     -17.368  -6.992  11.681  0.00  0.00     0.246 C 
ATOM     47  H35 4GQ d   1     -18.723  -5.721  10.748  0.00  0.00     0.169 HD
ATOM     48  C15 4GQ d   1     -15.908  -7.338  11.553  0.00  0.00     0.100 C 
ATOM     49  O34 4GQ d   1     -18.104  -7.617  12.427  0.00  0.00    -0.271 OA
ATOM     50  H4  4GQ d   1     -15.767  -8.412  11.746  0.00  0.00     0.089 H 
ATOM     51  H5  4GQ d   1     -15.327  -6.755  12.283  0.00  0.00     0.089 H 
ENDBRANCH  33  35
BRANCH  33  52
ATOM     52  O37 4GQ d   1     -12.491  -4.612   8.317  0.00  0.00    -0.389 OA
ATOM     53  H40 4GQ d   1     -13.021  -4.415   7.553  0.00  0.00     0.210 HD
ENDBRANCH  33  52
ENDBRANCH  30  33
ENDBRANCH  27  30
ENDBRANCH  24  27
ENDBRANCH  21  24
ENDBRANCH   2  21
BRANCH   1  54
ATOM     54  C23 4GQ d   1      -9.938 -11.441   9.970  0.00  0.00     0.032 C 
ATOM     55  H28 4GQ d   1     -10.796 -11.533  10.652  0.00  0.00     0.049 H 
ATOM     56  H29 4GQ d   1      -9.056 -11.916  10.425  0.00  0.00     0.049 H 
BRANCH  54  57
ATOM     57  C25 4GQ d   1     -10.263 -12.152   8.676  0.00  0.00     0.089 C 
ATOM     58  H30 4GQ d   1     -10.376 -11.415   7.867  0.00  0.00     0.076 H 
ATOM     59  H31 4GQ d   1     -11.199 -12.719   8.790  0.00  0.00     0.076 H 
BRANCH  57  60
ATOM     60  N31 4GQ d   1      -9.176 -13.061   8.361  0.00  0.00    -0.074 N 
ATOM     61  H36 4GQ d   1      -8.334 -12.769   8.832  0.00  0.00     0.277 HD
ATOM     62  H37 4GQ d   1      -9.414 -13.997   8.649  0.00  0.00     0.277 HD
BRANCH  60  63
ATOM     63  C24 4GQ d   1      -8.983 -13.016   6.919  0.00  0.00     0.085 C 
ATOM     64  H13 4GQ d   1      -9.689 -12.285   6.498  0.00  0.00     0.076 H 
ATOM     65  H14 4GQ d   1      -7.952 -12.688   6.718  0.00  0.00     0.076 H 
BRANCH  63  66
ATOM     66  C22 4GQ d   1      -9.205 -14.352   6.224  0.00  0.00    -0.018 C 
ATOM     67  H11 4GQ d   1      -9.870 -14.187   5.364  0.00  0.00     0.042 H 
ATOM     68  H12 4GQ d   1      -8.232 -14.722   5.869  0.00  0.00     0.042 H 
BRANCH  66  69
ATOM     69  C7  4GQ d   1      -9.815 -15.400   7.093  0.00  0.00    -0.055 A 
ATOM     70  C6  4GQ d   1      -8.999 -16.313   7.729  0.00  0.00    -0.054 A 
ATOM     71  C12 4GQ d   1      -9.561 -17.280   8.533  0.00  0.00     0.056 A 
ATOM     72  H3  4GQ d   1      -7.924 -16.270   7.597  0.00  0.00     0.086 H 
ATOM     73  C11 4GQ d   1     -10.930 -17.343   8.691  0.00  0.00     0.055 A 
ATOM     74 CL2  4GQ d   1      -8.538 -18.408   9.333  0.00  0.00    -0.083 Cl
ATOM     75  C5  4GQ d   1     -11.752 -16.441   8.049  0.00  0.00    -0.060 A 
ATOM     76 CL1  4GQ d   1     -11.631 -18.547   9.701  0.00  0.00    -0.083 Cl
ATOM     77  C3  4GQ d   1     -11.187 -15.471   7.249  0.00  0.00    -0.075 A 
ATOM     78  H2  4GQ d   1     -12.828 -16.494   8.172  0.00  0.00     0.086 H 
ATOM     79  H21 4GQ d   1     -11.824 -14.758   6.738  0.00  0.00     0.084 H 
ENDBRANCH  66  69
ENDBRANCH  63  66
ENDBRANCH  60  63
ENDBRANCH  57  60
ENDBRANCH  54  57
ENDBRANCH   1  54
TORSDOF 14
