REMARK  3 active torsions:
REMARK  status: ('A' for Active; 'I' for Inactive)
REMARK    1  A    between atoms: N12_23  and  C13_4 
REMARK    2  A    between atoms: C21_9  and  C22_10 
REMARK    3  A    between atoms: C8_20  and  C6_18 
ROOT
ATOM      1  C11 4EK d   1     -15.279 -42.647 -17.040  0.00  0.00    -0.003 C 
ATOM      2  C8  4EK d   1     -16.191 -44.451 -15.638  0.00  0.00     0.039 C 
ATOM      3  C9  4EK d   1     -15.515 -45.085 -16.900  0.00  0.00    -0.041 C 
ATOM      4  C10 4EK d   1     -15.398 -43.926 -17.901  0.00  0.00    -0.048 C 
ATOM      5  N12 4EK d   1     -15.860 -43.026 -15.749  0.00  0.00    -0.356 N 
ATOM      6  H2  4EK d   1     -15.843 -41.818 -17.493  0.00  0.00     0.064 H 
ATOM      7  H3  4EK d   1     -14.226 -42.353 -16.922  0.00  0.00     0.064 H 
ATOM      8  H14 4EK d   1     -15.721 -44.855 -14.729  0.00  0.00     0.080 H 
ATOM      9  H15 4EK d   1     -16.140 -45.892 -17.311  0.00  0.00     0.036 H 
ATOM     10  H16 4EK d   1     -14.521 -45.483 -16.649  0.00  0.00     0.036 H 
ATOM     11  H17 4EK d   1     -14.504 -44.050 -18.530  0.00  0.00     0.035 H 
ATOM     12  H18 4EK d   1     -16.292 -43.878 -18.540  0.00  0.00     0.035 H 
ENDROOT
BRANCH   5  13
ATOM     13  C13 4EK d   1     -16.025 -42.176 -14.756  0.00  0.00     0.147 A 
ATOM     14  C18 4EK d   1     -15.672 -40.730 -14.899  0.00  0.00    -0.033 A 
ATOM     15  C17 4EK d   1     -15.804 -39.899 -13.841  0.00  0.00    -0.033 A 
ATOM     16  H5  4EK d   1     -15.310 -40.348 -15.852  0.00  0.00     0.089 H 
ATOM     17  C16 4EK d   1     -16.325 -40.472 -12.602  0.00  0.00     0.151 A 
ATOM     18  H4  4EK d   1     -15.533 -38.846 -13.909  0.00  0.00     0.089 H 
ATOM     19  N15 4EK d   1     -16.630 -41.733 -12.549  0.00  0.00    -0.210 N 
ATOM     20  N19 4EK d   1     -16.541 -39.895 -11.502  0.00  0.00    -0.239 NA
ATOM     21  C21 4EK d   1     -17.068 -41.998 -11.330  0.00  0.00     0.106 A 
ATOM     22  N14 4EK d   1     -16.463 -42.559 -13.603  0.00  0.00    -0.147 NA
ATOM     23  C20 4EK d   1     -17.051 -40.872 -10.578  0.00  0.00     0.035 A 
ATOM     24  H6  4EK d   1     -17.348 -40.740  -9.539  0.00  0.00     0.118 H 
BRANCH  21  25
ATOM     25  C22 4EK d   1     -17.562 -43.328 -10.775  0.00  0.00     0.086 A 
ATOM     26  C23 4EK d   1     -17.668 -44.491 -11.556  0.00  0.00    -0.053 A 
ATOM     27  C24 4EK d   1     -18.147 -45.683 -10.986  0.00  0.00    -0.079 A 
ATOM     28  H7  4EK d   1     -17.380 -44.469 -12.601  0.00  0.00     0.087 H 
ATOM     29  C25 4EK d   1     -18.528 -45.697  -9.631  0.00  0.00    -0.066 A 
ATOM     30  H8  4EK d   1     -18.222 -46.584 -11.585  0.00  0.00     0.083 H 
ATOM     31  C26 4EK d   1     -18.415 -44.511  -8.892  0.00  0.00     0.003 A 
ATOM     32  H9  4EK d   1     -18.900 -46.604  -9.169  0.00  0.00     0.085 H 
ATOM     33  N27 4EK d   1     -17.951 -43.375  -9.472  0.00  0.00    -0.259 NA
ATOM     34  H10 4EK d   1     -18.701 -44.501  -7.846  0.00  0.00     0.114 H 
ENDBRANCH  21  25
ENDBRANCH   5  13
BRANCH   2  35
ATOM     35  C6  4EK d   1     -17.697 -44.774 -15.553  0.00  0.00    -0.032 A 
ATOM     36  C5  4EK d   1     -18.135 -45.838 -14.757  0.00  0.00    -0.075 A 
ATOM     37  C4  4EK d   1     -19.498 -46.148 -14.632  0.00  0.00    -0.080 A 
ATOM     38  H12 4EK d   1     -17.405 -46.437 -14.225  0.00  0.00     0.084 H 
ATOM     39  C3  4EK d   1     -20.438 -45.383 -15.324  0.00  0.00    -0.046 A 
ATOM     40  H11 4EK d   1     -19.817 -46.973 -14.005  0.00  0.00     0.083 H 
ATOM     41  C2  4EK d   1     -19.998 -44.326 -16.131  0.00  0.00     0.117 A 
ATOM     42  H1  4EK d   1     -21.496 -45.604 -15.238  0.00  0.00     0.088 H 
ATOM     43  F1  4EK d   1     -20.892 -43.611 -16.790  0.00  0.00    -0.206 F 
ATOM     44  C7  4EK d   1     -18.638 -44.004 -16.228  0.00  0.00    -0.038 A 
ATOM     45  H13 4EK d   1     -18.320 -43.158 -16.827  0.00  0.00     0.089 H 
ENDBRANCH   2  35
TORSDOF 3
