REMARK  9 active torsions:
REMARK  status: ('A' for Active; 'I' for Inactive)
REMARK    1  A    between atoms: C20_2  and  C17_1 
REMARK    2  A    between atoms: C23_4  and  C22_3 
REMARK    3  A    between atoms: C25_7  and  O03_5 
REMARK    4  A    between atoms: C25_7  and  C24_6 
REMARK    5  A    between atoms: C29_17  and  C25_7 
REMARK    6  A    between atoms: C13_18  and  C18_26 
REMARK    7  A    between atoms: C07_27  and  C06_28 
REMARK    8  A    between atoms: C03_31  and  O02_37 
REMARK    9  A    between atoms: C01_33  and  O01_36 
ROOT
ATOM      1  C17 YW2 d   1      13.793   3.911  26.743  0.00  0.00     0.014 C 
ATOM      2  C13 YW2 d   1      12.989   5.023  25.949  0.00  0.00    -0.022 C 
ATOM      3  C14 YW2 d   1      14.219   5.706  25.259  0.00  0.00    -0.024 C 
ATOM      4  C15 YW2 d   1      14.950   4.485  24.651  0.00  0.00    -0.056 C 
ATOM      5  C16 YW2 d   1      14.983   3.508  25.821  0.00  0.00    -0.050 C 
ATOM      6  C12 YW2 d   1      12.293   6.083  26.875  0.00  0.00    -0.056 C 
ATOM      7  C11 YW2 d   1      11.937   7.430  26.151  0.00  0.00    -0.061 C 
ATOM      8  C09 YW2 d   1      13.092   8.009  25.276  0.00  0.00    -0.044 C 
ATOM      9  C08 YW2 d   1      13.755   6.921  24.396  0.00  0.00    -0.075 C 
ATOM     10  C07 YW2 d   1      13.900   6.959  23.082  0.00  0.00    -0.080 C 
ATOM     11  H1  YW2 d   1      14.198   4.381  27.651  0.00  0.00     0.060 H 
ATOM     12  H19 YW2 d   1      14.883   6.130  26.026  0.00  0.00     0.048 H 
ATOM     13  H20 YW2 d   1      15.967   4.751  24.326  0.00  0.00     0.034 H 
ATOM     14  H21 YW2 d   1      14.390   4.069  23.801  0.00  0.00     0.034 H 
ATOM     15  H22 YW2 d   1      14.857   2.476  25.462  0.00  0.00     0.035 H 
ATOM     16  H23 YW2 d   1      15.935   3.594  26.365  0.00  0.00     0.035 H 
ATOM     17  H24 YW2 d   1      12.970   6.309  27.712  0.00  0.00     0.034 H 
ATOM     18  H25 YW2 d   1      11.363   5.644  27.265  0.00  0.00     0.034 H 
ATOM     19  H26 YW2 d   1      11.677   8.175  26.917  0.00  0.00     0.033 H 
ATOM     20  H27 YW2 d   1      11.067   7.253  25.501  0.00  0.00     0.033 H 
ATOM     21  H28 YW2 d   1      13.855   8.444  25.938  0.00  0.00     0.039 H 
ATOM     22  H29 YW2 d   1      12.683   8.794  24.622  0.00  0.00     0.039 H 
ATOM     23  H33 YW2 d   1      14.261   6.036  22.630  0.00  0.00     0.083 H 
ENDROOT
BRANCH   1  24
ATOM     24  C20 YW2 d   1      13.037   2.745  27.187  0.00  0.00    -0.087 C 
ATOM     25  C22 YW2 d   1      12.388   1.782  27.441  0.00  0.00    -0.015 C 
BRANCH  25  26
ATOM     26  C23 YW2 d   1      11.502   0.570  27.579  0.00  0.00    -0.012 C 
ATOM     27  C24 YW2 d   1      10.750  -0.345  27.544  0.00  0.00    -0.060 C 
BRANCH  27  28
ATOM     28  C25 YW2 d   1       9.770  -1.419  27.372  0.00  0.00     0.102 C 
ATOM     29  H3  YW2 d   1      10.005  -1.957  26.442  0.00  0.00     0.104 H 
BRANCH  28  30
ATOM     30  O03 YW2 d   1       9.919  -2.311  28.484  0.00  0.00    -0.383 OA
ATOM     31  H2  YW2 d   1       9.758  -1.838  29.292  0.00  0.00     0.211 HD
ENDBRANCH  28  30
BRANCH  28  32
ATOM     32  C29 YW2 d   1       8.276  -0.920  27.276  0.00  0.00    -0.002 C 
ATOM     33  C37 YW2 d   1       8.043   0.100  26.033  0.00  0.00    -0.051 C 
ATOM     34  C35 YW2 d   1       6.544   0.577  25.951  0.00  0.00    -0.053 C 
ATOM     35  H9  YW2 d   1       8.691   0.979  26.166  0.00  0.00     0.034 H 
ATOM     36  H10 YW2 d   1       8.307  -0.412  25.096  0.00  0.00     0.034 H 
ATOM     37  C38 YW2 d   1       6.134   1.283  27.315  0.00  0.00    -0.058 C 
ATOM     38  C36 YW2 d   1       5.624  -0.690  25.732  0.00  0.00    -0.058 C 
ATOM     39  H4  YW2 d   1       6.421   1.281  25.115  0.00  0.00     0.040 H 
ATOM     40  C33 YW2 d   1       6.284   0.278  28.540  0.00  0.00    -0.053 C 
ATOM     41  H5  YW2 d   1       5.088   1.616  27.248  0.00  0.00     0.034 H 
ATOM     42  H6  YW2 d   1       6.786   2.153  27.481  0.00  0.00     0.034 H 
ATOM     43  C34 YW2 d   1       7.789  -0.191  28.641  0.00  0.00    -0.051 C 
ATOM     44  C32 YW2 d   1       5.377  -1.001  28.291  0.00  0.00    -0.058 C 
ATOM     45  H13 YW2 d   1       5.981   0.778  29.472  0.00  0.00     0.040 H 
ATOM     46  H11 YW2 d   1       7.888  -0.897  29.479  0.00  0.00     0.034 H 
ATOM     47  H12 YW2 d   1       8.426   0.687  28.824  0.00  0.00     0.034 H 
ATOM     48  C31 YW2 d   1       5.789  -1.718  26.935  0.00  0.00    -0.053 C 
ATOM     49  H14 YW2 d   1       4.323  -0.692  28.231  0.00  0.00     0.034 H 
ATOM     50  H15 YW2 d   1       5.506  -1.705  29.127  0.00  0.00     0.034 H 
ATOM     51  C30 YW2 d   1       7.298  -2.178  27.031  0.00  0.00    -0.051 C 
ATOM     52  H16 YW2 d   1       5.145  -2.593  26.766  0.00  0.00     0.040 H 
ATOM     53  H17 YW2 d   1       7.582  -2.676  26.092  0.00  0.00     0.034 H 
ATOM     54  H18 YW2 d   1       7.405  -2.884  27.867  0.00  0.00     0.034 H 
ATOM     55  H7  YW2 d   1       5.909  -1.185  24.792  0.00  0.00     0.034 H 
ATOM     56  H8  YW2 d   1       4.574  -0.368  25.673  0.00  0.00     0.034 H 
ENDBRANCH  28  32
ENDBRANCH  27  28
ENDBRANCH  25  26
ENDBRANCH   1  24
BRANCH   2  57
ATOM     57  C18 YW2 d   1      11.911   4.427  24.918  0.00  0.00    -0.067 C 
ATOM     58  H30 YW2 d   1      12.397   3.684  24.268  0.00  0.00     0.028 H 
ATOM     59  H31 YW2 d   1      11.503   5.242  24.302  0.00  0.00     0.028 H 
ATOM     60  H32 YW2 d   1      11.095   3.947  25.478  0.00  0.00     0.028 H 
ENDBRANCH   2  57
BRANCH  10  61
ATOM     61  C06 YW2 d   1      13.656   8.022  22.172  0.00  0.00    -0.080 C 
ATOM     62  C05 YW2 d   1      13.534   7.880  20.865  0.00  0.00    -0.074 C 
ATOM     63  C04 YW2 d   1      13.376   9.139  19.980  0.00  0.00    -0.017 C 
ATOM     64  C10 YW2 d   1      13.407   6.513  20.092  0.00  0.00    -0.017 C 
ATOM     65  C03 YW2 d   1      14.154   9.009  18.619  0.00  0.00     0.062 C 
ATOM     66  H35 YW2 d   1      13.765  10.009  20.529  0.00  0.00     0.043 H 
ATOM     67  H36 YW2 d   1      12.308   9.289  19.765  0.00  0.00     0.043 H 
ATOM     68  C02 YW2 d   1      13.768   7.695  17.904  0.00  0.00    -0.032 C 
ATOM     69  H37 YW2 d   1      13.906   9.862  17.970  0.00  0.00     0.090 H 
ATOM     70  C01 YW2 d   1      14.124   6.455  18.740  0.00  0.00     0.062 C 
ATOM     71  C28 YW2 d   1      13.119   7.678  16.716  0.00  0.00    -0.114 C 
ATOM     72  H38 YW2 d   1      15.212   6.449  18.899  0.00  0.00     0.090 H 
ATOM     73  H41 YW2 d   1      12.911   8.612  16.196  0.00  0.00     0.067 H 
ATOM     74  H42 YW2 d   1      12.805   6.731  16.280  0.00  0.00     0.067 H 
ATOM     75  H39 YW2 d   1      12.338   6.319  19.918  0.00  0.00     0.043 H 
ATOM     76  H40 YW2 d   1      13.824   5.721  20.732  0.00  0.00     0.043 H 
ATOM     77  H34 YW2 d   1      13.563   9.027  22.582  0.00  0.00     0.083 H 
BRANCH  65  78
ATOM     78  O02 YW2 d   1      15.570   9.009  18.904  0.00  0.00    -0.391 OA
ATOM     79  H44 YW2 d   1      16.056   8.938  18.091  0.00  0.00     0.210 HD
ENDBRANCH  65  78
BRANCH  70  80
ATOM     80  O01 YW2 d   1      13.737   5.212  18.126  0.00  0.00    -0.391 OA
ATOM     81  H43 YW2 d   1      12.794   5.197  18.012  0.00  0.00     0.210 HD
ENDBRANCH  70  80
ENDBRANCH  10  61
TORSDOF 9
