REMARK  3 active torsions:
REMARK  status: ('A' for Active; 'I' for Inactive)
REMARK       I    between atoms: N01_1  and  C02_2 
REMARK    1  A    between atoms: C02_2  and  C04_4 
REMARK    2  A    between atoms: C15_15  and  C18_18 
REMARK    3  A    between atoms: N17_17  and  C19_19 
ROOT
ATOM      1  N01 4GD d   1      30.157   6.620  -7.181  0.00  0.00    -0.307 N 
ATOM      2  C02 4GD d   1      30.801   5.669  -7.887  0.00  0.00     0.262 C 
ATOM      3  O03 4GD d   1      30.753   4.430  -7.700  0.00  0.00    -0.267 OA
ATOM      4  C13 4GD d   1      29.377   6.469  -6.081  0.00  0.00     0.134 A 
ATOM      5  C14 4GD d   1      29.075   5.288  -5.362  0.00  0.00    -0.013 A 
ATOM      6  C15 4GD d   1      28.284   5.743  -4.268  0.00  0.00     0.055 A 
ATOM      7  N16 4GD d   1      28.108   7.106  -4.328  0.00  0.00    -0.171 NA
ATOM      8  N17 4GD d   1      28.792   7.543  -5.439  0.00  0.00    -0.217 N 
ATOM      9  H1  4GD d   1      30.268   7.558  -7.511  0.00  0.00     0.170 HD
ATOM     10  H6  4GD d   1      29.377   4.267  -5.592  0.00  0.00     0.092 H 
ENDROOT
BRANCH   8  11
ATOM     11  C19 4GD d   1      28.848   8.912  -5.745  0.00  0.00     0.060 A 
ATOM     12  C20 4GD d   1      29.346   9.834  -4.748  0.00  0.00    -0.055 A 
ATOM     13  C21 4GD d   1      29.417  11.231  -5.053  0.00  0.00    -0.081 A 
ATOM     14  H10 4GD d   1      29.663   9.470  -3.777  0.00  0.00     0.087 H 
ATOM     15  C22 4GD d   1      29.012  11.716  -6.347  0.00  0.00    -0.083 A 
ATOM     16  H11 4GD d   1      29.778  11.928  -4.305  0.00  0.00     0.083 H 
ATOM     17  C23 4GD d   1      28.521  10.800  -7.338  0.00  0.00    -0.081 A 
ATOM     18  H12 4GD d   1      29.078  12.774  -6.573  0.00  0.00     0.083 H 
ATOM     19  C24 4GD d   1      28.429   9.400  -7.041  0.00  0.00    -0.055 A 
ATOM     20  H13 4GD d   1      28.219  11.167  -8.312  0.00  0.00     0.083 H 
ATOM     21  H14 4GD d   1      28.047   8.710  -7.785  0.00  0.00     0.087 H 
ENDBRANCH   8  11
BRANCH   2  22
ATOM     22  C04 4GD d   1      31.698   6.151  -8.980  0.00  0.00     0.099 A 
ATOM     23  C05 4GD d   1      32.673   5.367  -9.681  0.00  0.00     0.041 A 
ATOM     24  N06 4GD d   1      33.324   6.086 -10.585  0.00  0.00    -0.178 NA
ATOM     25  H2  4GD d   1      32.856   4.310  -9.494  0.00  0.00     0.119 H 
ATOM     26  N07 4GD d   1      32.774   7.367 -10.494  0.00  0.00    -0.226 N 
ATOM     27  C08 4GD d   1      31.773   7.420  -9.477  0.00  0.00     0.167 A 
ATOM     28  C12 4GD d   1      33.126   8.459 -11.233  0.00  0.00     0.007 A 
ATOM     29  N09 4GD d   1      31.126   8.585  -9.176  0.00  0.00    -0.240 NA
ATOM     30  C10 4GD d   1      31.504   9.674  -9.910  0.00  0.00     0.006 A 
ATOM     31  C11 4GD d   1      32.488   9.659 -10.959  0.00  0.00    -0.049 A 
ATOM     32  H3  4GD d   1      31.024  10.625  -9.684  0.00  0.00     0.114 H 
ATOM     33  H4  4GD d   1      32.724  10.562 -11.520  0.00  0.00     0.087 H 
ATOM     34  H5  4GD d   1      33.883   8.390 -12.012  0.00  0.00     0.115 H 
ENDBRANCH   2  22
BRANCH   6  35
ATOM     35  C18 4GD d   1      27.720   4.919  -3.152  0.00  0.00    -0.034 C 
ATOM     36  H7  4GD d   1      27.156   5.568  -2.466  0.00  0.00     0.035 H 
ATOM     37  H8  4GD d   1      28.541   4.433  -2.604  0.00  0.00     0.035 H 
ATOM     38  H9  4GD d   1      27.049   4.151  -3.566  0.00  0.00     0.035 H 
ENDBRANCH   6  35
TORSDOF 3
