REMARK  12 active torsions:
REMARK  status: ('A' for Active; 'I' for Inactive)
REMARK    1  A    between atoms: C09_15  and  C10_1 
REMARK    2  A    between atoms: C14_4  and  C15_5 
REMARK    3  A    between atoms: N03_9  and  C14_4 
REMARK    4  A    between atoms: C14_4  and  C22_22 
REMARK       I    between atoms: C15_5  and  N16_17 
REMARK    5  A    between atoms: N16_17  and  C17_6 
REMARK    6  A    between atoms: C17_6  and  C18_18 
REMARK    7  A    between atoms: C17_6  and  C19_19 
REMARK    8  A    between atoms: C17_6  and  C20_20 
REMARK       I    between atoms: N03_9  and  C02_8 
REMARK    9  A    between atoms: C02_8  and  C27_27 
REMARK   10  A    between atoms: C04_10  and  N03_9 
REMARK   11  A    between atoms: N08_14  and  C07_13 
REMARK       I    between atoms: N08_14  and  C09_15 
REMARK   12  A    between atoms: C27_27  and  N28_28 
ROOT
ATOM      1  O01 4F5 d   1       7.620 -21.426 -29.471  0.00  0.00    -0.271 OA
ATOM      2  C02 4F5 d   1       7.397 -22.270 -28.628  0.00  0.00     0.244 C 
ATOM      3  N03 4F5 d   1       6.058 -22.750 -28.435  0.00  0.00    -0.298 N 
ENDROOT
BRANCH   3   4
ATOM      4  C14 4F5 d   1       4.946 -22.233 -29.248  0.00  0.00     0.122 C 
ATOM      5  H6  4F5 d   1       5.151 -21.158 -29.361  0.00  0.00     0.096 H 
BRANCH   4   6
ATOM      6  C15 4F5 d   1       4.900 -22.743 -30.700  0.00  0.00     0.246 C 
ATOM      7  N16 4F5 d   1       5.777 -23.854 -31.068  0.00  0.00    -0.351 N 
ATOM      8  H10 4F5 d   1       6.342 -24.222 -30.330  0.00  0.00     0.163 HD
ATOM      9  O21 4F5 d   1       4.149 -22.194 -31.498  0.00  0.00    -0.271 OA
BRANCH   7  10
ATOM     10  C17 4F5 d   1       5.938 -24.497 -32.364  0.00  0.00     0.022 C 
BRANCH  10  11
ATOM     11  C18 4F5 d   1       4.638 -24.691 -33.116  0.00  0.00    -0.054 C 
ATOM     12  H11 4F5 d   1       4.842 -25.180 -34.080  0.00  0.00     0.030 H 
ATOM     13  H12 4F5 d   1       4.167 -23.713 -33.293  0.00  0.00     0.030 H 
ATOM     14  H13 4F5 d   1       3.961 -25.321 -32.521  0.00  0.00     0.030 H 
ENDBRANCH  10  11
BRANCH  10  15
ATOM     15  C19 4F5 d   1       6.552 -25.846 -32.150  0.00  0.00    -0.054 C 
ATOM     16  H14 4F5 d   1       6.682 -26.348 -33.120  0.00  0.00     0.030 H 
ATOM     17  H15 4F5 d   1       5.894 -26.451 -31.509  0.00  0.00     0.030 H 
ATOM     18  H16 4F5 d   1       7.532 -25.730 -31.663  0.00  0.00     0.030 H 
ENDBRANCH  10  15
BRANCH  10  19
ATOM     19  C20 4F5 d   1       6.895 -23.687 -33.198  0.00  0.00    -0.054 C 
ATOM     20  H17 4F5 d   1       7.022 -24.167 -34.180  0.00  0.00     0.030 H 
ATOM     21  H18 4F5 d   1       7.868 -23.631 -32.689  0.00  0.00     0.030 H 
ATOM     22  H19 4F5 d   1       6.494 -22.672 -33.335  0.00  0.00     0.030 H 
ENDBRANCH  10  19
ENDBRANCH   7  10
ENDBRANCH   4   6
BRANCH   4  23
ATOM     23  C22 4F5 d   1       3.652 -22.294 -28.438  0.00  0.00    -0.019 A 
ATOM     24  C23 4F5 d   1       2.658 -23.324 -28.504  0.00  0.00    -0.037 A 
ATOM     25  S24 4F5 d   1       1.469 -23.023 -27.448  0.00  0.00    -0.113 SA
ATOM     26  H20 4F5 d   1       2.697 -24.185 -29.169  0.00  0.00     0.095 H 
ATOM     27  C25 4F5 d   1       2.001 -21.657 -26.783  0.00  0.00    -0.044 A 
ATOM     28  C26 4F5 d   1       3.258 -21.275 -27.370  0.00  0.00    -0.068 A 
ATOM     29  H21 4F5 d   1       1.484 -21.102 -26.002  0.00  0.00     0.095 H 
ATOM     30  H22 4F5 d   1       3.839 -20.396 -27.096  0.00  0.00     0.085 H 
ENDBRANCH   4  23
ENDBRANCH   3   4
BRANCH   3  31
ATOM     31  C04 4F5 d   1       5.749 -23.768 -27.450  0.00  0.00     0.038 A 
ATOM     32  C13 4F5 d   1       5.495 -23.448 -26.116  0.00  0.00    -0.055 A 
ATOM     33  C12 4F5 d   1       5.176 -24.473 -25.198  0.00  0.00    -0.055 A 
ATOM     34  H5  4F5 d   1       5.542 -22.417 -25.785  0.00  0.00     0.087 H 
ATOM     35  C07 4F5 d   1       5.120 -25.799 -25.603  0.00  0.00     0.034 A 
ATOM     36  H4  4F5 d   1       4.972 -24.221 -24.164  0.00  0.00     0.087 H 
ATOM     37  C06 4F5 d   1       5.358 -26.106 -26.953  0.00  0.00    -0.055 A 
ATOM     38  C05 4F5 d   1       5.677 -25.094 -27.867  0.00  0.00    -0.055 A 
ATOM     39  H8  4F5 d   1       5.294 -27.134 -27.290  0.00  0.00     0.087 H 
ATOM     40  H7  4F5 d   1       5.869 -25.345 -28.904  0.00  0.00     0.087 H 
BRANCH  35  41
ATOM     41  N08 4F5 d   1       4.763 -26.817 -24.637  0.00  0.00    -0.328 N 
ATOM     42  C09 4F5 d   1       4.963 -28.234 -24.763  0.00  0.00     0.218 C 
ATOM     43  O11 4F5 d   1       5.513 -28.733 -25.729  0.00  0.00    -0.274 OA
ATOM     44  H9  4F5 d   1       4.331 -26.500 -23.793  0.00  0.00     0.169 HD
BRANCH  42  45
ATOM     45  C10 4F5 d   1       4.480 -29.151 -23.637  0.00  0.00    -0.003 C 
ATOM     46  H1  4F5 d   1       4.710 -30.196 -23.892  0.00  0.00     0.040 H 
ATOM     47  H2  4F5 d   1       3.394 -29.035 -23.510  0.00  0.00     0.040 H 
ATOM     48  H3  4F5 d   1       4.990 -28.881 -22.700  0.00  0.00     0.040 H 
ENDBRANCH  42  45
ENDBRANCH  35  41
ENDBRANCH   3  31
BRANCH   2  49
ATOM     49  C27 4F5 d   1       8.527 -22.814 -27.770  0.00  0.00     0.088 C 
ATOM     50  H23 4F5 d   1       8.639 -23.892 -27.961  0.00  0.00     0.081 H 
ATOM     51  H24 4F5 d   1       8.285 -22.652 -26.709  0.00  0.00     0.081 H 
BRANCH  49  52
ATOM     52  N28 4F5 d   1       9.777 -22.143 -28.081  0.00  0.00    -0.263 N 
ATOM     53  C29 4F5 d   1      10.745 -22.614 -28.980  0.00  0.00     0.079 A 
ATOM     54  C30 4F5 d   1      10.835 -23.765 -29.798  0.00  0.00    -0.054 A 
ATOM     55  C34 4F5 d   1      11.778 -21.679 -28.972  0.00  0.00     0.102 A 
ATOM     56  C31 4F5 d   1      11.961 -23.966 -30.603  0.00  0.00    -0.081 A 
ATOM     57  H25 4F5 d   1      10.031 -24.492 -29.801  0.00  0.00     0.087 H 
ATOM     58  C32 4F5 d   1      13.004 -23.019 -30.600  0.00  0.00    -0.081 A 
ATOM     59  H26 4F5 d   1      12.031 -24.849 -31.228  0.00  0.00     0.083 H 
ATOM     60  C33 4F5 d   1      12.919 -21.885 -29.796  0.00  0.00    -0.052 A 
ATOM     61  H27 4F5 d   1      13.876 -23.174 -31.226  0.00  0.00     0.083 H 
ATOM     62  H28 4F5 d   1      13.723 -21.158 -29.798  0.00  0.00     0.087 H 
ATOM     63  N35 4F5 d   1      11.402 -20.679 -28.082  0.00  0.00    -0.158 NA
ATOM     64  N36 4F5 d   1      10.192 -20.984 -27.561  0.00  0.00     0.006 NA
ENDBRANCH  49  52
ENDBRANCH   2  49
TORSDOF 12
