REMARK  7 active torsions:
REMARK  status: ('A' for Active; 'I' for Inactive)
REMARK    1  A    between atoms: N03_4  and  C10_1 
REMARK       I    between atoms: C02_3  and  N03_4 
REMARK    2  A    between atoms: C02_3  and  C24_24 
REMARK    3  A    between atoms: N03_4  and  C04_5 
REMARK    4  A    between atoms: C04_5  and  C05_6 
REMARK    5  A    between atoms: C13_13  and  N14_14 
REMARK       I    between atoms: N14_14  and  C15_15 
REMARK    6  A    between atoms: C15_15  and  C16_16 
REMARK    7  A    between atoms: C24_24  and  N25_25 
ROOT
ATOM      1  O01 4F4 d   1      -7.367 -21.403  29.108  0.00  0.00    -0.271 OA
ATOM      2  C02 4F4 d   1      -7.306 -22.246  28.243  0.00  0.00     0.244 C 
ATOM      3  N03 4F4 d   1      -6.078 -22.931  28.011  0.00  0.00    -0.312 N 
ENDROOT
BRANCH   3   4
ATOM      4  C10 4F4 d   1      -6.013 -23.952  26.978  0.00  0.00     0.037 A 
ATOM      5  C11 4F4 d   1      -5.752 -23.635  25.642  0.00  0.00    -0.055 A 
ATOM      6  C12 4F4 d   1      -5.679 -24.668  24.687  0.00  0.00    -0.055 A 
ATOM      7  H6  4F4 d   1      -5.607 -22.603  25.343  0.00  0.00     0.087 H 
ATOM      8  C13 4F4 d   1      -5.899 -25.993  25.086  0.00  0.00     0.035 A 
ATOM      9  H7  4F4 d   1      -5.454 -24.440  23.651  0.00  0.00     0.087 H 
ATOM     10  C22 4F4 d   1      -6.138 -26.300  26.425  0.00  0.00    -0.055 A 
ATOM     11  C23 4F4 d   1      -6.204 -25.270  27.373  0.00  0.00    -0.055 A 
ATOM     12  H12 4F4 d   1      -6.272 -27.331  26.731  0.00  0.00     0.087 H 
ATOM     13  H13 4F4 d   1      -6.404 -25.502  28.413  0.00  0.00     0.087 H 
BRANCH   8  14
ATOM     14  N14 4F4 d   1      -5.788 -27.066  24.122  0.00  0.00    -0.323 N 
ATOM     15  C15 4F4 d   1      -6.512 -28.305  24.162  0.00  0.00     0.263 C 
ATOM     16  O21 4F4 d   1      -7.350 -28.573  24.996  0.00  0.00    -0.267 OA
ATOM     17  H8  4F4 d   1      -5.152 -26.933  23.362  0.00  0.00     0.169 HD
BRANCH  15  18
ATOM     18  C16 4F4 d   1      -6.171 -29.309  23.053  0.00  0.00     0.072 A 
ATOM     19  C17 4F4 d   1      -4.928 -29.319  22.326  0.00  0.00    -0.060 A 
ATOM     20  C18 4F4 d   1      -4.951 -30.472  21.312  0.00  0.00    -0.075 A 
ATOM     21  H9  4F4 d   1      -4.104 -28.621  22.472  0.00  0.00     0.085 H 
ATOM     22  C19 4F4 d   1      -6.204 -31.174  21.419  0.00  0.00    -0.044 A 
ATOM     23  H10 4F4 d   1      -4.147 -30.720  20.621  0.00  0.00     0.084 H 
ATOM     24  S20 4F4 d   1      -7.131 -30.500  22.564  0.00  0.00    -0.097 SA
ATOM     25  H11 4F4 d   1      -6.488 -32.035  20.816  0.00  0.00     0.095 H 
ENDBRANCH  15  18
ENDBRANCH   8  14
ENDBRANCH   3   4
BRANCH   3  26
ATOM     26  C04 4F4 d   1      -4.894 -22.640  28.807  0.00  0.00     0.027 C 
ATOM     27  H1  4F4 d   1      -4.695 -23.468  29.504  0.00  0.00     0.072 H 
ATOM     28  H2  4F4 d   1      -5.040 -21.709  29.375  0.00  0.00     0.072 H 
BRANCH  26  29
ATOM     29  C05 4F4 d   1      -3.719 -22.481  27.828  0.00  0.00    -0.033 A 
ATOM     30  C06 4F4 d   1      -2.739 -23.494  27.516  0.00  0.00    -0.037 A 
ATOM     31  S07 4F4 d   1      -1.683 -22.937  26.407  0.00  0.00    -0.113 SA
ATOM     32  H3  4F4 d   1      -2.710 -24.489  27.959  0.00  0.00     0.095 H 
ATOM     33  C08 4F4 d   1      -2.271 -21.450  26.172  0.00  0.00    -0.044 A 
ATOM     34  C09 4F4 d   1      -3.439 -21.226  26.993  0.00  0.00    -0.069 A 
ATOM     35  H4  4F4 d   1      -1.845 -20.717  25.488  0.00  0.00     0.095 H 
ATOM     36  H5  4F4 d   1      -4.028 -20.310  27.015  0.00  0.00     0.085 H 
ENDBRANCH  26  29
ENDBRANCH   3  26
BRANCH   2  37
ATOM     37  C24 4F4 d   1      -8.487 -22.603  27.365  0.00  0.00     0.088 C 
ATOM     38  H14 4F4 d   1      -8.652 -23.689  27.413  0.00  0.00     0.081 H 
ATOM     39  H15 4F4 d   1      -8.262 -22.312  26.328  0.00  0.00     0.081 H 
BRANCH  37  40
ATOM     40  N25 4F4 d   1      -9.674 -21.935  27.787  0.00  0.00    -0.263 N 
ATOM     41  C26 4F4 d   1     -10.634 -22.515  28.591  0.00  0.00     0.079 A 
ATOM     42  C27 4F4 d   1     -10.732 -23.793  29.201  0.00  0.00    -0.054 A 
ATOM     43  C31 4F4 d   1     -11.631 -21.573  28.766  0.00  0.00     0.102 A 
ATOM     44  C28 4F4 d   1     -11.854 -24.108  29.980  0.00  0.00    -0.081 A 
ATOM     45  H16 4F4 d   1      -9.942 -24.523  29.065  0.00  0.00     0.087 H 
ATOM     46  C29 4F4 d   1     -12.867 -23.151  30.165  0.00  0.00    -0.081 A 
ATOM     47  H17 4F4 d   1     -11.940 -25.087  30.438  0.00  0.00     0.083 H 
ATOM     48  C30 4F4 d   1     -12.762 -21.890  29.563  0.00  0.00    -0.052 A 
ATOM     49  H18 4F4 d   1     -13.731 -23.389  30.775  0.00  0.00     0.083 H 
ATOM     50  H19 4F4 d   1     -13.546 -21.155  29.706  0.00  0.00     0.087 H 
ATOM     51  N32 4F4 d   1     -11.227 -20.442  28.051  0.00  0.00    -0.158 NA
ATOM     52  N33 4F4 d   1     -10.044 -20.688  27.467  0.00  0.00     0.006 NA
ENDBRANCH  37  40
ENDBRANCH   2  37
TORSDOF 7
