REMARK  7 active torsions:
REMARK  status: ('A' for Active; 'I' for Inactive)
REMARK       I    between atoms: C02_2  and  N03_3 
REMARK    1  A    between atoms: C02_2  and  C25_25 
REMARK    2  A    between atoms: N03_3  and  C04_4 
REMARK    3  A    between atoms: N03_3  and  C19_19 
REMARK    4  A    between atoms: C07_7  and  N08_8 
REMARK       I    between atoms: N08_8  and  C09_9 
REMARK    5  A    between atoms: C09_9  and  C10_10 
REMARK    6  A    between atoms: C19_19  and  C20_20 
REMARK    7  A    between atoms: C25_25  and  N26_26 
ROOT
ATOM      1  O01 RFM d   1      -7.243 -21.380  29.162  0.00  0.00    -0.271 OA
ATOM      2  C02 RFM d   1      -7.172 -22.247  28.289  0.00  0.00     0.244 C 
ATOM      3  N03 RFM d   1      -5.934 -22.952  28.078  0.00  0.00    -0.312 N 
ENDROOT
BRANCH   3   4
ATOM      4  C04 RFM d   1      -5.889 -23.987  27.056  0.00  0.00     0.037 A 
ATOM      5  C05 RFM d   1      -6.111 -25.284  27.467  0.00  0.00    -0.055 A 
ATOM      6  C06 RFM d   1      -6.066 -26.334  26.530  0.00  0.00    -0.055 A 
ATOM      7  H1  RFM d   1      -6.320 -25.495  28.509  0.00  0.00     0.087 H 
ATOM      8  C07 RFM d   1      -5.827 -26.058  25.223  0.00  0.00     0.035 A 
ATOM      9  H2  RFM d   1      -6.221 -27.358  26.851  0.00  0.00     0.087 H 
ATOM     10  C17 RFM d   1      -5.586 -24.742  24.809  0.00  0.00    -0.055 A 
ATOM     11  C18 RFM d   1      -5.624 -23.700  25.734  0.00  0.00    -0.055 A 
ATOM     12  H9  RFM d   1      -5.370 -24.533  23.767  0.00  0.00     0.087 H 
ATOM     13  H10 RFM d   1      -5.448 -22.678  25.418  0.00  0.00     0.087 H 
BRANCH   8  14
ATOM     14  N08 RFM d   1      -5.738 -27.100  24.274  0.00  0.00    -0.323 N 
ATOM     15  C09 RFM d   1      -6.485 -28.332  24.274  0.00  0.00     0.256 C 
ATOM     16  O16 RFM d   1      -7.350 -28.607  25.117  0.00  0.00    -0.267 OA
ATOM     17  H3  RFM d   1      -5.089 -26.969  23.524  0.00  0.00     0.169 HD
BRANCH  15  18
ATOM     18  C10 RFM d   1      -6.156 -29.307  23.145  0.00  0.00     0.032 A 
ATOM     19  C11 RFM d   1      -4.874 -29.263  22.612  0.00  0.00    -0.068 A 
ATOM     20  C12 RFM d   1      -4.515 -30.151  21.547  0.00  0.00    -0.082 A 
ATOM     21  H4  RFM d   1      -4.147 -28.559  23.001  0.00  0.00     0.085 H 
ATOM     22  C13 RFM d   1      -5.466 -31.062  21.058  0.00  0.00    -0.083 A 
ATOM     23  H5  RFM d   1      -3.518 -30.120  21.122  0.00  0.00     0.083 H 
ATOM     24  C14 RFM d   1      -6.759 -31.105  21.598  0.00  0.00    -0.082 A 
ATOM     25  H6  RFM d   1      -5.197 -31.739  20.255  0.00  0.00     0.083 H 
ATOM     26  C15 RFM d   1      -7.119 -30.218  22.661  0.00  0.00    -0.068 A 
ATOM     27  H7  RFM d   1      -7.486 -31.810  21.210  0.00  0.00     0.083 H 
ATOM     28  H8  RFM d   1      -8.115 -30.245  23.088  0.00  0.00     0.085 H 
ENDBRANCH  15  18
ENDBRANCH   8  14
ENDBRANCH   3   4
BRANCH   3  29
ATOM     29  C19 RFM d   1      -4.746 -22.662  28.860  0.00  0.00     0.027 C 
ATOM     30  H11 RFM d   1      -4.515 -23.504  29.529  0.00  0.00     0.072 H 
ATOM     31  H12 RFM d   1      -4.895 -21.750  29.456  0.00  0.00     0.072 H 
BRANCH  29  32
ATOM     32  C20 RFM d   1      -3.610 -22.458  27.853  0.00  0.00    -0.033 A 
ATOM     33  C21 RFM d   1      -2.576 -23.445  27.516  0.00  0.00    -0.037 A 
ATOM     34  S22 RFM d   1      -1.602 -22.857  26.385  0.00  0.00    -0.113 SA
ATOM     35  H13 RFM d   1      -2.484 -24.432  27.968  0.00  0.00     0.095 H 
ATOM     36  C23 RFM d   1      -2.252 -21.385  26.148  0.00  0.00    -0.044 A 
ATOM     37  C24 RFM d   1      -3.405 -21.212  27.004  0.00  0.00    -0.069 A 
ATOM     38  H14 RFM d   1      -1.875 -20.640  25.449  0.00  0.00     0.095 H 
ATOM     39  H15 RFM d   1      -4.033 -20.323  27.036  0.00  0.00     0.085 H 
ENDBRANCH  29  32
ENDBRANCH   3  29
BRANCH   2  40
ATOM     40  C25 RFM d   1      -8.367 -22.610  27.409  0.00  0.00     0.088 C 
ATOM     41  H16 RFM d   1      -8.538 -23.695  27.475  0.00  0.00     0.081 H 
ATOM     42  H17 RFM d   1      -8.135 -22.338  26.369  0.00  0.00     0.081 H 
BRANCH  40  43
ATOM     43  N26 RFM d   1      -9.558 -21.935  27.803  0.00  0.00    -0.263 N 
ATOM     44  C27 RFM d   1     -10.520 -22.496  28.623  0.00  0.00     0.079 A 
ATOM     45  C28 RFM d   1     -10.624 -23.756  29.277  0.00  0.00    -0.054 A 
ATOM     46  C32 RFM d   1     -11.529 -21.544  28.757  0.00  0.00     0.102 A 
ATOM     47  C29 RFM d   1     -11.749 -24.023  30.061  0.00  0.00    -0.081 A 
ATOM     48  H18 RFM d   1      -9.841 -24.498  29.168  0.00  0.00     0.087 H 
ATOM     49  C30 RFM d   1     -12.769 -23.066  30.198  0.00  0.00    -0.081 A 
ATOM     50  H19 RFM d   1     -11.836 -24.977  30.568  0.00  0.00     0.083 H 
ATOM     51  C31 RFM d   1     -12.658 -21.824  29.547  0.00  0.00    -0.052 A 
ATOM     52  H20 RFM d   1     -13.640 -23.285  30.805  0.00  0.00     0.083 H 
ATOM     53  H21 RFM d   1     -13.442 -21.083  29.654  0.00  0.00     0.087 H 
ATOM     54  N33 RFM d   1     -11.121 -20.431  28.002  0.00  0.00    -0.158 NA
ATOM     55  N34 RFM d   1      -9.943 -20.690  27.440  0.00  0.00     0.006 NA
ENDBRANCH  40  43
ENDBRANCH   2  40
TORSDOF 7
