REMARK WARNING: 32 MAX_TORS EXCEEDED!!!
REMARK  44 active torsions:
REMARK  status: ('A' for Active; 'I' for Inactive)
REMARK    1  A    between atoms: N_1  and  CA_2 
REMARK    2  A    between atoms: CA_2  and  C_3 
REMARK    3  A    between atoms: CA_2  and  CB_5 
REMARK       I    between atoms: C_3  and  N_9 
REMARK    4  A    between atoms: CB_5  and  CG_6 
REMARK    5  A    between atoms: N_9  and  CA_10 
REMARK    6  A    between atoms: CA_10  and  C_11 
REMARK    7  A    between atoms: CA_10  and  CB_13 
REMARK       I    between atoms: C_11  and  N_17 
REMARK    8  A    between atoms: CB_13  and  CG_14 
REMARK    9  A    between atoms: CG_14  and  CD1_15 
REMARK   10  A    between atoms: CG_14  and  CD2_16 
REMARK   11  A    between atoms: N_17  and  CA_18 
REMARK   12  A    between atoms: CA_18  and  C_19 
REMARK   13  A    between atoms: CA_18  and  CB_21 
REMARK       I    between atoms: C_19  and  N_29 
REMARK   14  A    between atoms: CB_21  and  CG_22 
REMARK   15  A    between atoms: CZ_27  and  OH_28 
REMARK   16  A    between atoms: N_29  and  CA_30 
REMARK   17  A    between atoms: CA_30  and  C_31 
REMARK   18  A    between atoms: CA_30  and  CB_33 
REMARK       I    between atoms: C_31  and  N_35 
REMARK   19  A    between atoms: CB_33  and  SG_34 
REMARK   20  A    between atoms: N_35  and  CA_36 
REMARK   21  A    between atoms: CA_36  and  C_37 
REMARK   22  A    between atoms: CA_36  and  CB_39 
REMARK       I    between atoms: C_37  and  N_47 
REMARK   23  A    between atoms: CB_39  and  CG_40 
REMARK   24  A    between atoms: CZ_45  and  OH_46 
REMARK   25  A    between atoms: N_47  and  CA_48 
REMARK   26  A    between atoms: CA_48  and  C_49 
REMARK   27  A    between atoms: CA_48  and  CB_51 
REMARK       I    between atoms: C_49  and  N_56 
REMARK   28  A    between atoms: CB_51  and  CG_52 
REMARK   29  A    between atoms: CG_52  and  CD_53 
REMARK   30  A    between atoms: N_56  and  CA_57 
REMARK   31  A    between atoms: CA_57  and  C_58 
REMARK   32  A    between atoms: CA_57  and  CB_60 
REMARK       I    between atoms: C_58  and  N_65 
REMARK   33  A    between atoms: CB_60  and  CG_61 
REMARK   34  A    between atoms: CG_61  and  CD_62 
REMARK       I    between atoms: CD_62  and  NE2_64 
REMARK   35  A    between atoms: N_65  and  CA_66 
REMARK   36  A    between atoms: CA_66  and  C_67 
REMARK   37  A    between atoms: CA_66  and  CB_69 
REMARK       I    between atoms: C_67  and  N_73 
REMARK   38  A    between atoms: CB_69  and  CG_70 
REMARK   39  A    between atoms: CG_70  and  CD1_71 
REMARK   40  A    between atoms: CG_70  and  CD2_72 
REMARK   41  A    between atoms: N_73  and  CA_74 
REMARK   42  A    between atoms: CA_74  and  C_75 
REMARK   43  A    between atoms: CA_74  and  CB_77 
REMARK   44  A    between atoms: CB_77  and  CG_78 
REMARK       I    between atoms: CG_78  and  ND2_80 
ROOT
ATOM      1  CA  TYR d   1       0.176  42.550  31.347  0.00  0.00     0.093 C 
ATOM      2  H33 TYR d   1      -0.548  42.793  30.555  0.00  0.00     0.088 H 
ENDROOT
BRANCH   1   3
ATOM      3  N   TYR d   1       0.230  41.101  31.477  0.00  0.00    -0.346 N 
ATOM      4  C   CYS d   1      -0.144  40.297  30.492  0.00  0.00     0.241 C 
ATOM      5  O   CYS d   1      -0.449  40.706  29.373  0.00  0.00    -0.271 OA
ATOM      6  H32 TYR d   1       0.558  40.701  32.333  0.00  0.00     0.163 HD
BRANCH   4   7
ATOM      7  CA  CYS d   1      -0.179  38.807  30.826  0.00  0.00     0.097 C 
ATOM      8  H28 CYS d   1       0.134  38.681  31.873  0.00  0.00     0.088 H 
BRANCH   7   9
ATOM      9  N   CYS d   1      -1.527  38.267  30.687  0.00  0.00    -0.345 N 
ATOM     10  C   TYR d   1      -2.292  38.027  31.747  0.00  0.00     0.241 C 
ATOM     11  O   TYR d   1      -1.926  38.255  32.900  0.00  0.00    -0.271 OA
ATOM     12  H27 CYS d   1      -1.884  38.073  29.773  0.00  0.00     0.163 HD
BRANCH  10  13
ATOM     13  CA  TYR d   1      -3.668  37.428  31.466  0.00  0.00     0.093 C 
ATOM     14  H19 TYR d   1      -3.578  36.748  30.606  0.00  0.00     0.088 H 
BRANCH  13  15
ATOM     15  N   TYR d   1      -4.145  36.661  32.607  0.00  0.00    -0.346 N 
ATOM     16  C   LEU d   1      -3.691  35.440  32.863  0.00  0.00     0.241 C 
ATOM     17  O   LEU d   1      -2.863  34.871  32.154  0.00  0.00    -0.271 OA
ATOM     18  H18 TYR d   1      -4.831  37.063  33.213  0.00  0.00     0.163 HD
BRANCH  16  19
ATOM     19  CA  LEU d   1      -4.257  34.755  34.102  0.00  0.00     0.089 C 
ATOM     20  H8  LEU d   1      -3.424  34.547  34.789  0.00  0.00     0.087 H 
BRANCH  19  21
ATOM     21  N   LEU d   1      -5.210  35.613  34.797  0.00  0.00    -0.346 N 
ATOM     22  C   ASP d   1      -4.802  36.543  35.654  0.00  0.00     0.249 C 
ATOM     23  O   ASP d   1      -3.615  36.728  35.925  0.00  0.00    -0.271 OA
ATOM     24  H7  LEU d   1      -6.189  35.499  34.625  0.00  0.00     0.163 HD
BRANCH  22  25
ATOM     25  CA  ASP d   1      -5.889  37.393  36.301  0.00  0.00     0.185 C 
ATOM     26  H4  ASP d   1      -5.404  38.226  36.831  0.00  0.00     0.100 H 
BRANCH  25  27
ATOM     27  N   ASP d   1      -6.793  37.955  35.304  0.00  0.00    -0.066 N 
ATOM     28  H1  ASP d   1      -7.498  38.510  35.764  0.00  0.00     0.275 HD
ATOM     29  H2  ASP d   1      -7.235  37.208  34.792  0.00  0.00     0.275 HD
ATOM     30  H3  ASP d   1      -6.271  38.536  34.667  0.00  0.00     0.275 HD
ENDBRANCH  25  27
BRANCH  25  31
ATOM     31  CB  ASP d   1      -6.667  36.560  37.320  0.00  0.00     0.050 C 
ATOM     32  H5  ASP d   1      -5.950  36.059  37.987  0.00  0.00     0.052 H 
ATOM     33  H6  ASP d   1      -7.256  35.804  36.781  0.00  0.00     0.052 H 
BRANCH  31  34
ATOM     34  CG  ASP d   1      -7.608  37.399  38.162  0.00  0.00     0.175 C 
ATOM     35  OD1 ASP d   1      -7.240  37.736  39.308  0.00  0.00    -0.648 OA
ATOM     36  OD2 ASP d   1      -8.715  37.724  37.681  0.00  0.00    -0.648 OA
ENDBRANCH  31  34
ENDBRANCH  25  31
ENDBRANCH  22  25
ENDBRANCH  19  21
BRANCH  19  37
ATOM     37  CB  LEU d   1      -4.903  33.424  33.717  0.00  0.00    -0.035 C 
ATOM     38  H9  LEU d   1      -4.475  33.105  32.755  0.00  0.00     0.037 H 
ATOM     39  H10 LEU d   1      -5.983  33.593  33.599  0.00  0.00     0.037 H 
BRANCH  37  40
ATOM     40  CG  LEU d   1      -4.712  32.284  34.718  0.00  0.00    -0.059 C 
ATOM     41  H11 LEU d   1      -5.261  32.536  35.637  0.00  0.00     0.038 H 
BRANCH  40  42
ATOM     42  CD1 LEU d   1      -5.274  30.976  34.174  0.00  0.00    -0.073 C 
ATOM     43  H12 LEU d   1      -5.123  30.176  34.914  0.00  0.00     0.028 H 
ATOM     44  H13 LEU d   1      -4.755  30.714  33.240  0.00  0.00     0.028 H 
ATOM     45  H14 LEU d   1      -6.350  31.093  33.976  0.00  0.00     0.028 H 
ENDBRANCH  40  42
BRANCH  40  46
ATOM     46  CD2 LEU d   1      -3.239  32.142  35.065  0.00  0.00    -0.073 C 
ATOM     47  H15 LEU d   1      -2.860  33.099  35.454  0.00  0.00     0.028 H 
ATOM     48  H16 LEU d   1      -2.675  31.864  34.163  0.00  0.00     0.028 H 
ATOM     49  H17 LEU d   1      -3.116  31.361  35.829  0.00  0.00     0.028 H 
ENDBRANCH  40  46
ENDBRANCH  37  40
ENDBRANCH  19  37
ENDBRANCH  16  19
ENDBRANCH  13  15
BRANCH  13  50
ATOM     50  CB  TYR d   1      -4.671  38.528  31.108  0.00  0.00    -0.014 C 
ATOM     51  H20 TYR d   1      -4.239  39.145  30.307  0.00  0.00     0.043 H 
ATOM     52  H21 TYR d   1      -4.839  39.149  32.000  0.00  0.00     0.043 H 
BRANCH  50  53
ATOM     53  CG  TYR d   1      -6.009  37.999  30.635  0.00  0.00    -0.056 A 
ATOM     54  CD1 TYR d   1      -6.117  37.298  29.438  0.00  0.00    -0.074 A 
ATOM     55  CE1 TYR d   1      -7.336  36.813  28.998  0.00  0.00    -0.051 A 
ATOM     56  H22 TYR d   1      -5.230  37.129  28.839  0.00  0.00     0.084 H 
ATOM     57  CZ  TYR d   1      -8.468  37.029  29.755  0.00  0.00     0.065 A 
ATOM     58  H24 TYR d   1      -7.401  36.267  28.064  0.00  0.00     0.087 H 
ATOM     59  CE2 TYR d   1      -8.391  37.723  30.946  0.00  0.00    -0.051 A 
ATOM     60  CD2 TYR d   1      -7.167  38.205  31.379  0.00  0.00    -0.074 A 
ATOM     61  H25 TYR d   1      -9.283  37.890  31.539  0.00  0.00     0.087 H 
ATOM     62  H23 TYR d   1      -7.110  38.752  32.313  0.00  0.00     0.084 H 
BRANCH  57  63
ATOM     63  OH  TYR d   1      -9.682  36.548  29.316  0.00  0.00    -0.361 OA
ATOM     64  H26 TYR d   1      -9.562  36.098  28.488  0.00  0.00     0.217 HD
ENDBRANCH  57  63
ENDBRANCH  50  53
ENDBRANCH  13  50
ENDBRANCH  10  13
ENDBRANCH   7   9
BRANCH   7  65
ATOM     65  CB  CYS d   1       0.801  38.046  29.938  0.00  0.00     0.001 C 
ATOM     66  H29 CYS d   1       0.462  38.128  28.895  0.00  0.00     0.052 H 
ATOM     67  H30 CYS d   1       0.799  36.989  30.243  0.00  0.00     0.052 H 
BRANCH  65  68
ATOM     68  SG  CYS d   1       2.489  38.665  30.039  0.00  0.00    -0.180 SA
ATOM     69  H31 CYS d   1       3.082  38.121  29.431  0.00  0.00     0.101 HD
ENDBRANCH  65  68
ENDBRANCH   7  65
ENDBRANCH   4   7
ENDBRANCH   1   3
BRANCH   1  70
ATOM     70  C   TYR d   1       1.518  43.145  30.941  0.00  0.00     0.241 C 
ATOM     71  O   TYR d   1       1.679  44.362  30.891  0.00  0.00    -0.271 OA
ATOM     72  N   GLU d   1       2.482  42.273  30.667  0.00  0.00    -0.346 N 
ATOM     73  H41 GLU d   1       2.308  41.298  30.807  0.00  0.00     0.163 HD
BRANCH  72  74
ATOM     74  CA  GLU d   1       3.784  42.694  30.169  0.00  0.00     0.090 C 
ATOM     75  H42 GLU d   1       4.121  43.557  30.763  0.00  0.00     0.087 H 
BRANCH  74  76
ATOM     76  C   GLU d   1       3.702  43.118  28.705  0.00  0.00     0.241 C 
ATOM     77  O   GLU d   1       2.770  42.746  27.995  0.00  0.00    -0.271 OA
ATOM     78  N   GLN d   1       4.681  43.909  28.270  0.00  0.00    -0.346 N 
ATOM     79  H47 GLN d   1       5.343  44.255  28.935  0.00  0.00     0.163 HD
BRANCH  78  80
ATOM     80  CA  GLN d   1       4.838  44.298  26.868  0.00  0.00     0.090 C 
ATOM     81  H48 GLN d   1       4.190  43.661  26.247  0.00  0.00     0.087 H 
BRANCH  80  82
ATOM     82  C   GLN d   1       6.305  44.070  26.445  0.00  0.00     0.241 C 
ATOM     83  O   GLN d   1       7.101  43.558  27.233  0.00  0.00    -0.271 OA
ATOM     84  N   LEU d   1       6.666  44.451  25.220  0.00  0.00    -0.346 N 
ATOM     85  H55 LEU d   1       6.006  44.932  24.643  0.00  0.00     0.163 HD
BRANCH  84  86
ATOM     86  CA  LEU d   1       8.014  44.180  24.699  0.00  0.00     0.089 C 
ATOM     87  H56 LEU d   1       8.649  43.877  25.545  0.00  0.00     0.087 H 
BRANCH  86  88
ATOM     88  C   LEU d   1       8.651  45.456  24.082  0.00  0.00     0.241 C 
ATOM     89  O   LEU d   1       7.943  46.448  23.903  0.00  0.00    -0.271 OA
ATOM     90  N   ASN d   1       9.961  45.487  23.784  0.00  0.00    -0.344 N 
ATOM     91  H66 ASN d   1      10.334  46.375  23.515  0.00  0.00     0.163 HD
BRANCH  90  92
ATOM     92  CA  ASN d   1      10.911  44.360  23.808  0.00  0.00     0.104 C 
ATOM     93  H67 ASN d   1      10.459  43.547  23.220  0.00  0.00     0.090 H 
BRANCH  92  94
ATOM     94  C   ASN d   1      11.226  43.794  25.187  0.00  0.00     0.197 C 
ATOM     95  O   ASN d   1      11.442  44.533  26.145  0.00  0.00    -0.646 OA
ATOM     96  OXT ASN d   1      11.273  42.582  25.383  0.00  0.00    -0.646 OA
ENDBRANCH  92  94
BRANCH  92  97
ATOM     97  CB  ASN d   1      12.224  44.771  23.129  0.00  0.00     0.037 C 
ATOM     98  H68 ASN d   1      12.863  43.881  23.030  0.00  0.00     0.051 H 
ATOM     99  H69 ASN d   1      12.729  45.517  23.760  0.00  0.00     0.051 H 
BRANCH  97 100
ATOM    100  CG  ASN d   1      12.005  45.368  21.751  0.00  0.00     0.217 C 
ATOM    101  OD1 ASN d   1      10.871  45.501  21.303  0.00  0.00    -0.274 OA
ATOM    102  ND2 ASN d   1      13.093  45.693  21.055  0.00  0.00    -0.370 N 
ATOM    103  H70 ASN d   1      13.002  46.090  20.142  0.00  0.00     0.159 HD
ATOM    104  H71 ASN d   1      14.001  45.540  21.446  0.00  0.00     0.159 HD
ENDBRANCH  97 100
ENDBRANCH  92  97
ENDBRANCH  90  92
ENDBRANCH  86  88
BRANCH  86 105
ATOM    105  CB  LEU d   1       7.955  42.992  23.710  0.00  0.00    -0.035 C 
ATOM    106  H57 LEU d   1       7.341  42.246  24.236  0.00  0.00     0.037 H 
ATOM    107  H58 LEU d   1       8.997  42.642  23.662  0.00  0.00     0.037 H 
BRANCH 105 108
ATOM    108  CG  LEU d   1       7.474  42.899  22.260  0.00  0.00    -0.059 C 
ATOM    109  H59 LEU d   1       6.478  43.358  22.176  0.00  0.00     0.038 H 
BRANCH 108 110
ATOM    110  CD1 LEU d   1       8.400  43.567  21.274  0.00  0.00    -0.073 C 
ATOM    111  H60 LEU d   1       7.992  43.461  20.258  0.00  0.00     0.028 H 
ATOM    112  H61 LEU d   1       9.391  43.093  21.323  0.00  0.00     0.028 H 
ATOM    113  H62 LEU d   1       8.492  44.635  21.522  0.00  0.00     0.028 H 
ENDBRANCH 108 110
BRANCH 108 114
ATOM    114  CD2 LEU d   1       7.398  41.427  21.944  0.00  0.00    -0.073 C 
ATOM    115  H63 LEU d   1       6.724  40.933  22.659  0.00  0.00     0.028 H 
ATOM    116  H64 LEU d   1       8.402  40.983  22.019  0.00  0.00     0.028 H 
ATOM    117  H65 LEU d   1       7.013  41.291  20.923  0.00  0.00     0.028 H 
ENDBRANCH 108 114
ENDBRANCH 105 108
ENDBRANCH  86 105
ENDBRANCH  84  86
ENDBRANCH  80  82
BRANCH  80 118
ATOM    118  CB  GLN d   1       4.414  45.758  26.669  0.00  0.00    -0.030 C 
ATOM    119  H49 GLN d   1       3.844  45.829  25.731  0.00  0.00     0.037 H 
ATOM    120  H50 GLN d   1       5.321  46.376  26.594  0.00  0.00     0.037 H 
BRANCH 118 121
ATOM    121  CG  GLN d   1       3.545  46.308  27.808  0.00  0.00     0.011 C 
ATOM    122  H51 GLN d   1       3.990  46.001  28.766  0.00  0.00     0.047 H 
ATOM    123  H52 GLN d   1       2.537  45.877  27.717  0.00  0.00     0.047 H 
BRANCH 121 124
ATOM    124  CD  GLN d   1       3.424  47.820  27.796  0.00  0.00     0.215 C 
ATOM    125  OE1 GLN d   1       3.780  48.472  26.816  0.00  0.00    -0.274 OA
ATOM    126  NE2 GLN d   1       2.943  48.388  28.899  0.00  0.00    -0.370 N 
ATOM    127  H53 GLN d   1       2.842  49.382  28.946  0.00  0.00     0.159 HD
ATOM    128  H54 GLN d   1       2.683  47.821  29.681  0.00  0.00     0.159 HD
ENDBRANCH 121 124
ENDBRANCH 118 121
ENDBRANCH  80 118
ENDBRANCH  78  80
ENDBRANCH  74  76
BRANCH  74 129
ATOM    129  CB  GLU d   1       4.802  41.563  30.330  0.00  0.00    -0.029 C 
ATOM    130  H43 GLU d   1       5.808  41.976  30.167  0.00  0.00     0.037 H 
ATOM    131  H44 GLU d   1       4.593  40.797  29.569  0.00  0.00     0.037 H 
BRANCH 129 132
ATOM    132  CG  GLU d   1       4.772  40.902  31.694  0.00  0.00     0.018 C 
ATOM    133  H45 GLU d   1       3.731  40.642  31.936  0.00  0.00     0.049 H 
ATOM    134  H46 GLU d   1       5.155  41.615  32.439  0.00  0.00     0.049 H 
BRANCH 132 135
ATOM    135  CD  GLU d   1       5.613  39.640  31.754  0.00  0.00     0.172 C 
ATOM    136  OE1 GLU d   1       6.743  39.653  31.222  0.00  0.00    -0.648 OA
ATOM    137  OE2 GLU d   1       5.143  38.636  32.330  0.00  0.00    -0.648 OA
ENDBRANCH 132 135
ENDBRANCH 129 132
ENDBRANCH  74 129
ENDBRANCH  72  74
ENDBRANCH   1  70
BRANCH   1 138
ATOM    138  CB  TYR d   1      -0.329  43.153  32.654  0.00  0.00    -0.014 C 
ATOM    139  H34 TYR d   1      -0.330  44.250  32.568  0.00  0.00     0.043 H 
ATOM    140  H35 TYR d   1       0.340  42.850  33.473  0.00  0.00     0.043 H 
BRANCH 138 141
ATOM    141  CG  TYR d   1      -1.729  42.680  32.960  0.00  0.00    -0.056 A 
ATOM    142  CD1 TYR d   1      -2.837  43.382  32.496  0.00  0.00    -0.074 A 
ATOM    143  CE1 TYR d   1      -4.125  42.939  32.753  0.00  0.00    -0.051 A 
ATOM    144  H36 TYR d   1      -2.691  44.291  31.924  0.00  0.00     0.084 H 
ATOM    145  CZ  TYR d   1      -4.314  41.772  33.467  0.00  0.00     0.065 A 
ATOM    146  H38 TYR d   1      -4.978  43.505  32.396  0.00  0.00     0.087 H 
ATOM    147  CE2 TYR d   1      -3.228  41.049  33.922  0.00  0.00    -0.051 A 
ATOM    148  CD2 TYR d   1      -1.947  41.501  33.663  0.00  0.00    -0.074 A 
ATOM    149  H39 TYR d   1      -3.379  40.132  34.479  0.00  0.00     0.087 H 
ATOM    150  H37 TYR d   1      -1.098  40.926  34.014  0.00  0.00     0.084 H 
BRANCH 145 151
ATOM    151  OH  TYR d   1      -5.589  41.323  33.728  0.00  0.00    -0.361 OA
ATOM    152  H40 TYR d   1      -6.219  41.926  33.352  0.00  0.00     0.217 HD
ENDBRANCH 145 151
ENDBRANCH 138 141
ENDBRANCH   1 138
TORSDOF 44
