REMARK  6 active torsions:
REMARK  status: ('A' for Active; 'I' for Inactive)
REMARK    1  A    between atoms: C2'_10  and  O2'_11 
REMARK    2  A    between atoms: C1'_12  and  N9_13 
REMARK    3  A    between atoms: C6_17  and  N6_18 
REMARK    4  A    between atoms: C2'1_32  and  O2'1_33 
REMARK    5  A    between atoms: C1'1_34  and  N91_35 
REMARK    6  A    between atoms: C61_39  and  N61_40 
ROOT
ATOM      1  P   2BA d   1     -14.298   4.781 -23.384  0.00  0.00     0.408 P 
ATOM      2  O1P 2BA d   1     -13.258   4.172 -22.614  0.00  0.00    -0.624 OA
ATOM      3  O2P 2BA d   1     -14.016   6.173 -23.474  0.00  0.00    -0.624 OA
ATOM      4  O5' 2BA d   1     -15.550   4.833 -22.595  0.00  0.00    -0.287 OA
ATOM      5  C5' 2BA d   1     -16.141   3.660 -22.393  0.00  0.00     0.058 C 
ATOM      6  C4' 2BA d   1     -17.513   3.902 -21.937  0.00  0.00     0.090 C 
ATOM      7  O4' 2BA d   1     -17.432   5.015 -21.196  0.00  0.00    -0.353 OA
ATOM      8  C3' 2BA d   1     -18.317   4.409 -23.030  0.00  0.00     0.106 C 
ATOM      9  O3' 2BA d   1     -18.809   3.413 -23.822  0.00  0.00    -0.279 OA
ATOM     10  C2' 2BA d   1     -19.365   4.815 -22.258  0.00  0.00     0.106 C 
ATOM     11  C1' 2BA d   1     -18.724   5.433 -21.121  0.00  0.00     0.140 C 
ATOM     12  P1  2BA d   1     -18.771   3.589 -25.311  0.00  0.00     0.408 P 
ATOM     13  O1P 2BA d   1     -19.488   2.504 -25.881  0.00  0.00    -0.624 OA
ATOM     14  O2P 2BA d   1     -19.514   4.774 -25.499  0.00  0.00    -0.624 OA
ATOM     15  O5' 2BA d   1     -17.607   3.902 -26.161  0.00  0.00    -0.287 OA
ATOM     16  C5' 2BA d   1     -16.588   3.047 -26.097  0.00  0.00     0.058 C 
ATOM     17  C4' 2BA d   1     -15.409   3.689 -26.660  0.00  0.00     0.090 C 
ATOM     18  O4' 2BA d   1     -15.963   4.492 -27.664  0.00  0.00    -0.353 OA
ATOM     19  C3' 2BA d   1     -14.956   4.717 -25.779  0.00  0.00     0.106 C 
ATOM     20  O3' 2BA d   1     -14.116   4.265 -24.802  0.00  0.00    -0.279 OA
ATOM     21  C2' 2BA d   1     -14.177   5.452 -26.721  0.00  0.00     0.106 C 
ATOM     22  C1' 2BA d   1     -14.990   5.423 -27.923  0.00  0.00     0.140 C 
ATOM     23  H1  2BA d   1     -15.590   3.094 -21.627  0.00  0.00     0.079 H 
ATOM     24  H2  2BA d   1     -16.158   3.087 -23.332  0.00  0.00     0.079 H 
ATOM     25  H3  2BA d   1     -17.953   3.033 -21.426  0.00  0.00     0.090 H 
ATOM     26  H4  2BA d   1     -17.826   5.200 -23.616  0.00  0.00     0.092 H 
ATOM     27  H5  2BA d   1     -20.061   5.488 -22.780  0.00  0.00     0.093 H 
ATOM     28  H7  2BA d   1     -19.227   5.254 -20.159  0.00  0.00     0.122 H 
ATOM     29  H12 2BA d   1     -16.827   2.141 -26.673  0.00  0.00     0.079 H 
ATOM     30  H13 2BA d   1     -16.397   2.775 -25.048  0.00  0.00     0.079 H 
ATOM     31  H14 2BA d   1     -14.627   2.984 -26.979  0.00  0.00     0.090 H 
ATOM     32  H15 2BA d   1     -15.784   5.294 -25.342  0.00  0.00     0.092 H 
ATOM     33  H16 2BA d   1     -13.941   6.473 -26.387  0.00  0.00     0.093 H 
ATOM     34  H18 2BA d   1     -14.442   5.286 -28.867  0.00  0.00     0.122 H 
ENDROOT
BRANCH  11  35
ATOM     35  N9  2BA d   1     -18.571   6.754 -21.470  0.00  0.00    -0.294 N 
ATOM     36  C8  2BA d   1     -17.506   7.186 -21.947  0.00  0.00     0.071 A 
ATOM     37  N7  2BA d   1     -17.534   8.357 -22.196  0.00  0.00    -0.236 NA
ATOM     38  H8  2BA d   1     -16.633   6.559 -22.121  0.00  0.00     0.144 H 
ATOM     39  C5  2BA d   1     -18.637   8.919 -21.921  0.00  0.00     0.149 A 
ATOM     40  C6  2BA d   1     -19.145  10.162 -22.013  0.00  0.00     0.155 A 
ATOM     41  C4  2BA d   1     -19.421   7.858 -21.408  0.00  0.00     0.167 A 
ATOM     42  N1  2BA d   1     -20.363  10.399 -21.605  0.00  0.00    -0.222 NA
ATOM     43  C2  2BA d   1     -21.085   9.400 -21.123  0.00  0.00     0.091 A 
ATOM     44  N3  2BA d   1     -20.644   8.150 -21.010  0.00  0.00    -0.222 NA
ATOM     45  H11 2BA d   1     -22.098   9.613 -20.801  0.00  0.00     0.146 H 
BRANCH  40  46
ATOM     46  N6  2BA d   1     -18.435  11.154 -22.513  0.00  0.00    -0.382 N 
ATOM     47  H9  2BA d   1     -18.842  12.098 -22.575  0.00  0.00     0.157 HD
ATOM     48  H10 2BA d   1     -17.474  10.985 -22.842  0.00  0.00     0.157 HD
ENDBRANCH  40  46
ENDBRANCH  11  35
BRANCH  10  49
ATOM     49  O2' 2BA d   1     -19.956   3.690 -21.833  0.00  0.00    -0.388 OA
ATOM     50  H6  2BA d   1     -20.252   3.187 -22.582  0.00  0.00     0.210 HD
ENDBRANCH  10  49
BRANCH  21  51
ATOM     51  O2' 2BA d   1     -13.087   4.731 -26.950  0.00  0.00    -0.388 OA
ATOM     52  H17 2BA d   1     -12.612   4.610 -26.136  0.00  0.00     0.210 HD
ENDBRANCH  21  51
BRANCH  22  53
ATOM     53  N91 2BA d   1     -15.691   6.601 -27.788  0.00  0.00    -0.294 N 
ATOM     54  C81 2BA d   1     -16.873   6.609 -27.413  0.00  0.00     0.071 A 
ATOM     55  N71 2BA d   1     -17.353   7.703 -27.346  0.00  0.00    -0.236 NA
ATOM     56  H19 2BA d   1     -17.424   5.703 -27.167  0.00  0.00     0.144 H 
ATOM     57  C51 2BA d   1     -16.567   8.636 -27.676  0.00  0.00     0.149 A 
ATOM     58  C61 2BA d   1     -16.586   9.974 -27.769  0.00  0.00     0.155 A 
ATOM     59  C41 2BA d   1     -15.377   7.953 -27.991  0.00  0.00     0.167 A 
ATOM     60  N11 2BA d   1     -15.556  10.651 -28.173  0.00  0.00    -0.222 NA
ATOM     61  C21 2BA d   1     -14.450  10.004 -28.488  0.00  0.00     0.091 A 
ATOM     62  N31 2BA d   1     -14.364   8.680 -28.403  0.00  0.00    -0.222 NA
ATOM     63  H22 2BA d   1     -13.588  10.568 -28.825  0.00  0.00     0.146 H 
BRANCH  58  64
ATOM     64  N61 2BA d   1     -17.691  10.651 -27.444  0.00  0.00    -0.382 N 
ATOM     65  H20 2BA d   1     -17.705  11.678 -27.515  0.00  0.00     0.157 HD
ATOM     66  H21 2BA d   1     -18.529  10.146 -27.122  0.00  0.00     0.157 HD
ENDBRANCH  58  64
ENDBRANCH  22  53
TORSDOF 6
