REMARK  8 active torsions:
REMARK  status: ('A' for Active; 'I' for Inactive)
REMARK       I    between atoms: N01_1  and  C02_2 
REMARK    1  A    between atoms: N01_1  and  C13_13 
REMARK    2  A    between atoms: C02_2  and  C04_4 
REMARK    3  A    between atoms: C15_15  and  C18_18 
REMARK    4  A    between atoms: N17_17  and  C27_27 
REMARK    5  A    between atoms: N21_21  and  C24_24 
REMARK    6  A    between atoms: C24_24  and  C25_25 
REMARK    7  A    between atoms: C24_24  and  C26_26 
REMARK    8  A    between atoms: C30_30  and  C34_34 
ROOT
ATOM      1  C13 4GF d   1      28.699   6.168  -6.358  0.00  0.00     0.134 A 
ATOM      2  C14 4GF d   1      28.260   5.149  -5.532  0.00  0.00    -0.013 A 
ATOM      3  C15 4GF d   1      27.521   5.783  -4.482  0.00  0.00     0.063 A 
ATOM      4  N16 4GF d   1      27.478   7.138  -4.655  0.00  0.00    -0.170 NA
ATOM      5  N17 4GF d   1      28.227   7.354  -5.789  0.00  0.00    -0.214 N 
ATOM      6  H6  4GF d   1      28.440   4.082  -5.655  0.00  0.00     0.092 H 
ENDROOT
BRANCH   3   7
ATOM      7  C18 4GF d   1      26.785   5.137  -3.349  0.00  0.00    -0.007 C 
ATOM      8  C19 4GF d   1      27.491   3.905  -2.768  0.00  0.00    -0.034 C 
ATOM      9  C20 4GF d   1      26.655   3.343  -1.623  0.00  0.00     0.085 C 
ATOM     10  H8  4GF d   1      28.484   4.193  -2.392  0.00  0.00     0.036 H 
ATOM     11  H9  4GF d   1      27.603   3.141  -3.551  0.00  0.00     0.036 H 
ATOM     12  N21 4GF d   1      26.492   4.333  -0.546  0.00  0.00    -0.068 N 
ATOM     13  H10 4GF d   1      27.155   2.451  -1.218  0.00  0.00     0.076 H 
ATOM     14  H11 4GF d   1      25.663   3.064  -2.007  0.00  0.00     0.076 H 
ATOM     15  C22 4GF d   1      25.740   5.473  -1.099  0.00  0.00     0.085 C 
ATOM     16  H12 4GF d   1      27.411   4.665  -0.297  0.00  0.00     0.280 HD
ATOM     17  C23 4GF d   1      26.509   6.152  -2.230  0.00  0.00    -0.034 C 
ATOM     18  H13 4GF d   1      25.560   6.205  -0.298  0.00  0.00     0.076 H 
ATOM     19  H14 4GF d   1      24.777   5.111  -1.488  0.00  0.00     0.076 H 
ATOM     20  H15 4GF d   1      25.912   6.984  -2.630  0.00  0.00     0.036 H 
ATOM     21  H16 4GF d   1      27.463   6.538  -1.843  0.00  0.00     0.036 H 
ATOM     22  H7  4GF d   1      25.816   4.800  -3.745  0.00  0.00     0.050 H 
BRANCH  12  23
ATOM     23  C24 4GF d   1      25.897   3.783   0.690  0.00  0.00     0.097 C 
ATOM     24  H17 4GF d   1      25.073   3.126   0.375  0.00  0.00     0.083 H 
BRANCH  23  25
ATOM     25  C25 4GF d   1      25.281   4.860   1.579  0.00  0.00    -0.050 C 
ATOM     26  H18 4GF d   1      24.856   4.393   2.480  0.00  0.00     0.030 H 
ATOM     27  H19 4GF d   1      24.486   5.381   1.026  0.00  0.00     0.030 H 
ATOM     28  H20 4GF d   1      26.058   5.582   1.872  0.00  0.00     0.030 H 
ENDBRANCH  23  25
BRANCH  23  29
ATOM     29  C26 4GF d   1      26.884   2.911   1.462  0.00  0.00    -0.050 C 
ATOM     30  H21 4GF d   1      26.399   2.525   2.371  0.00  0.00     0.030 H 
ATOM     31  H22 4GF d   1      27.762   3.511   1.742  0.00  0.00     0.030 H 
ATOM     32  H23 4GF d   1      27.201   2.069   0.830  0.00  0.00     0.030 H 
ENDBRANCH  23  29
ENDBRANCH  12  23
ENDBRANCH   3   7
BRANCH   1  33
ATOM     33  N01 4GF d   1      29.432   6.231  -7.549  0.00  0.00    -0.307 N 
ATOM     34  C02 4GF d   1      30.104   5.209  -8.160  0.00  0.00     0.262 C 
ATOM     35  O03 4GF d   1      29.979   4.028  -7.839  0.00  0.00    -0.267 OA
ATOM     36  H1  4GF d   1      29.468   7.121  -8.003  0.00  0.00     0.170 HD
BRANCH  34  37
ATOM     37  C04 4GF d   1      31.024   5.615  -9.225  0.00  0.00     0.099 A 
ATOM     38  C05 4GF d   1      31.898   4.691  -9.874  0.00  0.00     0.041 A 
ATOM     39  N06 4GF d   1      32.710   5.276 -10.772  0.00  0.00    -0.178 NA
ATOM     40  H2  4GF d   1      31.906   3.623  -9.663  0.00  0.00     0.119 H 
ATOM     41  N07 4GF d   1      32.328   6.603 -10.789  0.00  0.00    -0.226 N 
ATOM     42  C08 4GF d   1      31.248   6.858  -9.848  0.00  0.00     0.167 A 
ATOM     43  C12 4GF d   1      32.876   7.661 -11.559  0.00  0.00     0.007 A 
ATOM     44  N09 4GF d   1      30.758   8.167  -9.669  0.00  0.00    -0.240 NA
ATOM     45  C10 4GF d   1      31.326   9.142 -10.434  0.00  0.00     0.006 A 
ATOM     46  C11 4GF d   1      32.325   8.926 -11.367  0.00  0.00    -0.049 A 
ATOM     47  H3  4GF d   1      30.969  10.162 -10.302  0.00  0.00     0.114 H 
ATOM     48  H4  4GF d   1      32.688   9.762 -11.963  0.00  0.00     0.087 H 
ATOM     49  H5  4GF d   1      33.688   7.493 -12.265  0.00  0.00     0.115 H 
ENDBRANCH  34  37
ENDBRANCH   1  33
BRANCH   5  50
ATOM     50  C27 4GF d   1      28.425   8.681  -6.265  0.00  0.00     0.099 A 
ATOM     51  C28 4GF d   1      29.665   9.337  -6.188  0.00  0.00     0.145 A 
ATOM     52  C29 4GF d   1      29.897  10.575  -6.728  0.00  0.00    -0.036 A 
ATOM     53  F33 4GF d   1      30.666   8.726  -5.522  0.00  0.00    -0.204 F 
ATOM     54  C30 4GF d   1      28.873  11.206  -7.430  0.00  0.00    -0.044 A 
ATOM     55  H24 4GF d   1      30.862  11.055  -6.611  0.00  0.00     0.089 H 
ATOM     56  C31 4GF d   1      27.645  10.564  -7.552  0.00  0.00    -0.073 A 
ATOM     57  C32 4GF d   1      27.429   9.304  -7.015  0.00  0.00    -0.051 A 
ATOM     58  H25 4GF d   1      26.838  11.060  -8.079  0.00  0.00     0.084 H 
ATOM     59  H26 4GF d   1      26.482   8.802  -7.179  0.00  0.00     0.087 H 
BRANCH  54  60
ATOM     60  C34 4GF d   1      29.084  12.574  -8.050  0.00  0.00     0.004 A 
ATOM     61  C35 4GF d   1      29.915  13.635  -7.375  0.00  0.00    -0.094 A 
ATOM     62  C36 4GF d   1      28.438  13.734  -7.340  0.00  0.00    -0.094 A 
ATOM     63  H28 4GF d   1      30.891  14.037  -7.108  0.00  0.00     0.077 H 
ATOM     64  H29 4GF d   1      27.538  14.262  -7.028  0.00  0.00     0.077 H 
ATOM     65  H27 4GF d   1      29.083  12.496  -9.147  0.00  0.00     0.059 H 
ENDBRANCH  54  60
ENDBRANCH   5  50
TORSDOF 8
