REMARK  1 active torsions:
REMARK  status: ('A' for Active; 'I' for Inactive)
REMARK    1  A    between atoms: C_6  and  N_5 
ROOT
ATOM      1  C1  4FS d   1      66.126   8.237  18.550  0.00  0.00     0.028 A 
ATOM      2  C5  4FS d   1      61.413   7.783  19.937  0.00  0.00    -0.082 A 
ATOM      3  C3  4FS d   1      62.744   7.125  18.058  0.00  0.00    -0.054 A 
ATOM      4  C6  4FS d   1      62.500   8.326  20.556  0.00  0.00    -0.071 A 
ATOM      5  C   4FS d   1      66.118   8.847  19.808  0.00  0.00     0.044 A 
ATOM      6  C8  4FS d   1      64.922   8.877  20.499  0.00  0.00    -0.044 A 
ATOM      7  C7  4FS d   1      63.768   8.301  19.933  0.00  0.00    -0.005 A 
ATOM      8  C2  4FS d   1      63.889   7.696  18.659  0.00  0.00     0.066 A 
ATOM      9  N1  4FS d   1      65.080   7.672  17.977  0.00  0.00    -0.258 NA
ATOM     10  C4  4FS d   1      61.536   7.176  18.693  0.00  0.00    -0.081 A 
ATOM     11  H1  4FS d   1      67.062   8.227  18.004  0.00  0.00     0.118 H 
ATOM     12  H2  4FS d   1      60.444   7.825  20.420  0.00  0.00     0.083 H 
ATOM     13  H3  4FS d   1      62.825   6.645  17.090  0.00  0.00     0.087 H 
ATOM     14  H4  4FS d   1      62.390   8.780  21.534  0.00  0.00     0.084 H 
ATOM     15  H7  4FS d   1      64.872   9.344  21.476  0.00  0.00     0.088 H 
ATOM     16  H8  4FS d   1      60.664   6.738  18.221  0.00  0.00     0.083 H 
ENDROOT
BRANCH   5  17
ATOM     17  N   4FS d   1      67.269   9.375  20.334  0.00  0.00    -0.398 N 
ATOM     18  H5  4FS d   1      67.253   9.822  21.262  0.00  0.00     0.156 HD
ATOM     19  H6  4FS d   1      68.149   9.324  19.802  0.00  0.00     0.156 HD
ENDBRANCH   5  17
TORSDOF 1
