REMARK  3 active torsions:
REMARK  status: ('A' for Active; 'I' for Inactive)
REMARK    1  A    between atoms: N1_21  and  C11_4 
REMARK    2  A    between atoms: C16_9  and  C17_10 
REMARK    3  A    between atoms: C5_27  and  C7_26 
ROOT
ATOM      1  C17 4F6 d   1     -16.388 -42.492 -14.661  0.00  0.00    -0.006 A 
ATOM      2  C18 4F6 d   1     -16.289 -41.677 -15.783  0.00  0.00    -0.069 A 
ATOM      3  C19 4F6 d   1     -15.971 -42.206 -17.036  0.00  0.00    -0.062 A 
ATOM      4  C20 4F6 d   1     -15.722 -43.563 -17.168  0.00  0.00     0.044 A 
ATOM      5  C21 4F6 d   1     -15.810 -44.392 -16.059  0.00  0.00    -0.062 A 
ATOM      6  C22 4F6 d   1     -16.139 -43.866 -14.808  0.00  0.00    -0.069 A 
ATOM      7  C23 4F6 d   1     -15.445 -44.060 -18.319  0.00  0.00     0.099 C 
ATOM      8  N5  4F6 d   1     -15.200 -44.476 -19.369  0.00  0.00    -0.191 NA
ATOM      9  H6  4F6 d   1     -16.462 -40.611 -15.684  0.00  0.00     0.085 H 
ATOM     10  H7  4F6 d   1     -15.919 -41.557 -17.903  0.00  0.00     0.085 H 
ATOM     11  H8  4F6 d   1     -15.622 -45.454 -16.164  0.00  0.00     0.085 H 
ATOM     12  H9  4F6 d   1     -16.202 -44.521 -13.947  0.00  0.00     0.085 H 
ENDROOT
BRANCH   1  13
ATOM     13  C16 4F6 d   1     -16.733 -41.834 -13.353  0.00  0.00     0.088 A 
ATOM     14  C15 4F6 d   1     -16.594 -40.518 -12.981  0.00  0.00     0.033 A 
ATOM     15  N4  4F6 d   1     -17.071 -40.426 -11.722  0.00  0.00    -0.239 NA
ATOM     16  H5  4F6 d   1     -16.181 -39.710 -13.583  0.00  0.00     0.118 H 
ATOM     17  C12 4F6 d   1     -17.494 -41.653 -11.327  0.00  0.00     0.151 A 
ATOM     18  C13 4F6 d   1     -18.053 -42.139 -10.144  0.00  0.00    -0.033 A 
ATOM     19  N3  4F6 d   1     -17.296 -42.498 -12.329  0.00  0.00    -0.212 N 
ATOM     20  C14 4F6 d   1     -18.399 -43.478 -10.033  0.00  0.00    -0.033 A 
ATOM     21  H3  4F6 d   1     -18.218 -41.465  -9.305  0.00  0.00     0.089 H 
ATOM     22  C11 4F6 d   1     -18.165 -44.358 -11.093  0.00  0.00     0.147 A 
ATOM     23  H4  4F6 d   1     -18.855 -43.845  -9.115  0.00  0.00     0.089 H 
ATOM     24  N2  4F6 d   1     -17.629 -43.850 -12.222  0.00  0.00    -0.147 NA
BRANCH  22  25
ATOM     25  N1  4F6 d   1     -18.519 -45.731 -11.088  0.00  0.00    -0.351 N 
ATOM     26  C10 4F6 d   1     -19.579 -46.239 -10.211  0.00  0.00     0.017 C 
ATOM     27  C9  4F6 d   1     -19.469 -47.740 -10.000  0.00  0.00     0.034 C 
ATOM     28  H10 4F6 d   1     -20.555 -46.014 -10.666  0.00  0.00     0.067 H 
ATOM     29  H11 4F6 d   1     -19.505 -45.736  -9.235  0.00  0.00     0.067 H 
ATOM     30  O   4F6 d   1     -18.119 -48.118 -10.132  0.00  0.00    -0.387 OA
ATOM     31  H12 4F6 d   1     -20.075 -48.265 -10.753  0.00  0.00     0.076 H 
ATOM     32  H13 4F6 d   1     -19.829 -47.999  -8.993  0.00  0.00     0.076 H 
ATOM     33  C8  4F6 d   1     -17.761 -48.062 -11.496  0.00  0.00     0.042 C 
ATOM     34  C7  4F6 d   1     -17.908 -46.654 -12.073  0.00  0.00     0.059 C 
ATOM     35  H14 4F6 d   1     -18.411 -48.746 -12.061  0.00  0.00     0.078 H 
ATOM     36  H15 4F6 d   1     -16.713 -48.380 -11.601  0.00  0.00     0.078 H 
ATOM     37  H16 4F6 d   1     -16.902 -46.273 -12.303  0.00  0.00     0.083 H 
BRANCH  34  38
ATOM     38  C5  4F6 d   1     -18.679 -46.718 -13.359  0.00  0.00    -0.030 A 
ATOM     39  C6  4F6 d   1     -19.748 -45.862 -13.628  0.00  0.00    -0.037 A 
ATOM     40  C1  4F6 d   1     -20.427 -45.949 -14.848  0.00  0.00     0.117 A 
ATOM     41  H17 4F6 d   1     -20.053 -45.129 -12.890  0.00  0.00     0.089 H 
ATOM     42  C2  4F6 d   1     -20.052 -46.882 -15.813  0.00  0.00    -0.046 A 
ATOM     43  F   4F6 d   1     -21.460 -45.118 -15.101  0.00  0.00    -0.206 F 
ATOM     44  C3  4F6 d   1     -18.989 -47.739 -15.573  0.00  0.00    -0.080 A 
ATOM     45  H1  4F6 d   1     -20.592 -46.938 -16.752  0.00  0.00     0.088 H 
ATOM     46  C4  4F6 d   1     -18.313 -47.645 -14.351  0.00  0.00    -0.075 A 
ATOM     47  H2  4F6 d   1     -18.687 -48.467 -16.317  0.00  0.00     0.083 H 
ATOM     48  H18 4F6 d   1     -17.478 -48.310 -14.163  0.00  0.00     0.084 H 
ENDBRANCH  34  38
ENDBRANCH  22  25
ENDBRANCH   1  13
TORSDOF 3
