REMARK  4 active torsions:
REMARK  status: ('A' for Active; 'I' for Inactive)
REMARK    1  A    between atoms: C7_8  and  C6_6 
REMARK    2  A    between atoms: C10_12  and  C9_10 
REMARK    3  A    between atoms: C11_13  and  C10_12 
REMARK    4  A    between atoms: C12_14  and  C11_13 
ROOT
ATOM      1  C10 4F7 d   1     -22.354 -15.146  38.200  0.00  0.00    -0.005 C 
ATOM      2  H8  4F7 d   1     -22.810 -14.145  38.187  0.00  0.00     0.045 H 
ATOM      3  H9  4F7 d   1     -22.940 -15.824  37.563  0.00  0.00     0.045 H 
ENDROOT
BRANCH   1   4
ATOM      4  C9  4F7 d   1     -22.343 -15.679  39.631  0.00  0.00     0.104 A 
ATOM      5  N1  4F7 d   1     -21.847 -16.852  40.040  0.00  0.00    -0.233 NA
ATOM      6  C7  4F7 d   1     -22.029 -16.949  41.357  0.00  0.00     0.084 A 
ATOM      7  C8  4F7 d   1     -22.621 -15.824  41.751  0.00  0.00     0.007 A 
ATOM      8  N2  4F7 d   1     -22.818 -15.043  40.693  0.00  0.00    -0.352 N 
ATOM      9  H6  4F7 d   1     -22.899 -15.582  42.776  0.00  0.00     0.115 H 
ATOM     10  H7  4F7 d   1     -23.260 -14.113  40.698  0.00  0.00     0.166 HD
BRANCH   6  11
ATOM     11  C6  4F7 d   1     -21.642 -18.013  42.182  0.00  0.00    -0.006 A 
ATOM     12  C1  4F7 d   1     -20.990 -19.127  41.641  0.00  0.00    -0.071 A 
ATOM     13  C2  4F7 d   1     -20.578 -20.183  42.455  0.00  0.00    -0.082 A 
ATOM     14  H1  4F7 d   1     -20.802 -19.170  40.574  0.00  0.00     0.084 H 
ATOM     15  C3  4F7 d   1     -20.822 -20.127  43.827  0.00  0.00    -0.083 A 
ATOM     16  H2  4F7 d   1     -20.073 -21.040  42.024  0.00  0.00     0.083 H 
ATOM     17  C4  4F7 d   1     -21.477 -19.023  44.381  0.00  0.00    -0.082 A 
ATOM     18  H3  4F7 d   1     -20.503 -20.942  44.466  0.00  0.00     0.083 H 
ATOM     19  C5  4F7 d   1     -21.879 -17.961  43.561  0.00  0.00    -0.071 A 
ATOM     20  H4  4F7 d   1     -21.674 -18.989  45.446  0.00  0.00     0.083 H 
ATOM     21  H5  4F7 d   1     -22.373 -17.099  43.994  0.00  0.00     0.084 H 
ENDBRANCH   6  11
ENDBRANCH   1   4
BRANCH   1  22
ATOM     22  C11 4F7 d   1     -20.923 -15.058  37.665  0.00  0.00    -0.017 C 
ATOM     23  H10 4F7 d   1     -20.510 -16.073  37.566  0.00  0.00     0.043 H 
ATOM     24  H11 4F7 d   1     -20.308 -14.479  38.369  0.00  0.00     0.043 H 
BRANCH  22  25
ATOM     25  C12 4F7 d   1     -20.905 -14.374  36.302  0.00  0.00     0.053 A 
ATOM     26  C13 4F7 d   1     -20.358 -13.102  36.157  0.00  0.00     0.027 A 
ATOM     27  N3  4F7 d   1     -20.351 -12.523  34.967  0.00  0.00    -0.257 NA
ATOM     28  H12 4F7 d   1     -19.940 -12.588  37.015  0.00  0.00     0.117 H 
ATOM     29  C14 4F7 d   1     -20.876 -13.148  33.902  0.00  0.00     0.085 A 
ATOM     30  C15 4F7 d   1     -20.864 -12.531  32.656  0.00  0.00    -0.053 A 
ATOM     31  C19 4F7 d   1     -21.423 -14.426  34.043  0.00  0.00     0.086 A 
ATOM     32  C16 4F7 d   1     -21.409 -13.190  31.552  0.00  0.00    -0.081 A 
ATOM     33  H13 4F7 d   1     -20.433 -11.543  32.542  0.00  0.00     0.087 H 
ATOM     34  C17 4F7 d   1     -21.956 -14.467  31.696  0.00  0.00    -0.081 A 
ATOM     35  H14 4F7 d   1     -21.407 -12.709  30.581  0.00  0.00     0.083 H 
ATOM     36  C18 4F7 d   1     -21.972 -15.092  32.948  0.00  0.00    -0.053 A 
ATOM     37  H15 4F7 d   1     -22.370 -14.977  30.834  0.00  0.00     0.083 H 
ATOM     38  H16 4F7 d   1     -22.405 -16.079  33.065  0.00  0.00     0.087 H 
ATOM     39  N4  4F7 d   1     -21.416 -15.013  35.238  0.00  0.00    -0.250 NA
ENDBRANCH  22  25
ENDBRANCH   1  22
TORSDOF 4
