REMARK  6 active torsions:
REMARK  status: ('A' for Active; 'I' for Inactive)
REMARK    1  A    between atoms: C3_3  and  S_4 
REMARK    2  A    between atoms: S_4  and  N1_7 
REMARK    3  A    between atoms: N1_7  and  C2_8 
REMARK    4  A    between atoms: N1_7  and  C1_9 
REMARK    5  A    between atoms: C5_12  and  N2_14 
REMARK       I    between atoms: N2_14  and  C6_15 
REMARK    6  A    between atoms: C6_15  and  C7_17 
ROOT
ATOM      1 CL2  4G9 d   1       8.314 -22.223  24.951  0.00  0.00    -0.083 Cl
ATOM      2  C10 4G9 d   1       8.400 -21.039  26.211  0.00  0.00     0.057 A 
ATOM      3  C3  4G9 d   1       7.310 -20.220  26.535  0.00  0.00     0.103 A 
ATOM      4  C9  4G9 d   1       9.592 -20.921  26.911  0.00  0.00    -0.058 A 
ATOM      5  C8  4G9 d   1       9.718 -19.991  27.926  0.00  0.00    -0.056 A 
ATOM      6  C5  4G9 d   1       8.653 -19.165  28.252  0.00  0.00     0.036 A 
ATOM      7  C4  4G9 d   1       7.453 -19.293  27.559  0.00  0.00    -0.033 A 
ATOM      8  H7  4G9 d   1      10.430 -21.562  26.660  0.00  0.00     0.086 H 
ATOM      9  H8  4G9 d   1      10.652 -19.907  28.469  0.00  0.00     0.087 H 
ATOM     10  H9  4G9 d   1       6.615 -18.658  27.823  0.00  0.00     0.089 H 
ENDROOT
BRANCH   3  11
ATOM     11  S   4G9 d   1       5.747 -20.363  25.699  0.00  0.00     0.261 S 
ATOM     12  O1  4G9 d   1       5.952 -21.000  24.436  0.00  0.00    -0.200 OA
ATOM     13  O2  4G9 d   1       5.076 -19.103  25.755  0.00  0.00    -0.200 OA
BRANCH  11  14
ATOM     14  N1  4G9 d   1       4.905 -21.397  26.625  0.00  0.00    -0.315 N 
BRANCH  14  15
ATOM     15  C2  4G9 d   1       5.378 -22.783  26.680  0.00  0.00    -0.009 C 
ATOM     16  H1  4G9 d   1       4.720 -23.369  27.339  0.00  0.00     0.057 H 
ATOM     17  H2  4G9 d   1       6.405 -22.805  27.074  0.00  0.00     0.057 H 
ATOM     18  H3  4G9 d   1       5.364 -23.216  25.669  0.00  0.00     0.057 H 
ENDBRANCH  14  15
BRANCH  14  19
ATOM     19  C1  4G9 d   1       4.413 -20.894  27.914  0.00  0.00    -0.009 C 
ATOM     20  H4  4G9 d   1       3.864 -21.693  28.434  0.00  0.00     0.057 H 
ATOM     21  H5  4G9 d   1       3.742 -20.040  27.742  0.00  0.00     0.057 H 
ATOM     22  H6  4G9 d   1       5.265 -20.573  28.532  0.00  0.00     0.057 H 
ENDBRANCH  14  19
ENDBRANCH  11  14
ENDBRANCH   3  11
BRANCH   6  23
ATOM     23  N2  4G9 d   1       8.837 -18.158  29.229  0.00  0.00    -0.327 N 
ATOM     24  C6  4G9 d   1       7.935 -17.700  30.124  0.00  0.00     0.218 C 
ATOM     25  O3  4G9 d   1       6.908 -18.299  30.433  0.00  0.00    -0.274 OA
ATOM     26  H10 4G9 d   1       9.743 -17.735  29.261  0.00  0.00     0.169 HD
BRANCH  24  27
ATOM     27  C7  4G9 d   1       8.249 -16.343  30.716  0.00  0.00    -0.003 C 
ATOM     28  H11 4G9 d   1       7.459 -16.062  31.428  0.00  0.00     0.040 H 
ATOM     29  H12 4G9 d   1       8.300 -15.595  29.911  0.00  0.00     0.040 H 
ATOM     30  H13 4G9 d   1       9.216 -16.386  31.239  0.00  0.00     0.040 H 
ENDBRANCH  24  27
ENDBRANCH   6  23
TORSDOF 6
