REMARK  6 active torsions:
REMARK  status: ('A' for Active; 'I' for Inactive)
REMARK    1  A    between atoms: S2_2  and  N2_4 
REMARK    2  A    between atoms: S2_2  and  C7_11 
REMARK    3  A    between atoms: C16_15  and  O4_16 
REMARK    4  A    between atoms: O4_16  and  C17_17 
REMARK    5  A    between atoms: C5_18  and  N1_19 
REMARK       I    between atoms: N1_19  and  C4_20 
REMARK    6  A    between atoms: C4_20  and  C3_22 
ROOT
ATOM      1  C7  4GB d   1      17.884  -9.232   1.894  0.00  0.00     0.082 A 
ATOM      2  C6  4GB d   1      18.609  -8.456   1.004  0.00  0.00    -0.032 A 
ATOM      3  C14 4GB d   1      18.491  -9.780   3.021  0.00  0.00    -0.058 A 
ATOM      4  C15 4GB d   1      19.851  -9.597   3.225  0.00  0.00    -0.047 A 
ATOM      5  C16 4GB d   1      20.596  -8.836   2.322  0.00  0.00     0.095 A 
ATOM      6  C5  4GB d   1      19.964  -8.232   1.213  0.00  0.00     0.070 A 
ATOM      7  H13 4GB d   1      18.117  -8.022   0.141  0.00  0.00     0.089 H 
ATOM      8  H14 4GB d   1      17.904 -10.347   3.735  0.00  0.00     0.086 H 
ATOM      9  H15 4GB d   1      20.335 -10.045   4.085  0.00  0.00     0.087 H 
ENDROOT
BRANCH   1  10
ATOM     10  S2  4GB d   1      16.217  -9.652   1.504  0.00  0.00     0.260 S 
ATOM     11  O3  4GB d   1      15.648  -8.569   0.758  0.00  0.00    -0.200 OA
ATOM     12  O2  4GB d   1      15.578 -10.101   2.697  0.00  0.00    -0.200 OA
BRANCH  10  13
ATOM     13  N2  4GB d   1      16.289 -10.928   0.488  0.00  0.00    -0.307 N 
ATOM     14  C13 4GB d   1      15.795 -10.710  -0.886  0.00  0.00     0.005 C 
ATOM     15  C12 4GB d   1      16.167 -11.731  -1.946  0.00  0.00    -0.049 C 
ATOM     16  H1  4GB d   1      16.179  -9.735  -1.221  0.00  0.00     0.065 H 
ATOM     17  H2  4GB d   1      14.697 -10.674  -0.837  0.00  0.00     0.065 H 
ATOM     18  C11 4GB d   1      15.584 -13.127  -1.737  0.00  0.00    -0.064 C 
ATOM     19  H3  4GB d   1      17.263 -11.819  -1.964  0.00  0.00     0.035 H 
ATOM     20  H4  4GB d   1      15.813 -11.357  -2.918  0.00  0.00     0.035 H 
ATOM     21  C10 4GB d   1      16.221 -13.996  -0.655  0.00  0.00    -0.064 C 
ATOM     22  H5  4GB d   1      15.672 -13.668  -2.690  0.00  0.00     0.033 H 
ATOM     23  H6  4GB d   1      14.521 -13.007  -1.481  0.00  0.00     0.033 H 
ATOM     24  C9  4GB d   1      16.156 -13.474   0.775  0.00  0.00    -0.049 C 
ATOM     25  H7  4GB d   1      17.282 -14.124  -0.914  0.00  0.00     0.033 H 
ATOM     26  H8  4GB d   1      15.718 -14.974  -0.675  0.00  0.00     0.033 H 
ATOM     27  C8  4GB d   1      16.900 -12.169   1.006  0.00  0.00     0.005 C 
ATOM     28  H9  4GB d   1      16.588 -14.237   1.439  0.00  0.00     0.035 H 
ATOM     29  H10 4GB d   1      15.099 -13.317   1.035  0.00  0.00     0.035 H 
ATOM     30  H11 4GB d   1      17.020 -12.047   2.093  0.00  0.00     0.065 H 
ATOM     31  H12 4GB d   1      17.890 -12.268   0.537  0.00  0.00     0.065 H 
ENDBRANCH  10  13
ENDBRANCH   1  10
BRANCH   6  32
ATOM     32  N1  4GB d   1      20.720  -7.324   0.437  0.00  0.00    -0.325 N 
ATOM     33  C4  4GB d   1      20.506  -6.934  -0.832  0.00  0.00     0.218 C 
ATOM     34  O1  4GB d   1      19.673  -7.447  -1.582  0.00  0.00    -0.274 OA
ATOM     35  H19 4GB d   1      21.515  -6.920   0.889  0.00  0.00     0.169 HD
BRANCH  33  36
ATOM     36  C3  4GB d   1      21.393  -5.796  -1.290  0.00  0.00    -0.003 C 
ATOM     37  H20 4GB d   1      21.153  -5.541  -2.333  0.00  0.00     0.040 H 
ATOM     38  H21 4GB d   1      22.447  -6.102  -1.220  0.00  0.00     0.040 H 
ATOM     39  H22 4GB d   1      21.223  -4.918  -0.650  0.00  0.00     0.040 H 
ENDBRANCH  33  36
ENDBRANCH   6  32
BRANCH   5  40
ATOM     40  O4  4GB d   1      21.946  -8.609   2.404  0.00  0.00    -0.354 OA
BRANCH  40  41
ATOM     41  C17 4GB d   1      22.629  -9.025   3.591  0.00  0.00     0.010 C 
ATOM     42  H16 4GB d   1      23.697  -8.776   3.506  0.00  0.00     0.066 H 
ATOM     43  H17 4GB d   1      22.515 -10.112   3.718  0.00  0.00     0.066 H 
ATOM     44  H18 4GB d   1      22.200  -8.507   4.462  0.00  0.00     0.066 H 
ENDBRANCH  40  41
ENDBRANCH   5  40
TORSDOF 6
