REMARK  5 active torsions:
REMARK  status: ('A' for Active; 'I' for Inactive)
REMARK    1  A    between atoms: C12_2  and  C13_3 
REMARK       I    between atoms: C12_2  and  N1_4 
REMARK    2  A    between atoms: N1_4  and  C1_5 
REMARK    3  A    between atoms: N1_4  and  C2_6 
REMARK    4  A    between atoms: C2_6  and  C3_7 
REMARK    5  A    between atoms: N3_9  and  C5_12 
ROOT
ATOM      1  C3  4GG d   1       8.046 -19.840  27.194  0.00  0.00    -0.004 A 
ATOM      2  C11 4GG d   1       9.216 -19.740  26.428  0.00  0.00     0.013 A 
ATOM      3  N3  4GG d   1       8.851 -19.677  25.128  0.00  0.00    -0.245 N 
ATOM      4  N2  4GG d   1       7.493 -19.712  25.005  0.00  0.00    -0.180 NA
ATOM      5  C4  4GG d   1       6.994 -19.815  26.227  0.00  0.00     0.031 A 
ATOM      6  H9  4GG d   1      10.235 -19.717  26.811  0.00  0.00     0.115 H 
ATOM      7  H10 4GG d   1       5.932 -19.872  26.462  0.00  0.00     0.118 H 
ENDROOT
BRANCH   1   8
ATOM      8  C2  4GG d   1       7.890 -19.978  28.689  0.00  0.00     0.024 C 
ATOM      9  H7  4GG d   1       6.835 -20.195  28.910  0.00  0.00     0.071 H 
ATOM     10  H8  4GG d   1       8.515 -20.817  29.027  0.00  0.00     0.071 H 
BRANCH   8  11
ATOM     11  N1  4GG d   1       8.279 -18.786  29.430  0.00  0.00    -0.352 N 
ATOM     12  C12 4GG d   1       7.352 -17.924  29.910  0.00  0.00     0.215 C 
ATOM     13  O   4GG d   1       6.166 -18.218  29.966  0.00  0.00    -0.274 OA
BRANCH  12  14
ATOM     14  C13 4GG d   1       7.730 -16.517  30.491  0.00  0.00    -0.003 C 
ATOM     15  H1  4GG d   1       8.814 -16.358  30.390  0.00  0.00     0.040 H 
ATOM     16  H2  4GG d   1       7.450 -16.472  31.554  0.00  0.00     0.040 H 
ATOM     17  H3  4GG d   1       7.191 -15.735  29.937  0.00  0.00     0.040 H 
ENDBRANCH  12  14
BRANCH  11  18
ATOM     18  C1  4GG d   1       9.709 -18.534  29.545  0.00  0.00    -0.016 C 
ATOM     19  H4  4GG d   1      10.266 -19.365  29.087  0.00  0.00     0.056 H 
ATOM     20  H5  4GG d   1       9.982 -18.451  30.607  0.00  0.00     0.056 H 
ATOM     21  H6  4GG d   1       9.959 -17.596  29.027  0.00  0.00     0.056 H 
ENDBRANCH  11  18
ENDBRANCH   8  11
ENDBRANCH   1   8
BRANCH   3  22
ATOM     22  C5  4GG d   1       9.678 -19.669  23.957  0.00  0.00     0.058 A 
ATOM     23  C10 4GG d   1      10.963 -19.131  24.017  0.00  0.00    -0.055 A 
ATOM     24  C9  4GG d   1      11.819 -19.272  22.934  0.00  0.00    -0.081 A 
ATOM     25  H11 4GG d   1      11.292 -18.605  24.906  0.00  0.00     0.087 H 
ATOM     26  C8  4GG d   1      11.400 -19.928  21.791  0.00  0.00    -0.083 A 
ATOM     27  H12 4GG d   1      12.823 -18.865  22.984  0.00  0.00     0.083 H 
ATOM     28  C7  4GG d   1      10.113 -20.434  21.716  0.00  0.00    -0.081 A 
ATOM     29  H13 4GG d   1      12.079 -20.046  20.954  0.00  0.00     0.083 H 
ATOM     30  C6  4GG d   1       9.246 -20.310  22.794  0.00  0.00    -0.055 A 
ATOM     31  H14 4GG d   1       9.780 -20.930  20.811  0.00  0.00     0.083 H 
ATOM     32  H15 4GG d   1       8.240 -20.709  22.733  0.00  0.00     0.087 H 
ENDBRANCH   3  22
TORSDOF 5
