REMARK  2 active torsions:
REMARK  status: ('A' for Active; 'I' for Inactive)
REMARK    1  A    between atoms: CAJ_7  and  OAB_8 
REMARK    2  A    between atoms: CAI_11  and  NAA_12 
ROOT
ATOM      1  CAE 0P6 d   1      65.756   8.969  20.796  0.00  0.00    -0.038 A 
ATOM      2  CAG 0P6 d   1      64.413   8.779  20.921  0.00  0.00    -0.067 A 
ATOM      3  CAK 0P6 d   1      63.660   8.234  19.857  0.00  0.00    -0.004 A 
ATOM      4  CAF 0P6 d   1      62.266   8.012  19.897  0.00  0.00    -0.071 A 
ATOM      5  CAC 0P6 d   1      61.619   7.451  18.838  0.00  0.00    -0.079 A 
ATOM      6  CAD 0P6 d   1      62.304   7.091  17.690  0.00  0.00    -0.049 A 
ATOM      7  CAJ 0P6 d   1      63.653   7.298  17.595  0.00  0.00     0.095 A 
ATOM      8  CAL 0P6 d   1      64.363   7.882  18.680  0.00  0.00     0.102 A 
ATOM      9  NAH 0P6 d   1      65.716   8.081  18.540  0.00  0.00    -0.228 NA
ATOM     10  CAI 0P6 d   1      66.374   8.619  19.570  0.00  0.00     0.121 A 
ATOM     11  H1  0P6 d   1      66.338   9.378  21.614  0.00  0.00     0.089 H 
ATOM     12  H2  0P6 d   1      63.917   9.049  21.846  0.00  0.00     0.085 H 
ATOM     13  H3  0P6 d   1      61.704   8.291  20.781  0.00  0.00     0.084 H 
ATOM     14  H4  0P6 d   1      60.550   7.284  18.895  0.00  0.00     0.083 H 
ATOM     15  H5  0P6 d   1      61.768   6.642  16.861  0.00  0.00     0.087 H 
ENDROOT
BRANCH  10  16
ATOM     16  NAA 0P6 d   1      67.690   8.853  19.378  0.00  0.00    -0.384 N 
ATOM     17  H7  0P6 d   1      68.134   8.596  18.485  0.00  0.00     0.157 HD
ATOM     18  H8  0P6 d   1      68.250   9.288  20.125  0.00  0.00     0.157 HD
ENDBRANCH  10  16
BRANCH   7  19
ATOM     19  OAB 0P6 d   1      64.313   6.938  16.466  0.00  0.00    -0.358 OA
ATOM     20  H6  0P6 d   1      65.235   7.147  16.559  0.00  0.00     0.217 HD
ENDBRANCH   7  19
TORSDOF 2
