REMARK  2 active torsions:
REMARK  status: ('A' for Active; 'I' for Inactive)
REMARK    1  A    between atoms: C1_1  and  C_8 
REMARK    2  A    between atoms: C_8  and  O_9 
ROOT
ATOM      1  C1  4HU d   1      65.566   8.522  18.842  0.00  0.00     0.059 A 
ATOM      2  C2  4HU d   1      66.240   8.868  20.004  0.00  0.00    -0.057 A 
ATOM      3  C3  4HU d   1      65.527   8.935  21.189  0.00  0.00    -0.078 A 
ATOM      4  C4  4HU d   1      64.167   8.673  21.196  0.00  0.00    -0.048 A 
ATOM      5  C5  4HU d   1      63.600   8.331  19.984  0.00  0.00     0.103 A 
ATOM      6 BR   4HU d   1      61.741   7.911  19.933  0.00  0.00    -0.029 Br
ATOM      7  N   4HU d   1      64.244   8.250  18.827  0.00  0.00    -0.244 NA
ATOM      8  H1  4HU d   1      67.303   9.081  19.985  0.00  0.00     0.086 H 
ATOM      9  H2  4HU d   1      66.034   9.193  22.112  0.00  0.00     0.083 H 
ATOM     10  H3  4HU d   1      63.579   8.733  22.105  0.00  0.00     0.087 H 
ENDROOT
BRANCH   1  11
ATOM     11  C   4HU d   1      66.255   8.405  17.507  0.00  0.00     0.056 C 
ATOM     12  H4  4HU d   1      66.360   9.411  17.074  0.00  0.00     0.083 H 
ATOM     13  H5  4HU d   1      65.637   7.783  16.843  0.00  0.00     0.083 H 
BRANCH  11  14
ATOM     14  O   4HU d   1      67.542   7.818  17.614  0.00  0.00    -0.395 OA
ATOM     15  H6  4HU d   1      67.461   6.946  17.981  0.00  0.00     0.209 HD
ENDBRANCH  11  14
ENDBRANCH   1  11
TORSDOF 2
