REMARK  2 active torsions:
REMARK  status: ('A' for Active; 'I' for Inactive)
REMARK    1  A    between atoms: C1_2  and  C_3 
REMARK       I    between atoms: C1_2  and  N_4 
REMARK    2  A    between atoms: N_4  and  C2_5 
ROOT
ATOM      1  C2  691 d   1      10.136  -5.967  33.791  0.00  0.00     0.053 A 
ATOM      2  C10 691 d   1      10.751  -6.659  32.773  0.00  0.00    -0.044 A 
ATOM      3  C9  691 d   1      11.956  -7.352  33.011  0.00  0.00    -0.005 A 
ATOM      4  C4  691 d   1      12.492  -7.325  34.318  0.00  0.00     0.066 A 
ATOM      5  N1  691 d   1      11.870  -6.654  35.338  0.00  0.00    -0.258 NA
ATOM      6  C3  691 d   1      10.758  -6.021  35.036  0.00  0.00     0.029 A 
ATOM      7  C8  691 d   1      12.684  -8.008  31.993  0.00  0.00    -0.071 A 
ATOM      8  C7  691 d   1      13.887  -8.586  32.263  0.00  0.00    -0.082 A 
ATOM      9  C6  691 d   1      14.412  -8.559  33.546  0.00  0.00    -0.081 A 
ATOM     10  C5  691 d   1      13.735  -7.950  34.563  0.00  0.00    -0.054 A 
ATOM     11  H5  691 d   1      10.307  -6.671  31.784  0.00  0.00     0.088 H 
ATOM     12  H6  691 d   1      10.273  -5.483  35.843  0.00  0.00     0.118 H 
ATOM     13  H7  691 d   1      12.281  -8.052  30.988  0.00  0.00     0.084 H 
ATOM     14  H8  691 d   1      14.440  -9.072  31.467  0.00  0.00     0.083 H 
ATOM     15  H9  691 d   1      15.370  -9.026  33.743  0.00  0.00     0.083 H 
ATOM     16  H10 691 d   1      14.153  -7.946  35.563  0.00  0.00     0.087 H 
ENDROOT
BRANCH   1  17
ATOM     17  N   691 d   1       8.951  -5.220  33.585  0.00  0.00    -0.326 N 
ATOM     18  C1  691 d   1       8.119  -5.247  32.514  0.00  0.00     0.218 C 
ATOM     19  O   691 d   1       8.396  -5.827  31.469  0.00  0.00    -0.274 OA
ATOM     20  H4  691 d   1       8.695  -4.594  34.322  0.00  0.00     0.169 HD
BRANCH  18  21
ATOM     21  C   691 d   1       6.822  -4.515  32.698  0.00  0.00    -0.003 C 
ATOM     22  H1  691 d   1       6.790  -4.074  33.705  0.00  0.00     0.040 H 
ATOM     23  H2  691 d   1       5.984  -5.218  32.578  0.00  0.00     0.040 H 
ATOM     24  H3  691 d   1       6.742  -3.717  31.946  0.00  0.00     0.040 H 
ENDBRANCH  18  21
ENDBRANCH   1  17
TORSDOF 2
