REMARK  3 active torsions:
REMARK  status: ('A' for Active; 'I' for Inactive)
REMARK    1  A    between atoms: C3_5  and  N_14 
REMARK    2  A    between atoms: C2_8  and  C1_7 
REMARK    3  A    between atoms: C1_7  and  C_13 
REMARK       I    between atoms: N_14  and  C2_8 
ROOT
ATOM      1  N1  4JS d   1      63.263   7.684  20.134  0.00  0.00    -0.258 NA
ATOM      2  C11 4JS d   1      64.891   6.831  18.082  0.00  0.00    -0.044 A 
ATOM      3  C5  4JS d   1      64.577   7.945  20.204  0.00  0.00     0.066 A 
ATOM      4  C4  4JS d   1      62.730   7.022  19.094  0.00  0.00     0.029 A 
ATOM      5  C3  4JS d   1      63.523   6.564  18.030  0.00  0.00     0.053 A 
ATOM      6  C6  4JS d   1      65.084   8.644  21.297  0.00  0.00    -0.054 A 
ATOM      7  C9  4JS d   1      66.786   7.802  19.240  0.00  0.00    -0.071 A 
ATOM      8  C8  4JS d   1      67.306   8.501  20.330  0.00  0.00    -0.082 A 
ATOM      9  C7  4JS d   1      66.456   8.922  21.359  0.00  0.00    -0.081 A 
ATOM     10  C10 4JS d   1      65.419   7.525  19.172  0.00  0.00    -0.005 A 
ATOM     11  H1  4JS d   1      65.541   6.501  17.280  0.00  0.00     0.088 H 
ATOM     12  H2  4JS d   1      61.662   6.837  19.076  0.00  0.00     0.118 H 
ATOM     13  H3  4JS d   1      64.423   8.970  22.092  0.00  0.00     0.087 H 
ATOM     14  H6  4JS d   1      67.445   7.473  18.444  0.00  0.00     0.084 H 
ATOM     15  H7  4JS d   1      68.367   8.718  20.380  0.00  0.00     0.083 H 
ATOM     16  H8  4JS d   1      66.860   9.464  22.206  0.00  0.00     0.083 H 
ENDROOT
BRANCH   5  17
ATOM     17  N   4JS d   1      63.036   5.875  16.951  0.00  0.00    -0.326 N 
ATOM     18  C2  4JS d   1      61.741   5.563  16.737  0.00  0.00     0.221 C 
ATOM     19  O   4JS d   1      60.837   5.832  17.514  0.00  0.00    -0.273 OA
ATOM     20  H12 4JS d   1      63.697   5.578  16.262  0.00  0.00     0.169 HD
BRANCH  18  21
ATOM     21  C1  4JS d   1      61.430   4.840  15.429  0.00  0.00     0.006 C 
ATOM     22  H4  4JS d   1      62.073   3.950  15.368  0.00  0.00     0.046 H 
ATOM     23  H5  4JS d   1      61.665   5.520  14.597  0.00  0.00     0.046 H 
BRANCH  21  24
ATOM     24  C   4JS d   1      59.975   4.388  15.279  0.00  0.00    -0.068 C 
ATOM     25  H9  4JS d   1      59.847   3.880  14.312  0.00  0.00     0.028 H 
ATOM     26  H10 4JS d   1      59.312   5.265  15.323  0.00  0.00     0.028 H 
ATOM     27  H11 4JS d   1      59.721   3.695  16.094  0.00  0.00     0.028 H 
ENDBRANCH  21  24
ENDBRANCH  18  21
ENDBRANCH   5  17
TORSDOF 3
