REMARK  4 active torsions:
REMARK  status: ('A' for Active; 'I' for Inactive)
REMARK    1  A    between atoms: C7_2  and  C8_3 
REMARK       I    between atoms: C7_2  and  N_5 
REMARK    2  A    between atoms: C8_3  and  C9_4 
REMARK    3  A    between atoms: N_5  and  C6_6 
REMARK    4  A    between atoms: C_12  and  O_13 
ROOT
ATOM      1  C6  781 d   1      62.152   6.509  16.948  0.00  0.00     0.035 A 
ATOM      2  C5  781 d   1      61.880   6.967  18.236  0.00  0.00    -0.046 A 
ATOM      3  C4  781 d   1      62.878   7.523  19.026  0.00  0.00    -0.021 A 
ATOM      4  C3  781 d   1      62.551   7.964  20.310  0.00  0.00    -0.072 A 
ATOM      5  C2  781 d   1      63.533   8.530  21.124  0.00  0.00    -0.080 A 
ATOM      6  C1  781 d   1      64.844   8.652  20.642  0.00  0.00    -0.050 A 
ATOM      7  C   781 d   1      65.159   8.215  19.343  0.00  0.00     0.076 A 
ATOM      8  C12 781 d   1      64.178   7.648  18.529  0.00  0.00     0.007 A 
ATOM      9  C11 781 d   1      64.468   7.194  17.236  0.00  0.00    -0.067 A 
ATOM     10  C10 781 d   1      63.457   6.624  16.443  0.00  0.00    -0.056 A 
ATOM     11  H7  781 d   1      60.872   6.888  18.628  0.00  0.00     0.088 H 
ATOM     12  H8  781 d   1      61.535   7.867  20.674  0.00  0.00     0.084 H 
ATOM     13  H9  781 d   1      63.284   8.873  22.122  0.00  0.00     0.083 H 
ATOM     14  H10 781 d   1      65.615   9.083  21.271  0.00  0.00     0.087 H 
ATOM     15  H12 781 d   1      65.475   7.282  16.846  0.00  0.00     0.085 H 
ATOM     16  H13 781 d   1      63.685   6.274  15.443  0.00  0.00     0.086 H 
ENDROOT
BRANCH   1  17
ATOM     17  N   781 d   1      61.091   5.991  16.263  0.00  0.00    -0.327 N 
ATOM     18  C7  781 d   1      61.185   5.055  15.324  0.00  0.00     0.221 C 
ATOM     19  O1  781 d   1      62.053   4.179  15.364  0.00  0.00    -0.273 OA
ATOM     20  H6  781 d   1      60.180   6.340  16.483  0.00  0.00     0.169 HD
BRANCH  18  21
ATOM     21  C8  781 d   1      59.864   4.793  14.605  0.00  0.00     0.006 C 
ATOM     22  H1  781 d   1      59.947   5.151  13.568  0.00  0.00     0.046 H 
ATOM     23  H2  781 d   1      59.064   5.344  15.121  0.00  0.00     0.046 H 
BRANCH  21  24
ATOM     24  C9  781 d   1      59.507   3.309  14.586  0.00  0.00    -0.068 C 
ATOM     25  H3  781 d   1      58.551   3.168  14.060  0.00  0.00     0.028 H 
ATOM     26  H4  781 d   1      59.415   2.941  15.618  0.00  0.00     0.028 H 
ATOM     27  H5  781 d   1      60.298   2.748  14.066  0.00  0.00     0.028 H 
ENDBRANCH  21  24
ENDBRANCH  18  21
ENDBRANCH   1  17
BRANCH   7  28
ATOM     28  O   781 d   1      66.434   8.337  18.887  0.00  0.00    -0.360 OA
ATOM     29  H11 781 d   1      66.685   9.253  18.894  0.00  0.00     0.217 HD
ENDBRANCH   7  28
TORSDOF 4
