REMARK  6 active torsions:
REMARK  status: ('A' for Active; 'I' for Inactive)
REMARK    1  A    between atoms: CAC_1  and  NAZ_2 
REMARK    2  A    between atoms: CAT_14  and  CAK_15 
REMARK    3  A    between atoms: CAK_15  and  CAJ_16 
REMARK    4  A    between atoms: CAJ_16  and  CAS_17 
REMARK    5  A    between atoms: CAQ_21  and  CAA_22 
REMARK    6  A    between atoms: CAR_24  and  CAB_25 
ROOT
ATOM      1  CAK 4GK d   1      21.949 -25.309  38.688  0.00  0.00    -0.003 C 
ATOM      2  H   4GK d   1      22.169 -26.385  38.741  0.00  0.00     0.045 H 
ATOM      3  H   4GK d   1      22.700 -24.812  38.057  0.00  0.00     0.045 H 
ENDROOT
BRANCH   1   4
ATOM      4  CAT 4GK d   1      21.979 -24.716  40.074  0.00  0.00     0.107 A 
ATOM      5  NAZ 4GK d   1      22.523 -25.320  41.130  0.00  0.00    -0.338 N 
ATOM      6  CAW 4GK d   1      22.380 -24.532  42.194  0.00  0.00     0.065 A 
ATOM      7  CAH 4GK d   1      22.745 -24.604  43.559  0.00  0.00    -0.052 A 
ATOM      8  CAX 4GK d   1      21.708 -23.431  41.726  0.00  0.00     0.098 A 
ATOM      9  CAG 4GK d   1      22.412 -23.535  44.390  0.00  0.00    -0.052 A 
ATOM     10  H   4GK d   1      23.270 -25.468  43.949  0.00  0.00     0.087 H 
ATOM     11  CAU 4GK d   1      21.731 -22.421  43.874  0.00  0.00     0.069 A 
ATOM     12  H   4GK d   1      22.680 -23.564  45.440  0.00  0.00     0.087 H 
ATOM     13  NAM 4GK d   1      21.400 -21.378  44.670  0.00  0.00    -0.260 NA
ATOM     14  CAV 4GK d   1      21.357 -22.366  42.521  0.00  0.00     0.024 A 
ATOM     15  CAE 4GK d   1      20.727 -20.296  44.194  0.00  0.00     0.003 A 
ATOM     16  CAD 4GK d   1      20.365 -20.198  42.841  0.00  0.00    -0.065 A 
ATOM     17  H   4GK d   1      20.465 -19.493  44.873  0.00  0.00     0.114 H 
ATOM     18  CAF 4GK d   1      20.674 -21.257  41.977  0.00  0.00    -0.067 A 
ATOM     19  H   4GK d   1      19.854 -19.317  42.470  0.00  0.00     0.085 H 
ATOM     20  H   4GK d   1      20.399 -21.226  40.929  0.00  0.00     0.085 H 
ATOM     21  NAO 4GK d   1      21.453 -23.524  40.422  0.00  0.00    -0.232 NA
BRANCH   5  22
ATOM     22  CAC 4GK d   1      23.171 -26.662  41.055  0.00  0.00    -0.012 C 
ATOM     23  H   4GK d   1      23.542 -26.946  42.051  0.00  0.00     0.057 H 
ATOM     24  H   4GK d   1      24.012 -26.624  40.347  0.00  0.00     0.057 H 
ATOM     25  H   4GK d   1      22.436 -27.405  40.712  0.00  0.00     0.057 H 
ENDBRANCH   5  22
ENDBRANCH   1   4
BRANCH   1  26
ATOM     26  CAJ 4GK d   1      20.577 -25.101  38.102  0.00  0.00    -0.002 C 
ATOM     27  H   4GK d   1      20.377 -24.030  37.951  0.00  0.00     0.045 H 
ATOM     28  H   4GK d   1      19.805 -25.530  38.758  0.00  0.00     0.045 H 
BRANCH  26  29
ATOM     29  CAS 4GK d   1      20.618 -25.816  36.801  0.00  0.00     0.127 A 
ATOM     30  NAN 4GK d   1      20.023 -26.995  36.582  0.00  0.00    -0.326 N 
ATOM     31  CAY 4GK d   1      20.232 -27.361  35.313  0.00  0.00     0.155 A 
ATOM     32  H1  4GK d   1      19.490 -27.534  37.279  0.00  0.00     0.169 HD
ATOM     33  NBA 4GK d   1      20.975 -26.414  34.788  0.00  0.00    -0.217 N 
ATOM     34  CAR 4GK d   1      19.838 -28.449  34.562  0.00  0.00     0.076 A 
ATOM     35  NAP 4GK d   1      21.253 -25.402  35.690  0.00  0.00    -0.152 NA
ATOM     36  CAQ 4GK d   1      21.396 -26.465  33.504  0.00  0.00     0.052 A 
ATOM     37  CAI 4GK d   1      21.010 -27.557  32.717  0.00  0.00     0.026 A 
ATOM     38  NAL 4GK d   1      20.243 -28.523  33.254  0.00  0.00    -0.260 NA
ATOM     39  H   4GK d   1      21.327 -27.623  31.683  0.00  0.00     0.117 H 
BRANCH  36  40
ATOM     40  CAA 4GK d   1      22.248 -25.348  32.916  0.00  0.00    -0.034 C 
ATOM     41  H   4GK d   1      22.482 -25.579  31.866  0.00  0.00     0.035 H 
ATOM     42  H   4GK d   1      23.183 -25.259  33.489  0.00  0.00     0.035 H 
ATOM     43  H   4GK d   1      21.695 -24.399  32.967  0.00  0.00     0.035 H 
ENDBRANCH  36  40
BRANCH  34  44
ATOM     44  CAB 4GK d   1      18.975 -29.475  35.254  0.00  0.00    -0.032 C 
ATOM     45  H   4GK d   1      18.733 -30.285  34.550  0.00  0.00     0.035 H 
ATOM     46  H   4GK d   1      18.046 -28.999  35.600  0.00  0.00     0.035 H 
ATOM     47  H   4GK d   1      19.518 -29.889  36.117  0.00  0.00     0.035 H 
ENDBRANCH  34  44
ENDBRANCH  26  29
ENDBRANCH   1  26
TORSDOF 6
