REMARK  21 active torsions:
REMARK  status: ('A' for Active; 'I' for Inactive)
REMARK    1  A    between atoms: N_1  and  CA_2 
REMARK    2  A    between atoms: CA_2  and  C_3 
REMARK    3  A    between atoms: CA_2  and  CB_5 
REMARK       I    between atoms: C_3  and  N_7 
REMARK    4  A    between atoms: CB_5  and  OG_6 
REMARK    5  A    between atoms: CA_8  and  C_9 
REMARK       I    between atoms: C_9  and  N_14 
REMARK    6  A    between atoms: N_14  and  CA_15 
REMARK    7  A    between atoms: CA_15  and  C_16 
REMARK       I    between atoms: C_16  and  N_18 
REMARK    8  A    between atoms: N_18  and  CA_19 
REMARK    9  A    between atoms: CA_19  and  C_20 
REMARK   10  A    between atoms: CA_19  and  CB_22 
REMARK       I    between atoms: C_20  and  N_27 
REMARK   11  A    between atoms: CB_22  and  CG_23 
REMARK   12  A    between atoms: CG_23  and  CD_24 
REMARK   13  A    between atoms: N_27  and  CA_28 
REMARK   14  A    between atoms: CA_28  and  C_29 
REMARK       I    between atoms: C_29  and  N_31 
REMARK   15  A    between atoms: CA_32  and  C_33 
REMARK       I    between atoms: C_33  and  N_38 
REMARK   16  A    between atoms: N_38  and  CA_39 
REMARK   17  A    between atoms: CA_39  and  C_40 
REMARK   18  A    between atoms: CA_39  and  CB_42 
REMARK       I    between atoms: C_40  and  N_44 
REMARK   19  A    between atoms: CB_42  and  OG_43 
REMARK   20  A    between atoms: N_44  and  CA_45 
REMARK   21  A    between atoms: CA_45  and  C_46 
ROOT
ATOM      1  CA  GLU d   1      32.656 -15.849  -8.877  0.00  0.00     0.090 C 
ATOM      2  H19 GLU d   1      32.294 -15.572  -9.878  0.00  0.00     0.087 H 
ENDROOT
BRANCH   1   3
ATOM      3  N   GLU d   1      32.887 -17.284  -8.851  0.00  0.00    -0.346 N 
ATOM      4  C   GLY d   1      33.670 -17.859  -9.758  0.00  0.00     0.236 C 
ATOM      5  O   GLY d   1      34.229 -17.215 -10.659  0.00  0.00    -0.272 OA
ATOM      6  H18 GLU d   1      32.453 -17.843  -8.145  0.00  0.00     0.163 HD
BRANCH   4   7
ATOM      7  CA  GLY d   1      33.878 -19.356  -9.652  0.00  0.00     0.069 C 
ATOM      8  H16 GLY d   1      34.290 -19.715 -10.606  0.00  0.00     0.078 H 
ATOM      9  H17 GLY d   1      34.600 -19.548  -8.845  0.00  0.00     0.078 H 
BRANCH   7  10
ATOM     10  N   GLY d   1      32.665 -20.107  -9.367  0.00  0.00    -0.351 N 
ATOM     11  C   PRO d   1      31.699 -20.184 -10.275  0.00  0.00     0.241 C 
ATOM     12  O   PRO d   1      31.781 -19.586 -11.349  0.00  0.00    -0.271 OA
ATOM     13  H15 GLY d   1      32.558 -20.566  -8.485  0.00  0.00     0.163 HD
BRANCH  11  14
ATOM     14  CA  PRO d   1      30.468 -21.039 -10.002  0.00  0.00     0.091 C 
ATOM     15  N   PRO d   1      30.503 -21.764  -8.726  0.00  0.00    -0.337 N 
ATOM     16  C   SER d   1      31.315 -22.818  -8.595  0.00  0.00     0.253 C 
ATOM     17  CD  PRO d   1      29.462 -21.283  -7.801  0.00  0.00    -0.001 C 
ATOM     18  O   SER d   1      31.984 -23.242  -9.535  0.00  0.00    -0.271 OA
ATOM     19  CG  PRO d   1      28.988 -20.008  -8.450  0.00  0.00    -0.048 C 
ATOM     20  H13 PRO d   1      29.881 -21.086  -6.803  0.00  0.00     0.064 H 
ATOM     21  H14 PRO d   1      28.642 -22.011  -7.717  0.00  0.00     0.064 H 
ATOM     22  CB  PRO d   1      29.191 -20.195  -9.894  0.00  0.00    -0.036 C 
ATOM     23  H11 PRO d   1      27.923 -19.840  -8.231  0.00  0.00     0.035 H 
ATOM     24  H12 PRO d   1      29.576 -19.152  -8.088  0.00  0.00     0.035 H 
ATOM     25  H9  PRO d   1      28.337 -20.725 -10.340  0.00  0.00     0.036 H 
ATOM     26  H10 PRO d   1      29.323 -19.225 -10.396  0.00  0.00     0.036 H 
ATOM     27  H8  PRO d   1      30.371 -21.759 -10.828  0.00  0.00     0.087 H 
BRANCH  16  28
ATOM     28  CA  SER d   1      31.394 -23.488  -7.226  0.00  0.00     0.196 C 
ATOM     29  H4  SER d   1      30.435 -23.352  -6.704  0.00  0.00     0.102 H 
BRANCH  28  30
ATOM     30  N   SER d   1      31.650 -24.914  -7.382  0.00  0.00    -0.064 N 
ATOM     31  H1  SER d   1      31.701 -25.348  -6.473  0.00  0.00     0.275 HD
ATOM     32  H2  SER d   1      32.523 -25.047  -7.867  0.00  0.00     0.275 HD
ATOM     33  H3  SER d   1      30.903 -25.333  -7.913  0.00  0.00     0.275 HD
ENDBRANCH  28  30
BRANCH  28  34
ATOM     34  CB  SER d   1      32.509 -22.839  -6.400  0.00  0.00     0.051 C 
ATOM     35  H5  SER d   1      33.474 -23.280  -6.691  0.00  0.00     0.077 H 
ATOM     36  H6  SER d   1      32.324 -23.032  -5.333  0.00  0.00     0.077 H 
BRANCH  34  37
ATOM     37  OG  SER d   1      32.559 -21.435  -6.614  0.00  0.00    -0.398 OA
ATOM     38  H7  SER d   1      31.730 -21.047  -6.361  0.00  0.00     0.209 HD
ENDBRANCH  34  37
ENDBRANCH  28  34
ENDBRANCH  16  28
ENDBRANCH  11  14
ENDBRANCH   7  10
ENDBRANCH   4   7
ENDBRANCH   1   3
BRANCH   1  39
ATOM     39  C   GLU d   1      33.951 -15.102  -8.601  0.00  0.00     0.240 C 
ATOM     40  O   GLU d   1      34.684 -15.437  -7.666  0.00  0.00    -0.271 OA
ATOM     41  N   GLY d   1      34.222 -14.080  -9.404  0.00  0.00    -0.351 N 
ATOM     42  H24 GLY d   1      33.596 -13.871 -10.155  0.00  0.00     0.163 HD
BRANCH  41  43
ATOM     43  CA  GLY d   1      35.393 -13.265  -9.222  0.00  0.00     0.069 C 
ATOM     44  H25 GLY d   1      36.221 -13.898  -8.871  0.00  0.00     0.078 H 
ATOM     45  H26 GLY d   1      35.179 -12.491  -8.470  0.00  0.00     0.078 H 
BRANCH  43  46
ATOM     46  C   GLY d   1      35.795 -12.599 -10.517  0.00  0.00     0.238 C 
ATOM     47  O   GLY d   1      35.031 -12.561 -11.483  0.00  0.00    -0.272 OA
ATOM     48  N   PRO d   1      37.021 -12.081 -10.553  0.00  0.00    -0.337 N 
ATOM     49  CA  PRO d   1      37.538 -11.459 -11.774  0.00  0.00     0.091 C 
ATOM     50  CD  PRO d   1      38.013 -12.076  -9.465  0.00  0.00    -0.001 C 
ATOM     51  CB  PRO d   1      38.784 -10.721 -11.283  0.00  0.00    -0.036 C 
ATOM     52  H27 PRO d   1      36.806 -10.759 -12.202  0.00  0.00     0.087 H 
ATOM     53  CG  PRO d   1      39.233 -11.476 -10.109  0.00  0.00    -0.048 C 
ATOM     54  H28 PRO d   1      38.536  -9.686 -11.005  0.00  0.00     0.036 H 
ATOM     55  H29 PRO d   1      39.562 -10.716 -12.060  0.00  0.00     0.036 H 
ATOM     56  H30 PRO d   1      39.739 -10.804  -9.401  0.00  0.00     0.035 H 
ATOM     57  H31 PRO d   1      39.926 -12.273 -10.417  0.00  0.00     0.035 H 
ATOM     58  H32 PRO d   1      38.216 -13.098  -9.113  0.00  0.00     0.064 H 
ATOM     59  H33 PRO d   1      37.669 -11.459  -8.622  0.00  0.00     0.064 H 
BRANCH  49  60
ATOM     60  C   PRO d   1      37.902 -12.508 -12.810  0.00  0.00     0.241 C 
ATOM     61  O   PRO d   1      38.050 -13.692 -12.508  0.00  0.00    -0.271 OA
ATOM     62  N   SER d   1      38.088 -12.051 -14.047  0.00  0.00    -0.344 N 
ATOM     63  H34 SER d   1      37.963 -11.079 -14.245  0.00  0.00     0.163 HD
BRANCH  62  64
ATOM     64  CA  SER d   1      38.474 -12.969 -15.115  0.00  0.00     0.109 C 
ATOM     65  H35 SER d   1      37.835 -13.861 -15.043  0.00  0.00     0.090 H 
BRANCH  64  66
ATOM     66  C   SER d   1      39.923 -13.415 -14.991  0.00  0.00     0.243 C 
ATOM     67  O   SER d   1      40.276 -14.495 -15.480  0.00  0.00    -0.271 OA
ATOM     68  N   GLY d   1      40.775 -12.617 -14.362  0.00  0.00    -0.349 N 
ATOM     69  H39 GLY d   1      40.434 -11.782 -13.930  0.00  0.00     0.163 HD
BRANCH  68  70
ATOM     70  CA  GLY d   1      42.190 -12.926 -14.286  0.00  0.00     0.075 C 
ATOM     71  H40 GLY d   1      42.709 -12.406 -15.104  0.00  0.00     0.080 H 
ATOM     72  H41 GLY d   1      42.321 -14.012 -14.401  0.00  0.00     0.080 H 
BRANCH  70  73
ATOM     73  C   GLY d   1      42.807 -12.499 -12.971  0.00  0.00     0.191 C 
ATOM     74  O   GLY d   1      42.271 -12.781 -11.902  0.00  0.00    -0.647 OA
ATOM     75  OXT GLY d   1      43.857 -11.861 -12.945  0.00  0.00    -0.647 OA
ENDBRANCH  70  73
ENDBRANCH  68  70
ENDBRANCH  64  66
BRANCH  64  76
ATOM     76  CB  SER d   1      38.246 -12.319 -16.483  0.00  0.00     0.044 C 
ATOM     77  H36 SER d   1      37.222 -11.918 -16.522  0.00  0.00     0.077 H 
ATOM     78  H37 SER d   1      38.372 -13.081 -17.266  0.00  0.00     0.077 H 
BRANCH  76  79
ATOM     79  OG  SER d   1      39.164 -11.262 -16.716  0.00  0.00    -0.398 OA
ATOM     80  H38 SER d   1      39.057 -10.598 -16.045  0.00  0.00     0.209 HD
ENDBRANCH  76  79
ENDBRANCH  64  76
ENDBRANCH  62  64
ENDBRANCH  49  60
ENDBRANCH  43  46
ENDBRANCH  41  43
ENDBRANCH   1  39
BRANCH   1  81
ATOM     81  CB  GLU d   1      31.603 -15.444  -7.850  0.00  0.00    -0.029 C 
ATOM     82  H20 GLU d   1      31.995 -15.628  -6.839  0.00  0.00     0.037 H 
ATOM     83  H21 GLU d   1      30.695 -16.045  -8.007  0.00  0.00     0.037 H 
BRANCH  81  84
ATOM     84  CG  GLU d   1      31.257 -13.971  -7.991  0.00  0.00     0.018 C 
ATOM     85  H22 GLU d   1      30.928 -13.793  -9.025  0.00  0.00     0.049 H 
ATOM     86  H23 GLU d   1      32.165 -13.384  -7.789  0.00  0.00     0.049 H 
BRANCH  84  87
ATOM     87  CD  GLU d   1      30.168 -13.489  -7.060  0.00  0.00     0.172 C 
ATOM     88  OE1 GLU d   1      29.482 -14.324  -6.427  0.00  0.00    -0.648 OA
ATOM     89  OE2 GLU d   1      30.007 -12.253  -6.946  0.00  0.00    -0.648 OA
ENDBRANCH  84  87
ENDBRANCH  81  84
ENDBRANCH   1  81
TORSDOF 21
