REMARK  14 active torsions:
REMARK  status: ('A' for Active; 'I' for Inactive)
REMARK    1  A    between atoms: C13_1  and  C16_2 
REMARK    2  A    between atoms: C16_2  and  N18_23 
REMARK    3  A    between atoms: C22_4  and  C23_5 
REMARK    4  A    between atoms: O21_26  and  C22_4 
REMARK    5  A    between atoms: O17_22  and  C24_6 
REMARK    6  A    between atoms: C24_6  and  C25_27 
REMARK    7  A    between atoms: C24_6  and  C26_28 
REMARK    8  A    between atoms: C2_12  and  N1_11 
REMARK    9  A    between atoms: N1_11  and  C10_20 
REMARK   10  A    between atoms: C2_12  and  C3_13 
REMARK   11  A    between atoms: C4_14  and  C2_12 
REMARK   12  A    between atoms: C6_16  and  O17_22 
REMARK   13  A    between atoms: C8_18  and  O21_26 
REMARK   14  A    between atoms: C31_33  and  C29_31 
ROOT
ATOM      1  C2  4JY d   1       6.940  37.634  25.617  0.00  0.00     0.096 C 
ATOM      2  H13 4JY d   1       7.226  38.199  26.516  0.00  0.00     0.092 H 
ENDROOT
BRANCH   1   3
ATOM      3  N1  4JY d   1       7.821  36.478  25.490  0.00  0.00    -0.374 N 
ATOM      4  H12 4JY d   1       8.064  36.160  24.541  0.00  0.00     0.160 HD
BRANCH   3   5
ATOM      5  C10 4JY d   1       8.356  35.774  26.570  0.00  0.00     0.028 A 
ATOM      6  C15 4JY d   1       9.173  34.664  26.359  0.00  0.00    -0.057 A 
ATOM      7  C14 4JY d   1       9.656  33.936  27.435  0.00  0.00    -0.067 A 
ATOM      8  H1  4JY d   1       9.432  34.369  25.349  0.00  0.00     0.086 H 
ATOM      9  C13 4JY d   1       9.331  34.295  28.743  0.00  0.00     0.007 A 
ATOM     10  H16 4JY d   1      10.294  33.078  27.258  0.00  0.00     0.085 H 
ATOM     11  C12 4JY d   1       8.527  35.413  28.939  0.00  0.00    -0.067 A 
ATOM     12  C11 4JY d   1       8.051  36.147  27.872  0.00  0.00    -0.057 A 
ATOM     13  H9  4JY d   1       8.270  35.713  29.948  0.00  0.00     0.085 H 
ATOM     14  H8  4JY d   1       7.435  37.021  28.052  0.00  0.00     0.086 H 
BRANCH   9  15
ATOM     15  C16 4JY d   1       9.861  33.523  29.900  0.00  0.00     0.102 C 
ATOM     16  N19 4JY d   1      10.355  32.357  29.663  0.00  0.00    -0.385 N 
ATOM     17  H19 4JY d   1      10.430  32.017  28.694  0.00  0.00     0.157 HD
ATOM     18  H20 4JY d   1      10.675  31.765  30.443  0.00  0.00     0.157 HD
BRANCH  15  19
ATOM     19  N18 4JY d   1       9.724  34.051  31.137  0.00  0.00    -0.385 N 
ATOM     20  H17 4JY d   1      10.081  33.540  31.957  0.00  0.00     0.157 HD
ATOM     21  H18 4JY d   1       9.263  34.964  31.259  0.00  0.00     0.157 HD
ENDBRANCH  15  19
ENDBRANCH   9  15
ENDBRANCH   3   5
ENDBRANCH   1   3
BRANCH   1  22
ATOM     22  C3  4JY d   1       5.486  37.178  25.731  0.00  0.00     0.016 A 
ATOM     23  C5  4JY d   1       4.729  37.482  26.853  0.00  0.00     0.158 A 
ATOM     24  C6  4JY d   1       3.438  37.019  27.038  0.00  0.00     0.111 A 
ATOM     25  F20 4JY d   1       5.261  38.310  27.773  0.00  0.00    -0.203 F 
ATOM     26  C7  4JY d   1       2.849  36.259  26.037  0.00  0.00    -0.015 A 
ATOM     27  C8  4JY d   1       3.595  35.915  24.918  0.00  0.00     0.072 A 
ATOM     28  H14 4JY d   1       1.818  35.938  26.128  0.00  0.00     0.092 H 
ATOM     29  C9  4JY d   1       4.893  36.377  24.757  0.00  0.00    -0.039 A 
ATOM     30  H15 4JY d   1       5.451  36.113  23.866  0.00  0.00     0.088 H 
BRANCH  24  31
ATOM     31  O17 4JY d   1       2.865  37.293  28.262  0.00  0.00    -0.343 OA
BRANCH  31  32
ATOM     32  C24 4JY d   1       1.699  36.546  28.733  0.00  0.00     0.038 C 
ATOM     33  H7  4JY d   1       1.677  35.542  28.284  0.00  0.00     0.082 H 
BRANCH  32  34
ATOM     34  C25 4JY d   1       1.753  36.415  30.224  0.00  0.00    -0.052 C 
ATOM     35  H21 4JY d   1       0.875  35.853  30.575  0.00  0.00     0.030 H 
ATOM     36  H22 4JY d   1       1.754  37.416  30.680  0.00  0.00     0.030 H 
ATOM     37  H23 4JY d   1       2.670  35.880  30.512  0.00  0.00     0.030 H 
ENDBRANCH  32  34
BRANCH  32  38
ATOM     38  C26 4JY d   1       0.518  37.336  28.273  0.00  0.00    -0.052 C 
ATOM     39  H24 4JY d   1      -0.407  36.833  28.592  0.00  0.00     0.030 H 
ATOM     40  H25 4JY d   1       0.533  37.413  27.176  0.00  0.00     0.030 H 
ATOM     41  H26 4JY d   1       0.557  38.344  28.712  0.00  0.00     0.030 H 
ENDBRANCH  32  38
ENDBRANCH  31  32
ENDBRANCH  24  31
BRANCH  27  42
ATOM     42  O21 4JY d   1       2.968  34.997  24.104  0.00  0.00    -0.351 OA
BRANCH  42  43
ATOM     43  C22 4JY d   1       3.655  34.552  22.931  0.00  0.00     0.023 C 
ATOM     44  H2  4JY d   1       3.842  35.405  22.262  0.00  0.00     0.074 H 
ATOM     45  H3  4JY d   1       4.613  34.090  23.212  0.00  0.00     0.074 H 
BRANCH  43  46
ATOM     46  C23 4JY d   1       2.817  33.579  22.264  0.00  0.00    -0.056 C 
ATOM     47  H4  4JY d   1       3.324  33.220  21.356  0.00  0.00     0.030 H 
ATOM     48  H5  4JY d   1       1.860  34.046  21.989  0.00  0.00     0.030 H 
ATOM     49  H6  4JY d   1       2.631  32.731  22.939  0.00  0.00     0.030 H 
ENDBRANCH  43  46
ENDBRANCH  42  43
ENDBRANCH  27  42
ENDBRANCH   1  22
BRANCH   1  50
ATOM     50  C4  4JY d   1       7.010  38.532  24.419  0.00  0.00     0.132 A 
ATOM     51  N27 4JY d   1       6.174  39.578  24.233  0.00  0.00    -0.350 N 
ATOM     52  C28 4JY d   1       6.484  40.131  23.027  0.00  0.00     0.007 A 
ATOM     53  H27 4JY d   1       5.440  39.897  24.881  0.00  0.00     0.166 HD
ATOM     54  C29 4JY d   1       7.539  39.417  22.536  0.00  0.00     0.084 A 
ATOM     55  H28 4JY d   1       5.989  40.975  22.549  0.00  0.00     0.115 H 
ATOM     56  N30 4JY d   1       7.854  38.401  23.412  0.00  0.00    -0.231 NA
BRANCH  54  57
ATOM     57  C31 4JY d   1       8.204  39.481  21.226  0.00  0.00    -0.006 A 
ATOM     58  C32 4JY d   1       9.419  38.839  21.021  0.00  0.00    -0.071 A 
ATOM     59  C33 4JY d   1      10.083  38.968  19.816  0.00  0.00    -0.082 A 
ATOM     60  H29 4JY d   1       9.848  38.233  21.811  0.00  0.00     0.084 H 
ATOM     61  C34 4JY d   1       9.497  39.636  18.766  0.00  0.00    -0.083 A 
ATOM     62  H11 4JY d   1      11.072  38.540  19.698  0.00  0.00     0.083 H 
ATOM     63  C35 4JY d   1       8.254  40.211  18.928  0.00  0.00    -0.082 A 
ATOM     64  H10 4JY d   1      10.011  39.710  17.814  0.00  0.00     0.083 H 
ATOM     65  C36 4JY d   1       7.614  40.153  20.157  0.00  0.00    -0.071 A 
ATOM     66  H30 4JY d   1       7.776  40.710  18.093  0.00  0.00     0.083 H 
ATOM     67  H31 4JY d   1       6.651  40.633  20.287  0.00  0.00     0.084 H 
ENDBRANCH  54  57
ENDBRANCH   1  50
TORSDOF 14
