REMARK  15 active torsions:
REMARK  status: ('A' for Active; 'I' for Inactive)
REMARK    1  A    between atoms: C18_2  and  C19_6 
REMARK    2  A    between atoms: O7_20  and  C18_2 
REMARK    3  A    between atoms: C14_24  and  C17_3 
REMARK    4  A    between atoms: C17_3  and  N30_32 
REMARK    5  A    between atoms: C29_31  and  C21_7 
REMARK    6  A    between atoms: N9_22  and  C11_9 
REMARK    7  A    between atoms: C26_29  and  C27_12 
REMARK    8  A    between atoms: C8_21  and  C2_15 
REMARK    9  A    between atoms: C4_17  and  O7_20 
REMARK   10  A    between atoms: C6_19  and  O25_28 
REMARK   11  A    between atoms: C8_21  and  N9_22 
REMARK   12  A    between atoms: C10_23  and  C8_21 
REMARK   13  A    between atoms: O25_28  and  C26_29 
REMARK   14  A    between atoms: C26_29  and  C28_30 
REMARK   15  A    between atoms: C36_36  and  C37_37 
REMARK       I    between atoms: C37_37  and  N38_38 
ROOT
ATOM      1  C8  4K1 d   1       7.621  36.337  25.586  0.00  0.00     0.096 C 
ATOM      2  H18 4K1 d   1       8.004  36.930  26.430  0.00  0.00     0.092 H 
ENDROOT
BRANCH   1   3
ATOM      3  C2  4K1 d   1       6.191  35.884  25.865  0.00  0.00     0.016 A 
ATOM      4  C1  4K1 d   1       5.561  36.188  27.063  0.00  0.00     0.158 A 
ATOM      5  C6  4K1 d   1       4.278  35.759  27.369  0.00  0.00     0.111 A 
ATOM      6  F24 4K1 d   1       6.242  36.915  27.972  0.00  0.00    -0.203 F 
ATOM      7  C5  4K1 d   1       3.604  34.971  26.447  0.00  0.00    -0.015 A 
ATOM      8  C4  4K1 d   1       4.236  34.616  25.265  0.00  0.00     0.072 A 
ATOM      9  H17 4K1 d   1       2.593  34.636  26.649  0.00  0.00     0.092 H 
ATOM     10  C3  4K1 d   1       5.508  35.075  24.966  0.00  0.00    -0.039 A 
ATOM     11  H16 4K1 d   1       5.973  34.801  24.026  0.00  0.00     0.088 H 
BRANCH   5  12
ATOM     12  O25 4K1 d   1       3.742  36.174  28.576  0.00  0.00    -0.343 OA
BRANCH  12  13
ATOM     13  C26 4K1 d   1       2.644  35.428  29.206  0.00  0.00     0.038 C 
ATOM     14  H21 4K1 d   1       2.582  34.416  28.779  0.00  0.00     0.082 H 
BRANCH  13  15
ATOM     15  C27 4K1 d   1       2.879  35.318  30.668  0.00  0.00    -0.052 C 
ATOM     16  H12 4K1 d   1       2.053  34.758  31.131  0.00  0.00     0.030 H 
ATOM     17  H13 4K1 d   1       2.932  36.325  31.108  0.00  0.00     0.030 H 
ATOM     18  H14 4K1 d   1       3.826  34.789  30.848  0.00  0.00     0.030 H 
ENDBRANCH  13  15
BRANCH  13  19
ATOM     19  C28 4K1 d   1       1.404  36.174  28.897  0.00  0.00    -0.052 C 
ATOM     20  H22 4K1 d   1       1.272  36.230  27.806  0.00  0.00     0.030 H 
ATOM     21  H23 4K1 d   1       1.475  37.191  29.310  0.00  0.00     0.030 H 
ATOM     22  H24 4K1 d   1       0.543  35.656  29.345  0.00  0.00     0.030 H 
ENDBRANCH  13  19
ENDBRANCH  12  13
ENDBRANCH   5  12
BRANCH   8  23
ATOM     23  O7  4K1 d   1       3.563  33.689  24.510  0.00  0.00    -0.351 OA
BRANCH  23  24
ATOM     24  C18 4K1 d   1       4.215  33.158  23.338  0.00  0.00     0.023 C 
ATOM     25  H2  4K1 d   1       4.399  33.967  22.615  0.00  0.00     0.074 H 
ATOM     26  H3  4K1 d   1       5.172  32.695  23.622  0.00  0.00     0.074 H 
BRANCH  24  27
ATOM     27  C19 4K1 d   1       3.354  32.173  22.755  0.00  0.00    -0.056 C 
ATOM     28  H6  4K1 d   1       3.832  31.753  21.858  0.00  0.00     0.030 H 
ATOM     29  H7  4K1 d   1       2.398  32.640  22.477  0.00  0.00     0.030 H 
ATOM     30  H8  4K1 d   1       3.171  31.369  23.483  0.00  0.00     0.030 H 
ENDBRANCH  24  27
ENDBRANCH  23  24
ENDBRANCH   8  23
ENDBRANCH   1   3
BRANCH   1  31
ATOM     31  N9  4K1 d   1       8.467  35.163  25.413  0.00  0.00    -0.374 N 
ATOM     32  H19 4K1 d   1       8.642  34.819  24.458  0.00  0.00     0.160 HD
BRANCH  31  33
ATOM     33  C11 4K1 d   1       9.052  34.483  26.485  0.00  0.00     0.028 A 
ATOM     34  C16 4K1 d   1       8.926  34.945  27.791  0.00  0.00    -0.057 A 
ATOM     35  C15 4K1 d   1       9.460  34.223  28.841  0.00  0.00    -0.067 A 
ATOM     36  H4  4K1 d   1       8.406  35.876  27.986  0.00  0.00     0.086 H 
ATOM     37  C14 4K1 d   1      10.171  33.042  28.618  0.00  0.00     0.007 A 
ATOM     38  H5  4K1 d   1       9.325  34.580  29.856  0.00  0.00     0.085 H 
ATOM     39  C13 4K1 d   1      10.294  32.588  27.306  0.00  0.00    -0.067 A 
ATOM     40  C12 4K1 d   1       9.752  33.304  26.250  0.00  0.00    -0.057 A 
ATOM     41  H1  4K1 d   1      10.821  31.662  27.108  0.00  0.00     0.085 H 
ATOM     42  H10 4K1 d   1       9.874  32.943  25.235  0.00  0.00     0.086 H 
BRANCH  37  43
ATOM     43  C17 4K1 d   1      10.737  32.251  29.747  0.00  0.00     0.102 C 
ATOM     44  N31 4K1 d   1      10.659  32.762  30.993  0.00  0.00    -0.385 N 
ATOM     45  H27 4K1 d   1      10.278  33.708  31.139  0.00  0.00     0.157 HD
ATOM     46  H28 4K1 d   1      10.981  32.207  31.799  0.00  0.00     0.157 HD
BRANCH  43  47
ATOM     47  N30 4K1 d   1      11.199  31.086  29.495  0.00  0.00    -0.385 N 
ATOM     48  H25 4K1 d   1      11.597  30.515  30.254  0.00  0.00     0.157 HD
ATOM     49  H26 4K1 d   1      11.173  30.719  28.533  0.00  0.00     0.157 HD
ENDBRANCH  43  47
ENDBRANCH  37  43
ENDBRANCH  31  33
ENDBRANCH   1  31
BRANCH   1  50
ATOM     50  C10 4K1 d   1       7.553  37.198  24.362  0.00  0.00     0.132 A 
ATOM     51  N20 4K1 d   1       8.050  36.925  23.173  0.00  0.00    -0.231 NA
ATOM     52  C21 4K1 d   1       7.861  38.058  22.414  0.00  0.00     0.085 A 
ATOM     53  C22 4K1 d   1       7.228  39.002  23.172  0.00  0.00     0.007 A 
ATOM     54  N23 4K1 d   1       7.025  38.441  24.388  0.00  0.00    -0.350 N 
ATOM     55  H9  4K1 d   1       6.943  40.006  22.860  0.00  0.00     0.115 H 
ATOM     56  H20 4K1 d   1       6.553  38.883  25.189  0.00  0.00     0.166 HD
BRANCH  52  57
ATOM     57  C29 4K1 d   1       8.415  38.096  21.047  0.00  0.00     0.010 A 
ATOM     58  C32 4K1 d   1       9.708  37.609  20.842  0.00  0.00    -0.070 A 
ATOM     59  C33 4K1 d   1      10.263  37.630  19.576  0.00  0.00    -0.082 A 
ATOM     60  H29 4K1 d   1      10.277  37.214  21.676  0.00  0.00     0.084 H 
ATOM     61  C34 4K1 d   1       9.541  38.108  18.500  0.00  0.00    -0.082 A 
ATOM     62  H15 4K1 d   1      11.274  37.268  19.427  0.00  0.00     0.083 H 
ATOM     63  C35 4K1 d   1       8.257  38.595  18.679  0.00  0.00    -0.067 A 
ATOM     64  H11 4K1 d   1       9.982  38.102  17.510  0.00  0.00     0.083 H 
ATOM     65  C36 4K1 d   1       7.680  38.595  19.951  0.00  0.00     0.044 A 
ATOM     66  H30 4K1 d   1       7.699  38.977  17.831  0.00  0.00     0.085 H 
BRANCH  65  67
ATOM     67  C37 4K1 d   1       6.275  39.095  20.082  0.00  0.00     0.250 C 
ATOM     68  N38 4K1 d   1       5.315  38.363  19.534  0.00  0.00    -0.366 N 
ATOM     69  H31 4K1 d   1       4.362  38.660  19.598  0.00  0.00     0.159 HD
ATOM     70  H32 4K1 d   1       5.544  37.514  19.057  0.00  0.00     0.159 HD
ATOM     71  O39 4K1 d   1       6.046  40.163  20.693  0.00  0.00    -0.268 OA
ENDBRANCH  65  67
ENDBRANCH  52  57
ENDBRANCH   1  50
TORSDOF 15
