REMARK  7 active torsions:
REMARK  status: ('A' for Active; 'I' for Inactive)
REMARK    1  A    between atoms: N1_14  and  C1_1 
REMARK    2  A    between atoms: C1_1  and  C2_15 
REMARK    3  A    between atoms: C1_1  and  C_21 
REMARK    4  A    between atoms: C3_3  and  C4_4 
REMARK    5  A    between atoms: N_16  and  C3_3 
REMARK    6  A    between atoms: C5_5  and  N1_14 
REMARK    7  A    between atoms: C9_8  and  C8_7 
REMARK       I    between atoms: C2_15  and  N_16 
ROOT
ATOM      1  N2  4HZ d   1      17.379  10.501   5.122  0.00  0.00    -0.237 NA
ATOM      2  C5  4HZ d   1      16.407  13.035   5.757  0.00  0.00     0.167 A 
ATOM      3  C6  4HZ d   1      17.709  12.614   6.221  0.00  0.00     0.179 A 
ATOM      4  C8  4HZ d   1      16.140  10.944   4.687  0.00  0.00     0.164 A 
ATOM      5  F3  4HZ d   1      18.461  13.390   6.939  0.00  0.00    -0.201 F 
ATOM      6  C7  4HZ d   1      18.146  11.333   5.882  0.00  0.00     0.045 A 
ATOM      7  N3  4HZ d   1      15.604  12.179   4.977  0.00  0.00    -0.208 NA
ATOM      8  H6  4HZ d   1      19.115  10.993   6.230  0.00  0.00     0.119 H 
ENDROOT
BRANCH   2   9
ATOM      9  N1  4HZ d   1      15.957  14.282   6.095  0.00  0.00    -0.359 N 
ATOM     10  H7  4HZ d   1      16.577  14.884   6.656  0.00  0.00     0.162 HD
BRANCH   9  11
ATOM     11  C1  4HZ d   1      14.648  14.814   5.708  0.00  0.00     0.085 C 
ATOM     12  H1  4HZ d   1      13.883  14.044   5.887  0.00  0.00     0.086 H 
BRANCH  11  13
ATOM     13  C2  4HZ d   1      14.605  15.233   4.228  0.00  0.00     0.240 C 
ATOM     14  N   4HZ d   1      15.824  15.373   3.537  0.00  0.00    -0.351 N 
ATOM     15  H8  4HZ d   1      16.687  15.171   4.001  0.00  0.00     0.162 HD
ATOM     16  O   4HZ d   1      13.501  15.392   3.651  0.00  0.00    -0.271 OA
BRANCH  14  17
ATOM     17  C3  4HZ d   1      15.831  15.811   2.147  0.00  0.00     0.085 C 
ATOM     18  H2  4HZ d   1      14.964  16.469   1.989  0.00  0.00     0.077 H 
ATOM     19  H3  4HZ d   1      16.758  16.376   1.968  0.00  0.00     0.077 H 
BRANCH  17  20
ATOM     20  C4  4HZ d   1      15.762  14.695   1.149  0.00  0.00     0.403 C 
ATOM     21  F2  4HZ d   1      16.786  13.867   1.258  0.00  0.00    -0.169 F 
ATOM     22  F1  4HZ d   1      15.782  15.137  -0.105  0.00  0.00    -0.169 F 
ATOM     23  F   4HZ d   1      14.645  13.970   1.268  0.00  0.00    -0.169 F 
ENDBRANCH  17  20
ENDBRANCH  14  17
ENDBRANCH  11  13
BRANCH  11  24
ATOM     24  C   4HZ d   1      14.345  16.050   6.554  0.00  0.00    -0.049 C 
ATOM     25  H9  4HZ d   1      13.363  16.457   6.270  0.00  0.00     0.030 H 
ATOM     26  H10 4HZ d   1      15.121  16.811   6.383  0.00  0.00     0.030 H 
ATOM     27  H11 4HZ d   1      14.333  15.772   7.618  0.00  0.00     0.030 H 
ENDBRANCH  11  24
ENDBRANCH   9  11
ENDBRANCH   2   9
BRANCH   4  28
ATOM     28  C9  4HZ d   1      15.363  10.035   3.859  0.00  0.00     0.041 A 
ATOM     29  C10 4HZ d   1      15.745   8.749   3.515  0.00  0.00    -0.007 A 
ATOM     30  N4  4HZ d   1      14.827   8.170   2.650  0.00  0.00    -0.349 N 
ATOM     31  H4  4HZ d   1      16.647   8.257   3.876  0.00  0.00     0.112 H 
ATOM     32  C11 4HZ d   1      13.843   9.074   2.412  0.00  0.00     0.138 A 
ATOM     33  H13 4HZ d   1      14.883   7.220   2.257  0.00  0.00     0.167 HD
ATOM     34  C12 4HZ d   1      14.137  10.288   3.191  0.00  0.00     0.027 A 
ATOM     35  N5  4HZ d   1      12.775   8.870   1.567  0.00  0.00    -0.241 NA
ATOM     36  C13 4HZ d   1      13.203  11.374   3.086  0.00  0.00    -0.046 A 
ATOM     37  C14 4HZ d   1      12.105  11.161   2.223  0.00  0.00     0.052 A 
ATOM     38  H12 4HZ d   1      13.333  12.300   3.635  0.00  0.00     0.087 H 
ATOM     39  C15 4HZ d   1      11.895   9.932   1.475  0.00  0.00     0.025 A 
ATOM     40 CL   4HZ d   1      10.961  12.413   1.981  0.00  0.00    -0.083 Cl
ATOM     41  H5  4HZ d   1      11.028   9.847   0.830  0.00  0.00     0.117 H 
ENDBRANCH   4  28
TORSDOF 7
