REMARK  9 active torsions:
REMARK  status: ('A' for Active; 'I' for Inactive)
REMARK    1  A    between atoms: C2_2  and  C1_1 
REMARK    2  A    between atoms: C1_1  and  C_19 
REMARK    3  A    between atoms: C2_2  and  C3_3 
REMARK    4  A    between atoms: C2_2  and  C4_4 
REMARK    5  A    between atoms: N1_20  and  C2_2 
REMARK       I    between atoms: C4_4  and  N_17 
REMARK    6  A    between atoms: C5_5  and  C6_6 
REMARK    7  A    between atoms: N_17  and  C5_5 
REMARK    8  A    between atoms: C7_7  and  N1_20 
REMARK    9  A    between atoms: C10_10  and  C11_11 
ROOT
ATOM      1  N1  VJK d   1      16.359  13.791   5.475  0.00  0.00    -0.357 N 
ATOM      2  H15 VJK d   1      17.132  14.030   6.113  0.00  0.00     0.162 HD
ENDROOT
BRANCH   1   3
ATOM      3  C2  VJK d   1      15.383  14.891   5.437  0.00  0.00     0.108 C 
BRANCH   3   4
ATOM      4  C1  VJK d   1      13.989  14.299   5.170  0.00  0.00    -0.037 C 
ATOM      5  H1  VJK d   1      13.459  14.249   6.132  0.00  0.00     0.036 H 
ATOM      6  H2  VJK d   1      14.129  13.282   4.776  0.00  0.00     0.036 H 
BRANCH   4   7
ATOM      7  C   VJK d   1      13.096  15.056   4.189  0.00  0.00    -0.074 C 
ATOM      8  H12 VJK d   1      12.135  14.531   4.088  0.00  0.00     0.027 H 
ATOM      9  H13 VJK d   1      13.590  15.107   3.208  0.00  0.00     0.027 H 
ATOM     10  H14 VJK d   1      12.920  16.075   4.565  0.00  0.00     0.027 H 
ENDBRANCH   4   7
ENDBRANCH   3   4
BRANCH   3  11
ATOM     11  C3  VJK d   1      15.412  15.639   6.757  0.00  0.00    -0.045 C 
ATOM     12  H3  VJK d   1      16.418  16.051   6.923  0.00  0.00     0.031 H 
ATOM     13  H4  VJK d   1      15.159  14.949   7.575  0.00  0.00     0.031 H 
ATOM     14  H5  VJK d   1      14.680  16.459   6.730  0.00  0.00     0.031 H 
ENDBRANCH   3  11
BRANCH   3  15
ATOM     15  C4  VJK d   1      15.781  15.888   4.329  0.00  0.00     0.245 C 
ATOM     16  N   VJK d   1      16.835  15.488   3.621  0.00  0.00    -0.350 N 
ATOM     17  H11 VJK d   1      17.731  15.588   4.053  0.00  0.00     0.162 HD
ATOM     18  O   VJK d   1      15.125  16.911   4.101  0.00  0.00    -0.271 OA
BRANCH  16  19
ATOM     19  C5  VJK d   1      16.813  14.917   2.273  0.00  0.00     0.085 C 
ATOM     20  H6  VJK d   1      17.695  15.368   1.795  0.00  0.00     0.077 H 
ATOM     21  H7  VJK d   1      16.999  13.848   2.451  0.00  0.00     0.077 H 
BRANCH  19  22
ATOM     22  C6  VJK d   1      15.796  14.909   1.174  0.00  0.00     0.403 C 
ATOM     23  F2  VJK d   1      16.271  14.430   0.112  0.00  0.00    -0.169 F 
ATOM     24  F   VJK d   1      15.360  16.057   0.878  0.00  0.00    -0.169 F 
ATOM     25  F1  VJK d   1      14.779  14.239   1.452  0.00  0.00    -0.169 F 
ENDBRANCH  19  22
ENDBRANCH  16  19
ENDBRANCH   3  15
ENDBRANCH   1   3
BRANCH   1  26
ATOM     26  C7  VJK d   1      16.574  12.518   4.919  0.00  0.00     0.128 A 
ATOM     27  C8  VJK d   1      17.831  11.908   5.151  0.00  0.00    -0.022 A 
ATOM     28  C9  VJK d   1      18.002  10.595   4.741  0.00  0.00     0.008 A 
ATOM     29  H8  VJK d   1      18.635  12.451   5.634  0.00  0.00     0.091 H 
ATOM     30  N2  VJK d   1      17.050   9.860   4.168  0.00  0.00    -0.240 NA
ATOM     31  H9  VJK d   1      18.972  10.137   4.896  0.00  0.00     0.115 H 
ATOM     32  C10 VJK d   1      15.768  10.611   3.977  0.00  0.00     0.163 A 
ATOM     33  N3  VJK d   1      15.551  11.889   4.317  0.00  0.00    -0.211 NA
BRANCH  32  34
ATOM     34  C11 VJK d   1      14.658   9.923   3.307  0.00  0.00     0.041 A 
ATOM     35  C12 VJK d   1      14.738   8.607   2.925  0.00  0.00    -0.007 A 
ATOM     36  N4  VJK d   1      13.600   8.244   2.217  0.00  0.00    -0.349 N 
ATOM     37  H10 VJK d   1      15.573   7.944   3.145  0.00  0.00     0.112 H 
ATOM     38  C13 VJK d   1      12.768   9.329   2.120  0.00  0.00     0.138 A 
ATOM     39  H19 VJK d   1      13.411   7.309   1.827  0.00  0.00     0.167 HD
ATOM     40  C14 VJK d   1      13.335  10.399   2.828  0.00  0.00     0.025 A 
ATOM     41  N5  VJK d   1      11.647   9.406   1.350  0.00  0.00    -0.242 NA
ATOM     42  C15 VJK d   1      12.667  11.620   2.745  0.00  0.00    -0.067 A 
ATOM     43  C16 VJK d   1      11.519  11.730   1.960  0.00  0.00    -0.065 A 
ATOM     44  H16 VJK d   1      13.039  12.481   3.289  0.00  0.00     0.085 H 
ATOM     45  C17 VJK d   1      11.060  10.624   1.285  0.00  0.00     0.004 A 
ATOM     46  H17 VJK d   1      10.995  12.676   1.883  0.00  0.00     0.085 H 
ATOM     47  H18 VJK d   1      10.177  10.733   0.665  0.00  0.00     0.114 H 
ENDBRANCH  32  34
ENDBRANCH   1  26
TORSDOF 9
