REMARK  2 active torsions:
REMARK  status: ('A' for Active; 'I' for Inactive)
REMARK    1  A    between atoms: N1_1  and  C5_2 
REMARK    2  A    between atoms: C2_6  and  C1_7 
ROOT
ATOM      1  C5  4JU d   1      18.443  53.064  -0.930  0.00  0.00     0.100 C 
ATOM      2  C6  4JU d   1      19.865  52.931  -1.438  0.00  0.00    -0.038 C 
ATOM      3  C4  4JU d   1      18.034  54.561  -0.938  0.00  0.00    -0.038 C 
ATOM      4  C3  4JU d   1      19.038  55.500  -0.241  0.00  0.00    -0.060 C 
ATOM      5  C2  4JU d   1      20.462  55.322  -0.738  0.00  0.00    -0.058 C 
ATOM      6  C7  4JU d   1      20.829  53.833  -0.600  0.00  0.00    -0.060 C 
ATOM      7  H4  4JU d   1      18.366  52.672   0.095  0.00  0.00     0.083 H 
ATOM      8  H5  4JU d   1      19.904  53.241  -2.493  0.00  0.00     0.036 H 
ATOM      9  H6  4JU d   1      20.184  51.882  -1.352  0.00  0.00     0.036 H 
ATOM     10  H7  4JU d   1      17.064  54.655  -0.428  0.00  0.00     0.036 H 
ATOM     11  H8  4JU d   1      17.931  54.884  -1.984  0.00  0.00     0.036 H 
ATOM     12  H9  4JU d   1      19.016  55.296   0.840  0.00  0.00     0.033 H 
ATOM     13  H10 4JU d   1      18.730  56.540  -0.424  0.00  0.00     0.033 H 
ATOM     14  H11 4JU d   1      20.549  55.663  -1.780  0.00  0.00     0.039 H 
ATOM     15  H15 4JU d   1      21.859  53.683  -0.955  0.00  0.00     0.033 H 
ATOM     16  H16 4JU d   1      20.761  53.544   0.459  0.00  0.00     0.033 H 
ENDROOT
BRANCH   1  17
ATOM     17  N1  4JU d   1      17.573  52.245  -1.859  0.00  0.00    -0.075 N 
ATOM     18  H1  4JU d   1      17.865  51.281  -1.830  0.00  0.00     0.274 HD
ATOM     19  H2  4JU d   1      17.664  52.595  -2.800  0.00  0.00     0.274 HD
ATOM     20  H3  4JU d   1      16.611  52.314  -1.566  0.00  0.00     0.274 HD
ENDBRANCH   1  17
BRANCH   5  21
ATOM     21  C1  4JU d   1      21.455  56.071   0.169  0.00  0.00    -0.073 C 
ATOM     22  H12 4JU d   1      22.478  55.928  -0.210  0.00  0.00     0.028 H 
ATOM     23  H13 4JU d   1      21.385  55.677   1.194  0.00  0.00     0.028 H 
ATOM     24  H14 4JU d   1      21.212  57.144   0.172  0.00  0.00     0.028 H 
ENDBRANCH   5  21
TORSDOF 2
