REMARK  1 active torsions:
REMARK  status: ('A' for Active; 'I' for Inactive)
REMARK    1  A    between atoms: C3_7  and  N7_10 
ROOT
ATOM      1  C10 4JT d   1       4.018   8.604  38.476  0.00  0.00    -0.081 A 
ATOM      2  C11 4JT d   1       4.188   7.286  38.836  0.00  0.00    -0.082 A 
ATOM      3  C8  4JT d   1       2.915   8.973  37.721  0.00  0.00    -0.056 A 
ATOM      4  C9  4JT d   1       3.281   6.316  38.405  0.00  0.00    -0.065 A 
ATOM      5  C4  4JT d   1       1.994   8.003  37.304  0.00  0.00     0.050 A 
ATOM      6  C5  4JT d   1       2.203   6.702  37.619  0.00  0.00     0.027 A 
ATOM      7  C3  4JT d   1      -0.248   7.808  36.548  0.00  0.00     0.085 C 
ATOM      8  C6  4JT d   1      -0.481   6.583  37.303  0.00  0.00     0.034 C 
ATOM      9  N1  4JT d   1       0.883   8.439  36.557  0.00  0.00    -0.345 N 
ATOM     10  S2  4JT d   1       0.989   5.520  37.033  0.00  0.00    -0.120 SA
ATOM     11  H1  4JT d   1       4.743   9.350  38.781  0.00  0.00     0.083 H 
ATOM     12  H2  4JT d   1       5.029   7.000  39.457  0.00  0.00     0.083 H 
ATOM     13  H3  4JT d   1       2.765  10.013  37.453  0.00  0.00     0.087 H 
ATOM     14  H4  4JT d   1       3.416   5.276  38.680  0.00  0.00     0.085 H 
ATOM     15  H5  4JT d   1      -1.388   6.078  36.938  0.00  0.00     0.061 H 
ATOM     16  H6  4JT d   1      -0.594   6.811  38.373  0.00  0.00     0.061 H 
ATOM     17  H7  4JT d   1       0.974   9.296  35.994  0.00  0.00     0.167 HD
ENDROOT
BRANCH   7  18
ATOM     18  N7  4JT d   1      -1.342   8.338  35.903  0.00  0.00    -0.388 N 
ATOM     19  H8  4JT d   1      -1.246   9.203  35.352  0.00  0.00     0.157 HD
ATOM     20  H9  4JT d   1      -2.257   7.870  35.971  0.00  0.00     0.157 HD
ENDBRANCH   7  18
TORSDOF 1
