REMARK  1 active torsions:
REMARK  status: ('A' for Active; 'I' for Inactive)
REMARK    1  A    between atoms: N1_1  and  C2_2 
ROOT
ATOM      1  C2  1SQ d   1       0.556   7.771  36.765  0.00  0.00     0.132 A 
ATOM      2  N3  1SQ d   1      -0.356   6.795  36.696  0.00  0.00    -0.243 NA
ATOM      3  C4  1SQ d   1      -0.042   5.697  37.408  0.00  0.00     0.005 A 
ATOM      4  C5  1SQ d   1       1.102   5.561  38.159  0.00  0.00    -0.055 A 
ATOM      5  C6  1SQ d   1       2.016   6.597  38.203  0.00  0.00    -0.021 A 
ATOM      6  C7  1SQ d   1       3.189   6.527  38.944  0.00  0.00    -0.072 A 
ATOM      7  C8  1SQ d   1       4.055   7.597  38.937  0.00  0.00    -0.082 A 
ATOM      8  C9  1SQ d   1       3.803   8.731  38.211  0.00  0.00    -0.082 A 
ATOM      9  C10 1SQ d   1       2.626   8.790  37.489  0.00  0.00    -0.069 A 
ATOM     10  C11 1SQ d   1       1.728   7.736  37.487  0.00  0.00     0.020 A 
ATOM     11  H3  1SQ d   1      -0.737   4.865  37.388  0.00  0.00     0.114 H 
ATOM     12  H4  1SQ d   1       1.286   4.647  38.713  0.00  0.00     0.087 H 
ATOM     13  H5  1SQ d   1       3.420   5.639  39.522  0.00  0.00     0.084 H 
ATOM     14  H6  1SQ d   1       4.965   7.540  39.524  0.00  0.00     0.083 H 
ATOM     15  H7  1SQ d   1       4.505   9.557  38.203  0.00  0.00     0.083 H 
ATOM     16  H8  1SQ d   1       2.401   9.680  36.912  0.00  0.00     0.085 H 
ENDROOT
BRANCH   1  17
ATOM     17  N1  1SQ d   1       0.219   8.879  36.034  0.00  0.00    -0.383 N 
ATOM     18  H1  1SQ d   1       0.849   9.694  36.014  0.00  0.00     0.157 HD
ATOM     19  H2  1SQ d   1      -0.664   8.898  35.504  0.00  0.00     0.157 HD
ENDBRANCH   1  17
TORSDOF 1
