REMARK  6 active torsions:
REMARK  status: ('A' for Active; 'I' for Inactive)
REMARK    1  A    between atoms: C20_9  and  C21_15 
REMARK    2  A    between atoms: C13_16  and  C15_10 
REMARK    3  A    between atoms: O7_21  and  C3_12 
REMARK    4  A    between atoms: C4_13  and  N10_19 
REMARK    5  A    between atoms: C12_14  and  N14_20 
REMARK    6  A    between atoms: C13_16  and  O7_21 
ROOT
ATOM      1  C11 4JV d   1      -4.123 -20.859 -55.488  0.00  0.00    -0.078 A 
ATOM      2  C5  4JV d   1      -5.257 -21.283 -54.827  0.00  0.00    -0.053 A 
ATOM      3  C8  4JV d   1      -3.613 -19.580 -55.344  0.00  0.00    -0.050 A 
ATOM      4  C1  4JV d   1      -5.454 -19.140 -53.834  0.00  0.00     0.073 A 
ATOM      5  C2  4JV d   1      -5.961 -20.429 -53.984  0.00  0.00     0.092 A 
ATOM      6  C3  4JV d   1      -4.292 -18.720 -54.499  0.00  0.00     0.085 A 
ATOM      7  C4  4JV d   1      -6.168 -18.329 -52.981  0.00  0.00     0.155 A 
ATOM      8  C12 4JV d   1      -7.667 -20.014 -52.526  0.00  0.00     0.722 A 
ATOM      9  N6  4JV d   1      -7.053 -20.871 -53.362  0.00  0.00    -0.062 NA
ATOM     10  N9  4JV d   1      -7.254 -18.769 -52.325  0.00  0.00    -0.045 NA
ATOM     11  H1  4JV d   1      -3.612 -21.553 -56.145  0.00  0.00     0.083 H 
ATOM     12  H6  4JV d   1      -5.606 -22.300 -54.967  0.00  0.00     0.087 H 
ATOM     13  H7  4JV d   1      -2.719 -19.265 -55.871  0.00  0.00     0.087 H 
ENDROOT
BRANCH   6  14
ATOM     14  O7  4JV d   1      -3.840 -17.417 -54.323  0.00  0.00    -0.346 OA
BRANCH  14  15
ATOM     15  C13 4JV d   1      -2.598 -16.988 -54.861  0.00  0.00     0.050 C 
ATOM     16  H11 4JV d   1      -2.255 -16.091 -54.325  0.00  0.00     0.082 H 
ATOM     17  H12 4JV d   1      -1.853 -17.789 -54.750  0.00  0.00     0.082 H 
BRANCH  15  18
ATOM     18  C15 4JV d   1      -2.774 -16.670 -56.297  0.00  0.00    -0.034 A 
ATOM     19  C16 4JV d   1      -1.655 -16.565 -57.083  0.00  0.00    -0.074 A 
ATOM     20  C18 4JV d   1      -1.745 -16.310 -58.440  0.00  0.00    -0.077 A 
ATOM     21  H4  4JV d   1      -0.677 -16.685 -56.631  0.00  0.00     0.084 H 
ATOM     22  C20 4JV d   1      -2.987 -16.137 -59.011  0.00  0.00    -0.062 A 
ATOM     23  H2  4JV d   1      -0.849 -16.247 -59.047  0.00  0.00     0.084 H 
ATOM     24  C19 4JV d   1      -4.126 -16.229 -58.221  0.00  0.00    -0.077 A 
ATOM     25  C17 4JV d   1      -4.023 -16.506 -56.857  0.00  0.00    -0.074 A 
ATOM     26  H3  4JV d   1      -5.103 -16.084 -58.668  0.00  0.00     0.084 H 
ATOM     27  H5  4JV d   1      -4.914 -16.591 -56.245  0.00  0.00     0.084 H 
BRANCH  22  28
ATOM     28  C21 4JV d   1      -3.091 -15.821 -60.481  0.00  0.00    -0.051 C 
ATOM     29  H8  4JV d   1      -2.084 -15.794 -60.922  0.00  0.00     0.033 H 
ATOM     30  H9  4JV d   1      -3.575 -14.842 -60.612  0.00  0.00     0.033 H 
ATOM     31  H10 4JV d   1      -3.690 -16.596 -60.981  0.00  0.00     0.033 H 
ENDBRANCH  22  28
ENDBRANCH  15  18
ENDBRANCH  14  15
ENDBRANCH   6  14
BRANCH   7  32
ATOM     32  N10 4JV d   1      -5.760 -17.005 -52.767  0.00  0.00    -0.383 N 
ATOM     33  H13 4JV d   1      -6.294 -16.398 -52.129  0.00  0.00     0.157 HD
ATOM     34  H14 4JV d   1      -4.926 -16.639 -53.248  0.00  0.00     0.157 HD
ENDBRANCH   7  32
BRANCH   8  35
ATOM     35  N14 4JV d   1      -8.825 -20.360 -51.800  0.00  0.00    -0.231 N 
ATOM     36  H15 4JV d   1      -9.225 -21.305 -51.888  0.00  0.00     0.174 HD
ATOM     37  H16 4JV d   1      -9.271 -19.668 -51.182  0.00  0.00     0.174 HD
ENDBRANCH   8  35
TORSDOF 6
