REMARK  3 active torsions:
REMARK  status: ('A' for Active; 'I' for Inactive)
REMARK    1  A    between atoms: N4_17  and  C10_10 
REMARK    2  A    between atoms: C2_15  and  C1_13 
REMARK       I    between atoms: C1_13  and  N4_17 
REMARK    3  A    between atoms: N4_17  and  C11_16 
ROOT
ATOM      1  C1  4JW d   1     -12.193 -15.407 -56.936  0.00  0.00     0.255 C 
ATOM      2  N4  4JW d   1     -12.366 -14.644 -58.095  0.00  0.00    -0.320 N 
ATOM      3  O9  4JW d   1     -12.839 -15.280 -55.885  0.00  0.00    -0.270 OA
ENDROOT
BRANCH   1   4
ATOM      4  C2  4JW d   1     -11.132 -16.478 -57.062  0.00  0.00     0.143 C 
ATOM      5  C7  4JW d   1     -11.702 -17.690 -57.775  0.00  0.00     0.059 C 
ATOM      6  O5  4JW d   1     -12.877 -18.152 -57.126  0.00  0.00    -0.345 OA
ATOM      7  H10 4JW d   1     -10.951 -18.494 -57.776  0.00  0.00     0.079 H 
ATOM      8  H11 4JW d   1     -11.947 -17.416 -58.812  0.00  0.00     0.079 H 
ATOM      9  C8  4JW d   1     -12.582 -18.507 -55.838  0.00  0.00     0.102 A 
ATOM     10  C13 4JW d   1     -13.349 -19.498 -55.242  0.00  0.00    -0.048 A 
ATOM     11  C6  4JW d   1     -11.553 -17.869 -55.167  0.00  0.00     0.103 A 
ATOM     12  C17 4JW d   1     -13.054 -19.870 -53.951  0.00  0.00    -0.080 A 
ATOM     13  H8  4JW d   1     -14.163 -19.969 -55.782  0.00  0.00     0.087 H 
ATOM     14  C16 4JW d   1     -12.011 -19.254 -53.277  0.00  0.00    -0.080 A 
ATOM     15  H4  4JW d   1     -13.636 -20.643 -53.462  0.00  0.00     0.083 H 
ATOM     16  C12 4JW d   1     -11.269 -18.250 -53.871  0.00  0.00    -0.048 A 
ATOM     17  H5  4JW d   1     -11.773 -19.565 -52.266  0.00  0.00     0.083 H 
ATOM     18  H9  4JW d   1     -10.470 -17.765 -53.323  0.00  0.00     0.087 H 
ATOM     19  O3  4JW d   1     -10.789 -16.834 -55.725  0.00  0.00    -0.331 OA
ATOM     20  H12 4JW d   1     -10.255 -16.098 -57.606  0.00  0.00     0.102 H 
ENDBRANCH   1   4
BRANCH   2  21
ATOM     21  C10 4JW d   1     -11.414 -14.564 -59.145  0.00  0.00     0.036 A 
ATOM     22  C15 4JW d   1     -11.695 -15.215 -60.322  0.00  0.00    -0.057 A 
ATOM     23  C18 4JW d   1     -10.785 -15.155 -61.353  0.00  0.00    -0.081 A 
ATOM     24  H6  4JW d   1     -12.620 -15.768 -60.437  0.00  0.00     0.086 H 
ATOM     25  C20 4JW d   1      -9.609 -14.439 -61.211  0.00  0.00    -0.083 A 
ATOM     26  H2  4JW d   1     -10.991 -15.672 -62.283  0.00  0.00     0.083 H 
ATOM     27  C19 4JW d   1      -9.303 -13.794 -60.025  0.00  0.00    -0.081 A 
ATOM     28  H1  4JW d   1      -8.916 -14.382 -62.043  0.00  0.00     0.083 H 
ATOM     29  C14 4JW d   1     -10.223 -13.861 -58.997  0.00  0.00    -0.057 A 
ATOM     30  H3  4JW d   1      -8.371 -13.253 -59.907  0.00  0.00     0.083 H 
ATOM     31  H7  4JW d   1     -10.014 -13.358 -58.060  0.00  0.00     0.086 H 
ENDBRANCH   2  21
BRANCH   2  32
ATOM     32  C11 4JW d   1     -13.521 -13.757 -58.197  0.00  0.00    -0.011 C 
ATOM     33  H13 4JW d   1     -13.500 -13.238 -59.167  0.00  0.00     0.057 H 
ATOM     34  H14 4JW d   1     -13.488 -13.017 -57.384  0.00  0.00     0.057 H 
ATOM     35  H15 4JW d   1     -14.445 -14.348 -58.117  0.00  0.00     0.057 H 
ENDBRANCH   2  32
TORSDOF 3
