REMARK  2 active torsions:
REMARK  status: ('A' for Active; 'I' for Inactive)
REMARK    1  A    between atoms: O3_19  and  C4_9 
REMARK       I    between atoms: N2_17  and  C1_10 
REMARK    2  A    between atoms: C1_10  and  O3_19 
ROOT
ATOM      1  C1  4K2 d   1     -13.021 -16.167 -56.723  0.00  0.00     0.368 C 
ATOM      2  C19 4K2 d   1     -12.716 -14.016 -60.314  0.00  0.00    -0.062 C 
ATOM      3  C16 4K2 d   1     -13.199 -13.349 -59.036  0.00  0.00    -0.050 C 
ATOM      4  C17 4K2 d   1     -11.836 -15.205 -60.020  0.00  0.00    -0.050 C 
ATOM      5  C9  4K2 d   1     -13.893 -14.314 -58.103  0.00  0.00    -0.000 C 
ATOM      6  C10 4K2 d   1     -12.634 -16.168 -59.175  0.00  0.00    -0.000 C 
ATOM      7  N2  4K2 d   1     -13.134 -15.542 -57.962  0.00  0.00    -0.328 N 
ATOM      8  O7  4K2 d   1     -13.468 -15.718 -55.663  0.00  0.00    -0.238 OA
ATOM      9  H7  4K2 d   1     -12.143 -13.285 -60.904  0.00  0.00     0.033 H 
ATOM     10  H8  4K2 d   1     -13.589 -14.352 -60.893  0.00  0.00     0.033 H 
ATOM     11  H9  4K2 d   1     -13.904 -12.547 -59.302  0.00  0.00     0.035 H 
ATOM     12  H10 4K2 d   1     -12.332 -12.917 -58.515  0.00  0.00     0.035 H 
ATOM     13  H11 4K2 d   1     -10.939 -14.881 -59.472  0.00  0.00     0.035 H 
ATOM     14  H12 4K2 d   1     -11.536 -15.691 -60.960  0.00  0.00     0.035 H 
ATOM     15  H13 4K2 d   1     -14.888 -14.551 -58.507  0.00  0.00     0.064 H 
ATOM     16  H14 4K2 d   1     -14.001 -13.843 -57.115  0.00  0.00     0.064 H 
ATOM     17  H15 4K2 d   1     -11.990 -17.015 -58.898  0.00  0.00     0.064 H 
ATOM     18  H16 4K2 d   1     -13.488 -16.534 -59.764  0.00  0.00     0.064 H 
ENDROOT
BRANCH   1  19
ATOM     19  O3  4K2 d   1     -12.350 -17.364 -56.879  0.00  0.00    -0.259 OA
BRANCH  19  20
ATOM     20  C4  4K2 d   1     -12.365 -17.999 -55.649  0.00  0.00     0.110 A 
ATOM     21  C11 4K2 d   1     -11.275 -17.797 -54.818  0.00  0.00    -0.048 A 
ATOM     22  C12 4K2 d   1     -11.229 -18.420 -53.595  0.00  0.00    -0.079 A 
ATOM     23  H5  4K2 d   1     -10.463 -17.151 -55.131  0.00  0.00     0.087 H 
ATOM     24  C14 4K2 d   1     -12.279 -19.242 -53.227  0.00  0.00    -0.071 A 
ATOM     25  H1  4K2 d   1     -10.386 -18.270 -52.931  0.00  0.00     0.083 H 
ATOM     26  C8  4K2 d   1     -13.358 -19.438 -54.076  0.00  0.00    -0.004 A 
ATOM     27  H3  4K2 d   1     -12.258 -19.739 -52.264  0.00  0.00     0.084 H 
ATOM     28  C15 4K2 d   1     -14.402 -20.263 -53.696  0.00  0.00    -0.069 A 
ATOM     29  C5  4K2 d   1     -13.429 -18.819 -55.313  0.00  0.00     0.100 A 
ATOM     30  C18 4K2 d   1     -15.477 -20.474 -54.542  0.00  0.00    -0.065 A 
ATOM     31  H4  4K2 d   1     -14.378 -20.748 -52.727  0.00  0.00     0.085 H 
ATOM     32  C13 4K2 d   1     -15.470 -19.832 -55.758  0.00  0.00     0.003 A 
ATOM     33  H2  4K2 d   1     -16.297 -21.123 -54.256  0.00  0.00     0.085 H 
ATOM     34  N6  4K2 d   1     -14.477 -19.021 -56.144  0.00  0.00    -0.257 NA
ATOM     35  H6  4K2 d   1     -16.304 -19.989 -56.433  0.00  0.00     0.114 H 
ENDBRANCH  19  20
ENDBRANCH   1  19
TORSDOF 2
