REMARK  3 active torsions:
REMARK  status: ('A' for Active; 'I' for Inactive)
REMARK    1  A    between atoms: N1_10  and  C6_6 
REMARK    2  A    between atoms: C2_9  and  C3_7 
REMARK    3  A    between atoms: C5_8  and  S4_12 
REMARK       I    between atoms: C2_9  and  N1_10 
ROOT
ATOM      1  C12 4K3 d   1      11.204   7.594   4.911  0.00  0.00    -0.083 A 
ATOM      2  C10 4K3 d   1      11.595   8.844   5.349  0.00  0.00    -0.081 A 
ATOM      3  C11 4K3 d   1      11.624   6.461   5.602  0.00  0.00    -0.081 A 
ATOM      4  C9  4K3 d   1      12.407   8.921   6.468  0.00  0.00    -0.057 A 
ATOM      5  C8  4K3 d   1      12.439   6.539   6.717  0.00  0.00    -0.057 A 
ATOM      6  C6  4K3 d   1      12.836   7.785   7.150  0.00  0.00     0.035 A 
ATOM      7  H1  4K3 d   1      10.574   7.496   4.034  0.00  0.00     0.083 H 
ATOM      8  H2  4K3 d   1      11.275   9.741   4.831  0.00  0.00     0.083 H 
ATOM      9  H3  4K3 d   1      11.302   5.486   5.255  0.00  0.00     0.083 H 
ATOM     10  H4  4K3 d   1      12.719   9.896   6.824  0.00  0.00     0.086 H 
ATOM     11  H5  4K3 d   1      12.757   5.643   7.237  0.00  0.00     0.086 H 
ENDROOT
BRANCH   6  12
ATOM     12  N1  4K3 d   1      13.643   7.975   8.283  0.00  0.00    -0.324 N 
ATOM     13  C2  4K3 d   1      14.506   7.134   8.940  0.00  0.00     0.246 C 
ATOM     14  O7  4K3 d   1      14.872   5.990   8.679  0.00  0.00    -0.268 OA
ATOM     15  H8  4K3 d   1      13.577   8.889   8.684  0.00  0.00     0.169 HD
BRANCH  13  16
ATOM     16  C3  4K3 d   1      14.938   7.934  10.109  0.00  0.00    -0.012 C 
ATOM     17  C5  4K3 d   1      15.553   7.385  11.167  0.00  0.00    -0.047 C 
ATOM     18  H7  4K3 d   1      15.777   8.080  11.975  0.00  0.00     0.094 H 
ATOM     19  H6  4K3 d   1      14.750   9.007  10.110  0.00  0.00     0.092 H 
BRANCH  17  20
ATOM     20  S4  4K3 d   1      16.051   5.743  11.459  0.00  0.00    -0.154 SA
ATOM     21  H9  4K3 d   1      16.488   5.682  12.365  0.00  0.00     0.106 HD
ENDBRANCH  17  20
ENDBRANCH  13  16
ENDBRANCH   6  12
TORSDOF 3
