REMARK  18 active torsions:
REMARK  status: ('A' for Active; 'I' for Inactive)
REMARK    1  A    between atoms: S31_2  and  C22_5 
REMARK    2  A    between atoms: C11_7  and  S17_8 
REMARK    3  A    between atoms: C15_14  and  S21_15 
REMARK    4  A    between atoms: C3_22  and  N1_23 
REMARK       I    between atoms: N1_23  and  C2_24 
REMARK    5  A    between atoms: C2_24  and  C5_26 
REMARK    6  A    between atoms: C20_30  and  C27_31 
REMARK    7  A    between atoms: C13_32  and  N19_33 
REMARK       I    between atoms: N19_33  and  C26_34 
REMARK    8  A    between atoms: C26_34  and  C33_36 
REMARK    9  A    between atoms: C39_41  and  N41_42 
REMARK       I    between atoms: N41_42  and  C43_43 
REMARK       I    between atoms: C43_43  and  N44_45 
REMARK   10  A    between atoms: N44_45  and  C46_46 
REMARK   11  A    between atoms: C49_51  and  C51_52 
REMARK       I    between atoms: C51_52  and  N53_54 
REMARK   12  A    between atoms: N53_54  and  C55_55 
REMARK   13  A    between atoms: C57_57  and  C59_58 
REMARK   14  A    between atoms: C58_61  and  C61_62 
REMARK       I    between atoms: C61_62  and  N63_64 
REMARK   15  A    between atoms: N63_64  and  C65_65 
REMARK   16  A    between atoms: C71_68  and  S75_69 
REMARK   17  A    between atoms: C69_76  and  S73_77 
REMARK   18  A    between atoms: C76_82  and  S83_83 
ROOT
ATOM      1  N41 SVR d   1     -26.916 -13.849  22.171  0.00  0.00    -0.309 N 
ATOM      2  C43 SVR d   1     -27.095 -13.863  23.615  0.00  0.00     0.325 C 
ATOM      3  O45 SVR d   1     -27.764 -13.041  24.219  0.00  0.00    -0.247 OA
ATOM      4  N44 SVR d   1     -26.393 -14.948  24.277  0.00  0.00    -0.309 N 
ATOM      5  H17 SVR d   1     -26.328 -14.568  21.799  0.00  0.00     0.170 HD
ATOM      6  H18 SVR d   1     -25.885 -15.561  23.672  0.00  0.00     0.170 HD
ENDROOT
BRANCH   1   7
ATOM      7  C39 SVR d   1     -27.475 -12.935  21.205  0.00  0.00     0.037 A 
ATOM      8  C37 SVR d   1     -26.764 -12.767  20.015  0.00  0.00    -0.042 A 
ATOM      9  C33 SVR d   1     -27.241 -11.919  19.028  0.00  0.00     0.034 A 
ATOM     10  H13 SVR d   1     -25.834 -13.303  19.862  0.00  0.00     0.088 H 
ATOM     11  C38 SVR d   1     -28.452 -11.256  19.210  0.00  0.00    -0.068 A 
ATOM     12  C40 SVR d   1     -29.175 -11.433  20.396  0.00  0.00    -0.080 A 
ATOM     13  H14 SVR d   1     -28.835 -10.603  18.434  0.00  0.00     0.085 H 
ATOM     14  C42 SVR d   1     -28.690 -12.281  21.394  0.00  0.00    -0.057 A 
ATOM     15  H15 SVR d   1     -30.114 -10.910  20.540  0.00  0.00     0.083 H 
ATOM     16  H16 SVR d   1     -29.254 -12.429  22.308  0.00  0.00     0.086 H 
BRANCH   9  17
ATOM     17  C26 SVR d   1     -26.427 -11.763  17.734  0.00  0.00     0.256 C 
ATOM     18  N19 SVR d   1     -27.136 -11.727  16.493  0.00  0.00    -0.322 N 
ATOM     19  H12 SVR d   1     -28.134 -11.784  16.506  0.00  0.00     0.169 HD
ATOM     20  O32 SVR d   1     -25.216 -11.698  17.766  0.00  0.00    -0.267 OA
BRANCH  18  21
ATOM     21  C13 SVR d   1     -26.464 -11.611  15.227  0.00  0.00     0.042 A 
ATOM     22  C8  SVR d   1     -25.696 -12.688  14.779  0.00  0.00    -0.041 A 
ATOM     23  C5  SVR d   1     -25.026 -12.626  13.551  0.00  0.00     0.034 A 
ATOM     24  H6  SVR d   1     -25.618 -13.581  15.388  0.00  0.00     0.088 H 
ATOM     25  C9  SVR d   1     -25.140 -11.496  12.751  0.00  0.00    -0.067 A 
ATOM     26  C14 SVR d   1     -25.912 -10.410  13.201  0.00  0.00    -0.074 A 
ATOM     27  H7  SVR d   1     -24.639 -11.452  11.790  0.00  0.00     0.085 H 
ATOM     28  C20 SVR d   1     -26.576 -10.471  14.439  0.00  0.00    -0.035 A 
ATOM     29  H8  SVR d   1     -25.996  -9.519  12.589  0.00  0.00     0.084 H 
BRANCH  23  30
ATOM     30  C2  SVR d   1     -24.233 -13.886  13.136  0.00  0.00     0.256 C 
ATOM     31  N1  SVR d   1     -24.103 -14.253  11.744  0.00  0.00    -0.322 N 
ATOM     32  H5  SVR d   1     -24.478 -13.677  11.018  0.00  0.00     0.169 HD
ATOM     33  O4  SVR d   1     -23.764 -14.592  14.011  0.00  0.00    -0.267 OA
BRANCH  31  34
ATOM     34  C3  SVR d   1     -23.410 -15.485  11.442  0.00  0.00     0.047 A 
ATOM     35  C7  SVR d   1     -24.125 -16.694  11.949  0.00  0.00    -0.055 A 
ATOM     36  C12 SVR d   1     -23.422 -18.047  11.652  0.00  0.00    -0.056 A 
ATOM     37  H4  SVR d   1     -25.065 -16.632  12.485  0.00  0.00     0.087 H 
ATOM     38  C15 SVR d   1     -22.212 -17.851  10.927  0.00  0.00     0.091 A 
ATOM     39  H3  SVR d   1     -23.803 -19.015  11.957  0.00  0.00     0.086 H 
ATOM     40  C10 SVR d   1     -21.697 -16.738  10.539  0.00  0.00     0.004 A 
ATOM     41  C16 SVR d   1     -20.466 -16.841   9.826  0.00  0.00    -0.047 A 
ATOM     42  C6  SVR d   1     -22.230 -15.590  10.756  0.00  0.00     0.027 A 
ATOM     43  C22 SVR d   1     -19.824 -15.738   9.362  0.00  0.00     0.083 A 
ATOM     44  H2  SVR d   1     -20.034 -17.820   9.651  0.00  0.00     0.087 H 
ATOM     45  C18 SVR d   1     -20.362 -14.538   9.579  0.00  0.00    -0.035 A 
ATOM     46  C11 SVR d   1     -21.551 -14.421  10.265  0.00  0.00     0.095 A 
ATOM     47  H1  SVR d   1     -19.861 -13.649   9.214  0.00  0.00     0.088 H 
BRANCH  38  48
ATOM     48  S21 SVR d   1     -21.340 -19.350  10.541  0.00  0.00     0.138 S 
ATOM     49  O28 SVR d   1     -20.007 -19.406  11.253  0.00  0.00    -0.591 OA
ATOM     50  O29 SVR d   1     -22.051 -20.539  11.141  0.00  0.00    -0.591 OA
ATOM     51  O30 SVR d   1     -21.182 -19.501   9.046  0.00  0.00    -0.591 OA
ENDBRANCH  38  48
BRANCH  43  52
ATOM     52  S31 SVR d   1     -18.278 -15.928   8.479  0.00  0.00     0.137 S 
ATOM     53  O35 SVR d   1     -17.149 -15.214   9.190  0.00  0.00    -0.591 OA
ATOM     54  O36 SVR d   1     -18.311 -15.211   7.152  0.00  0.00    -0.591 OA
ATOM     55  O34 SVR d   1     -17.950 -17.397   8.305  0.00  0.00    -0.591 OA
ENDBRANCH  43  52
BRANCH  46  56
ATOM     56  S17 SVR d   1     -22.189 -12.780  10.494  0.00  0.00     0.138 S 
ATOM     57  O23 SVR d   1     -22.018 -12.281  11.911  0.00  0.00    -0.591 OA
ATOM     58  O24 SVR d   1     -21.342 -11.779   9.731  0.00  0.00    -0.591 OA
ATOM     59  O25 SVR d   1     -23.629 -12.708  10.048  0.00  0.00    -0.591 OA
ENDBRANCH  46  56
ENDBRANCH  31  34
ENDBRANCH  23  30
BRANCH  28  60
ATOM     60  C27 SVR d   1     -27.410  -9.306  14.928  0.00  0.00    -0.049 C 
ATOM     61  H9  SVR d   1     -27.385  -8.498  14.182  0.00  0.00     0.033 H 
ATOM     62  H10 SVR d   1     -27.002  -8.938  15.881  0.00  0.00     0.033 H 
ATOM     63  H11 SVR d   1     -28.449  -9.636  15.077  0.00  0.00     0.033 H 
ENDBRANCH  28  60
ENDBRANCH  18  21
ENDBRANCH   9  17
ENDBRANCH   1   7
BRANCH   4  64
ATOM     64  C46 SVR d   1     -26.322 -15.271  25.692  0.00  0.00     0.037 A 
ATOM     65  C47 SVR d   1     -26.053 -16.613  25.978  0.00  0.00    -0.042 A 
ATOM     66  C49 SVR d   1     -25.939 -17.057  27.289  0.00  0.00     0.034 A 
ATOM     67  H19 SVR d   1     -25.931 -17.318  25.164  0.00  0.00     0.088 H 
ATOM     68  C52 SVR d   1     -26.087 -16.166  28.346  0.00  0.00    -0.068 A 
ATOM     69  C50 SVR d   1     -26.345 -14.811  28.062  0.00  0.00    -0.080 A 
ATOM     70  H22 SVR d   1     -26.005 -16.509  29.371  0.00  0.00     0.085 H 
ATOM     71  C48 SVR d   1     -26.459 -14.362  26.732  0.00  0.00    -0.057 A 
ATOM     72  H21 SVR d   1     -26.457 -14.105  28.877  0.00  0.00     0.083 H 
ATOM     73  H20 SVR d   1     -26.652 -13.316  26.522  0.00  0.00     0.086 H 
BRANCH  66  74
ATOM     74  C51 SVR d   1     -25.662 -18.577  27.434  0.00  0.00     0.256 C 
ATOM     75  O54 SVR d   1     -25.800 -19.164  28.486  0.00  0.00    -0.267 OA
ATOM     76  N53 SVR d   1     -25.250 -19.230  26.220  0.00  0.00    -0.322 N 
ATOM     77  H23 SVR d   1     -25.151 -18.665  25.401  0.00  0.00     0.169 HD
BRANCH  76  78
ATOM     78  C55 SVR d   1     -24.966 -20.652  26.095  0.00  0.00     0.042 A 
ATOM     79  C56 SVR d   1     -23.658 -21.156  26.197  0.00  0.00    -0.041 A 
ATOM     80  C58 SVR d   1     -23.438 -22.537  26.051  0.00  0.00     0.034 A 
ATOM     81  H24 SVR d   1     -22.827 -20.486  26.386  0.00  0.00     0.088 H 
ATOM     82  C62 SVR d   1     -24.506 -23.385  25.806  0.00  0.00    -0.067 A 
ATOM     83  C60 SVR d   1     -25.814 -22.883  25.688  0.00  0.00    -0.074 A 
ATOM     84  H29 SVR d   1     -24.331 -24.450  25.704  0.00  0.00     0.085 H 
ATOM     85  C57 SVR d   1     -26.038 -21.510  25.834  0.00  0.00    -0.035 A 
ATOM     86  H28 SVR d   1     -26.641 -23.554  25.486  0.00  0.00     0.084 H 
BRANCH  80  87
ATOM     87  C61 SVR d   1     -22.013 -23.138  26.162  0.00  0.00     0.256 C 
ATOM     88  O64 SVR d   1     -21.552 -23.764  25.223  0.00  0.00    -0.267 OA
ATOM     89  N63 SVR d   1     -21.278 -22.950  27.403  0.00  0.00    -0.322 N 
ATOM     90  H30 SVR d   1     -21.733 -22.451  28.140  0.00  0.00     0.169 HD
BRANCH  89  91
ATOM     91  C65 SVR d   1     -19.921 -23.437  27.651  0.00  0.00     0.047 A 
ATOM     92  C67 SVR d   1     -19.031 -23.458  26.614  0.00  0.00    -0.055 A 
ATOM     93  C70 SVR d   1     -17.761 -23.882  26.797  0.00  0.00    -0.056 A 
ATOM     94  H31 SVR d   1     -19.348 -23.130  25.631  0.00  0.00     0.087 H 
ATOM     95  C71 SVR d   1     -17.358 -24.287  28.046  0.00  0.00     0.091 A 
ATOM     96  H32 SVR d   1     -17.066 -23.902  25.965  0.00  0.00     0.086 H 
ATOM     97  C68 SVR d   1     -18.280 -24.259  29.137  0.00  0.00     0.004 A 
ATOM     98  C66 SVR d   1     -19.510 -23.848  28.968  0.00  0.00     0.027 A 
ATOM     99  C72 SVR d   1     -17.849 -24.661  30.352  0.00  0.00    -0.047 A 
ATOM    100  C69 SVR d   1     -20.348 -23.827  29.995  0.00  0.00     0.095 A 
ATOM    101  C74 SVR d   1     -20.070 -24.211  31.328  0.00  0.00    -0.035 A 
ATOM    102  C76 SVR d   1     -18.652 -24.695  31.574  0.00  0.00     0.083 A 
ATOM    103  H34 SVR d   1     -20.814 -24.163  32.115  0.00  0.00     0.088 H 
ATOM    104  H33 SVR d   1     -16.818 -24.987  30.428  0.00  0.00     0.087 H 
BRANCH  95 105
ATOM    105  S75 SVR d   1     -15.673 -24.851  28.254  0.00  0.00     0.138 S 
ATOM    106  O80 SVR d   1     -14.974 -24.167  29.401  0.00  0.00    -0.591 OA
ATOM    107  O81 SVR d   1     -15.646 -26.300  28.689  0.00  0.00    -0.591 OA
ATOM    108  O82 SVR d   1     -14.914 -24.668  26.962  0.00  0.00    -0.591 OA
ENDBRANCH  95 105
BRANCH 100 109
ATOM    109  S73 SVR d   1     -22.035 -23.288  29.786  0.00  0.00     0.138 S 
ATOM    110  O77 SVR d   1     -22.759 -24.232  28.861  0.00  0.00    -0.591 OA
ATOM    111  O78 SVR d   1     -22.742 -23.237  31.126  0.00  0.00    -0.591 OA
ATOM    112  O79 SVR d   1     -22.147 -21.855  29.333  0.00  0.00    -0.591 OA
ENDBRANCH 100 109
BRANCH 102 113
ATOM    113  S83 SVR d   1     -18.068 -25.220  33.163  0.00  0.00     0.137 S 
ATOM    114  O85 SVR d   1     -18.795 -26.459  33.635  0.00  0.00    -0.591 OA
ATOM    115  O86 SVR d   1     -16.638 -25.708  33.096  0.00  0.00    -0.591 OA
ATOM    116  O84 SVR d   1     -18.209 -24.084  34.145  0.00  0.00    -0.591 OA
ENDBRANCH 102 113
ENDBRANCH  89  91
ENDBRANCH  80  87
BRANCH  85 117
ATOM    117  C59 SVR d   1     -27.449 -20.959  25.715  0.00  0.00    -0.049 C 
ATOM    118  H25 SVR d   1     -28.148 -21.783  25.509  0.00  0.00     0.033 H 
ATOM    119  H26 SVR d   1     -27.490 -20.230  24.892  0.00  0.00     0.033 H 
ATOM    120  H27 SVR d   1     -27.731 -20.465  26.657  0.00  0.00     0.033 H 
ENDBRANCH  85 117
ENDBRANCH  76  78
ENDBRANCH  66  74
ENDBRANCH   4  64
TORSDOF 18
