REMARK  20 active torsions:
REMARK  status: ('A' for Active; 'I' for Inactive)
REMARK    1  A    between atoms: CA_1  and  CB_2 
REMARK    2  A    between atoms: N1_11  and  CA_1 
REMARK    3  A    between atoms: CB_2  and  CG_3 
REMARK    4  A    between atoms: CG_3  and  CD_4 
REMARK    5  A    between atoms: CD_4  and  NE_5 
REMARK       I    between atoms: NE_5  and  CZ_6 
REMARK       I    between atoms: CZ_6  and  NH1_7 
REMARK       I    between atoms: CZ_6  and  NH2_8 
REMARK       I    between atoms: C_9  and  N1_11 
REMARK       I    between atoms: C_9  and  N_12 
REMARK    6  A    between atoms: N_12  and  CA_13 
REMARK    7  A    between atoms: CA_13  and  C_14 
REMARK    8  A    between atoms: CA_13  and  CB_16 
REMARK       I    between atoms: C_14  and  N_18 
REMARK    9  A    between atoms: CB_16  and  OG_17 
REMARK   10  A    between atoms: N_18  and  CA_19 
REMARK   11  A    between atoms: CA_19  and  C_20 
REMARK   12  A    between atoms: CA_19  and  CB_22 
REMARK       I    between atoms: C_20  and  N_25 
REMARK   13  A    between atoms: CB_22  and  CG1_23 
REMARK   14  A    between atoms: CB_22  and  CG2_24 
REMARK   15  A    between atoms: N_25  and  CA_26 
REMARK   16  A    between atoms: CA_26  and  C_27 
REMARK   17  A    between atoms: CA_26  and  CB_29 
REMARK   18  A    between atoms: CB_29  and  CG_30 
REMARK   19  A    between atoms: CG_30  and  CD_31 
REMARK   20  A    between atoms: CD_31  and  NE_32 
REMARK       I    between atoms: NE_32  and  CZ_33 
REMARK       I    between atoms: CZ_33  and  NH1_34 
ROOT
ATOM      1  CA  VAL d   1     -19.282  12.887  -6.092  0.00  0.00     0.092 C 
ATOM      2  H21 VAL d   1     -20.237  12.586  -5.637  0.00  0.00     0.088 H 
ENDROOT
BRANCH   1   3
ATOM      3  N   VAL d   1     -19.005  14.262  -5.692  0.00  0.00    -0.346 N 
ATOM      4  C   SER d   1     -19.493  14.774  -4.567  0.00  0.00     0.243 C 
ATOM      5  O   SER d   1     -20.204  14.133  -3.792  0.00  0.00    -0.271 OA
ATOM      6  H20 VAL d   1     -18.433  14.834  -6.280  0.00  0.00     0.163 HD
BRANCH   4   7
ATOM      7  CA  SER d   1     -19.124  16.224  -4.271  0.00  0.00     0.111 C 
ATOM      8  H16 SER d   1     -18.161  16.441  -4.755  0.00  0.00     0.091 H 
BRANCH   7   9
ATOM      9  N   SER d   1     -20.121  17.142  -4.808  0.00  0.00    -0.328 N 
ATOM     10  C   URE d   1     -20.253  17.793  -6.115  0.00  0.00     0.316 C 
ATOM     11  O   URE d   1     -19.183  17.936  -6.636  0.00  0.00    -0.247 OA
ATOM     12  N1  URE d   1     -21.464  17.891  -6.833  0.00  0.00    -0.343 N 
ATOM     13  H14 URE d   1     -22.273  17.513  -6.383  0.00  0.00     0.164 HD
ATOM     14  H15 SER d   1     -20.852  17.370  -4.165  0.00  0.00     0.165 HD
BRANCH  12  15
ATOM     15  CA  AG2 d   1     -21.675  18.470  -8.136  0.00  0.00    -0.003 C 
ATOM     16  H1  AG2 d   1     -21.539  19.535  -7.899  0.00  0.00     0.064 H 
ATOM     17  H2  AG2 d   1     -20.785  18.094  -8.661  0.00  0.00     0.064 H 
BRANCH  15  18
ATOM     18  CB  AG2 d   1     -22.632  18.575  -9.281  0.00  0.00    -0.049 C 
ATOM     19  H3  AG2 d   1     -23.535  19.102  -8.940  0.00  0.00     0.035 H 
ATOM     20  H4  AG2 d   1     -22.902  17.561  -9.610  0.00  0.00     0.035 H 
BRANCH  18  21
ATOM     21  CG  AG2 d   1     -22.044  19.328 -10.458  0.00  0.00    -0.048 C 
ATOM     22  H5  AG2 d   1     -22.209  18.756 -11.383  0.00  0.00     0.035 H 
ATOM     23  H6  AG2 d   1     -20.964  19.471 -10.303  0.00  0.00     0.035 H 
BRANCH  21  24
ATOM     24  CD  AG2 d   1     -22.734  20.693 -10.567  0.00  0.00     0.009 C 
ATOM     25  H7  AG2 d   1     -22.055  21.443 -10.999  0.00  0.00     0.064 H 
ATOM     26  H8  AG2 d   1     -23.082  21.038  -9.582  0.00  0.00     0.064 H 
BRANCH  24  27
ATOM     27  NE  AG2 d   1     -23.842  20.439 -11.442  0.00  0.00    -0.227 N 
ATOM     28  CZ  AG2 d   1     -23.571  20.478 -12.845  0.00  0.00     0.665 C 
ATOM     29  NH1 AG2 d   1     -24.638  20.184 -13.725  0.00  0.00    -0.235 N 
ATOM     30  NH2 AG2 d   1     -22.360  20.740 -13.268  0.00  0.00    -0.235 N 
ATOM     31  H10 AG2 d   1     -24.485  20.201 -14.743  0.00  0.00     0.174 HD
ATOM     32  H11 AG2 d   1     -25.568  19.953 -13.348  0.00  0.00     0.174 HD
ATOM     33  H12 AG2 d   1     -21.612  20.949 -12.591  0.00  0.00     0.174 HD
ATOM     34  H13 AG2 d   1     -22.155  20.737 -14.277  0.00  0.00     0.174 HD
ATOM     35  H9  AG2 d   1     -24.785  20.239 -11.078  0.00  0.00     0.177 HD
ENDBRANCH  24  27
ENDBRANCH  21  24
ENDBRANCH  18  21
ENDBRANCH  15  18
ENDBRANCH  12  15
ENDBRANCH   7   9
BRANCH   7  36
ATOM     36  CB  SER d   1     -18.964  16.429  -2.763  0.00  0.00     0.044 C 
ATOM     37  H17 SER d   1     -18.456  17.388  -2.583  0.00  0.00     0.077 H 
ATOM     38  H18 SER d   1     -18.357  15.609  -2.351  0.00  0.00     0.077 H 
BRANCH  36  39
ATOM     39  OG  SER d   1     -20.224  16.443  -2.114  0.00  0.00    -0.398 OA
ATOM     40  H19 SER d   1     -20.665  15.615  -2.264  0.00  0.00     0.209 HD
ENDBRANCH  36  39
ENDBRANCH   7  36
ENDBRANCH   4   7
ENDBRANCH   1   3
BRANCH   1  41
ATOM     41  C   VAL d   1     -18.193  11.940  -5.602  0.00  0.00     0.241 C 
ATOM     42  O   VAL d   1     -17.069  11.958  -6.102  0.00  0.00    -0.271 OA
ATOM     43  N   RGL d   1     -18.516  11.075  -4.488  0.00  0.00    -0.345 N 
ATOM     44  H29 RGL d   1     -19.429  11.136  -4.085  0.00  0.00     0.163 HD
BRANCH  43  45
ATOM     45  CA  RGL d   1     -17.592  10.142  -3.941  0.00  0.00     0.096 C 
ATOM     46  H30 RGL d   1     -16.626  10.257  -4.455  0.00  0.00     0.089 H 
BRANCH  45  47
ATOM     47  C   RGL d   1     -18.081   8.748  -4.167  0.00  0.00     0.196 C 
ATOM     48  O   RGL d   1     -17.773   7.776  -3.504  0.00  0.00    -0.646 OA
ATOM     49  OXT RGL d   1     -18.851   8.404  -5.043  0.00  0.00    -0.646 OA
ENDBRANCH  45  47
BRANCH  45  50
ATOM     50  CB  RGL d   1     -17.386  10.439  -2.455  0.00  0.00    -0.035 C 
ATOM     51  H31 RGL d   1     -16.907   9.575  -1.972  0.00  0.00     0.036 H 
ATOM     52  H32 RGL d   1     -18.360  10.630  -1.981  0.00  0.00     0.036 H 
BRANCH  50  53
ATOM     53  CG  RGL d   1     -16.502  11.658  -2.299  0.00  0.00    -0.047 C 
ATOM     54  H33 RGL d   1     -16.951  12.507  -2.836  0.00  0.00     0.035 H 
ATOM     55  H34 RGL d   1     -15.507  11.445  -2.716  0.00  0.00     0.035 H 
BRANCH  53  56
ATOM     56  CD  RGL d   1     -16.370  12.002  -0.834  0.00  0.00     0.009 C 
ATOM     57  H35 RGL d   1     -17.361  11.964  -0.358  0.00  0.00     0.064 H 
ATOM     58  H36 RGL d   1     -15.952  13.014  -0.731  0.00  0.00     0.064 H 
BRANCH  56  59
ATOM     59  NE  RGL d   1     -15.474  11.033  -0.181  0.00  0.00    -0.227 N 
ATOM     60  CZ  RGL d   1     -14.756  11.365   0.816  0.00  0.00     0.665 C 
ATOM     61  NH1 RGL d   1     -13.958  10.462   1.378  0.00  0.00    -0.235 N 
ATOM     62  NH2 RGL d   1     -14.790  12.604   1.304  0.00  0.00    -0.235 N 
ATOM     63  H38 RGL d   1     -13.374  10.722   2.185  0.00  0.00     0.174 HD
ATOM     64  H39 RGL d   1     -13.924   9.502   1.006  0.00  0.00     0.174 HD
ATOM     65  H40 RGL d   1     -15.405  13.310   0.875  0.00  0.00     0.174 HD
ATOM     66  H41 RGL d   1     -14.201  12.856   2.111  0.00  0.00     0.174 HD
ATOM     67  H37 RGL d   1     -15.427  10.068  -0.538  0.00  0.00     0.177 HD
ENDBRANCH  56  59
ENDBRANCH  53  56
ENDBRANCH  50  53
ENDBRANCH  45  50
ENDBRANCH  43  45
ENDBRANCH   1  41
BRANCH   1  68
ATOM     68  CB  VAL d   1     -19.410  12.760  -7.622  0.00  0.00    -0.033 C 
ATOM     69  H22 VAL d   1     -18.418  12.921  -8.069  0.00  0.00     0.042 H 
BRANCH  68  70
ATOM     70  CG1 VAL d   1     -19.885  11.365  -8.000  0.00  0.00    -0.071 C 
ATOM     71  H23 VAL d   1     -19.971  11.291  -9.094  0.00  0.00     0.028 H 
ATOM     72  H24 VAL d   1     -20.867  11.175  -7.541  0.00  0.00     0.028 H 
ATOM     73  H25 VAL d   1     -19.161  10.620  -7.638  0.00  0.00     0.028 H 
ENDBRANCH  68  70
BRANCH  68  74
ATOM     74  CG2 VAL d   1     -20.357  13.818  -8.164  0.00  0.00    -0.071 C 
ATOM     75  H26 VAL d   1     -19.994  14.816  -7.879  0.00  0.00     0.028 H 
ATOM     76  H27 VAL d   1     -21.362  13.660  -7.745  0.00  0.00     0.028 H 
ATOM     77  H28 VAL d   1     -20.401  13.744  -9.261  0.00  0.00     0.028 H 
ENDBRANCH  68  74
ENDBRANCH   1  68
TORSDOF 20
