REMARK WARNING: 32 MAX_TORS EXCEEDED!!!
REMARK  41 active torsions:
REMARK  status: ('A' for Active; 'I' for Inactive)
REMARK    1  A    between atoms: CA_2  and  CB_3 
REMARK    2  A    between atoms: N_6  and  CN_7 
REMARK    3  A    between atoms: CA_8  and  CB_9 
REMARK    4  A    between atoms: CB_9  and  CG_10 
REMARK    5  A    between atoms: CG_10  and  CD1_11 
REMARK    6  A    between atoms: CG_10  and  CD2_12 
REMARK    7  A    between atoms: N_15  and  CN_16 
REMARK    8  A    between atoms: CA_17  and  CB_18 
REMARK    9  A    between atoms: CB_18  and  CG_19 
REMARK   10  A    between atoms: CG_19  and  CD1_20 
REMARK   11  A    between atoms: CG_19  and  CD2_21 
REMARK   12  A    between atoms: N_24  and  CN_25 
REMARK   13  A    between atoms: CA_26  and  CB_27 
REMARK   14  A    between atoms: CB_27  and  CG1_28 
REMARK   15  A    between atoms: CB_27  and  CG2_29 
REMARK   16  A    between atoms: N_32  and  CN_33 
REMARK   17  A    between atoms: CA_34  and  CB_37 
REMARK   18  A    between atoms: CB_37  and  OG1_38 
REMARK   19  A    between atoms: CB_37  and  CG2_39 
REMARK   20  A    between atoms: CG2_39  and  CD1_40 
REMARK   21  A    between atoms: CG2_39  and  CD2_41 
REMARK   22  A    between atoms: CD2_41  and  CE_42 
REMARK   23  A    between atoms: CE_42  and  CZ_43 
REMARK   24  A    between atoms: CZ_43  and  CH_44 
REMARK   25  A    between atoms: CA_46  and  CB_49 
REMARK   26  A    between atoms: CB_49  and  CG_50 
REMARK   27  A    between atoms: N_51  and  CN_55 
REMARK   28  A    between atoms: N_56  and  CN_57 
REMARK   29  A    between atoms: CA_58  and  CB_59 
REMARK   30  A    between atoms: CB_59  and  CG_60 
REMARK   31  A    between atoms: CG_60  and  CD1_61 
REMARK   32  A    between atoms: CG_60  and  CD2_62 
REMARK   33  A    between atoms: CA_66  and  CB_69 
REMARK   34  A    between atoms: CB_69  and  CG1_70 
REMARK   35  A    between atoms: CB_69  and  CG2_71 
REMARK   36  A    between atoms: N_72  and  CN_73 
REMARK   37  A    between atoms: CA_74  and  CB_75 
REMARK   38  A    between atoms: CB_75  and  CG_76 
REMARK   39  A    between atoms: CG_76  and  CD1_77 
REMARK   40  A    between atoms: CG_76  and  CD2_78 
REMARK   41  A    between atoms: CA_82  and  CB_85 
ROOT
ATOM      1  N   DAL d   1     -14.895  -3.581  76.438  0.00  0.00    -0.346 N 
ATOM      2  CA  DAL d   1     -16.067  -2.816  76.955  0.00  0.00     0.086 C 
ATOM      3  C   DAL d   1     -16.740  -3.556  78.119  0.00  0.00     0.242 C 
ATOM      4  O   DAL d   1     -16.620  -3.150  79.275  0.00  0.00    -0.271 OA
ATOM      5  H1  DAL d   1     -15.152  -4.283  75.773  0.00  0.00     0.163 HD
ATOM      6  H2  DAL d   1     -16.799  -2.812  76.134  0.00  0.00     0.086 H 
ATOM      7  N   MLE d   1     -17.462  -4.631  77.798  0.00  0.00    -0.342 N 
ATOM      8  CA  MLE d   1     -17.886  -5.585  78.818  0.00  0.00     0.079 C 
ATOM      9  C   MLE d   1     -17.482  -6.985  78.427  0.00  0.00     0.177 C 
ATOM     10  O   MLE d   1     -18.391  -7.809  77.770  0.00  0.00    -0.175 OA
ATOM     11  N   MLE d   1     -16.248  -7.393  78.726  0.00  0.00    -0.353 N 
ATOM     12  CA  MLE d   1     -15.812  -8.746  78.376  0.00  0.00     0.078 C 
ATOM     13  C   MLE d   1     -15.326  -9.528  79.573  0.00  0.00     0.177 C 
ATOM     14  O   MLE d   1     -13.971  -9.853  79.661  0.00  0.00    -0.175 OA
ATOM     15  N   MLE d   1      -8.061 -10.502  78.194  0.00  0.00    -0.354 N 
ATOM     16  CA  MLE d   1      -7.053  -9.649  78.875  0.00  0.00     0.078 C 
ATOM     17  C   MLE d   1      -7.116  -8.128  78.760  0.00  0.00     0.175 C 
ATOM     18  O   MLE d   1      -6.071  -7.385  79.325  0.00  0.00    -0.175 OA
ATOM     19  N   MLE d   1     -10.227  -4.826  79.420  0.00  0.00    -0.342 N 
ATOM     20  CA  MLE d   1     -11.601  -4.700  79.942  0.00  0.00     0.079 C 
ATOM     21  C   MLE d   1     -12.374  -3.539  79.405  0.00  0.00     0.175 C 
ATOM     22  O   MLE d   1     -13.462  -2.987  80.108  0.00  0.00    -0.175 OA
ATOM     23  H9  MLE d   1     -17.405  -5.319  79.771  0.00  0.00     0.086 H 
ATOM     24  H22 MLE d   1     -16.666  -9.273  77.924  0.00  0.00     0.086 H 
ATOM     25  H77 MLE d   1      -7.279  -9.829  79.936  0.00  0.00     0.086 H 
ATOM     26  H99 MLE d   1     -12.128  -5.613  79.629  0.00  0.00     0.086 H 
ATOM     27  N   MVA d   1     -16.217  -9.913  80.485  0.00  0.00    -0.353 N 
ATOM     28  CA  MVA d   1     -15.757 -10.527  81.730  0.00  0.00     0.080 C 
ATOM     29  C   MVA d   1     -16.036 -12.012  81.786  0.00  0.00     0.177 C 
ATOM     30  O   MVA d   1     -17.347 -12.449  82.019  0.00  0.00    -0.175 OA
ATOM     31  H35 MVA d   1     -14.666 -10.394  81.786  0.00  0.00     0.086 H 
ATOM     32  N   BMT d   1     -15.037 -12.878  81.597  0.00  0.00    -0.350 N 
ATOM     33  CA  BMT d   1     -13.650 -12.474  81.354  0.00  0.00     0.115 C 
ATOM     34  C   BMT d   1     -13.061 -13.156  80.134  0.00  0.00     0.243 C 
ATOM     35  O   BMT d   1     -12.743 -14.350  80.147  0.00  0.00    -0.271 OA
ATOM     36  H46 BMT d   1     -13.637 -11.387  81.184  0.00  0.00     0.091 H 
ATOM     37  N   ABA d   1     -12.912 -12.408  79.048  0.00  0.00    -0.346 N 
ATOM     38  CA  ABA d   1     -12.299 -12.954  77.837  0.00  0.00     0.089 C 
ATOM     39  C   ABA d   1     -11.302 -11.970  77.246  0.00  0.00     0.242 C 
ATOM     40  O   ABA d   1     -11.570 -10.771  77.224  0.00  0.00    -0.271 OA
ATOM     41  H62 ABA d   1     -13.223 -11.458  79.058  0.00  0.00     0.163 HD
ATOM     42  H63 ABA d   1     -11.760 -13.874  78.107  0.00  0.00     0.087 H 
ATOM     43  N   SAR d   1     -10.129 -12.455  76.825  0.00  0.00    -0.347 N 
ATOM     44  CA  SAR d   1      -9.126 -11.570  76.188  0.00  0.00     0.059 C 
ATOM     45  C   SAR d   1      -8.066 -10.666  76.873  0.00  0.00     0.172 C 
ATOM     46  O   SAR d   1      -7.117 -10.020  76.043  0.00  0.00    -0.175 OA
ATOM     47  H69 SAR d   1      -9.719 -10.881  75.569  0.00  0.00     0.077 H 
ATOM     48  H70 SAR d   1      -8.542 -12.237  75.537  0.00  0.00     0.077 H 
ATOM     49  N   VAL d   1      -8.152  -7.555  78.147  0.00  0.00    -0.357 N 
ATOM     50  CA  VAL d   1      -8.420  -6.113  78.280  0.00  0.00     0.091 C 
ATOM     51  C   VAL d   1      -9.903  -5.899  78.687  0.00  0.00     0.243 C 
ATOM     52  O   VAL d   1     -10.758  -6.724  78.347  0.00  0.00    -0.271 OA
ATOM     53  H87 VAL d   1      -8.760  -8.116  77.585  0.00  0.00     0.162 HD
ATOM     54  H88 VAL d   1      -7.779  -5.717  79.082  0.00  0.00     0.088 H 
ATOM     55  N   ALA d   1     -11.951  -3.054  78.255  0.00  0.00    -0.357 N 
ATOM     56  CA  ALA d   1     -12.875  -2.388  77.382  0.00  0.00     0.085 C 
ATOM     57  C   ALA d   1     -13.569  -3.538  76.666  0.00  0.00     0.240 C 
ATOM     58  O   ALA d   1     -12.855  -4.484  76.318  0.00  0.00    -0.271 OA
ATOM     59 9H10 ALA d   1     -10.991  -3.150  77.992  0.00  0.00     0.162 HD
ATOM     60 0H11 ALA d   1     -13.601  -1.799  77.962  0.00  0.00     0.086 H 
ENDROOT
BRANCH  33  61
ATOM     61  CB  BMT d   1     -12.770 -12.792  82.575  0.00  0.00     0.067 C 
ATOM     62  H47 BMT d   1     -12.746 -13.885  82.693  0.00  0.00     0.087 H 
BRANCH  61  63
ATOM     63  OG1 BMT d   1     -13.343 -12.230  83.738  0.00  0.00    -0.393 OA
ATOM     64  H48 BMT d   1     -14.210 -12.596  83.871  0.00  0.00     0.210 HD
ENDBRANCH  61  63
BRANCH  61  65
ATOM     65  CG2 BMT d   1     -11.324 -12.309  82.428  0.00  0.00    -0.030 C 
ATOM     66  H49 BMT d   1     -10.966 -12.614  81.433  0.00  0.00     0.043 H 
BRANCH  65  67
ATOM     67  CD1 BMT d   1     -10.420 -12.957  83.484  0.00  0.00    -0.070 C 
ATOM     68  H50 BMT d   1      -9.389 -12.594  83.357  0.00  0.00     0.028 H 
ATOM     69  H51 BMT d   1     -10.441 -14.050  83.364  0.00  0.00     0.028 H 
ATOM     70  H52 BMT d   1     -10.781 -12.691  84.489  0.00  0.00     0.028 H 
ENDBRANCH  65  67
BRANCH  65  71
ATOM     71  CD2 BMT d   1     -11.218 -10.784  82.524  0.00  0.00    -0.060 C 
ATOM     72  H53 BMT d   1     -11.671 -10.447  83.468  0.00  0.00     0.033 H 
ATOM     73  H54 BMT d   1     -11.752 -10.328  81.677  0.00  0.00     0.033 H 
BRANCH  71  74
ATOM     74  CE  BMT d   1      -9.767 -10.360  82.486  0.00  0.00    -0.065 C 
ATOM     75  H55 BMT d   1      -9.453 -10.432  81.434  0.00  0.00     0.033 H 
ATOM     76  H56 BMT d   1      -9.215 -11.099  83.085  0.00  0.00     0.033 H 
BRANCH  74  77
ATOM     77  CZ  BMT d   1      -9.326  -9.036  82.958  0.00  0.00    -0.069 C 
ATOM     78  H57 BMT d   1      -9.632  -8.960  84.012  0.00  0.00     0.032 H 
ATOM     79  H58 BMT d   1      -9.874  -8.291  82.362  0.00  0.00     0.032 H 
BRANCH  77  80
ATOM     80  CH  BMT d   1      -7.872  -8.648  82.902  0.00  0.00    -0.077 C 
ATOM     81  H59 BMT d   1      -7.749  -7.629  83.297  0.00  0.00     0.027 H 
ATOM     82  H60 BMT d   1      -7.523  -8.681  81.859  0.00  0.00     0.027 H 
ATOM     83  H61 BMT d   1      -7.282  -9.350  83.509  0.00  0.00     0.027 H 
ENDBRANCH  77  80
ENDBRANCH  74  77
ENDBRANCH  71  74
ENDBRANCH  65  71
ENDBRANCH  61  65
ENDBRANCH  33  61
BRANCH  32  84
ATOM     84  CN  BMT d   1     -15.383 -14.290  81.578  0.00  0.00    -0.016 C 
ATOM     85  H43 BMT d   1     -16.458 -14.407  81.778  0.00  0.00     0.056 H 
ATOM     86  H44 BMT d   1     -14.806 -14.819  82.351  0.00  0.00     0.056 H 
ATOM     87  H45 BMT d   1     -15.146 -14.712  80.590  0.00  0.00     0.056 H 
ENDBRANCH  32  84
BRANCH  28  88
ATOM     88  CB  MVA d   1     -16.388  -9.800  82.932  0.00  0.00    -0.034 C 
ATOM     89  H36 MVA d   1     -17.471  -9.989  82.901  0.00  0.00     0.042 H 
BRANCH  88  90
ATOM     90  CG1 MVA d   1     -15.856 -10.319  84.270  0.00  0.00    -0.071 C 
ATOM     91  H37 MVA d   1     -16.336  -9.770  85.093  0.00  0.00     0.028 H 
ATOM     92  H38 MVA d   1     -14.767 -10.169  84.315  0.00  0.00     0.028 H 
ATOM     93  H39 MVA d   1     -16.082 -11.391  84.364  0.00  0.00     0.028 H 
ENDBRANCH  88  90
BRANCH  88  94
ATOM     94  CG2 MVA d   1     -16.168  -8.289  82.859  0.00  0.00    -0.071 C 
ATOM     95  H40 MVA d   1     -16.548  -7.909  81.899  0.00  0.00     0.028 H 
ATOM     96  H41 MVA d   1     -15.093  -8.071  82.940  0.00  0.00     0.028 H 
ATOM     97  H42 MVA d   1     -16.704  -7.800  83.685  0.00  0.00     0.028 H 
ENDBRANCH  88  94
ENDBRANCH  28  88
BRANCH  38  98
ATOM     98  CB  ABA d   1     -13.369 -13.306  76.805  0.00  0.00    -0.041 C 
ATOM     99  H64 ABA d   1     -13.902 -14.207  77.142  0.00  0.00     0.036 H 
ATOM    100  H65 ABA d   1     -12.877 -13.509  75.842  0.00  0.00     0.036 H 
BRANCH  98 101
ATOM    101  CG  ABA d   1     -14.378 -12.189  76.610  0.00  0.00    -0.074 C 
ATOM    102  H66 ABA d   1     -15.122 -12.494  75.860  0.00  0.00     0.027 H 
ATOM    103  H67 ABA d   1     -13.859 -11.283  76.264  0.00  0.00     0.027 H 
ATOM    104  H68 ABA d   1     -14.884 -11.981  77.564  0.00  0.00     0.027 H 
ENDBRANCH  98 101
ENDBRANCH  38  98
BRANCH  27 105
ATOM    105  CN  MVA d   1     -17.652  -9.944  80.189  0.00  0.00    -0.016 C 
ATOM    106  H32 MVA d   1     -17.838  -9.446  79.226  0.00  0.00     0.056 H 
ATOM    107  H33 MVA d   1     -18.202  -9.420  80.985  0.00  0.00     0.056 H 
ATOM    108  H34 MVA d   1     -17.993 -10.989  80.134  0.00  0.00     0.056 H 
ENDBRANCH  27 105
BRANCH  43 109
ATOM    109  CN  SAR d   1      -9.810 -13.869  76.971  0.00  0.00    -0.016 C 
ATOM    110  H71 SAR d   1     -10.650 -14.386  77.458  0.00  0.00     0.056 H 
ATOM    111  H72 SAR d   1      -8.905 -13.979  77.586  0.00  0.00     0.056 H 
ATOM    112  H73 SAR d   1      -9.634 -14.310  75.979  0.00  0.00     0.056 H 
ENDBRANCH  43 109
BRANCH  12 113
ATOM    113  CB  MLE d   1     -14.645  -8.724  77.381  0.00  0.00    -0.036 C 
ATOM    114  H23 MLE d   1     -14.392  -9.762  77.119  0.00  0.00     0.037 H 
ATOM    115  H24 MLE d   1     -13.781  -8.248  77.869  0.00  0.00     0.037 H 
BRANCH 113 116
ATOM    116  CG  MLE d   1     -14.951  -7.964  76.096  0.00  0.00    -0.059 C 
ATOM    117  H25 MLE d   1     -15.268  -6.947  76.369  0.00  0.00     0.038 H 
BRANCH 116 118
ATOM    118  CD1 MLE d   1     -13.692  -7.853  75.237  0.00  0.00    -0.073 C 
ATOM    119  H26 MLE d   1     -13.926  -7.303  74.313  0.00  0.00     0.028 H 
ATOM    120  H27 MLE d   1     -13.332  -8.861  74.983  0.00  0.00     0.028 H 
ATOM    121  H28 MLE d   1     -12.912  -7.315  75.797  0.00  0.00     0.028 H 
ENDBRANCH 116 118
BRANCH 116 122
ATOM    122  CD2 MLE d   1     -16.096  -8.620  75.323  0.00  0.00    -0.073 C 
ATOM    123  H29 MLE d   1     -16.985  -8.684  75.968  0.00  0.00     0.028 H 
ATOM    124  H30 MLE d   1     -15.796  -9.631  75.011  0.00  0.00     0.028 H 
ATOM    125  H31 MLE d   1     -16.331  -8.016  74.434  0.00  0.00     0.028 H 
ENDBRANCH 116 122
ENDBRANCH 113 116
ENDBRANCH  12 113
BRANCH  11 126
ATOM    126  CN  MLE d   1     -15.288  -6.524  79.364  0.00  0.00    -0.016 C 
ATOM    127  H19 MLE d   1     -15.754  -5.548  79.566  0.00  0.00     0.056 H 
ATOM    128  H20 MLE d   1     -14.421  -6.386  78.701  0.00  0.00     0.056 H 
ATOM    129  H21 MLE d   1     -14.957  -6.975  80.311  0.00  0.00     0.056 H 
ENDBRANCH  11 126
BRANCH  15 130
ATOM    130  CN  MLE d   1      -8.958 -11.162  79.125  0.00  0.00    -0.016 C 
ATOM    131  H74 MLE d   1      -9.679 -11.777  78.566  0.00  0.00     0.056 H 
ATOM    132  H75 MLE d   1      -9.499 -10.405  79.712  0.00  0.00     0.056 H 
ATOM    133  H76 MLE d   1      -8.376 -11.804  79.802  0.00  0.00     0.056 H 
ENDBRANCH  15 130
BRANCH   8 134
ATOM    134  CB  MLE d   1     -19.405  -5.569  78.999  0.00  0.00    -0.036 C 
ATOM    135  H10 MLE d   1     -19.784  -6.550  78.676  0.00  0.00     0.037 H 
ATOM    136  H11 MLE d   1     -19.806  -4.785  78.339  0.00  0.00     0.037 H 
BRANCH 134 137
ATOM    137  CG  MLE d   1     -19.956  -5.307  80.408  0.00  0.00    -0.059 C 
ATOM    138  H12 MLE d   1     -20.319  -4.269  80.401  0.00  0.00     0.038 H 
BRANCH 137 139
ATOM    139  CD1 MLE d   1     -21.167  -6.195  80.686  0.00  0.00    -0.073 C 
ATOM    140  H13 MLE d   1     -21.546  -5.992  81.699  0.00  0.00     0.028 H 
ATOM    141  H14 MLE d   1     -20.872  -7.252  80.610  0.00  0.00     0.028 H 
ATOM    142  H15 MLE d   1     -21.956  -5.981  79.950  0.00  0.00     0.028 H 
ENDBRANCH 137 139
BRANCH 137 143
ATOM    143  CD2 MLE d   1     -18.936  -5.381  81.546  0.00  0.00    -0.073 C 
ATOM    144  H16 MLE d   1     -18.079  -4.731  81.313  0.00  0.00     0.028 H 
ATOM    145  H17 MLE d   1     -18.589  -6.418  81.660  0.00  0.00     0.028 H 
ATOM    146  H18 MLE d   1     -19.406  -5.046  82.482  0.00  0.00     0.028 H 
ENDBRANCH 137 143
ENDBRANCH 134 137
ENDBRANCH   8 134
BRANCH  16 147
ATOM    147  CB  MLE d   1      -5.587 -10.114  78.715  0.00  0.00    -0.036 C 
ATOM    148  H78 MLE d   1      -4.930  -9.399  79.232  0.00  0.00     0.037 H 
ATOM    149  H79 MLE d   1      -5.337 -10.134  77.644  0.00  0.00     0.037 H 
BRANCH 147 150
ATOM    150  CG  MLE d   1      -5.355 -11.511  79.302  0.00  0.00    -0.059 C 
ATOM    151  H80 MLE d   1      -5.913 -12.226  78.679  0.00  0.00     0.038 H 
BRANCH 150 152
ATOM    152  CD1 MLE d   1      -3.877 -11.895  79.236  0.00  0.00    -0.073 C 
ATOM    153  H81 MLE d   1      -3.740 -12.899  79.663  0.00  0.00     0.028 H 
ATOM    154  H82 MLE d   1      -3.283 -11.168  79.810  0.00  0.00     0.028 H 
ATOM    155  H83 MLE d   1      -3.544 -11.893  78.188  0.00  0.00     0.028 H 
ENDBRANCH 150 152
BRANCH 150 156
ATOM    156  CD2 MLE d   1      -5.890 -11.636  80.731  0.00  0.00    -0.073 C 
ATOM    157  H84 MLE d   1      -6.953 -11.354  80.750  0.00  0.00     0.028 H 
ATOM    158  H85 MLE d   1      -5.322 -10.968  81.395  0.00  0.00     0.028 H 
ATOM    159  H86 MLE d   1      -5.780 -12.675  81.074  0.00  0.00     0.028 H 
ENDBRANCH 150 156
ENDBRANCH 147 150
ENDBRANCH  16 147
BRANCH   7 160
ATOM    160  CN  MLE d   1     -17.989  -4.825  76.458  0.00  0.00    -0.015 C 
ATOM    161  H6  MLE d   1     -17.594  -4.044  75.792  0.00  0.00     0.056 H 
ATOM    162  H7  MLE d   1     -19.087  -4.764  76.483  0.00  0.00     0.056 H 
ATOM    163  H8  MLE d   1     -17.685  -5.814  76.084  0.00  0.00     0.056 H 
ENDBRANCH   7 160
BRANCH   2 164
ATOM    164  CB  DAL d   1     -15.809  -1.330  77.272  0.00  0.00    -0.049 C 
ATOM    165  H3  DAL d   1     -16.736  -0.868  77.644  0.00  0.00     0.030 H 
ATOM    166  H4  DAL d   1     -15.482  -0.812  76.359  0.00  0.00     0.030 H 
ATOM    167  H5  DAL d   1     -15.026  -1.250  78.040  0.00  0.00     0.030 H 
ENDBRANCH   2 164
BRANCH  50 168
ATOM    168  CB  VAL d   1      -8.084  -5.337  76.972  0.00  0.00    -0.033 C 
ATOM    169  H89 VAL d   1      -8.454  -4.307  77.085  0.00  0.00     0.042 H 
BRANCH 168 170
ATOM    170  CG1 VAL d   1      -6.583  -5.277  76.740  0.00  0.00    -0.071 C 
ATOM    171  H90 VAL d   1      -6.377  -4.724  75.811  0.00  0.00     0.028 H 
ATOM    172  H91 VAL d   1      -6.184  -6.298  76.655  0.00  0.00     0.028 H 
ATOM    173  H92 VAL d   1      -6.101  -4.765  77.586  0.00  0.00     0.028 H 
ENDBRANCH 168 170
BRANCH 168 174
ATOM    174  CG2 VAL d   1      -8.781  -5.964  75.761  0.00  0.00    -0.071 C 
ATOM    175  H93 VAL d   1      -9.866  -6.002  75.941  0.00  0.00     0.028 H 
ATOM    176  H94 VAL d   1      -8.399  -6.984  75.606  0.00  0.00     0.028 H 
ATOM    177  H95 VAL d   1      -8.579  -5.357  74.866  0.00  0.00     0.028 H 
ENDBRANCH 168 174
ENDBRANCH  50 168
BRANCH  19 178
ATOM    178  CN  MLE d   1      -9.309  -3.752  79.763  0.00  0.00    -0.015 C 
ATOM    179  H96 MLE d   1      -8.323  -3.957  79.320  0.00  0.00     0.056 H 
ATOM    180  H97 MLE d   1      -9.213  -3.687  80.857  0.00  0.00     0.056 H 
ATOM    181  H98 MLE d   1      -9.696  -2.800  79.371  0.00  0.00     0.056 H 
ENDBRANCH  19 178
BRANCH  56 182
ATOM    182  CB  ALA d   1     -12.163  -1.473  76.413  0.00  0.00    -0.049 C 
ATOM    183 1H11 ALA d   1     -12.902  -0.982  75.763  0.00  0.00     0.030 H 
ATOM    184 2H11 ALA d   1     -11.466  -2.061  75.798  0.00  0.00     0.030 H 
ATOM    185 3H11 ALA d   1     -11.603  -0.710  76.973  0.00  0.00     0.030 H 
ENDBRANCH  56 182
BRANCH  20 186
ATOM    186  CB  MLE d   1     -11.672  -4.632  81.459  0.00  0.00    -0.036 C 
ATOM    187 0H10 MLE d   1     -12.713  -4.463  81.771  0.00  0.00     0.037 H 
ATOM    188 1H10 MLE d   1     -11.042  -3.806  81.820  0.00  0.00     0.037 H 
BRANCH 186 189
ATOM    189  CG  MLE d   1     -11.173  -5.943  82.042  0.00  0.00    -0.059 C 
ATOM    190 2H10 MLE d   1     -10.269  -6.247  81.494  0.00  0.00     0.038 H 
BRANCH 189 191
ATOM    191  CD1 MLE d   1     -10.784  -5.741  83.509  0.00  0.00    -0.073 C 
ATOM    192 3H10 MLE d   1     -10.423  -6.692  83.927  0.00  0.00     0.028 H 
ATOM    193 4H10 MLE d   1     -11.662  -5.400  84.078  0.00  0.00     0.028 H 
ATOM    194 5H10 MLE d   1      -9.987  -4.986  83.576  0.00  0.00     0.028 H 
ENDBRANCH 189 191
BRANCH 189 195
ATOM    195  CD2 MLE d   1     -12.230  -7.032  81.838  0.00  0.00    -0.073 C 
ATOM    196 6H10 MLE d   1     -12.461  -7.123  80.766  0.00  0.00     0.028 H 
ATOM    197 7H10 MLE d   1     -13.144  -6.764  82.388  0.00  0.00     0.028 H 
ATOM    198 8H10 MLE d   1     -11.845  -7.992  82.213  0.00  0.00     0.028 H 
ENDBRANCH 189 195
ENDBRANCH 186 189
ENDBRANCH  20 186
TORSDOF 41
