REMARK  3 active torsions:
REMARK  status: ('A' for Active; 'I' for Inactive)
REMARK       I    between atoms: N9_6  and  C7_4 
REMARK    1  A    between atoms: C7_4  and  C5_14 
REMARK    2  A    between atoms: C10_10  and  N9_6 
REMARK    3  A    between atoms: C12_11  and  C15_12 
ROOT
ATOM      1  C10 4KH d   1      50.976 102.302  29.865  0.00  0.00     0.173 A 
ATOM      2  C12 4KH d   1      50.411 101.593  27.798  0.00  0.00     0.076 A 
ATOM      3  N11 4KH d   1      50.895 101.329  29.011  0.00  0.00    -0.223 NA
ATOM      4  C13 4KH d   1      50.025 102.874  27.619  0.00  0.00    -0.013 A 
ATOM      5  S14 4KH d   1      50.345 103.766  29.104  0.00  0.00    -0.061 SA
ATOM      6  H10 4KH d   1      49.589 103.286  26.710  0.00  0.00     0.098 H 
ENDROOT
BRANCH   1   7
ATOM      7  N9  4KH d   1      51.401 102.123  31.179  0.00  0.00    -0.301 N 
ATOM      8  C7  4KH d   1      51.301 103.018  32.194  0.00  0.00     0.260 C 
ATOM      9  O8  4KH d   1      50.851 104.138  32.049  0.00  0.00    -0.267 OA
ATOM     10  H4  4KH d   1      51.824 101.243  31.397  0.00  0.00     0.171 HD
BRANCH   8  11
ATOM     11  C5  4KH d   1      51.721 102.608  33.558  0.00  0.00     0.070 A 
ATOM     12  C4  4KH d   1      51.331 101.344  34.062  0.00  0.00     0.132 A 
ATOM     13  C3  4KH d   1      51.675 100.971  35.354  0.00  0.00    -0.045 A 
ATOM     14  F21 4KH d   1      50.660 100.472  33.279  0.00  0.00    -0.205 F 
ATOM     15  C2  4KH d   1      52.369 101.850  36.171  0.00  0.00    -0.080 A 
ATOM     16  H7  4KH d   1      51.400  99.990  35.725  0.00  0.00     0.088 H 
ATOM     17  C1  4KH d   1      52.731 103.105  35.692  0.00  0.00    -0.082 A 
ATOM     18  H5  4KH d   1      52.629 101.560  37.182  0.00  0.00     0.083 H 
ATOM     19  C6  4KH d   1      52.411 103.496  34.403  0.00  0.00    -0.065 A 
ATOM     20  H6  4KH d   1      53.272 103.787  36.338  0.00  0.00     0.083 H 
ATOM     21  H9  4KH d   1      52.691 104.481  34.047  0.00  0.00     0.085 H 
ENDBRANCH   8  11
ENDBRANCH   1   7
BRANCH   2  22
ATOM     22  C15 4KH d   1      50.327 100.578  26.710  0.00  0.00    -0.004 A 
ATOM     23  C20 4KH d   1      50.026 100.964  25.384  0.00  0.00    -0.054 A 
ATOM     24  C19 4KH d   1      49.972  99.992  24.394  0.00  0.00     0.003 A 
ATOM     25  H1  4KH d   1      49.840 102.004  25.143  0.00  0.00     0.087 H 
ATOM     26  N18 4KH d   1      50.231  98.719  24.680  0.00  0.00    -0.273 NA
ATOM     27  H2  4KH d   1      49.716 100.273  23.379  0.00  0.00     0.114 H 
ATOM     28  C17 4KH d   1      50.524  98.316  25.908  0.00  0.00     0.003 A 
ATOM     29  C16 4KH d   1      50.578  99.215  26.960  0.00  0.00    -0.054 A 
ATOM     30  H3  4KH d   1      50.724  97.267  26.092  0.00  0.00     0.114 H 
ATOM     31  H8  4KH d   1      50.810  98.874  27.962  0.00  0.00     0.087 H 
ENDBRANCH   2  22
TORSDOF 3
