REMARK  6 active torsions:
REMARK  status: ('A' for Active; 'I' for Inactive)
REMARK    1  A    between atoms: O2_10  and  C1_1 
REMARK    2  A    between atoms: C3_2  and  O2_10 
REMARK    3  A    between atoms: C9_8  and  C7_6 
REMARK    4  A    between atoms: C10_9  and  C9_8 
REMARK       I    between atoms: N12_16  and  C10_9 
REMARK    5  A    between atoms: C13_11  and  N12_16 
REMARK    6  A    between atoms: C15_12  and  C18_14 
ROOT
ATOM      1  C10 4KK d   1      51.368 104.218  31.787  0.00  0.00     0.227 C 
ATOM      2  O11 4KK d   1      51.237 105.372  31.450  0.00  0.00    -0.273 OA
ATOM      3  N12 4KK d   1      51.219 103.189  30.930  0.00  0.00    -0.305 N 
ATOM      4  H11 4KK d   1      51.312 102.273  31.320  0.00  0.00     0.171 HD
ENDROOT
BRANCH   1   5
ATOM      5  C9  4KK d   1      51.662 103.888  33.223  0.00  0.00     0.033 C 
ATOM      6  H8  4KK d   1      51.950 102.831  33.316  0.00  0.00     0.054 H 
ATOM      7  H9  4KK d   1      52.477 104.525  33.597  0.00  0.00     0.054 H 
BRANCH   5   8
ATOM      8  C7  4KK d   1      50.403 104.150  34.004  0.00  0.00    -0.047 A 
ATOM      9  C6  4KK d   1      49.396 103.185  34.080  0.00  0.00    -0.076 A 
ATOM     10  C5  4KK d   1      48.217 103.457  34.772  0.00  0.00    -0.080 A 
ATOM     11  H6  4KK d   1      49.532 102.223  33.600  0.00  0.00     0.084 H 
ATOM     12  C4  4KK d   1      48.055 104.688  35.415  0.00  0.00    -0.051 A 
ATOM     13  H5  4KK d   1      47.427 102.716  34.812  0.00  0.00     0.083 H 
ATOM     14  C3  4KK d   1      49.053 105.678  35.342  0.00  0.00     0.068 A 
ATOM     15  H4  4KK d   1      47.149 104.883  35.977  0.00  0.00     0.087 H 
ATOM     16  C8  4KK d   1      50.237 105.385  34.634  0.00  0.00    -0.044 A 
ATOM     17  H7  4KK d   1      51.026 106.126  34.578  0.00  0.00     0.088 H 
BRANCH  14  18
ATOM     18  O2  4KK d   1      48.880 106.870  36.009  0.00  0.00    -0.356 OA
BRANCH  18  19
ATOM     19  C1  4KK d   1      49.318 108.111  35.439  0.00  0.00     0.010 C 
ATOM     20  H1  4KK d   1      49.086 108.934  36.130  0.00  0.00     0.066 H 
ATOM     21  H2  4KK d   1      48.800 108.278  34.483  0.00  0.00     0.066 H 
ATOM     22  H3  4KK d   1      50.404 108.072  35.267  0.00  0.00     0.066 H 
ENDBRANCH  18  19
ENDBRANCH  14  18
ENDBRANCH   5   8
ENDBRANCH   1   5
BRANCH   3  23
ATOM     23  C13 4KK d   1      50.951 103.250  29.565  0.00  0.00     0.173 A 
ATOM     24  N14 4KK d   1      50.867 102.180  28.837  0.00  0.00    -0.223 NA
ATOM     25  C15 4KK d   1      50.597 102.338  27.549  0.00  0.00     0.076 A 
ATOM     26  C16 4KK d   1      50.473 103.628  27.159  0.00  0.00    -0.013 A 
ATOM     27  S17 4KK d   1      50.710 104.684  28.552  0.00  0.00    -0.061 SA
ATOM     28  H10 4KK d   1      50.260 103.962  26.145  0.00  0.00     0.098 H 
BRANCH  25  29
ATOM     29  C18 4KK d   1      50.523 101.195  26.597  0.00  0.00    -0.004 A 
ATOM     30  C19 4KK d   1      50.322 101.410  25.219  0.00  0.00    -0.054 A 
ATOM     31  C20 4KK d   1      50.284 100.327  24.356  0.00  0.00     0.003 A 
ATOM     32  H12 4KK d   1      50.198 102.417  24.837  0.00  0.00     0.087 H 
ATOM     33  N21 4KK d   1      50.479  99.096  24.799  0.00  0.00    -0.273 NA
ATOM     34  H13 4KK d   1      50.092 100.491  23.302  0.00  0.00     0.114 H 
ATOM     35  C22 4KK d   1      50.710  98.853  26.080  0.00  0.00     0.003 A 
ATOM     36  C23 4KK d   1      50.741  99.872  27.022  0.00  0.00    -0.054 A 
ATOM     37  H14 4KK d   1      50.879  97.832  26.401  0.00  0.00     0.114 H 
ATOM     38  H15 4KK d   1      50.930  99.652  28.067  0.00  0.00     0.087 H 
ENDBRANCH  25  29
ENDBRANCH   3  23
TORSDOF 6
