REMARK  10 active torsions:
REMARK  status: ('A' for Active; 'I' for Inactive)
REMARK    1  A    between atoms: O3B_8  and  PG_1 
REMARK    2  A    between atoms: PB_5  and  O3B_8 
REMARK    3  A    between atoms: O3A_12  and  PB_5 
REMARK    4  A    between atoms: PA_9  and  O3A_12 
REMARK    5  A    between atoms: PA_9  and  O5'_13 
REMARK    6  A    between atoms: O5'_13  and  C5'_14 
REMARK    7  A    between atoms: C5'_14  and  C4'_15 
REMARK    8  A    between atoms: C2'_18  and  O2'_19 
REMARK    9  A    between atoms: C1'_20  and  N9_21 
REMARK   10  A    between atoms: C6_25  and  N6_26 
ROOT
ATOM      1  C4' 3AT d   1      12.501 -39.602  41.276  0.00  0.00     0.064 C 
ATOM      2  O4' 3AT d   1      13.286 -38.908  40.478  0.00  0.00    -0.356 OA
ATOM      3  C3' 3AT d   1      13.113 -39.374  42.766  0.00  0.00    -0.011 C 
ATOM      4  C2' 3AT d   1      14.380 -39.464  42.569  0.00  0.00     0.080 C 
ATOM      5  C1' 3AT d   1      14.661 -38.920  41.112  0.00  0.00     0.137 C 
ATOM      6  H3  3AT d   1      12.558 -40.671  41.023  0.00  0.00     0.086 H 
ATOM      7  H4  3AT d   1      12.764 -40.151  43.461  0.00  0.00     0.041 H 
ATOM      8  H5  3AT d   1      12.842 -38.383  43.158  0.00  0.00     0.041 H 
ATOM      9  H6  3AT d   1      14.919 -38.867  43.319  0.00  0.00     0.089 H 
ATOM     10  H8  3AT d   1      15.366 -39.555  40.555  0.00  0.00     0.122 H 
ENDROOT
BRANCH   1  11
ATOM     11  C5' 3AT d   1      11.081 -39.161  41.115  0.00  0.00     0.056 C 
ATOM     12  H1  3AT d   1      10.738 -39.421  40.103  0.00  0.00     0.079 H 
ATOM     13  H2  3AT d   1      10.459 -39.681  41.858  0.00  0.00     0.079 H 
BRANCH  11  14
ATOM     14  O5' 3AT d   1      10.949 -37.777  41.299  0.00  0.00    -0.287 OA
BRANCH  14  15
ATOM     15  PA  3AT d   1       9.731 -36.932  40.747  0.00  0.00     0.417 P 
ATOM     16  O1A 3AT d   1       8.446 -37.705  40.748  0.00  0.00    -0.624 OA
ATOM     17  O2A 3AT d   1       9.512 -35.689  41.575  0.00  0.00    -0.624 OA
BRANCH  15  18
ATOM     18  O3A 3AT d   1      10.117 -36.425  39.311  0.00  0.00    -0.180 OA
BRANCH  18  19
ATOM     19  PB  3AT d   1       9.280 -36.528  37.975  0.00  0.00     0.428 P 
ATOM     20  O1B 3AT d   1       9.868 -35.493  37.028  0.00  0.00    -0.624 OA
ATOM     21  O2B 3AT d   1       7.813 -36.309  38.188  0.00  0.00    -0.624 OA
BRANCH  19  22
ATOM     22  O3B 3AT d   1       9.578 -37.989  37.447  0.00  0.00    -0.173 OA
BRANCH  22  23
ATOM     23  PG  3AT d   1       8.603 -39.193  37.179  0.00  0.00     0.431 P 
ATOM     24  O1G 3AT d   1       7.844 -38.822  35.932  0.00  0.00    -0.616 OA
ATOM     25  O2G 3AT d   1       9.425 -40.442  37.004  0.00  0.00    -0.616 OA
ATOM     26  O3G 3AT d   1       7.672 -39.454  38.312  0.00  0.00    -0.616 OA
ENDBRANCH  22  23
ENDBRANCH  19  22
ENDBRANCH  18  19
ENDBRANCH  15  18
ENDBRANCH  14  15
ENDBRANCH  11  14
ENDBRANCH   1  11
BRANCH   5  27
ATOM     27  N9  3AT d   1      15.109 -37.709  41.219  0.00  0.00    -0.294 N 
ATOM     28  C8  3AT d   1      14.404 -36.562  41.280  0.00  0.00     0.071 A 
ATOM     29  N7  3AT d   1      15.266 -35.541  41.422  0.00  0.00    -0.236 NA
ATOM     30  H9  3AT d   1      13.320 -36.477  41.224  0.00  0.00     0.144 H 
ATOM     31  C5  3AT d   1      16.509 -36.063  41.473  0.00  0.00     0.149 A 
ATOM     32  C6  3AT d   1      17.738 -35.437  41.610  0.00  0.00     0.155 A 
ATOM     33  C4  3AT d   1      16.425 -37.403  41.355  0.00  0.00     0.167 A 
ATOM     34  N1  3AT d   1      18.863 -36.173  41.629  0.00  0.00    -0.222 NA
ATOM     35  C2  3AT d   1      18.777 -37.537  41.503  0.00  0.00     0.091 A 
ATOM     36  N3  3AT d   1      17.563 -38.153  41.369  0.00  0.00    -0.222 NA
ATOM     37  H12 3AT d   1      19.682 -38.133  41.510  0.00  0.00     0.146 H 
BRANCH  32  38
ATOM     38  N6  3AT d   1      18.162 -34.103  41.758  0.00  0.00    -0.382 N 
ATOM     39  H10 3AT d   1      19.166 -33.888  41.843  0.00  0.00     0.157 HD
ATOM     40  H11 3AT d   1      17.468 -33.342  41.781  0.00  0.00     0.157 HD
ENDBRANCH  32  38
ENDBRANCH   5  27
BRANCH   4  41
ATOM     41  O2' 3AT d   1      14.846 -40.866  42.615  0.00  0.00    -0.391 OA
ATOM     42  H7  3AT d   1      15.784 -40.892  42.466  0.00  0.00     0.210 HD
ENDBRANCH   4  41
TORSDOF 10
