REMARK  17 active torsions:
REMARK  status: ('A' for Active; 'I' for Inactive)
REMARK    1  A    between atoms: C2_2  and  C1_1 
REMARK    2  A    between atoms: O2_15  and  C2_2 
REMARK    3  A    between atoms: C4_4  and  O4_16 
REMARK    4  A    between atoms: C5_5  and  N5_12 
REMARK    5  A    between atoms: C6_6  and  C7_7 
REMARK    6  A    between atoms: C7_7  and  C8_8 
REMARK    7  A    between atoms: C7_7  and  O7_18 
REMARK    8  A    between atoms: C8_8  and  C9_9 
REMARK    9  A    between atoms: C8_8  and  O8_19 
REMARK   10  A    between atoms: C9_9  and  O9_20 
REMARK   11  A    between atoms: C10_10  and  C11_11 
REMARK       I    between atoms: N5_12  and  C10_10 
REMARK   12  A    between atoms: C6_27  and  O2_15 
REMARK   13  A    between atoms: C1_22  and  O1_28 
REMARK   14  A    between atoms: C2_23  and  O2_29 
REMARK   15  A    between atoms: C3_24  and  O3_30 
REMARK   16  A    between atoms: C4_25  and  O4_31 
REMARK   17  A    between atoms: C5_26  and  C6_27 
ROOT
ATOM      1  C2  SIA d   1      25.649 -14.359  51.181  0.00  0.00     0.258 C 
ATOM      2  C3  SIA d   1      26.236 -13.535  52.336  0.00  0.00     0.024 C 
ATOM      3  C4  SIA d   1      27.010 -12.343  51.801  0.00  0.00     0.063 C 
ATOM      4  C5  SIA d   1      26.102 -11.534  50.881  0.00  0.00     0.064 C 
ATOM      5  C6  SIA d   1      25.603 -12.408  49.735  0.00  0.00     0.091 C 
ATOM      6  O6  SIA d   1      24.929 -13.545  50.238  0.00  0.00    -0.336 OA
ATOM      7  H1  SIA d   1      26.913 -14.170  52.926  0.00  0.00     0.045 H 
ATOM      8  H2  SIA d   1      25.417 -13.176  52.977  0.00  0.00     0.045 H 
ATOM      9  H3  SIA d   1      27.869 -12.707  51.218  0.00  0.00     0.086 H 
ATOM     10  H4  SIA d   1      25.247 -11.149  51.456  0.00  0.00     0.080 H 
ATOM     11  H5  SIA d   1      26.477 -12.721  49.145  0.00  0.00     0.090 H 
ENDROOT
BRANCH   1  12
ATOM     12  C1  SIA d   1      26.689 -15.189  50.475  0.00  0.00     0.239 C 
ATOM     13  O1A SIA d   1      26.670 -15.222  49.232  0.00  0.00    -0.644 OA
ATOM     14  O1B SIA d   1      27.488 -15.868  51.161  0.00  0.00    -0.644 OA
ENDBRANCH   1  12
BRANCH   1  15
ATOM     15  O2  SIA d   1      24.663 -15.289  51.695  0.00  0.00    -0.344 OA
BRANCH  15  16
ATOM     16  C6  GAL d   1      24.237 -16.513  51.275  0.00  0.00     0.050 C 
ATOM     17  H23 SIA d   1      24.999 -17.265  51.529  0.00  0.00     0.078 H 
ATOM     18  H24 SIA d   1      24.096 -16.489  50.184  0.00  0.00     0.078 H 
BRANCH  16  19
ATOM     19  C5  GAL d   1      22.933 -16.892  51.932  0.00  0.00     0.089 C 
ATOM     20  C4  GAL d   1      22.488 -18.228  51.395  0.00  0.00     0.090 C 
ATOM     21  C3  GAL d   1      21.181 -18.603  52.065  0.00  0.00     0.092 C 
ATOM     22  H21 SIA d   1      23.247 -18.996  51.605  0.00  0.00     0.091 H 
ATOM     23  C2  GAL d   1      20.147 -17.463  52.022  0.00  0.00     0.110 C 
ATOM     24  H20 SIA d   1      21.376 -18.848  53.119  0.00  0.00     0.091 H 
ATOM     25  C1  GAL d   1      20.737 -16.090  52.364  0.00  0.00     0.156 C 
ATOM     26  H19 SIA d   1      19.724 -17.419  51.008  0.00  0.00     0.094 H 
ATOM     27  O5  GAL d   1      21.946 -15.900  51.633  0.00  0.00    -0.349 OA
ATOM     28  H18 SIA d   1      20.950 -16.052  53.442  0.00  0.00     0.133 H 
ATOM     29  H22 SIA d   1      23.071 -16.958  53.021  0.00  0.00     0.090 H 
BRANCH  20  30
ATOM     30  O4  GAL d   1      22.312 -18.094  49.985  0.00  0.00    -0.390 OA
ATOM     31  H28 SIA d   1      22.031 -18.925  49.622  0.00  0.00     0.210 HD
ENDBRANCH  20  30
BRANCH  21  32
ATOM     32  O3  GAL d   1      20.695 -19.766  51.392  0.00  0.00    -0.390 OA
ATOM     33  H27 SIA d   1      20.560 -19.566  50.473  0.00  0.00     0.210 HD
ENDBRANCH  21  32
BRANCH  23  34
ATOM     34  O2  GAL d   1      19.104 -17.736  52.961  0.00  0.00    -0.388 OA
ATOM     35  H26 SIA d   1      18.465 -17.034  52.936  0.00  0.00     0.210 HD
ENDBRANCH  23  34
BRANCH  25  36
ATOM     36  O1  GAL d   1      19.828 -15.031  52.028  0.00  0.00    -0.369 OA
ATOM     37  H25 SIA d   1      20.218 -14.196  52.258  0.00  0.00     0.212 HD
ENDBRANCH  25  36
ENDBRANCH  16  19
ENDBRANCH  15  16
ENDBRANCH   1  15
BRANCH   3  38
ATOM     38  O4  SIA d   1      27.502 -11.546  52.887  0.00  0.00    -0.393 OA
ATOM     39  H14 SIA d   1      27.999 -10.814  52.541  0.00  0.00     0.210 HD
ENDBRANCH   3  38
BRANCH   5  40
ATOM     40  C7  SIA d   1      24.588 -11.737  48.805  0.00  0.00     0.089 C 
ATOM     41  H6  SIA d   1      25.093 -10.927  48.259  0.00  0.00     0.091 H 
BRANCH  40  42
ATOM     42  C8  SIA d   1      24.008 -12.707  47.795  0.00  0.00     0.083 C 
ATOM     43  H7  SIA d   1      23.151 -13.230  48.245  0.00  0.00     0.090 H 
BRANCH  42  44
ATOM     44  C9  SIA d   1      23.545 -11.917  46.582  0.00  0.00     0.043 C 
ATOM     45  H8  SIA d   1      24.386 -11.755  45.891  0.00  0.00     0.078 H 
ATOM     46  H9  SIA d   1      23.136 -10.945  46.896  0.00  0.00     0.078 H 
BRANCH  44  47
ATOM     47  O9  SIA d   1      22.541 -12.689  45.955  0.00  0.00    -0.398 OA
ATOM     48  H17 SIA d   1      22.222 -12.229  45.187  0.00  0.00     0.209 HD
ENDBRANCH  44  47
ENDBRANCH  42  44
BRANCH  42  49
ATOM     49  O8  SIA d   1      24.984 -13.675  47.381  0.00  0.00    -0.391 OA
ATOM     50  H16 SIA d   1      25.276 -14.171  48.136  0.00  0.00     0.210 HD
ENDBRANCH  42  49
ENDBRANCH  40  42
BRANCH  40  51
ATOM     51  O7  SIA d   1      23.536 -11.182  49.604  0.00  0.00    -0.390 OA
ATOM     52  H15 SIA d   1      22.922 -10.723  49.043  0.00  0.00     0.210 HD
ENDBRANCH  40  51
ENDBRANCH   5  40
BRANCH   4  53
ATOM     53  N5  SIA d   1      26.849 -10.429  50.307  0.00  0.00    -0.352 N 
ATOM     54  C10 SIA d   1      26.380  -9.190  50.149  0.00  0.00     0.214 C 
ATOM     55  O10 SIA d   1      25.239  -8.867  50.441  0.00  0.00    -0.274 OA
ATOM     56  H13 SIA d   1      27.786 -10.610  50.008  0.00  0.00     0.163 HD
BRANCH  54  57
ATOM     57  C11 SIA d   1      27.348  -8.152  49.622  0.00  0.00    -0.003 C 
ATOM     58  H10 SIA d   1      26.836  -7.182  49.540  0.00  0.00     0.040 H 
ATOM     59  H11 SIA d   1      27.712  -8.460  48.630  0.00  0.00     0.040 H 
ATOM     60  H12 SIA d   1      28.199  -8.060  50.312  0.00  0.00     0.040 H 
ENDBRANCH  54  57
ENDBRANCH   4  53
TORSDOF 17
