REMARK  15 active torsions:
REMARK  status: ('A' for Active; 'I' for Inactive)
REMARK       I    between atoms: N16_5  and  C17_6 
REMARK    1  A    between atoms: C17_6  and  C19_8 
REMARK    2  A    between atoms: C19_8  and  C20_9 
REMARK    3  A    between atoms: C19_8  and  N25_14 
REMARK    4  A    between atoms: C20_9  and  C21_10 
REMARK    5  A    between atoms: C21_10  and  C22_11 
REMARK    6  A    between atoms: C22_11  and  C23_12 
REMARK    7  A    between atoms: C23_12  and  N24_13 
REMARK       I    between atoms: N25_14  and  C26_15 
REMARK    8  A    between atoms: C26_15  and  C28_17 
REMARK    9  A    between atoms: C31_20  and  O34_23 
REMARK   10  A    between atoms: O34_23  and  C35_24 
REMARK   11  A    between atoms: C37_26  and  C38_27 
REMARK   12  A    between atoms: C38_27  and  O39_28 
REMARK   13  A    between atoms: C40_29  and  O41_30 
REMARK   14  A    between atoms: C42_31  and  O43_32 
REMARK   15  A    between atoms: C44_33  and  O45_34 
ROOT
ATOM      1  N25 G0P d   1      -5.564  15.093  54.514  0.00  0.00    -0.344 N 
ATOM      2  C26 G0P d   1      -4.468  14.688  53.674  0.00  0.00     0.252 C 
ATOM      3  O27 G0P d   1      -4.297  13.491  53.564  0.00  0.00    -0.268 OA
ATOM      4  H21 G0P d   1      -5.795  16.052  54.678  0.00  0.00     0.163 HD
ENDROOT
BRANCH   1   5
ATOM      5  C19 G0P d   1      -6.302  14.000  55.100  0.00  0.00     0.090 C 
ATOM      6  H9  G0P d   1      -6.319  13.212  54.333  0.00  0.00     0.087 H 
BRANCH   5   7
ATOM      7  C17 G0P d   1      -7.757  14.294  55.443  0.00  0.00     0.242 C 
ATOM      8  N16 G0P d   1      -8.813  13.576  54.698  0.00  0.00    -0.350 N 
ATOM      9  C12 G0P d   1     -10.237  13.691  54.885  0.00  0.00    -0.002 C 
ATOM     10  C15 G0P d   1      -8.625  12.612  53.632  0.00  0.00    -0.002 C 
ATOM     11  C13 G0P d   1     -10.783  13.584  53.473  0.00  0.00    -0.049 C 
ATOM     12  H1  G0P d   1     -10.618  12.876  55.518  0.00  0.00     0.064 H 
ATOM     13  H2  G0P d   1     -10.498  14.659  55.337  0.00  0.00     0.064 H 
ATOM     14  C14 G0P d   1      -9.989  12.410  52.954  0.00  0.00    -0.049 C 
ATOM     15  H3  G0P d   1     -10.585  14.496  52.892  0.00  0.00     0.035 H 
ATOM     16  H4  G0P d   1     -11.863  13.376  53.471  0.00  0.00     0.035 H 
ATOM     17  H5  G0P d   1      -9.898  12.444  51.858  0.00  0.00     0.035 H 
ATOM     18  H6  G0P d   1     -10.446  11.456  53.255  0.00  0.00     0.035 H 
ATOM     19  H7  G0P d   1      -7.895  12.994  52.903  0.00  0.00     0.064 H 
ATOM     20  H8  G0P d   1      -8.265  11.658  54.046  0.00  0.00     0.064 H 
ATOM     21  O18 G0P d   1      -8.037  15.074  56.330  0.00  0.00    -0.271 OA
ENDBRANCH   5   7
BRANCH   5  22
ATOM     22  C20 G0P d   1      -5.608  13.403  56.337  0.00  0.00    -0.038 C 
ATOM     23  H10 G0P d   1      -4.897  12.639  55.989  0.00  0.00     0.036 H 
ATOM     24  H11 G0P d   1      -6.380  12.929  56.961  0.00  0.00     0.036 H 
BRANCH  22  25
ATOM     25  C21 G0P d   1      -4.832  14.404  57.221  0.00  0.00    -0.061 C 
ATOM     26  H12 G0P d   1      -5.099  15.429  56.923  0.00  0.00     0.033 H 
ATOM     27  H13 G0P d   1      -3.753  14.249  57.077  0.00  0.00     0.033 H 
BRANCH  25  28
ATOM     28  C22 G0P d   1      -5.176  14.207  58.721  0.00  0.00    -0.043 C 
ATOM     29  H14 G0P d   1      -6.043  13.535  58.802  0.00  0.00     0.035 H 
ATOM     30  H15 G0P d   1      -5.427  15.184  59.160  0.00  0.00     0.035 H 
BRANCH  28  31
ATOM     31  C23 G0P d   1      -4.009  13.603  59.495  0.00  0.00     0.080 C 
ATOM     32  H16 G0P d   1      -3.249  14.379  59.671  0.00  0.00     0.075 H 
ATOM     33  H17 G0P d   1      -3.568  12.785  58.907  0.00  0.00     0.075 H 
BRANCH  31  34
ATOM     34  N24 G0P d   1      -4.463  13.090  60.754  0.00  0.00    -0.079 N 
ATOM     35  H18 G0P d   1      -3.684  12.694  61.256  0.00  0.00     0.274 HD
ATOM     36  H19 G0P d   1      -5.158  12.377  60.596  0.00  0.00     0.274 HD
ATOM     37  H20 G0P d   1      -4.866  13.838  61.296  0.00  0.00     0.274 HD
ENDBRANCH  31  34
ENDBRANCH  28  31
ENDBRANCH  25  28
ENDBRANCH  22  25
ENDBRANCH   5  22
ENDBRANCH   1   5
BRANCH   2  38
ATOM     38  C28 G0P d   1      -3.460  15.542  52.876  0.00  0.00     0.032 A 
ATOM     39  C29 G0P d   1      -3.538  17.034  52.536  0.00  0.00    -0.065 A 
ATOM     40  C30 G0P d   1      -2.531  17.613  51.778  0.00  0.00    -0.050 A 
ATOM     41  H22 G0P d   1      -4.372  17.632  52.885  0.00  0.00     0.085 H 
ATOM     42  C31 G0P d   1      -1.379  16.749  51.304  0.00  0.00     0.072 A 
ATOM     43  H23 G0P d   1      -2.567  18.667  51.528  0.00  0.00     0.087 H 
ATOM     44  C32 G0P d   1      -1.330  15.438  51.596  0.00  0.00    -0.050 A 
ATOM     45  C33 G0P d   1      -2.426  14.806  52.415  0.00  0.00    -0.065 A 
ATOM     46  H24 G0P d   1      -0.502  14.835  51.242  0.00  0.00     0.087 H 
ATOM     47  H25 G0P d   1      -2.384  13.746  52.637  0.00  0.00     0.085 H 
BRANCH  42  48
ATOM     48  O34 G0P d   1      -0.256  17.193  50.511  0.00  0.00    -0.318 OA
BRANCH  48  49
ATOM     49  C35 G0P d   1      -0.336  18.439  49.855  0.00  0.00     0.164 C 
ATOM     50  O36 G0P d   1      -1.232  18.351  48.761  0.00  0.00    -0.348 OA
ATOM     51  C37 G0P d   1      -1.356  19.607  48.119  0.00  0.00     0.089 C 
ATOM     52  C40 G0P d   1      -0.034  20.096  47.564  0.00  0.00     0.090 C 
ATOM     53  H27 G0P d   1      -1.728  20.348  48.842  0.00  0.00     0.090 H 
ATOM     54  C42 G0P d   1       1.000  20.099  48.668  0.00  0.00     0.092 C 
ATOM     55  H31 G0P d   1      -0.169  21.118  47.179  0.00  0.00     0.091 H 
ATOM     56  C44 G0P d   1       1.036  18.765  49.359  0.00  0.00     0.110 C 
ATOM     57  H33 G0P d   1       0.761  20.887  49.398  0.00  0.00     0.091 H 
ATOM     58  H35 G0P d   1       1.354  17.992  48.644  0.00  0.00     0.094 H 
ATOM     59  H26 G0P d   1      -0.681  19.215  50.554  0.00  0.00     0.134 H 
BRANCH  51  60
ATOM     60  C38 G0P d   1      -2.360  19.439  47.008  0.00  0.00     0.043 C 
ATOM     61  H28 G0P d   1      -2.030  18.635  46.333  0.00  0.00     0.078 H 
ATOM     62  H29 G0P d   1      -2.445  20.380  46.444  0.00  0.00     0.078 H 
BRANCH  60  63
ATOM     63  O39 G0P d   1      -3.618  19.105  47.560  0.00  0.00    -0.398 OA
ATOM     64  H30 G0P d   1      -3.543  18.293  48.047  0.00  0.00     0.209 HD
ENDBRANCH  60  63
ENDBRANCH  51  60
BRANCH  52  65
ATOM     65  O41 G0P d   1       0.457  19.272  46.524  0.00  0.00    -0.390 OA
ATOM     66  H32 G0P d   1      -0.171  19.255  45.811  0.00  0.00     0.210 HD
ENDBRANCH  52  65
BRANCH  54  67
ATOM     67  O43 G0P d   1       2.249  20.340  48.095  0.00  0.00    -0.390 OA
ATOM     68  H34 G0P d   1       2.445  19.656  47.466  0.00  0.00     0.210 HD
ENDBRANCH  54  67
BRANCH  56  69
ATOM     69  O45 G0P d   1       1.959  18.809  50.428  0.00  0.00    -0.388 OA
ATOM     70  H36 G0P d   1       1.979  17.964  50.862  0.00  0.00     0.210 HD
ENDBRANCH  56  69
ENDBRANCH  48  49
ENDBRANCH  42  48
ENDBRANCH   2  38
TORSDOF 15
