REMARK WARNING: 32 MAX_TORS EXCEEDED!!!
REMARK  38 active torsions:
REMARK  status: ('A' for Active; 'I' for Inactive)
REMARK    1  A    between atoms: O63_1  and  C62_2 
REMARK    2  A    between atoms: C59_3  and  O58_4 
REMARK    3  A    between atoms: C55_5  and  O57_6 
REMARK    4  A    between atoms: C56_7  and  C60_8 
REMARK    5  A    between atoms: C60_8  and  O61_9 
REMARK    6  A    between atoms: C52_11  and  O53_12 
REMARK    7  A    between atoms: O53_12  and  C51_13 
REMARK    8  A    between atoms: C51_13  and  C64_14 
REMARK    9  A    between atoms: C64_14  and  C65_15 
REMARK   10  A    between atoms: C65_15  and  C40_16 
REMARK   11  A    between atoms: N33_20  and  C35_21 
REMARK   12  A    between atoms: C24_22  and  C26_24 
REMARK   13  A    between atoms: C26_24  and  O50_25 
REMARK   14  A    between atoms: C25_26  and  O21_27 
REMARK   15  A    between atoms: C15_28  and  O49_29 
REMARK   16  A    between atoms: C28_30  and  C30_31 
REMARK   17  A    between atoms: N20_35  and  C4_36 
REMARK   18  A    between atoms: C7_37  and  C47_39 
REMARK   19  A    between atoms: C47_39  and  O48_40 
REMARK   20  A    between atoms: C6_41  and  O45_42 
REMARK   21  A    between atoms: C12_43  and  O46_44 
REMARK   22  A    between atoms: C22_45  and  N13_46 
REMARK   23  A    between atoms: C8_50  and  C2_51 
REMARK   24  A    between atoms: C34_52  and  O5_53 
REMARK   25  A    between atoms: C36_54  and  O3_55 
REMARK   26  A    between atoms: C19_57  and  C23_58 
REMARK   27  A    between atoms: C23_58  and  O11_59 
REMARK   28  A    between atoms: C14_60  and  N10_61 
REMARK   29  A    between atoms: C41_65  and  C80_66 
REMARK   30  A    between atoms: C80_66  and  C79_67 
REMARK   31  A    between atoms: C79_67  and  C69_68 
REMARK   32  A    between atoms: C69_68  and  O67_69 
REMARK   33  A    between atoms: O67_69  and  C75_70 
REMARK   34  A    between atoms: C66_72  and  C78_73 
REMARK   35  A    between atoms: C78_73  and  O74_74 
REMARK   36  A    between atoms: C70_75  and  O73_76 
REMARK   37  A    between atoms: C71_77  and  O77_78 
REMARK   38  A    between atoms: C72_79  and  O76_80 
ROOT
ATOM      1  C4  4J0 d   1       5.422 -35.625   0.057  0.00  0.00     0.090 C 
ATOM      2  C7  4J0 d   1       6.138 -36.364  -1.059  0.00  0.00     0.085 C 
ATOM      3  O31 4J0 d   1       7.559 -36.094  -0.953  0.00  0.00    -0.352 OA
ATOM      4  C6  4J0 d   1       5.907 -36.147   1.380  0.00  0.00     0.088 C 
ATOM      5  C12 4J0 d   1       7.374 -35.902   1.466  0.00  0.00     0.106 C 
ATOM      6  C22 4J0 d   1       8.055 -36.600   0.306  0.00  0.00     0.154 C 
ATOM      7  H30 4J0 d   1       5.660 -34.554  -0.021  0.00  0.00     0.084 H 
ATOM      8  H31 4J0 d   1       5.968 -37.445  -0.945  0.00  0.00     0.090 H 
ATOM      9  H35 4J0 d   1       5.699 -37.224   1.457  0.00  0.00     0.090 H 
ATOM     10  H37 4J0 d   1       7.577 -34.822   1.419  0.00  0.00     0.093 H 
ATOM     11  H39 4J0 d   1       7.832 -37.676   0.356  0.00  0.00     0.125 H 
ENDROOT
BRANCH   1  12
ATOM     12  N20 4J0 d   1       3.978 -35.789  -0.015  0.00  0.00    -0.251 N 
ATOM     13  C17 4J0 d   1       3.219 -34.724  -0.201  0.00  0.00     0.029 A 
ATOM     14  C30 4J0 d   1       1.996 -35.199  -0.205  0.00  0.00     0.107 A 
ATOM     15  H29 4J0 d   1       3.536 -33.689  -0.323  0.00  0.00     0.117 H 
ATOM     16  N32 4J0 d   1       2.048 -36.514  -0.027  0.00  0.00    -0.132 NA
ATOM     17  N9  4J0 d   1       3.251 -36.819   0.086  0.00  0.00    -0.066 NA
BRANCH  14  18
ATOM     18  C28 4J0 d   1       0.762 -34.374  -0.392  0.00  0.00     0.111 C 
ATOM     19  O27 4J0 d   1       0.595 -34.145  -1.796  0.00  0.00    -0.367 OA
ATOM     20  C24 4J0 d   1      -0.631 -33.460  -2.043  0.00  0.00     0.084 C 
ATOM     21  C35 4J0 d   1      -0.599 -32.091  -1.379  0.00  0.00     0.089 C 
ATOM     22  H20 4J0 d   1      -1.468 -34.043  -1.631  0.00  0.00     0.090 H 
ATOM     23  C25 4J0 d   1      -0.398 -32.277   0.115  0.00  0.00     0.087 C 
ATOM     24  H19 4J0 d   1       0.238 -31.504  -1.785  0.00  0.00     0.084 H 
ATOM     25  C15 4J0 d   1       0.883 -33.042   0.336  0.00  0.00     0.092 C 
ATOM     26  H24 4J0 d   1      -1.244 -32.842   0.533  0.00  0.00     0.090 H 
ATOM     27  H26 4J0 d   1       1.737 -32.474  -0.062  0.00  0.00     0.091 H 
ATOM     28  H28 4J0 d   1      -0.108 -34.921   0.001  0.00  0.00     0.097 H 
BRANCH  20  29
ATOM     29  C26 4J0 d   1      -0.809 -33.310  -3.554  0.00  0.00     0.043 C 
ATOM     30  H21 4J0 d   1      -1.778 -32.833  -3.762  0.00  0.00     0.078 H 
ATOM     31  H22 4J0 d   1      -0.781 -34.304  -4.025  0.00  0.00     0.078 H 
BRANCH  29  32
ATOM     32  O50 4J0 d   1       0.242 -32.502  -4.089  0.00  0.00    -0.398 OA
ATOM     33  H23 4J0 d   1       1.079 -32.914  -3.911  0.00  0.00     0.209 HD
ENDBRANCH  29  32
ENDBRANCH  20  29
BRANCH  21  34
ATOM     34  N33 4J0 d   1      -1.862 -31.391  -1.666  0.00  0.00    -0.251 N 
ATOM     35  C39 4J0 d   1      -3.014 -31.576  -1.030  0.00  0.00     0.026 A 
ATOM     36  C40 4J0 d   1      -3.849 -30.758  -1.639  0.00  0.00     0.075 A 
ATOM     37  H18 4J0 d   1      -3.220 -32.248  -0.198  0.00  0.00     0.117 H 
ATOM     38  N43 4J0 d   1      -3.191 -30.136  -2.605  0.00  0.00    -0.135 NA
ATOM     39  N44 4J0 d   1      -2.030 -30.549  -2.587  0.00  0.00    -0.066 NA
BRANCH  36  40
ATOM     40  C65 4J0 d   1      -5.320 -30.563  -1.292  0.00  0.00    -0.020 C 
ATOM     41  H16 4J0 d   1      -5.774 -31.535  -1.049  0.00  0.00     0.042 H 
ATOM     42  H17 4J0 d   1      -5.408 -29.891  -0.426  0.00  0.00     0.042 H 
BRANCH  40  43
ATOM     43  C64 4J0 d   1      -6.040 -29.947  -2.496  0.00  0.00    -0.040 C 
ATOM     44  H14 4J0 d   1      -5.471 -29.080  -2.861  0.00  0.00     0.036 H 
ATOM     45  H15 4J0 d   1      -6.123 -30.695  -3.298  0.00  0.00     0.036 H 
BRANCH  43  46
ATOM     46  C51 4J0 d   1      -7.433 -29.500  -2.070  0.00  0.00     0.023 C 
ATOM     47  H12 4J0 d   1      -7.949 -29.032  -2.921  0.00  0.00     0.074 H 
ATOM     48  H13 4J0 d   1      -8.012 -30.369  -1.723  0.00  0.00     0.074 H 
BRANCH  46  49
ATOM     49  O53 4J0 d   1      -7.298 -28.551  -1.004  0.00  0.00    -0.358 OA
BRANCH  49  50
ATOM     50  C52 4J0 d   1      -8.577 -28.046  -0.660  0.00  0.00     0.158 C 
ATOM     51  C62 4J0 d   1      -8.597 -27.778   0.823  0.00  0.00     0.110 C 
ATOM     52  C59 4J0 d   1      -9.961 -27.258   1.211  0.00  0.00     0.092 C 
ATOM     53  H2  4J0 d   1      -7.827 -27.038   1.085  0.00  0.00     0.094 H 
ATOM     54  C55 4J0 d   1     -10.257 -26.014   0.409  0.00  0.00     0.090 C 
ATOM     55  H3  4J0 d   1     -10.721 -28.023   0.997  0.00  0.00     0.091 H 
ATOM     56  C56 4J0 d   1     -10.148 -26.364  -1.072  0.00  0.00     0.089 C 
ATOM     57  H5  4J0 d   1     -11.277 -25.667   0.628  0.00  0.00     0.091 H 
ATOM     58  O54 4J0 d   1      -8.828 -26.839  -1.381  0.00  0.00    -0.348 OA
ATOM     59  H7  4J0 d   1     -10.883 -27.148  -1.306  0.00  0.00     0.090 H 
ATOM     60  H11 4J0 d   1      -9.349 -28.788  -0.912  0.00  0.00     0.133 H 
BRANCH  51  61
ATOM     61  O63 4J0 d   1      -8.341 -29.007   1.495  0.00  0.00    -0.388 OA
ATOM     62  H1  4J0 d   1      -7.482 -29.329   1.247  0.00  0.00     0.210 HD
ENDBRANCH  51  61
BRANCH  52  63
ATOM     63  O58 4J0 d   1      -9.980 -26.947   2.611  0.00  0.00    -0.390 OA
ATOM     64  H4  4J0 d   1      -9.788 -27.732   3.111  0.00  0.00     0.210 HD
ENDBRANCH  52  63
BRANCH  54  65
ATOM     65  O57 4J0 d   1      -9.324 -24.982   0.758  0.00  0.00    -0.390 OA
ATOM     66  H6  4J0 d   1      -9.513 -24.201   0.252  0.00  0.00     0.210 HD
ENDBRANCH  54  65
BRANCH  56  67
ATOM     67  C60 4J0 d   1     -10.421 -25.140  -1.943  0.00  0.00     0.043 C 
ATOM     68  H8  4J0 d   1      -9.635 -24.387  -1.782  0.00  0.00     0.078 H 
ATOM     69  H9  4J0 d   1     -11.399 -24.710  -1.683  0.00  0.00     0.078 H 
BRANCH  67  70
ATOM     70  O61 4J0 d   1     -10.423 -25.550  -3.309  0.00  0.00    -0.398 OA
ATOM     71  H10 4J0 d   1      -9.577 -25.923  -3.528  0.00  0.00     0.209 HD
ENDBRANCH  67  70
ENDBRANCH  56  67
ENDBRANCH  49  50
ENDBRANCH  46  49
ENDBRANCH  43  46
ENDBRANCH  40  43
ENDBRANCH  36  40
ENDBRANCH  21  34
BRANCH  23  72
ATOM     72  O21 4J0 d   1      -0.311 -31.003   0.763  0.00  0.00    -0.391 OA
ATOM     73  H25 4J0 d   1       0.424 -30.518   0.407  0.00  0.00     0.210 HD
ENDBRANCH  23  72
BRANCH  25  74
ATOM     74  O49 4J0 d   1       1.063 -33.261   1.745  0.00  0.00    -0.390 OA
ATOM     75  H27 4J0 d   1       1.109 -32.424   2.191  0.00  0.00     0.210 HD
ENDBRANCH  25  74
ENDBRANCH  14  18
ENDBRANCH   1  12
BRANCH   2  76
ATOM     76  C47 4J0 d   1       5.595 -35.922  -2.418  0.00  0.00     0.043 C 
ATOM     77  H32 4J0 d   1       4.521 -36.154  -2.474  0.00  0.00     0.078 H 
ATOM     78  H33 4J0 d   1       6.128 -36.459  -3.216  0.00  0.00     0.078 H 
BRANCH  76  79
ATOM     79  O48 4J0 d   1       5.786 -34.512  -2.585  0.00  0.00    -0.398 OA
ATOM     80  H34 4J0 d   1       5.446 -34.246  -3.431  0.00  0.00     0.209 HD
ENDBRANCH  76  79
ENDBRANCH   2  76
BRANCH   4  81
ATOM     81  O45 4J0 d   1       5.252 -35.448   2.449  0.00  0.00    -0.391 OA
ATOM     82  H36 4J0 d   1       4.314 -35.580   2.384  0.00  0.00     0.210 HD
ENDBRANCH   4  81
BRANCH   5  83
ATOM     83  O46 4J0 d   1       7.855 -36.431   2.709  0.00  0.00    -0.388 OA
ATOM     84  H38 4J0 d   1       7.412 -35.998   3.429  0.00  0.00     0.210 HD
ENDBRANCH   5  83
BRANCH   6  85
ATOM     85  N13 4J0 d   1       9.501 -36.414   0.443  0.00  0.00    -0.229 N 
ATOM     86  C29 4J0 d   1      10.141 -35.305   0.806  0.00  0.00     0.031 A 
ATOM     87  C8  4J0 d   1      11.405 -35.667   0.771  0.00  0.00     0.107 A 
ATOM     88  H40 4J0 d   1       9.721 -34.335   1.068  0.00  0.00     0.117 H 
ATOM     89  N16 4J0 d   1      11.454 -36.943   0.407  0.00  0.00    -0.132 NA
ATOM     90  N18 4J0 d   1      10.328 -37.324   0.225  0.00  0.00    -0.064 NA
BRANCH  87  91
ATOM     91  C2  4J0 d   1      12.627 -34.842   1.104  0.00  0.00     0.111 C 
ATOM     92  C34 4J0 d   1      13.435 -35.716   2.052  0.00  0.00     0.092 C 
ATOM     93  C36 4J0 d   1      14.763 -35.088   2.339  0.00  0.00     0.087 C 
ATOM     94  H42 4J0 d   1      13.601 -36.694   1.576  0.00  0.00     0.091 H 
ATOM     95  C14 4J0 d   1      15.463 -34.938   1.006  0.00  0.00     0.089 C 
ATOM     96  H44 4J0 d   1      14.638 -34.108   2.823  0.00  0.00     0.090 H 
ATOM     97  C19 4J0 d   1      14.653 -33.956   0.155  0.00  0.00     0.084 C 
ATOM     98  H50 4J0 d   1      15.443 -35.910   0.491  0.00  0.00     0.084 H 
ATOM     99  O1  4J0 d   1      13.364 -34.552  -0.099  0.00  0.00    -0.367 OA
ATOM    100  H46 4J0 d   1      14.542 -33.004   0.694  0.00  0.00     0.090 H 
ATOM    101  H41 4J0 d   1      12.342 -33.900   1.596  0.00  0.00     0.097 H 
BRANCH  92 102
ATOM    102  O5  4J0 d   1      12.713 -35.915   3.288  0.00  0.00    -0.390 OA
ATOM    103  H43 4J0 d   1      13.228 -36.462   3.870  0.00  0.00     0.210 HD
ENDBRANCH  92 102
BRANCH  93 104
ATOM    104  O3  4J0 d   1      15.506 -35.967   3.188  0.00  0.00    -0.391 OA
ATOM    105  H45 4J0 d   1      15.028 -36.102   3.998  0.00  0.00     0.210 HD
ENDBRANCH  93 104
BRANCH  95 106
ATOM    106  N10 4J0 d   1      16.886 -34.594   1.215  0.00  0.00    -0.251 N 
ATOM    107  C42 4J0 d   1      17.732 -35.525   0.795  0.00  0.00     0.026 A 
ATOM    108  C41 4J0 d   1      18.935 -35.073   1.068  0.00  0.00     0.075 A 
ATOM    109  H51 4J0 d   1      17.480 -36.472   0.320  0.00  0.00     0.117 H 
ATOM    110  N38 4J0 d   1      18.809 -33.887   1.651  0.00  0.00    -0.135 NA
ATOM    111  N37 4J0 d   1      17.537 -33.640   1.725  0.00  0.00    -0.066 NA
BRANCH 108 112
ATOM    112  C80 4J0 d   1      20.223 -35.829   0.740  0.00  0.00    -0.020 C 
ATOM    113  H52 4J0 d   1      21.013 -35.104   0.497  0.00  0.00     0.042 H 
ATOM    114  H53 4J0 d   1      20.045 -36.482  -0.127  0.00  0.00     0.042 H 
BRANCH 112 115
ATOM    115  C79 4J0 d   1      20.680 -36.689   1.932  0.00  0.00    -0.040 C 
ATOM    116  H54 4J0 d   1      20.997 -36.021   2.747  0.00  0.00     0.036 H 
ATOM    117  H55 4J0 d   1      21.531 -37.308   1.613  0.00  0.00     0.036 H 
BRANCH 115 118
ATOM    118  C69 4J0 d   1      19.585 -37.600   2.450  0.00  0.00     0.023 C 
ATOM    119  H56 4J0 d   1      18.762 -37.007   2.874  0.00  0.00     0.074 H 
ATOM    120  H57 4J0 d   1      19.983 -38.278   3.220  0.00  0.00     0.074 H 
BRANCH 118 121
ATOM    121  O67 4J0 d   1      19.129 -38.347   1.314  0.00  0.00    -0.358 OA
BRANCH 121 122
ATOM    122  C75 4J0 d   1      17.938 -39.113   1.646  0.00  0.00     0.158 C 
ATOM    123  O68 4J0 d   1      18.258 -40.200   2.535  0.00  0.00    -0.348 OA
ATOM    124  C66 4J0 d   1      17.072 -40.938   2.912  0.00  0.00     0.089 C 
ATOM    125  C70 4J0 d   1      16.401 -41.543   1.686  0.00  0.00     0.090 C 
ATOM    126  H59 4J0 d   1      16.367 -40.257   3.411  0.00  0.00     0.090 H 
ATOM    127  C71 4J0 d   1      16.065 -40.430   0.710  0.00  0.00     0.092 C 
ATOM    128  H63 4J0 d   1      15.475 -42.052   1.991  0.00  0.00     0.091 H 
ATOM    129  C72 4J0 d   1      17.321 -39.655   0.365  0.00  0.00     0.110 C 
ATOM    130  H65 4J0 d   1      15.332 -39.751   1.171  0.00  0.00     0.091 H 
ATOM    131  H67 4J0 d   1      18.038 -40.312  -0.149  0.00  0.00     0.094 H 
ATOM    132  H58 4J0 d   1      17.214 -38.450   2.143  0.00  0.00     0.133 H 
BRANCH 124 133
ATOM    133  C78 4J0 d   1      17.458 -42.065   3.871  0.00  0.00     0.043 C 
ATOM    134  H60 4J0 d   1      18.232 -42.692   3.405  0.00  0.00     0.078 H 
ATOM    135  H61 4J0 d   1      16.571 -42.679   4.089  0.00  0.00     0.078 H 
BRANCH 133 136
ATOM    136  O74 4J0 d   1      17.964 -41.514   5.089  0.00  0.00    -0.398 OA
ATOM    137  H62 4J0 d   1      17.295 -40.973   5.493  0.00  0.00     0.209 HD
ENDBRANCH 133 136
ENDBRANCH 124 133
BRANCH 125 138
ATOM    138  O73 4J0 d   1      17.274 -42.492   1.067  0.00  0.00    -0.390 OA
ATOM    139  H64 4J0 d   1      16.847 -42.863   0.304  0.00  0.00     0.210 HD
ENDBRANCH 125 138
BRANCH 127 140
ATOM    140  O77 4J0 d   1      15.507 -40.990  -0.489  0.00  0.00    -0.390 OA
ATOM    141  H66 4J0 d   1      15.298 -40.290  -1.097  0.00  0.00     0.210 HD
ENDBRANCH 127 140
BRANCH 129 142
ATOM    142  O76 4J0 d   1      16.971 -38.552  -0.484  0.00  0.00    -0.388 OA
ATOM    143  H68 4J0 d   1      17.755 -38.062  -0.704  0.00  0.00     0.210 HD
ENDBRANCH 129 142
ENDBRANCH 121 122
ENDBRANCH 118 121
ENDBRANCH 115 118
ENDBRANCH 112 115
ENDBRANCH 108 112
ENDBRANCH  95 106
BRANCH  97 144
ATOM    144  C23 4J0 d   1      15.303 -33.708  -1.209  0.00  0.00     0.043 C 
ATOM    145  H47 4J0 d   1      14.608 -33.139  -1.844  0.00  0.00     0.078 H 
ATOM    146  H48 4J0 d   1      15.527 -34.674  -1.685  0.00  0.00     0.078 H 
BRANCH 144 147
ATOM    147  O11 4J0 d   1      16.514 -32.967  -1.052  0.00  0.00    -0.398 OA
ATOM    148  H49 4J0 d   1      17.116 -33.458  -0.505  0.00  0.00     0.209 HD
ENDBRANCH 144 147
ENDBRANCH  97 144
ENDBRANCH  87  91
ENDBRANCH   6  85
TORSDOF 38
