REMARK WARNING: 32 MAX_TORS EXCEEDED!!!
REMARK  34 active torsions:
REMARK  status: ('A' for Active; 'I' for Inactive)
REMARK    1  A    between atoms: C14_1  and  N13_14 
REMARK    2  A    between atoms: C6_2  and  C8_5 
REMARK    3  A    between atoms: C11_3  and  C10_6 
REMARK    4  A    between atoms: C7_4  and  O5_11 
REMARK    5  A    between atoms: C8_5  and  O33_33 
REMARK    6  A    between atoms: C2_9  and  O32_32 
REMARK    7  A    between atoms: C59_34  and  N4_10 
REMARK    8  A    between atoms: C16_16  and  C19_19 
REMARK    9  A    between atoms: C19_19  and  O20_20 
REMARK   10  A    between atoms: O20_20  and  C22_22 
REMARK   11  A    between atoms: C23_23  and  O25_25 
REMARK   12  A    between atoms: C24_24  and  C29_29 
REMARK   13  A    between atoms: C28_28  and  O26_26 
REMARK   14  A    between atoms: C27_27  and  O30_30 
REMARK   15  A    between atoms: C29_29  and  O31_31 
REMARK   16  A    between atoms: C61_35  and  O72_46 
REMARK   17  A    between atoms: C62_36  and  C71_45 
REMARK   18  A    between atoms: C86_50  and  C63_37 
REMARK   19  A    between atoms: C64_38  and  O73_47 
REMARK   20  A    between atoms: N65_39  and  C68_42 
REMARK   21  A    between atoms: C71_45  and  O74_48 
REMARK   22  A    between atoms: C96_59  and  O88_51 
REMARK   23  A    between atoms: C95_58  and  O89_52 
REMARK   24  A    between atoms: N90_53  and  C92_55 
REMARK   25  A    between atoms: C94_57  and  O91_54 
REMARK   26  A    between atoms: C93_56  and  C94_57 
REMARK   27  A    between atoms: CA1_64  and  C99_62 
REMARK   28  A    between atoms: OA2_65  and  CA1_64 
REMARK   29  A    between atoms: CA8_71  and  OA2_65 
REMARK   30  A    between atoms: CA4_67  and  CB3_76 
REMARK   31  A    between atoms: CA5_68  and  OB1_74 
REMARK   32  A    between atoms: CA6_69  and  OB0_73 
REMARK   33  A    between atoms: CA7_70  and  OA9_72 
REMARK   34  A    between atoms: CB3_76  and  OB2_75 
ROOT
ATOM      1  C59 4J9 d   1      19.660  30.051  34.097  0.00  0.00     0.085 C 
ATOM      2  C61 4J9 d   1      20.008  30.441  35.485  0.00  0.00     0.088 C 
ATOM      3  C62 4J9 d   1      20.745  30.491  33.114  0.00  0.00     0.085 C 
ATOM      4  C64 4J9 d   1      20.352  31.922  35.532  0.00  0.00     0.105 C 
ATOM      5  C68 4J9 d   1      21.422  32.198  34.499  0.00  0.00     0.149 C 
ATOM      6  O70 4J9 d   1      20.940  31.887  33.232  0.00  0.00    -0.353 OA
ATOM      7  H26 4J9 d   1      18.694  30.494  33.814  0.00  0.00     0.083 H 
ATOM      8  H27 4J9 d   1      20.879  29.857  35.817  0.00  0.00     0.090 H 
ATOM      9  H28 4J9 d   1      21.680  29.969  33.364  0.00  0.00     0.090 H 
ATOM     10  H29 4J9 d   1      19.458  32.522  35.308  0.00  0.00     0.093 H 
ATOM     11  H30 4J9 d   1      22.322  31.607  34.725  0.00  0.00     0.124 H 
ENDROOT
BRANCH   1  12
ATOM     12  N4  4J9 d   1      19.594  28.592  34.048  0.00  0.00    -0.273 N 
ATOM     13  N1  4J9 d   1      18.575  27.834  33.554  0.00  0.00     0.005 NA
ATOM     14  N12 4J9 d   1      18.972  26.472  33.731  0.00  0.00    -0.160 NA
ATOM     15  C11 4J9 d   1      20.261  26.538  34.341  0.00  0.00     0.100 A 
ATOM     16  C3  4J9 d   1      20.599  27.842  34.512  0.00  0.00     0.023 A 
ATOM     17  H7  4J9 d   1      21.525  28.212  34.950  0.00  0.00     0.117 H 
BRANCH  15  18
ATOM     18  C10 4J9 d   1      21.182  25.389  34.772  0.00  0.00     0.110 C 
ATOM     19  C2  4J9 d   1      20.686  24.887  36.112  0.00  0.00     0.092 C 
ATOM     20  C7  4J9 d   1      21.298  23.552  36.415  0.00  0.00     0.086 C 
ATOM     21  H8  4J9 d   1      19.590  24.802  36.085  0.00  0.00     0.091 H 
ATOM     22  C14 4J9 d   1      21.102  22.646  35.234  0.00  0.00     0.085 C 
ATOM     23  H3  4J9 d   1      22.374  23.677  36.604  0.00  0.00     0.090 H 
ATOM     24  C6  4J9 d   1      21.807  23.229  34.023  0.00  0.00     0.083 C 
ATOM     25  H1  4J9 d   1      20.035  22.492  35.017  0.00  0.00     0.083 H 
ATOM     26  O9  4J9 d   1      21.163  24.430  33.778  0.00  0.00    -0.367 OA
ATOM     27  H2  4J9 d   1      22.867  23.408  34.254  0.00  0.00     0.090 H 
ATOM     28  H6  4J9 d   1      22.212  25.756  34.889  0.00  0.00     0.097 H 
BRANCH  19  29
ATOM     29  O32 4J9 d   1      21.072  25.756  37.144  0.00  0.00    -0.390 OA
ATOM     30  H24 4J9 d   1      22.020  25.814  37.170  0.00  0.00     0.210 HD
ENDBRANCH  19  29
BRANCH  20  31
ATOM     31  O5  4J9 d   1      20.683  22.993  37.566  0.00  0.00    -0.391 OA
ATOM     32  H9  4J9 d   1      19.753  22.884  37.406  0.00  0.00     0.210 HD
ENDBRANCH  20  31
BRANCH  22  33
ATOM     33  N13 4J9 d   1      21.727  21.445  35.618  0.00  0.00    -0.273 N 
ATOM     34  C15 4J9 d   1      21.098  20.394  36.247  0.00  0.00     0.023 A 
ATOM     35  C16 4J9 d   1      22.071  19.449  36.457  0.00  0.00     0.092 A 
ATOM     36  H10 4J9 d   1      20.046  20.326  36.521  0.00  0.00     0.116 H 
ATOM     37  N17 4J9 d   1      23.287  19.907  35.987  0.00  0.00    -0.161 NA
ATOM     38  N18 4J9 d   1      23.075  21.163  35.464  0.00  0.00     0.005 NA
BRANCH  35  39
ATOM     39  C19 4J9 d   1      21.860  18.114  37.127  0.00  0.00     0.065 C 
ATOM     40  H11 4J9 d   1      22.193  17.295  36.473  0.00  0.00     0.084 H 
ATOM     41  H12 4J9 d   1      20.800  17.972  37.382  0.00  0.00     0.084 H 
BRANCH  39  42
ATOM     42  O20 4J9 d   1      22.653  18.170  38.300  0.00  0.00    -0.352 OA
BRANCH  42  43
ATOM     43  C22 4J9 d   1      22.644  16.933  38.900  0.00  0.00     0.159 C 
ATOM     44  O21 4J9 d   1      21.714  16.967  39.979  0.00  0.00    -0.348 OA
ATOM     45  C24 4J9 d   1      21.604  15.730  40.599  0.00  0.00     0.089 C 
ATOM     46  C23 4J9 d   1      22.910  15.248  41.148  0.00  0.00     0.090 C 
ATOM     47  H15 4J9 d   1      21.249  14.992  39.865  0.00  0.00     0.090 H 
ATOM     48  C28 4J9 d   1      24.001  15.273  40.059  0.00  0.00     0.092 C 
ATOM     49  H14 4J9 d   1      22.773  14.217  41.507  0.00  0.00     0.091 H 
ATOM     50  C27 4J9 d   1      24.021  16.615  39.400  0.00  0.00     0.110 C 
ATOM     51  H19 4J9 d   1      23.762  14.512  39.302  0.00  0.00     0.091 H 
ATOM     52  H18 4J9 d   1      24.343  17.385  40.117  0.00  0.00     0.094 H 
ATOM     53  H13 4J9 d   1      22.335  16.168  38.172  0.00  0.00     0.133 H 
BRANCH  45  54
ATOM     54  C29 4J9 d   1      20.542  15.884  41.725  0.00  0.00     0.043 C 
ATOM     55  H20 4J9 d   1      20.851  16.694  42.403  0.00  0.00     0.078 H 
ATOM     56  H21 4J9 d   1      20.474  14.941  42.287  0.00  0.00     0.078 H 
BRANCH  54  57
ATOM     57  O31 4J9 d   1      19.290  16.188  41.191  0.00  0.00    -0.398 OA
ATOM     58  H23 4J9 d   1      19.343  17.004  40.707  0.00  0.00     0.209 HD
ENDBRANCH  54  57
ENDBRANCH  45  54
BRANCH  46  59
ATOM     59  O25 4J9 d   1      23.392  16.060  42.229  0.00  0.00    -0.390 OA
ATOM     60  H16 4J9 d   1      22.758  16.052  42.937  0.00  0.00     0.210 HD
ENDBRANCH  46  59
BRANCH  48  61
ATOM     61  O26 4J9 d   1      25.241  14.978  40.603  0.00  0.00    -0.390 OA
ATOM     62  H17 4J9 d   1      25.899  14.998  39.918  0.00  0.00     0.210 HD
ENDBRANCH  48  61
BRANCH  50  63
ATOM     63  O30 4J9 d   1      24.949  16.553  38.293  0.00  0.00    -0.388 OA
ATOM     64  H22 4J9 d   1      24.978  17.397  37.858  0.00  0.00     0.210 HD
ENDBRANCH  50  63
ENDBRANCH  42  43
ENDBRANCH  39  42
ENDBRANCH  35  39
ENDBRANCH  22  33
BRANCH  24  65
ATOM     65  C8  4J9 d   1      21.717  22.301  32.821  0.00  0.00     0.043 C 
ATOM     66  H4  4J9 d   1      22.401  21.451  32.962  0.00  0.00     0.078 H 
ATOM     67  H5  4J9 d   1      21.998  22.852  31.911  0.00  0.00     0.078 H 
BRANCH  65  68
ATOM     68  O33 4J9 d   1      20.394  21.823  32.692  0.00  0.00    -0.398 OA
ATOM     69  H25 4J9 d   1      20.340  21.244  31.941  0.00  0.00     0.209 HD
ENDBRANCH  65  68
ENDBRANCH  24  65
ENDBRANCH  15  18
ENDBRANCH   1  12
BRANCH   2  70
ATOM     70  O72 4J9 d   1      18.920  30.178  36.340  0.00  0.00    -0.391 OA
ATOM     71  H34 4J9 d   1      18.168  30.685  36.059  0.00  0.00     0.210 HD
ENDBRANCH   2  70
BRANCH   3  72
ATOM     72  C71 4J9 d   1      20.381  30.178  31.703  0.00  0.00     0.043 C 
ATOM     73  H32 4J9 d   1      20.658  29.137  31.483  0.00  0.00     0.078 H 
ATOM     74  H33 4J9 d   1      20.931  30.854  31.032  0.00  0.00     0.078 H 
BRANCH  72  75
ATOM     75  O74 4J9 d   1      18.957  30.346  31.481  0.00  0.00    -0.398 OA
ATOM     76  H36 4J9 d   1      18.477  29.762  32.056  0.00  0.00     0.209 HD
ENDBRANCH  72  75
ENDBRANCH   3  72
BRANCH   4  77
ATOM     77  O73 4J9 d   1      20.820  32.239  36.808  0.00  0.00    -0.388 OA
ATOM     78  H35 4J9 d   1      20.140  32.061  37.447  0.00  0.00     0.210 HD
ENDBRANCH   4  77
BRANCH   5  79
ATOM     79  N65 4J9 d   1      21.729  33.589  34.487  0.00  0.00    -0.252 N 
ATOM     80  N67 4J9 d   1      22.916  34.182  34.146  0.00  0.00     0.007 NA
ATOM     81  N66 4J9 d   1      22.780  35.552  34.261  0.00  0.00    -0.160 NA
ATOM     82  C63 4J9 d   1      21.495  35.798  34.668  0.00  0.00     0.100 A 
ATOM     83  C69 4J9 d   1      20.799  34.590  34.817  0.00  0.00     0.025 A 
ATOM     84  H31 4J9 d   1      19.762  34.456  35.122  0.00  0.00     0.117 H 
BRANCH  82  85
ATOM     85  C86 4J9 d   1      20.856  37.132  34.937  0.00  0.00     0.110 C 
ATOM     86  O85 4J9 d   1      21.165  37.999  33.852  0.00  0.00    -0.367 OA
ATOM     87  C93 4J9 d   1      20.448  39.219  34.044  0.00  0.00     0.083 C 
ATOM     88  C92 4J9 d   1      21.056  39.872  35.254  0.00  0.00     0.085 C 
ATOM     89  H42 4J9 d   1      19.386  39.007  34.237  0.00  0.00     0.090 H 
ATOM     90  C96 4J9 d   1      20.846  39.018  36.487  0.00  0.00     0.086 C 
ATOM     91  H41 4J9 d   1      22.123  40.066  35.073  0.00  0.00     0.083 H 
ATOM     92  C95 4J9 d   1      21.372  37.637  36.250  0.00  0.00     0.092 C 
ATOM     93  H46 4J9 d   1      19.769  38.959  36.705  0.00  0.00     0.090 H 
ATOM     94  H45 4J9 d   1      22.472  37.642  36.238  0.00  0.00     0.091 H 
ATOM     95  H37 4J9 d   1      19.764  37.018  35.002  0.00  0.00     0.097 H 
BRANCH  87  96
ATOM     96  C94 4J9 d   1      20.556  40.078  32.791  0.00  0.00     0.043 C 
ATOM     97  H43 4J9 d   1      20.582  39.425  31.907  0.00  0.00     0.078 H 
ATOM     98  H44 4J9 d   1      19.681  40.741  32.732  0.00  0.00     0.078 H 
BRANCH  96  99
ATOM     99  O91 4J9 d   1      21.756  40.879  32.823  0.00  0.00    -0.398 OA
ATOM    100  H40 4J9 d   1      21.736  41.447  33.584  0.00  0.00     0.209 HD
ENDBRANCH  96  99
ENDBRANCH  87  96
BRANCH  88 101
ATOM    101  N90 4J9 d   1      20.366  41.057  35.605  0.00  0.00    -0.273 N 
ATOM    102  N97 4J9 d   1      19.022  41.284  35.443  0.00  0.00     0.005 NA
ATOM    103  N98 4J9 d   1      18.768  42.569  35.963  0.00  0.00    -0.161 NA
ATOM    104  C99 4J9 d   1      19.968  43.073  36.447  0.00  0.00     0.092 A 
ATOM    105  CA0 4J9 d   1      20.963  42.159  36.252  0.00  0.00     0.023 A 
ATOM    106  H47 4J9 d   1      22.009  42.260  36.539  0.00  0.00     0.116 H 
BRANCH 104 107
ATOM    107  CA1 4J9 d   1      20.150  44.442  37.101  0.00  0.00     0.065 C 
ATOM    108  H48 4J9 d   1      19.778  45.238  36.440  0.00  0.00     0.084 H 
ATOM    109  H49 4J9 d   1      21.210  44.622  37.331  0.00  0.00     0.084 H 
BRANCH 107 110
ATOM    110  OA2 4J9 d   1      19.386  44.388  38.291  0.00  0.00    -0.352 OA
BRANCH 110 111
ATOM    111  CA8 4J9 d   1      19.387  45.629  38.906  0.00  0.00     0.159 C 
ATOM    112  OA3 4J9 d   1      20.323  45.558  39.989  0.00  0.00    -0.348 OA
ATOM    113  CA4 4J9 d   1      20.429  46.796  40.585  0.00  0.00     0.089 C 
ATOM    114  CA5 4J9 d   1      19.118  47.309  41.152  0.00  0.00     0.090 C 
ATOM    115  H50 4J9 d   1      20.795  47.519  39.841  0.00  0.00     0.090 H 
ATOM    116  CA6 4J9 d   1      18.064  47.298  40.076  0.00  0.00     0.092 C 
ATOM    117  H51 4J9 d   1      19.263  48.333  41.527  0.00  0.00     0.091 H 
ATOM    118  CA7 4J9 d   1      18.006  45.967  39.403  0.00  0.00     0.110 C 
ATOM    119  H52 4J9 d   1      18.310  48.064  39.326  0.00  0.00     0.091 H 
ATOM    120  H53 4J9 d   1      17.671  45.198  40.115  0.00  0.00     0.094 H 
ATOM    121  H54 4J9 d   1      19.708  46.400  38.190  0.00  0.00     0.133 H 
BRANCH 113 122
ATOM    122  CB3 4J9 d   1      21.441  46.667  41.720  0.00  0.00     0.043 C 
ATOM    123  H59 4J9 d   1      21.134  45.855  42.395  0.00  0.00     0.078 H 
ATOM    124  H60 4J9 d   1      21.485  47.612  42.281  0.00  0.00     0.078 H 
BRANCH 122 125
ATOM    125  OB2 4J9 d   1      22.716  46.377  41.184  0.00  0.00    -0.398 OA
ATOM    126  H58 4J9 d   1      22.677  45.560  40.700  0.00  0.00     0.209 HD
ENDBRANCH 122 125
ENDBRANCH 113 122
BRANCH 114 127
ATOM    127  OB1 4J9 d   1      18.646  46.470  42.213  0.00  0.00    -0.390 OA
ATOM    128  H57 4J9 d   1      19.289  46.454  42.912  0.00  0.00     0.210 HD
ENDBRANCH 114 127
BRANCH 116 129
ATOM    129  OB0 4J9 d   1      16.822  47.598  40.650  0.00  0.00    -0.390 OA
ATOM    130  H56 4J9 d   1      16.157  47.619  39.971  0.00  0.00     0.210 HD
ENDBRANCH 116 129
BRANCH 118 131
ATOM    131  OA9 4J9 d   1      17.087  46.047  38.320  0.00  0.00    -0.388 OA
ATOM    132  H55 4J9 d   1      17.370  46.723  37.715  0.00  0.00     0.210 HD
ENDBRANCH 118 131
ENDBRANCH 110 111
ENDBRANCH 107 110
ENDBRANCH 104 107
ENDBRANCH  88 101
BRANCH  90 133
ATOM    133  O88 4J9 d   1      21.510  39.603  37.589  0.00  0.00    -0.391 OA
ATOM    134  H38 4J9 d   1      22.439  39.664  37.401  0.00  0.00     0.210 HD
ENDBRANCH  90 133
BRANCH  92 135
ATOM    135  O89 4J9 d   1      20.895  36.822  37.325  0.00  0.00    -0.390 OA
ATOM    136  H39 4J9 d   1      19.945  36.842  37.339  0.00  0.00     0.210 HD
ENDBRANCH  92 135
ENDBRANCH  82  85
ENDBRANCH   5  79
TORSDOF 34
