REMARK  5 active torsions:
REMARK  status: ('A' for Active; 'I' for Inactive)
REMARK    1  A    between atoms: C1_1  and  C13_13 
REMARK    2  A    between atoms: O2_19  and  C2_2 
REMARK    3  A    between atoms: C7_7  and  O2_19 
REMARK    4  A    between atoms: C8_8  and  O1_20 
REMARK    5  A    between atoms: C13_13  and  C14_14 
ROOT
ATOM      1  C1  4HY d   1     -23.361  28.150  34.859  0.00  0.00    -0.046 A 
ATOM      2  C3  4HY d   1     -23.457  26.777  34.704  0.00  0.00    -0.058 A 
ATOM      3  C5  4HY d   1     -23.426  26.235  33.434  0.00  0.00     0.042 A 
ATOM      4  C7  4HY d   1     -23.293  27.026  32.319  0.00  0.00     0.109 A 
ATOM      5  C9  4HY d   1     -23.219  28.424  32.485  0.00  0.00     0.042 A 
ATOM      6  C11 4HY d   1     -23.251  28.968  33.751  0.00  0.00    -0.058 A 
ATOM      7  I1  4HY d   1     -23.547  24.083  33.167  0.00  0.00    -0.042 I 
ATOM      8  I3  4HY d   1     -23.030  29.783  30.847  0.00  0.00    -0.042 I 
ATOM      9  H1  4HY d   1     -23.555  26.134  35.571  0.00  0.00     0.086 H 
ATOM     10  H4  4HY d   1     -23.190  30.043  33.878  0.00  0.00     0.086 H 
ENDROOT
BRANCH   4  11
ATOM     11  O2  4HY d   1     -23.297  26.397  31.066  0.00  0.00    -0.308 OA
BRANCH  11  12
ATOM     12  C2  4HY d   1     -22.215  25.715  30.617  0.00  0.00     0.077 A 
ATOM     13  C4  4HY d   1     -22.339  24.921  29.485  0.00  0.00    -0.032 A 
ATOM     14  C6  4HY d   1     -21.274  24.209  28.957  0.00  0.00     0.042 A 
ATOM     15  H2  4HY d   1     -23.304  24.856  28.996  0.00  0.00     0.089 H 
ATOM     16  C8  4HY d   1     -20.054  24.284  29.580  0.00  0.00     0.082 A 
ATOM     17  I2  4HY d   1     -21.573  23.051  27.268  0.00  0.00    -0.042 I 
ATOM     18  C10 4HY d   1     -19.912  25.066  30.718  0.00  0.00    -0.047 A 
ATOM     19  C12 4HY d   1     -20.989  25.768  31.247  0.00  0.00    -0.048 A 
ATOM     20  H3  4HY d   1     -18.945  25.130  31.203  0.00  0.00     0.087 H 
ATOM     21  H5  4HY d   1     -20.866  26.354  32.150  0.00  0.00     0.087 H 
BRANCH  16  22
ATOM     22  O1  4HY d   1     -18.969  23.571  29.086  0.00  0.00    -0.359 OA
ATOM     23  H8  4HY d   1     -18.269  24.174  28.864  0.00  0.00     0.217 HD
ENDBRANCH  16  22
ENDBRANCH  11  12
ENDBRANCH   4  11
BRANCH   1  24
ATOM     24  C13 4HY d   1     -23.410  28.776  36.251  0.00  0.00     0.040 C 
ATOM     25  H6  4HY d   1     -22.619  29.536  36.328  0.00  0.00     0.056 H 
ATOM     26  H7  4HY d   1     -23.238  27.990  37.001  0.00  0.00     0.056 H 
BRANCH  24  27
ATOM     27  C14 4HY d   1     -24.745  29.430  36.525  0.00  0.00     0.176 C 
ATOM     28  O3  4HY d   1     -25.054  30.529  35.915  0.00  0.00    -0.648 OA
ATOM     29  O4  4HY d   1     -25.573  28.882  37.338  0.00  0.00    -0.648 OA
ENDBRANCH  24  27
ENDBRANCH   1  24
TORSDOF 5
