REMARK  7 active torsions:
REMARK  status: ('A' for Active; 'I' for Inactive)
REMARK       I    between atoms: N_1  and  C8_14 
REMARK    1  A    between atoms: C9_15  and  N_1 
REMARK    2  A    between atoms: C2_5  and  C1_2 
REMARK    3  A    between atoms: C11_17  and  O2_7 
REMARK    4  A    between atoms: O2_7  and  C15_21 
REMARK    5  A    between atoms: C8_14  and  C3_8 
REMARK    6  A    between atoms: C15_21  and  C16_22 
REMARK    7  A    between atoms: C15_21  and  C17_23 
ROOT
ATOM      1  C9  FTN d   1     -18.899 -23.721  61.319  0.00  0.00     0.037 A 
ATOM      2  C10 FTN d   1     -18.465 -22.443  60.971  0.00  0.00    -0.025 A 
ATOM      3  C11 FTN d   1     -17.135 -22.068  61.171  0.00  0.00     0.071 A 
ATOM      4  C12 FTN d   1     -16.245 -22.987  61.735  0.00  0.00    -0.051 A 
ATOM      5  C13 FTN d   1     -16.676 -24.257  62.106  0.00  0.00    -0.078 A 
ATOM      6  C14 FTN d   1     -18.004 -24.624  61.906  0.00  0.00    -0.057 A 
ATOM      7  H6  FTN d   1     -19.165 -21.735  60.542  0.00  0.00     0.091 H 
ATOM      8  H7  FTN d   1     -15.209 -22.707  61.885  0.00  0.00     0.087 H 
ATOM      9  H8  FTN d   1     -15.979 -24.959  62.550  0.00  0.00     0.083 H 
ATOM     10  H9  FTN d   1     -18.345 -25.609  62.205  0.00  0.00     0.086 H 
ENDROOT
BRANCH   1  11
ATOM     11  N   FTN d   1     -20.253 -24.030  61.140  0.00  0.00    -0.323 N 
ATOM     12  C8  FTN d   1     -20.768 -25.244  60.940  0.00  0.00     0.257 C 
ATOM     13  O1  FTN d   1     -20.094 -26.270  60.843  0.00  0.00    -0.267 OA
ATOM     14  H1  FTN d   1     -20.897 -23.265  61.164  0.00  0.00     0.169 HD
BRANCH  12  15
ATOM     15  C3  FTN d   1     -22.274 -25.307  60.843  0.00  0.00     0.047 A 
ATOM     16  C2  FTN d   1     -23.016 -26.152  59.865  0.00  0.00     0.063 A 
ATOM     17  C7  FTN d   1     -24.405 -26.118  59.897  0.00  0.00    -0.067 A 
ATOM     18  C6  FTN d   1     -25.094 -25.329  60.809  0.00  0.00    -0.082 A 
ATOM     19  H5  FTN d   1     -24.965 -26.723  59.192  0.00  0.00     0.084 H 
ATOM     20  C5  FTN d   1     -24.407 -24.543  61.718  0.00  0.00    -0.082 A 
ATOM     21  H4  FTN d   1     -26.178 -25.329  60.809  0.00  0.00     0.083 H 
ATOM     22  C4  FTN d   1     -23.017 -24.535  61.737  0.00  0.00    -0.067 A 
ATOM     23  H3  FTN d   1     -24.958 -23.928  62.421  0.00  0.00     0.083 H 
ATOM     24  H2  FTN d   1     -22.500 -23.916  62.461  0.00  0.00     0.085 H 
BRANCH  16  25
ATOM     25  C1  FTN d   1     -22.335 -27.041  58.857  0.00  0.00     0.418 C 
ATOM     26  F1  FTN d   1     -21.070 -26.718  58.690  0.00  0.00    -0.166 F 
ATOM     27  F2  FTN d   1     -22.348 -28.286  59.287  0.00  0.00    -0.166 F 
ATOM     28  F3  FTN d   1     -22.978 -26.952  57.706  0.00  0.00    -0.166 F 
ENDBRANCH  16  25
ENDBRANCH  12  15
ENDBRANCH   1  11
BRANCH   3  29
ATOM     29  O2  FTN d   1     -16.711 -20.800  60.803  0.00  0.00    -0.347 OA
BRANCH  29  30
ATOM     30  C15 FTN d   1     -15.982 -19.900  61.671  0.00  0.00     0.038 C 
ATOM     31  H10 FTN d   1     -15.736 -20.439  62.598  0.00  0.00     0.082 H 
BRANCH  30  32
ATOM     32  C16 FTN d   1     -14.672 -19.470  61.007  0.00  0.00    -0.052 C 
ATOM     33  H11 FTN d   1     -14.129 -18.787  61.676  0.00  0.00     0.030 H 
ATOM     34  H12 FTN d   1     -14.892 -18.956  60.060  0.00  0.00     0.030 H 
ATOM     35  H13 FTN d   1     -14.053 -20.357  60.808  0.00  0.00     0.030 H 
ENDBRANCH  30  32
BRANCH  30  36
ATOM     36  C17 FTN d   1     -16.843 -18.689  62.040  0.00  0.00    -0.052 C 
ATOM     37  H14 FTN d   1     -16.271 -18.019  62.699  0.00  0.00     0.030 H 
ATOM     38  H15 FTN d   1     -17.750 -19.029  62.561  0.00  0.00     0.030 H 
ATOM     39  H16 FTN d   1     -17.127 -18.148  61.125  0.00  0.00     0.030 H 
ENDBRANCH  30  36
ENDBRANCH  29  30
ENDBRANCH   3  29
TORSDOF 7
