REMARK  4 active torsions:
REMARK  status: ('A' for Active; 'I' for Inactive)
REMARK    1  A    between atoms: S_2  and  N_4 
REMARK    2  A    between atoms: S_2  and  C5_5 
REMARK    3  A    between atoms: C2_10  and  C1_11 
REMARK    4  A    between atoms: C1_11  and  C_12 
ROOT
ATOM      1  C5  4JC d   1     -27.343   0.760  83.045  0.00  0.00     0.079 A 
ATOM      2  C4  4JC d   1     -26.838   1.686  82.148  0.00  0.00    -0.060 A 
ATOM      3  C3  4JC d   1     -25.965   1.267  81.161  0.00  0.00    -0.075 A 
ATOM      4  C6  4JC d   1     -26.980  -0.572  82.956  0.00  0.00    -0.060 A 
ATOM      5  C7  4JC d   1     -26.106  -0.972  81.963  0.00  0.00    -0.075 A 
ATOM      6  C2  4JC d   1     -25.588  -0.063  81.054  0.00  0.00    -0.058 A 
ATOM      7  H3  4JC d   1     -27.124   2.729  82.219  0.00  0.00     0.085 H 
ATOM      8  H4  4JC d   1     -25.568   1.991  80.459  0.00  0.00     0.084 H 
ATOM      9  H5  4JC d   1     -27.378  -1.295  83.659  0.00  0.00     0.085 H 
ATOM     10  H6  4JC d   1     -25.820  -2.015  81.894  0.00  0.00     0.084 H 
ENDROOT
BRANCH   6  11
ATOM     11  C1  4JC d   1     -24.638  -0.513  79.964  0.00  0.00    -0.044 C 
ATOM     12  H7  4JC d   1     -24.989  -1.481  79.577  0.00  0.00     0.039 H 
ATOM     13  H8  4JC d   1     -23.638  -0.635  80.405  0.00  0.00     0.039 H 
BRANCH  11  14
ATOM     14  C   4JC d   1     -24.532   0.448  78.809  0.00  0.00    -0.073 C 
ATOM     15  H9  4JC d   1     -23.826   0.050  78.065  0.00  0.00     0.028 H 
ATOM     16  H10 4JC d   1     -24.171   1.421  79.173  0.00  0.00     0.028 H 
ATOM     17  H11 4JC d   1     -25.521   0.575  78.345  0.00  0.00     0.028 H 
ENDBRANCH  11  14
ENDBRANCH   6  11
BRANCH   1  18
ATOM     18  S   4JC d   1     -28.457   1.274  84.315  0.00  0.00     0.256 S 
ATOM     19  O1  4JC d   1     -29.312   0.163  84.606  0.00  0.00    -0.201 OA
ATOM     20  O   4JC d   1     -29.051   2.513  83.896  0.00  0.00    -0.201 OA
BRANCH  18  21
ATOM     21  N   4JC d   1     -27.609   1.574  85.644  0.00  0.00    -0.324 N 
ATOM     22  H1  4JC d   1     -27.113   0.834  86.098  0.00  0.00     0.169 HD
ATOM     23  H2  4JC d   1     -27.577   2.501  86.018  0.00  0.00     0.169 HD
ENDBRANCH  18  21
ENDBRANCH   1  18
TORSDOF 4
