REMARK  5 active torsions:
REMARK  status: ('A' for Active; 'I' for Inactive)
REMARK    1  A    between atoms: C2_3  and  C1_1 
REMARK    2  A    between atoms: C1_1  and  C_13 
REMARK    3  A    between atoms: C3_5  and  C2_3 
REMARK    4  A    between atoms: S_7  and  N_9 
REMARK    5  A    between atoms: S_7  and  C6_10 
ROOT
ATOM      1  C5  4JE d   1      15.802   2.603  82.084  0.00  0.00    -0.060 A 
ATOM      2  C8  4JE d   1      16.527  -0.045  81.777  0.00  0.00    -0.075 A 
ATOM      3  C3  4JE d   1      17.074   0.909  80.931  0.00  0.00    -0.058 A 
ATOM      4  C6  4JE d   1      15.269   1.635  82.918  0.00  0.00     0.079 A 
ATOM      5  C4  4JE d   1      16.698   2.233  81.099  0.00  0.00    -0.075 A 
ATOM      6  C7  4JE d   1      15.627   0.306  82.766  0.00  0.00    -0.060 A 
ATOM      7  H3  4JE d   1      15.519   3.643  82.203  0.00  0.00     0.085 H 
ATOM      8  H6  4JE d   1      16.811  -1.085  81.660  0.00  0.00     0.084 H 
ATOM      9  H9  4JE d   1      17.114   2.991  80.446  0.00  0.00     0.084 H 
ATOM     10  H10 4JE d   1      15.206  -0.452  83.416  0.00  0.00     0.085 H 
ENDROOT
BRANCH   3  11
ATOM     11  C2  4JE d   1      18.060   0.514  79.857  0.00  0.00    -0.041 C 
ATOM     12  H4  4JE d   1      19.052   0.893  80.144  0.00  0.00     0.040 H 
ATOM     13  H5  4JE d   1      18.089  -0.584  79.803  0.00  0.00     0.040 H 
BRANCH  11  14
ATOM     14  C1  4JE d   1      17.728   1.049  78.478  0.00  0.00    -0.065 C 
ATOM     15  H1  4JE d   1      17.675   2.146  78.532  0.00  0.00     0.032 H 
ATOM     16  H2  4JE d   1      16.750   0.649  78.173  0.00  0.00     0.032 H 
BRANCH  14  17
ATOM     17  C   4JE d   1      18.754   0.666  77.429  0.00  0.00    -0.076 C 
ATOM     18  H11 4JE d   1      18.456   1.083  76.456  0.00  0.00     0.027 H 
ATOM     19  H12 4JE d   1      18.812  -0.430  77.356  0.00  0.00     0.027 H 
ATOM     20  H13 4JE d   1      19.738   1.067  77.714  0.00  0.00     0.027 H 
ENDBRANCH  14  17
ENDBRANCH  11  14
ENDBRANCH   3  11
BRANCH   4  21
ATOM     21  S   4JE d   1      14.137   2.105  84.192  0.00  0.00     0.256 S 
ATOM     22  O1  4JE d   1      13.506   3.320  83.768  0.00  0.00    -0.201 OA
ATOM     23  O   4JE d   1      13.322   0.965  84.483  0.00  0.00    -0.201 OA
BRANCH  21  24
ATOM     24  N   4JE d   1      14.970   2.446  85.516  0.00  0.00    -0.324 N 
ATOM     25  H7  4JE d   1      15.606   3.217  85.522  0.00  0.00     0.169 HD
ATOM     26  H8  4JE d   1      14.854   1.887  86.337  0.00  0.00     0.169 HD
ENDBRANCH  21  24
ENDBRANCH   4  21
TORSDOF 5
