REMARK WARNING: 32 MAX_TORS EXCEEDED!!!
REMARK  44 active torsions:
REMARK  status: ('A' for Active; 'I' for Inactive)
REMARK    1  A    between atoms: CA_2  and  N_1 
REMARK    2  A    between atoms: C_3  and  CA_2 
REMARK       I    between atoms: N_5  and  C_3 
REMARK    3  A    between atoms: CA_6  and  N_5 
REMARK    4  A    between atoms: C_7  and  CA_6 
REMARK    5  A    between atoms: CA_6  and  CB_9 
REMARK       I    between atoms: N_16  and  C_7 
REMARK    6  A    between atoms: CB_9  and  CG_10 
REMARK    7  A    between atoms: CG_10  and  CD_11 
REMARK    8  A    between atoms: CD_11  and  NE_12 
REMARK       I    between atoms: NE_12  and  CZ_13 
REMARK       I    between atoms: CZ_13  and  NH1_14 
REMARK    9  A    between atoms: CA_17  and  N_16 
REMARK   10  A    between atoms: C_18  and  CA_17 
REMARK       I    between atoms: N_21  and  C_18 
REMARK   11  A    between atoms: C_20  and  CA_23 
REMARK       I    between atoms: N_34  and  C_20 
REMARK   12  A    between atoms: CA_23  and  N_21 
REMARK   13  A    between atoms: CA_23  and  CB_24 
REMARK   14  A    between atoms: CB_24  and  CG_27 
REMARK   15  A    between atoms: CD_25  and  CE_26 
REMARK   16  A    between atoms: CG_27  and  CD_25 
REMARK   17  A    between atoms: CE_26  and  NZ_28 
REMARK       I    between atoms: NZ_28  and  CAN_33 
REMARK   18  A    between atoms: CAF_31  and  CAA_29 
REMARK   19  A    between atoms: CAJ_32  and  CAF_31 
REMARK   20  A    between atoms: CAN_33  and  CAJ_32 
REMARK   21  A    between atoms: CA_35  and  N_34 
REMARK   22  A    between atoms: C_36  and  CA_35 
REMARK       I    between atoms: N_38  and  C_36 
REMARK   23  A    between atoms: CA_39  and  N_38 
REMARK   24  A    between atoms: C_40  and  CA_39 
REMARK       I    between atoms: N_43  and  C_40 
REMARK   25  A    between atoms: CA_45  and  C_42 
REMARK       I    between atoms: C_42  and  N_56 
REMARK   26  A    between atoms: CA_45  and  N_43 
REMARK   27  A    between atoms: CB_46  and  CA_45 
REMARK   28  A    between atoms: CG_49  and  CB_46 
REMARK   29  A    between atoms: CE_48  and  CD_47 
REMARK   30  A    between atoms: CD_47  and  CG_49 
REMARK   31  A    between atoms: NZ_50  and  CE_48 
REMARK       I    between atoms: CAN_55  and  NZ_50 
REMARK   32  A    between atoms: CAF_53  and  CAA_51 
REMARK   33  A    between atoms: CAJ_54  and  CAF_53 
REMARK   34  A    between atoms: CAJ_54  and  CAN_55 
REMARK   35  A    between atoms: N_56  and  CA_57 
REMARK   36  A    between atoms: CA_57  and  C_58 
REMARK       I    between atoms: C_58  and  N_60 
REMARK   37  A    between atoms: N_60  and  CA_61 
REMARK   38  A    between atoms: CA_61  and  C_62 
REMARK   39  A    between atoms: CA_61  and  CB_64 
REMARK       I    between atoms: C_62  and  N_68 
REMARK   40  A    between atoms: CB_64  and  CG_65 
REMARK   41  A    between atoms: CG_65  and  CD1_66 
REMARK   42  A    between atoms: CG_65  and  CD2_67 
REMARK   43  A    between atoms: N_68  and  CA_69 
REMARK   44  A    between atoms: CA_69  and  C_70 
ROOT
ATOM      1  CA  GLY d   1     -37.706 -13.832   2.871  0.00  0.00     0.069 C 
ATOM      2  H41 GLY d   1     -37.755 -14.334   1.894  0.00  0.00     0.078 H 
ATOM      3  H42 GLY d   1     -38.484 -13.056   2.924  0.00  0.00     0.078 H 
ENDROOT
BRANCH   1   4
ATOM      4  N   GLY d   1     -36.395 -13.211   3.029  0.00  0.00    -0.351 N 
ATOM      5  C   BTK d   1     -35.971 -12.513   4.116  0.00  0.00     0.240 C 
ATOM      6  O   BTK d   1     -36.640 -12.402   5.176  0.00  0.00    -0.271 OA
ATOM      7  H40 GLY d   1     -35.751 -13.307   2.270  0.00  0.00     0.163 HD
BRANCH   5   8
ATOM      8  CA  BTK d   1     -34.544 -11.867   4.011  0.00  0.00     0.089 C 
ATOM      9  H23 BTK d   1     -34.368 -11.528   2.979  0.00  0.00     0.087 H 
BRANCH   8  10
ATOM     10  N   BTK d   1     -34.511 -10.711   4.925  0.00  0.00    -0.346 N 
ATOM     11  C   GLY d   1     -35.043  -9.534   4.615  0.00  0.00     0.236 C 
ATOM     12  O   GLY d   1     -35.903  -9.365   3.695  0.00  0.00    -0.272 OA
ATOM     13  H22 BTK d   1     -34.069 -10.817   5.816  0.00  0.00     0.163 HD
BRANCH  11  14
ATOM     14  CA  GLY d   1     -34.692  -8.396   5.506  0.00  0.00     0.069 C 
ATOM     15  H20 GLY d   1     -35.230  -8.513   6.458  0.00  0.00     0.078 H 
ATOM     16  H21 GLY d   1     -33.608  -8.414   5.692  0.00  0.00     0.078 H 
BRANCH  14  17
ATOM     17  N   GLY d   1     -35.043  -7.122   4.928  0.00  0.00    -0.351 N 
ATOM     18  C   ARG d   1     -35.564  -6.152   5.670  0.00  0.00     0.240 C 
ATOM     19  O   ARG d   1     -35.888  -6.310   6.846  0.00  0.00    -0.271 OA
ATOM     20  H19 GLY d   1     -34.891  -6.967   3.952  0.00  0.00     0.163 HD
BRANCH  18  21
ATOM     21  CA  ARG d   1     -35.895  -4.837   4.949  0.00  0.00     0.089 C 
ATOM     22  H7  ARG d   1     -35.510  -4.892   3.920  0.00  0.00     0.087 H 
BRANCH  21  23
ATOM     23  N   ARG d   1     -37.382  -4.711   4.885  0.00  0.00    -0.346 N 
ATOM     24  C   GLY d   1     -38.130  -5.446   4.044  0.00  0.00     0.243 C 
ATOM     25  O   GLY d   1     -37.645  -6.291   3.253  0.00  0.00    -0.272 OA
ATOM     26  H6  ARG d   1     -37.837  -4.057   5.489  0.00  0.00     0.163 HD
BRANCH  24  27
ATOM     27  CA  GLY d   1     -39.587  -5.321   4.214  0.00  0.00     0.152 C 
ATOM     28  H4  GLY d   1     -40.008  -4.930   3.276  0.00  0.00     0.090 H 
ATOM     29  H5  GLY d   1     -39.995  -6.324   4.409  0.00  0.00     0.090 H 
BRANCH  27  30
ATOM     30  N   GLY d   1     -40.014  -4.429   5.315  0.00  0.00    -0.071 N 
ATOM     31  H1  GLY d   1     -41.021  -4.405   5.356  0.00  0.00     0.274 HD
ATOM     32  H2  GLY d   1     -39.662  -3.499   5.150  0.00  0.00     0.274 HD
ATOM     33  H3  GLY d   1     -39.650  -4.776   6.189  0.00  0.00     0.274 HD
ENDBRANCH  27  30
ENDBRANCH  24  27
ENDBRANCH  21  23
BRANCH  21  34
ATOM     34  CB  ARG d   1     -35.202  -3.624   5.650  0.00  0.00    -0.036 C 
ATOM     35  H8  ARG d   1     -35.144  -3.822   6.731  0.00  0.00     0.036 H 
ATOM     36  H9  ARG d   1     -35.803  -2.720   5.475  0.00  0.00     0.036 H 
BRANCH  34  37
ATOM     37  CG  ARG d   1     -33.813  -3.395   5.122  0.00  0.00    -0.048 C 
ATOM     38  H10 ARG d   1     -33.858  -3.147   4.051  0.00  0.00     0.035 H 
ATOM     39  H11 ARG d   1     -33.206  -4.302   5.263  0.00  0.00     0.035 H 
BRANCH  37  40
ATOM     40  CD  ARG d   1     -33.200  -2.243   5.891  0.00  0.00     0.009 C 
ATOM     41  H12 ARG d   1     -33.349  -2.405   6.969  0.00  0.00     0.064 H 
ATOM     42  H13 ARG d   1     -33.689  -1.304   5.591  0.00  0.00     0.064 H 
BRANCH  40  43
ATOM     43  NE  ARG d   1     -31.776  -2.155   5.610  0.00  0.00    -0.227 N 
ATOM     44  CZ  ARG d   1     -31.109  -1.014   5.608  0.00  0.00     0.665 C 
ATOM     45  NH1 ARG d   1     -31.807   0.157   5.800  0.00  0.00    -0.235 N 
ATOM     46  NH2 ARG d   1     -29.787  -1.055   5.370  0.00  0.00    -0.235 N 
ATOM     47  H15 ARG d   1     -31.309   1.059   5.803  0.00  0.00     0.174 HD
ATOM     48  H16 ARG d   1     -32.827   0.131   5.941  0.00  0.00     0.174 HD
ATOM     49  H17 ARG d   1     -29.316  -1.961   5.234  0.00  0.00     0.174 HD
ATOM     50  H18 ARG d   1     -29.245  -0.181   5.324  0.00  0.00     0.174 HD
ATOM     51  H14 ARG d   1     -31.263  -3.023   5.403  0.00  0.00     0.177 HD
ENDBRANCH  40  43
ENDBRANCH  37  40
ENDBRANCH  34  37
ENDBRANCH  21  34
ENDBRANCH  18  21
ENDBRANCH  14  17
ENDBRANCH  11  14
ENDBRANCH   8  10
BRANCH   8  52
ATOM     52  CB  BTK d   1     -33.475 -12.867   4.390  0.00  0.00    -0.038 C 
ATOM     53  H24 BTK d   1     -33.539 -13.713   3.690  0.00  0.00     0.036 H 
ATOM     54  H25 BTK d   1     -33.686 -13.218   5.411  0.00  0.00     0.036 H 
BRANCH  52  55
ATOM     55  CG  BTK d   1     -32.041 -12.337   4.360  0.00  0.00    -0.061 C 
ATOM     56  H30 BTK d   1     -31.362 -13.149   4.661  0.00  0.00     0.033 H 
ATOM     57  H31 BTK d   1     -31.960 -11.507   5.077  0.00  0.00     0.033 H 
BRANCH  55  58
ATOM     58  CD  BTK d   1     -31.633 -11.856   3.050  0.00  0.00    -0.050 C 
ATOM     59  H26 BTK d   1     -31.666 -12.684   2.327  0.00  0.00     0.035 H 
ATOM     60  H27 BTK d   1     -32.313 -11.056   2.723  0.00  0.00     0.035 H 
BRANCH  58  61
ATOM     61  CE  BTK d   1     -30.255 -11.329   3.137  0.00  0.00    -0.005 C 
ATOM     62  H28 BTK d   1     -30.144 -10.864   4.127  0.00  0.00     0.064 H 
ATOM     63  H29 BTK d   1     -30.148 -10.561   2.357  0.00  0.00     0.064 H 
BRANCH  61  64
ATOM     64  NZ  BTK d   1     -29.150 -12.275   2.973  0.00  0.00    -0.361 N 
ATOM     65  CAN BTK d   1     -27.946 -11.806   3.026  0.00  0.00     0.217 C 
ATOM     66  OAD BTK d   1     -27.584 -10.659   3.203  0.00  0.00    -0.274 OA
ATOM     67  H32 BTK d   1     -29.320 -13.249   2.825  0.00  0.00     0.162 HD
BRANCH  65  68
ATOM     68  CAJ BTK d   1     -26.943 -12.927   2.677  0.00  0.00     0.009 C 
ATOM     69  H38 BTK d   1     -27.476 -13.886   2.759  0.00  0.00     0.047 H 
ATOM     70  H39 BTK d   1     -26.624 -12.773   1.636  0.00  0.00     0.047 H 
BRANCH  68  71
ATOM     71  CAF BTK d   1     -25.727 -13.024   3.504  0.00  0.00    -0.061 C 
ATOM     72  H36 BTK d   1     -25.109 -13.868   3.165  0.00  0.00     0.033 H 
ATOM     73  H37 BTK d   1     -25.148 -12.092   3.430  0.00  0.00     0.033 H 
BRANCH  71  74
ATOM     74  CAA BTK d   1     -26.161 -13.245   4.918  0.00  0.00    -0.076 C 
ATOM     75  H33 BTK d   1     -25.275 -13.322   5.566  0.00  0.00     0.027 H 
ATOM     76  H34 BTK d   1     -26.744 -14.176   4.981  0.00  0.00     0.027 H 
ATOM     77  H35 BTK d   1     -26.783 -12.399   5.247  0.00  0.00     0.027 H 
ENDBRANCH  71  74
ENDBRANCH  68  71
ENDBRANCH  65  68
ENDBRANCH  61  64
ENDBRANCH  58  61
ENDBRANCH  55  58
ENDBRANCH  52  55
ENDBRANCH   8  52
ENDBRANCH   5   8
ENDBRANCH   1   4
BRANCH   1  78
ATOM     78  C   GLY d   1     -37.941 -14.863   3.983  0.00  0.00     0.235 C 
ATOM     79  O   GLY d   1     -39.085 -14.990   4.462  0.00  0.00    -0.272 OA
ATOM     80  N   GLY d   1     -36.882 -15.625   4.337  0.00  0.00    -0.351 N 
ATOM     81  H43 GLY d   1     -36.073 -15.613   3.749  0.00  0.00     0.163 HD
BRANCH  80  82
ATOM     82  CA  GLY d   1     -36.855 -16.483   5.557  0.00  0.00     0.069 C 
ATOM     83  H44 GLY d   1     -36.483 -17.479   5.274  0.00  0.00     0.078 H 
ATOM     84  H45 GLY d   1     -37.881 -16.571   5.943  0.00  0.00     0.078 H 
BRANCH  82  85
ATOM     85  C   GLY d   1     -35.966 -15.934   6.671  0.00  0.00     0.236 C 
ATOM     86  O   GLY d   1     -35.006 -15.102   6.488  0.00  0.00    -0.272 OA
ATOM     87  N   BTK d   1     -36.280 -16.418   7.875  0.00  0.00    -0.346 N 
ATOM     88  H46 BTK d   1     -36.987 -17.118   7.980  0.00  0.00     0.163 HD
BRANCH  87  89
ATOM     89  CA  BTK d   1     -35.555 -15.891   9.046  0.00  0.00     0.089 C 
ATOM     90  H47 BTK d   1     -35.234 -14.878   8.761  0.00  0.00     0.087 H 
BRANCH  89  91
ATOM     91  C   BTK d   1     -34.232 -16.649   9.255  0.00  0.00     0.240 C 
ATOM     92  O   BTK d   1     -33.449 -16.239  10.128  0.00  0.00    -0.271 OA
ATOM     93  N   GLY d   1     -33.945 -17.691   8.440  0.00  0.00    -0.351 N 
ATOM     94  H64 GLY d   1     -34.642 -17.984   7.785  0.00  0.00     0.163 HD
BRANCH  93  95
ATOM     95  CA  GLY d   1     -32.675 -18.410   8.464  0.00  0.00     0.069 C 
ATOM     96  H65 GLY d   1     -31.843 -17.694   8.398  0.00  0.00     0.078 H 
ATOM     97  H66 GLY d   1     -32.628 -19.107   7.614  0.00  0.00     0.078 H 
BRANCH  95  98
ATOM     98  C   GLY d   1     -32.579 -19.191   9.775  0.00  0.00     0.236 C 
ATOM     99  O   GLY d   1     -31.491 -19.308  10.358  0.00  0.00    -0.272 OA
ATOM    100  N   LEU d   1     -33.714 -19.724  10.244  0.00  0.00    -0.346 N 
ATOM    101  H67 LEU d   1     -34.581 -19.523   9.788  0.00  0.00     0.163 HD
BRANCH 100 102
ATOM    102  CA  LEU d   1     -33.698 -20.612  11.435  0.00  0.00     0.089 C 
ATOM    103  H68 LEU d   1     -32.700 -20.503  11.884  0.00  0.00     0.087 H 
BRANCH 102 104
ATOM    104  C   LEU d   1     -33.844 -22.127  11.092  0.00  0.00     0.240 C 
ATOM    105  O   LEU d   1     -34.603 -22.875  11.754  0.00  0.00    -0.271 OA
ATOM    106  N   GLY d   1     -33.112 -22.562  10.055  0.00  0.00    -0.349 N 
ATOM    107  H78 GLY d   1     -32.564 -21.899   9.545  0.00  0.00     0.163 HD
BRANCH 106 108
ATOM    108  CA  GLY d   1     -33.080 -23.969   9.637  0.00  0.00     0.075 C 
ATOM    109  H79 GLY d   1     -32.734 -24.049   8.596  0.00  0.00     0.080 H 
ATOM    110  H80 GLY d   1     -34.081 -24.415   9.726  0.00  0.00     0.080 H 
BRANCH 108 111
ATOM    111  C   GLY d   1     -32.103 -24.673  10.574  0.00  0.00     0.191 C 
ATOM    112  O   GLY d   1     -31.237 -25.468  10.163  0.00  0.00    -0.647 OA
ATOM    113  OXT GLY d   1     -32.112 -24.495  11.807  0.00  0.00    -0.647 OA
ENDBRANCH 108 111
ENDBRANCH 106 108
ENDBRANCH 102 104
BRANCH 102 114
ATOM    114  CB  LEU d   1     -34.715 -20.125  12.511  0.00  0.00    -0.035 C 
ATOM    115  H69 LEU d   1     -34.630 -20.808  13.369  0.00  0.00     0.037 H 
ATOM    116  H70 LEU d   1     -35.719 -20.213  12.071  0.00  0.00     0.037 H 
BRANCH 114 117
ATOM    117  CG  LEU d   1     -34.582 -18.672  13.065  0.00  0.00    -0.059 C 
ATOM    118  H71 LEU d   1     -34.624 -17.994  12.200  0.00  0.00     0.038 H 
BRANCH 117 119
ATOM    119  CD1 LEU d   1     -35.765 -18.337  13.967  0.00  0.00    -0.073 C 
ATOM    120  H72 LEU d   1     -35.656 -17.311  14.349  0.00  0.00     0.028 H 
ATOM    121  H73 LEU d   1     -35.793 -19.041  14.812  0.00  0.00     0.028 H 
ATOM    122  H74 LEU d   1     -36.699 -18.417  13.392  0.00  0.00     0.028 H 
ENDBRANCH 117 119
BRANCH 117 123
ATOM    123  CD2 LEU d   1     -33.247 -18.402  13.777  0.00  0.00    -0.073 C 
ATOM    124  H75 LEU d   1     -32.415 -18.652  13.103  0.00  0.00     0.028 H 
ATOM    125  H76 LEU d   1     -33.183 -19.021  14.684  0.00  0.00     0.028 H 
ATOM    126  H77 LEU d   1     -33.187 -17.339  14.054  0.00  0.00     0.028 H 
ENDBRANCH 117 123
ENDBRANCH 114 117
ENDBRANCH 102 114
ENDBRANCH 100 102
ENDBRANCH  95  98
ENDBRANCH  93  95
ENDBRANCH  89  91
BRANCH  89 127
ATOM    127  CB  BTK d   1     -36.508 -15.648  10.243  0.00  0.00    -0.038 C 
ATOM    128  H48 BTK d   1     -35.936 -15.578  11.180  0.00  0.00     0.036 H 
ATOM    129  H49 BTK d   1     -37.241 -16.465  10.321  0.00  0.00     0.036 H 
BRANCH 127 130
ATOM    130  CG  BTK d   1     -37.222 -14.312   9.948  0.00  0.00    -0.061 C 
ATOM    131  H54 BTK d   1     -37.452 -14.285   8.873  0.00  0.00     0.033 H 
ATOM    132  H55 BTK d   1     -36.525 -13.498  10.194  0.00  0.00     0.033 H 
BRANCH 130 133
ATOM    133  CD  BTK d   1     -38.529 -14.057  10.713  0.00  0.00    -0.050 C 
ATOM    134  H50 BTK d   1     -39.341 -14.618  10.227  0.00  0.00     0.035 H 
ATOM    135  H51 BTK d   1     -38.410 -14.408  11.749  0.00  0.00     0.035 H 
BRANCH 133 136
ATOM    136  CE  BTK d   1     -38.898 -12.561  10.733  0.00  0.00    -0.005 C 
ATOM    137  H52 BTK d   1     -38.011 -11.995  10.412  0.00  0.00     0.064 H 
ATOM    138  H53 BTK d   1     -39.147 -12.294  11.771  0.00  0.00     0.064 H 
BRANCH 136 139
ATOM    139  NZ  BTK d   1     -40.025 -12.142   9.883  0.00  0.00    -0.361 N 
ATOM    140  CAN BTK d   1     -40.584 -10.909   9.904  0.00  0.00     0.217 C 
ATOM    141  OAD BTK d   1     -40.175 -10.022  10.648  0.00  0.00    -0.274 OA
ATOM    142  H56 BTK d   1     -40.403 -12.814   9.247  0.00  0.00     0.162 HD
BRANCH 140 143
ATOM    143  CAJ BTK d   1     -41.740 -10.650   8.954  0.00  0.00     0.009 C 
ATOM    144  H62 BTK d   1     -41.430  -9.878   8.235  0.00  0.00     0.047 H 
ATOM    145  H63 BTK d   1     -41.961 -11.584   8.416  0.00  0.00     0.047 H 
BRANCH 143 146
ATOM    146  CAF BTK d   1     -43.007 -10.183   9.635  0.00  0.00    -0.061 C 
ATOM    147  H60 BTK d   1     -43.867 -10.560   9.062  0.00  0.00     0.033 H 
ATOM    148  H61 BTK d   1     -43.030 -10.605  10.650  0.00  0.00     0.033 H 
BRANCH 146 149
ATOM    149  CAA BTK d   1     -43.129  -8.683   9.742  0.00  0.00    -0.076 C 
ATOM    150  H57 BTK d   1     -44.072  -8.427  10.246  0.00  0.00     0.027 H 
ATOM    151  H58 BTK d   1     -43.120  -8.242   8.735  0.00  0.00     0.027 H 
ATOM    152  H59 BTK d   1     -42.283  -8.287  10.323  0.00  0.00     0.027 H 
ENDBRANCH 146 149
ENDBRANCH 143 146
ENDBRANCH 140 143
ENDBRANCH 136 139
ENDBRANCH 133 136
ENDBRANCH 130 133
ENDBRANCH 127 130
ENDBRANCH  89 127
ENDBRANCH  87  89
ENDBRANCH  82  85
ENDBRANCH  80  82
ENDBRANCH   1  78
TORSDOF 44
