REMARK  24 active torsions:
REMARK  status: ('A' for Active; 'I' for Inactive)
REMARK    1  A    between atoms: CA_2  and  N_1 
REMARK    2  A    between atoms: C_3  and  CA_2 
REMARK       I    between atoms: N_14  and  C_3 
REMARK    3  A    between atoms: CH_6  and  CH3_7 
REMARK       I    between atoms: NZ_8  and  CH_6 
REMARK    4  A    between atoms: CE_9  and  NZ_8 
REMARK    5  A    between atoms: CD_10  and  CE_9 
REMARK    6  A    between atoms: CG_11  and  CD_10 
REMARK    7  A    between atoms: CB_12  and  CG_11 
REMARK    8  A    between atoms: CA_13  and  CB_12 
REMARK    9  A    between atoms: CA_13  and  N_14 
REMARK   10  A    between atoms: C_15  and  CA_13 
REMARK       I    between atoms: N_17  and  C_15 
REMARK   11  A    between atoms: CA_18  and  N_17 
REMARK   12  A    between atoms: C_19  and  CA_18 
REMARK       I    between atoms: N_21  and  C_19 
REMARK   13  A    between atoms: CA_22  and  N_21 
REMARK   14  A    between atoms: C_23  and  CA_22 
REMARK       I    between atoms: N_34  and  C_23 
REMARK   15  A    between atoms: CH_26  and  CH3_27 
REMARK       I    between atoms: NZ_28  and  CH_26 
REMARK   16  A    between atoms: CE_29  and  NZ_28 
REMARK   17  A    between atoms: CD_30  and  CE_29 
REMARK   18  A    between atoms: CG_31  and  CD_30 
REMARK   19  A    between atoms: CB_32  and  CG_31 
REMARK   20  A    between atoms: CA_33  and  CB_32 
REMARK   21  A    between atoms: CA_33  and  N_34 
REMARK   22  A    between atoms: CA_33  and  C_35 
REMARK       I    between atoms: C_35  and  N_37 
REMARK   23  A    between atoms: N_37  and  CA_38 
REMARK   24  A    between atoms: CA_38  and  C_39 
ROOT
ATOM      1  C   GLY d   1      51.298 -20.891 -15.179  0.00  0.00     0.235 C 
ATOM      2  O   GLY d   1      51.280 -22.080 -15.681  0.00  0.00    -0.272 OA
ATOM      3  N   GLY d   1      51.434 -20.512 -13.912  0.00  0.00    -0.351 N 
ATOM      4  H23 GLY d   1      51.450 -19.534 -13.706  0.00  0.00     0.163 HD
ENDROOT
BRANCH   1   5
ATOM      5  CA  GLY d   1      51.141 -19.638 -16.057  0.00  0.00     0.069 C 
ATOM      6  H21 GLY d   1      50.437 -18.973 -15.536  0.00  0.00     0.078 H 
ATOM      7  H22 GLY d   1      52.130 -19.160 -16.105  0.00  0.00     0.078 H 
BRANCH   5   8
ATOM      8  N   GLY d   1      50.637 -19.766 -17.514  0.00  0.00    -0.351 N 
ATOM      9  C   ALY d   1      49.368 -19.999 -17.883  0.00  0.00     0.240 C 
ATOM     10  O   ALY d   1      48.404 -20.010 -17.070  0.00  0.00    -0.271 OA
ATOM     11  H20 GLY d   1      51.315 -19.667 -18.243  0.00  0.00     0.163 HD
BRANCH   9  12
ATOM     12  CA  ALY d   1      49.099 -20.233 -19.359  0.00  0.00     0.089 C 
ATOM     13  H18 ALY d   1      50.007 -20.655 -19.814  0.00  0.00     0.087 H 
BRANCH  12  14
ATOM     14  CB  ALY d   1      48.758 -18.879 -20.057  0.00  0.00    -0.038 C 
ATOM     15  H16 ALY d   1      48.306 -19.076 -21.040  0.00  0.00     0.036 H 
ATOM     16  H17 ALY d   1      48.049 -18.313 -19.435  0.00  0.00     0.036 H 
BRANCH  14  17
ATOM     17  CG  ALY d   1      50.049 -18.060 -20.239  0.00  0.00    -0.061 C 
ATOM     18  H14 ALY d   1      50.318 -17.610 -19.272  0.00  0.00     0.033 H 
ATOM     19  H15 ALY d   1      50.852 -18.738 -20.564  0.00  0.00     0.033 H 
BRANCH  17  20
ATOM     20  CD  ALY d   1      49.902 -16.905 -21.309  0.00  0.00    -0.050 C 
ATOM     21  H12 ALY d   1      49.707 -17.336 -22.302  0.00  0.00     0.035 H 
ATOM     22  H13 ALY d   1      49.073 -16.238 -21.030  0.00  0.00     0.035 H 
BRANCH  20  23
ATOM     23  CE  ALY d   1      51.168 -16.151 -21.328  0.00  0.00    -0.005 C 
ATOM     24  H10 ALY d   1      51.265 -15.552 -20.410  0.00  0.00     0.064 H 
ATOM     25  H11 ALY d   1      52.019 -16.843 -21.406  0.00  0.00     0.064 H 
BRANCH  23  26
ATOM     26  NZ  ALY d   1      51.121 -15.235 -22.551  0.00  0.00    -0.361 N 
ATOM     27  CH  ALY d   1      52.172 -14.550 -22.785  0.00  0.00     0.213 C 
ATOM     28  OH  ALY d   1      53.219 -14.629 -22.286  0.00  0.00    -0.274 OA
ATOM     29  H9  ALY d   1      50.312 -15.176 -23.135  0.00  0.00     0.162 HD
BRANCH  27  30
ATOM     30  CH3 ALY d   1      52.272 -13.640 -24.040  0.00  0.00    -0.003 C 
ATOM     31  H6  ALY d   1      51.283 -13.562 -24.516  0.00  0.00     0.040 H 
ATOM     32  H7  ALY d   1      52.989 -14.075 -24.752  0.00  0.00     0.040 H 
ATOM     33  H8  ALY d   1      52.615 -12.639 -23.741  0.00  0.00     0.040 H 
ENDBRANCH  27  30
ENDBRANCH  23  26
ENDBRANCH  20  23
ENDBRANCH  17  20
ENDBRANCH  14  17
ENDBRANCH  12  14
BRANCH  12  34
ATOM     34  N   ALY d   1      47.969 -21.179 -19.584  0.00  0.00    -0.346 N 
ATOM     35  C   GLY d   1      48.090 -22.398 -20.150  0.00  0.00     0.243 C 
ATOM     36  O   GLY d   1      49.157 -22.951 -20.377  0.00  0.00    -0.272 OA
ATOM     37  H19 ALY d   1      47.056 -20.890 -19.295  0.00  0.00     0.163 HD
BRANCH  35  38
ATOM     38  CA  GLY d   1      46.765 -23.115 -20.491  0.00  0.00     0.152 C 
ATOM     39  H4  GLY d   1      46.474 -22.855 -21.520  0.00  0.00     0.090 H 
ATOM     40  H5  GLY d   1      46.919 -24.202 -20.417  0.00  0.00     0.090 H 
BRANCH  38  41
ATOM     41  N   GLY d   1      45.651 -22.713 -19.551  0.00  0.00    -0.071 N 
ATOM     42  H1  GLY d   1      44.806 -23.200 -19.804  0.00  0.00     0.274 HD
ATOM     43  H2  GLY d   1      45.499 -21.719 -19.616  0.00  0.00     0.274 HD
ATOM     44  H3  GLY d   1      45.906 -22.953 -18.606  0.00  0.00     0.274 HD
ENDBRANCH  38  41
ENDBRANCH  35  38
ENDBRANCH  12  34
ENDBRANCH   9  12
ENDBRANCH   5   8
ENDBRANCH   1   5
BRANCH   3  45
ATOM     45  CA  GLY d   1      51.563 -21.474 -12.789  0.00  0.00     0.069 C 
ATOM     46  H24 GLY d   1      52.478 -21.277 -12.211  0.00  0.00     0.078 H 
ATOM     47  H25 GLY d   1      51.580 -22.509 -13.162  0.00  0.00     0.078 H 
BRANCH  45  48
ATOM     48  C   GLY d   1      50.343 -21.233 -11.950  0.00  0.00     0.236 C 
ATOM     49  O   GLY d   1      49.262 -21.192 -12.501  0.00  0.00    -0.272 OA
ATOM     50  N   ALY d   1      50.476 -21.053 -10.612  0.00  0.00    -0.346 N 
ATOM     51  H39 ALY d   1      51.381 -20.938 -10.203  0.00  0.00     0.163 HD
BRANCH  50  52
ATOM     52  CA  ALY d   1      49.243 -21.029  -9.752  0.00  0.00     0.089 C 
ATOM     53  H38 ALY d   1      48.423 -21.631 -10.170  0.00  0.00     0.087 H 
BRANCH  52  54
ATOM     54  CB  ALY d   1      49.692 -21.493  -8.355  0.00  0.00    -0.038 C 
ATOM     55  H36 ALY d   1      50.584 -20.916  -8.070  0.00  0.00     0.036 H 
ATOM     56  H37 ALY d   1      48.878 -21.285  -7.645  0.00  0.00     0.036 H 
BRANCH  54  57
ATOM     57  CG  ALY d   1      50.036 -22.982  -8.267  0.00  0.00    -0.061 C 
ATOM     58  H34 ALY d   1      49.196 -23.564  -8.676  0.00  0.00     0.033 H 
ATOM     59  H35 ALY d   1      50.939 -23.172  -8.865  0.00  0.00     0.033 H 
BRANCH  57  60
ATOM     60  CD  ALY d   1      50.301 -23.447  -6.793  0.00  0.00    -0.050 C 
ATOM     61  H32 ALY d   1      51.153 -22.897  -6.367  0.00  0.00     0.035 H 
ATOM     62  H33 ALY d   1      49.408 -23.276  -6.173  0.00  0.00     0.035 H 
BRANCH  60  63
ATOM     63  CE  ALY d   1      50.616 -24.932  -6.865  0.00  0.00    -0.005 C 
ATOM     64  H30 ALY d   1      49.712 -25.478  -7.172  0.00  0.00     0.064 H 
ATOM     65  H31 ALY d   1      51.413 -25.096  -7.606  0.00  0.00     0.064 H 
BRANCH  63  66
ATOM     66  NZ  ALY d   1      51.084 -25.461  -5.494  0.00  0.00    -0.361 N 
ATOM     67  CH  ALY d   1      52.238 -25.991  -5.282  0.00  0.00     0.213 C 
ATOM     68  OH  ALY d   1      53.259 -26.200  -5.979  0.00  0.00    -0.274 OA
ATOM     69  H29 ALY d   1      50.452 -25.388  -4.722  0.00  0.00     0.162 HD
BRANCH  67  70
ATOM     70  CH3 ALY d   1      52.167 -26.440  -3.713  0.00  0.00    -0.003 C 
ATOM     71  H26 ALY d   1      51.188 -26.163  -3.296  0.00  0.00     0.040 H 
ATOM     72  H27 ALY d   1      52.963 -25.931  -3.150  0.00  0.00     0.040 H 
ATOM     73  H28 ALY d   1      52.303 -27.529  -3.637  0.00  0.00     0.040 H 
ENDBRANCH  67  70
ENDBRANCH  63  66
ENDBRANCH  60  63
ENDBRANCH  57  60
ENDBRANCH  54  57
ENDBRANCH  52  54
BRANCH  52  74
ATOM     74  C   ALY d   1      48.874 -19.601  -9.548  0.00  0.00     0.240 C 
ATOM     75  O   ALY d   1      49.426 -18.744 -10.194  0.00  0.00    -0.271 OA
ATOM     76  N   GLY d   1      47.939 -19.278  -8.652  0.00  0.00    -0.349 N 
ATOM     77  H40 GLY d   1      47.223 -19.930  -8.402  0.00  0.00     0.163 HD
BRANCH  76  78
ATOM     78  CA  GLY d   1      47.986 -17.932  -8.037  0.00  0.00     0.075 C 
ATOM     79  H41 GLY d   1      48.394 -17.237  -8.785  0.00  0.00     0.080 H 
ATOM     80  H42 GLY d   1      48.666 -17.983  -7.174  0.00  0.00     0.080 H 
BRANCH  78  81
ATOM     81  C   GLY d   1      46.662 -17.360  -7.549  0.00  0.00     0.191 C 
ATOM     82  O   GLY d   1      45.855 -16.842  -8.319  0.00  0.00    -0.647 OA
ATOM     83  OXT GLY d   1      46.339 -17.390  -6.363  0.00  0.00    -0.647 OA
ENDBRANCH  78  81
ENDBRANCH  76  78
ENDBRANCH  52  74
ENDBRANCH  50  52
ENDBRANCH  45  48
ENDBRANCH   3  45
TORSDOF 24
