REMARK  7 active torsions:
REMARK  status: ('A' for Active; 'I' for Inactive)
REMARK    1  A    between atoms: CAN_7  and  OAM_8 
REMARK    2  A    between atoms: OAM_8  and  CAL_9 
REMARK    3  A    between atoms: CAL_9  and  CAJ_10 
REMARK    4  A    between atoms: CAJ_10  and  CAC_12 
REMARK    5  A    between atoms: CAF_15  and  OAI_16 
REMARK    6  A    between atoms: CAE_17  and  OAH_18 
REMARK    7  A    between atoms: CAD_19  and  OAG_20 
ROOT
ATOM      1  CAJ 4KN d   1     -32.501   1.695  16.357  0.00  0.00     0.186 C 
ATOM      2  OAK 4KN d   1     -32.744   1.906  15.164  0.00  0.00    -0.290 OA
ENDROOT
BRANCH   1   3
ATOM      3  CAL 4KN d   1     -32.811   2.844  17.373  0.00  0.00     0.085 C 
ATOM      4  H5  4KN d   1     -33.251   2.443  18.298  0.00  0.00     0.087 H 
ATOM      5  H6  4KN d   1     -31.900   3.411  17.616  0.00  0.00     0.087 H 
BRANCH   3   6
ATOM      6  OAM 4KN d   1     -33.775   3.683  16.653  0.00  0.00    -0.344 OA
BRANCH   6   7
ATOM      7  CAN 4KN d   1     -35.013   3.099  16.406  0.00  0.00     0.069 A 
ATOM      8  CAO 4KN d   1     -35.998   3.793  15.710  0.00  0.00    -0.048 A 
ATOM      9  CAQ 4KN d   1     -37.224   3.168  15.468  0.00  0.00    -0.043 A 
ATOM     10  H1  4KN d   1     -35.817   4.803  15.361  0.00  0.00     0.087 H 
ATOM     11  CAS 4KN d   1     -37.550   1.909  15.974  0.00  0.00     0.116 A 
ATOM     12  H2  4KN d   1     -37.956   3.685  14.859  0.00  0.00     0.088 H 
ATOM     13  FAT 4KN d   1     -38.968   1.253  15.715  0.00  0.00    -0.206 F 
ATOM     14  CAR 4KN d   1     -36.597   1.238  16.719  0.00  0.00    -0.043 A 
ATOM     15  CAP 4KN d   1     -35.369   1.850  16.941  0.00  0.00    -0.048 A 
ATOM     16  H3  4KN d   1     -36.804   0.253  17.122  0.00  0.00     0.088 H 
ATOM     17  H4  4KN d   1     -34.645   1.334  17.562  0.00  0.00     0.087 H 
ENDBRANCH   6   7
ENDBRANCH   3   6
ENDBRANCH   1   3
BRANCH   1  18
ATOM     18  CAC 4KN d   1     -31.816   0.520  16.736  0.00  0.00     0.048 A 
ATOM     19  CAB 4KN d   1     -31.041   0.389  17.900  0.00  0.00    -0.064 A 
ATOM     20  CAA 4KN d   1     -30.344  -0.801  18.176  0.00  0.00    -0.047 A 
ATOM     21  H7  4KN d   1     -30.979   1.218  18.596  0.00  0.00     0.085 H 
ATOM     22  CAF 4KN d   1     -30.413  -1.873  17.251  0.00  0.00     0.101 A 
ATOM     23  H8  4KN d   1     -29.761  -0.897  19.085  0.00  0.00     0.087 H 
ATOM     24  CAE 4KN d   1     -31.127  -1.728  16.080  0.00  0.00     0.133 A 
ATOM     25  CAD 4KN d   1     -31.782  -0.532  15.807  0.00  0.00     0.115 A 
BRANCH  22  26
ATOM     26  OAI 4KN d   1     -29.771  -3.080  17.379  0.00  0.00    -0.358 OA
ATOM     27  H9  4KN d   1     -29.976  -3.628  16.630  0.00  0.00     0.217 HD
ENDBRANCH  22  26
BRANCH  24  28
ATOM     28  OAH 4KN d   1     -31.168  -2.769  15.210  0.00  0.00    -0.356 OA
ATOM     29  H10 4KN d   1     -31.691  -2.528  14.454  0.00  0.00     0.218 HD
ENDBRANCH  24  28
BRANCH  25  30
ATOM     30  OAG 4KN d   1     -32.536  -0.442  14.681  0.00  0.00    -0.357 OA
ATOM     31  H11 4KN d   1     -32.919   0.425  14.627  0.00  0.00     0.217 HD
ENDBRANCH  25  30
ENDBRANCH   1  18
TORSDOF 7
