REMARK WARNING: 32 MAX_TORS EXCEEDED!!!
REMARK  34 active torsions:
REMARK  status: ('A' for Active; 'I' for Inactive)
REMARK    1  A    between atoms: C_1  and  CA_4 
REMARK       I    between atoms: N_15  and  C_1 
REMARK    2  A    between atoms: CA_4  and  N_2 
REMARK    3  A    between atoms: CA_4  and  CB_5 
REMARK    4  A    between atoms: CB_5  and  CG_8 
REMARK    5  A    between atoms: CD_6  and  CE_7 
REMARK    6  A    between atoms: CG_8  and  CD_6 
REMARK    7  A    between atoms: CE_7  and  NZ_9 
REMARK       I    between atoms: NZ_9  and  CAN_14 
REMARK    8  A    between atoms: CAF_12  and  CAA_10 
REMARK    9  A    between atoms: CAJ_13  and  CAF_12 
REMARK   10  A    between atoms: CAN_14  and  CAJ_13 
REMARK   11  A    between atoms: CA_16  and  N_15 
REMARK   12  A    between atoms: C_17  and  CA_16 
REMARK       I    between atoms: N_19  and  C_17 
REMARK   13  A    between atoms: CA_20  and  N_19 
REMARK   14  A    between atoms: C_21  and  CA_20 
REMARK       I    between atoms: N_24  and  C_21 
REMARK   15  A    between atoms: CA_26  and  C_23 
REMARK       I    between atoms: C_23  and  N_37 
REMARK   16  A    between atoms: CA_26  and  N_24 
REMARK   17  A    between atoms: CB_27  and  CA_26 
REMARK   18  A    between atoms: CG_30  and  CB_27 
REMARK   19  A    between atoms: CE_29  and  CD_28 
REMARK   20  A    between atoms: CD_28  and  CG_30 
REMARK   21  A    between atoms: NZ_31  and  CE_29 
REMARK       I    between atoms: CAN_36  and  NZ_31 
REMARK   22  A    between atoms: CAF_34  and  CAA_32 
REMARK   23  A    between atoms: CAJ_35  and  CAF_34 
REMARK   24  A    between atoms: CAJ_35  and  CAN_36 
REMARK   25  A    between atoms: N_37  and  CA_38 
REMARK   26  A    between atoms: CA_38  and  C_39 
REMARK       I    between atoms: C_39  and  N_41 
REMARK   27  A    between atoms: N_41  and  CA_42 
REMARK   28  A    between atoms: CA_42  and  C_43 
REMARK   29  A    between atoms: CA_42  and  CB_45 
REMARK       I    between atoms: C_43  and  N_49 
REMARK   30  A    between atoms: CB_45  and  CG_46 
REMARK   31  A    between atoms: CG_46  and  CD1_47 
REMARK   32  A    between atoms: CG_46  and  CD2_48 
REMARK   33  A    between atoms: N_49  and  CA_50 
REMARK   34  A    between atoms: CA_50  and  C_51 
ROOT
ATOM      1  CA  BTK d   1      -3.287  44.672   5.865  0.00  0.00     0.089 C 
ATOM      2  H28 BTK d   1      -3.366  45.349   5.001  0.00  0.00     0.087 H 
ENDROOT
BRANCH   1   3
ATOM      3  C   BTK d   1      -3.474  45.515   7.125  0.00  0.00     0.240 C 
ATOM      4  O   BTK d   1      -3.180  45.053   8.242  0.00  0.00    -0.271 OA
ATOM      5  N   GLY d   1      -3.985  46.744   6.959  0.00  0.00    -0.351 N 
ATOM      6  H45 GLY d   1      -4.178  47.052   6.027  0.00  0.00     0.163 HD
BRANCH   5   7
ATOM      7  CA  GLY d   1      -4.280  47.672   8.075  0.00  0.00     0.069 C 
ATOM      8  H46 GLY d   1      -4.579  47.078   8.951  0.00  0.00     0.078 H 
ATOM      9  H47 GLY d   1      -5.112  48.325   7.773  0.00  0.00     0.078 H 
BRANCH   7  10
ATOM     10  C   GLY d   1      -3.104  48.546   8.468  0.00  0.00     0.236 C 
ATOM     11  O   GLY d   1      -3.209  49.311   9.421  0.00  0.00    -0.272 OA
ATOM     12  N   LEU d   1      -2.019  48.448   7.704  0.00  0.00    -0.346 N 
ATOM     13  H48 LEU d   1      -2.049  47.847   6.905  0.00  0.00     0.163 HD
BRANCH  12  14
ATOM     14  CA  LEU d   1      -0.764  49.193   7.987  0.00  0.00     0.089 C 
ATOM     15  H49 LEU d   1      -0.628  49.107   9.075  0.00  0.00     0.087 H 
BRANCH  14  16
ATOM     16  C   LEU d   1      -0.721  50.716   7.704  0.00  0.00     0.240 C 
ATOM     17  O   LEU d   1       0.355  51.339   7.767  0.00  0.00    -0.271 OA
ATOM     18  N   GLY d   1      -1.884  51.320   7.470  0.00  0.00    -0.349 N 
ATOM     19  H59 GLY d   1      -2.735  50.809   7.592  0.00  0.00     0.163 HD
BRANCH  18  20
ATOM     20  CA  GLY d   1      -1.942  52.712   7.039  0.00  0.00     0.075 C 
ATOM     21  H60 GLY d   1      -2.206  52.744   5.972  0.00  0.00     0.080 H 
ATOM     22  H61 GLY d   1      -0.954  53.172   7.186  0.00  0.00     0.080 H 
BRANCH  20  23
ATOM     23  C   GLY d   1      -2.964  53.494   7.817  0.00  0.00     0.191 C 
ATOM     24  O   GLY d   1      -2.696  54.607   8.250  0.00  0.00    -0.647 OA
ATOM     25  OXT GLY d   1      -4.076  53.027   8.026  0.00  0.00    -0.647 OA
ENDBRANCH  20  23
ENDBRANCH  18  20
ENDBRANCH  14  16
BRANCH  14  26
ATOM     26  CB  LEU d   1       0.444  48.488   7.344  0.00  0.00    -0.035 C 
ATOM     27  H50 LEU d   1       1.244  49.230   7.202  0.00  0.00     0.037 H 
ATOM     28  H51 LEU d   1       0.134  48.092   6.366  0.00  0.00     0.037 H 
BRANCH  26  29
ATOM     29  CG  LEU d   1       1.004  47.325   8.184  0.00  0.00    -0.059 C 
ATOM     30  H52 LEU d   1       0.323  46.470   8.063  0.00  0.00     0.038 H 
BRANCH  29  31
ATOM     31  CD1 LEU d   1       2.387  46.870   7.698  0.00  0.00    -0.073 C 
ATOM     32  H53 LEU d   1       2.742  46.041   8.328  0.00  0.00     0.028 H 
ATOM     33  H54 LEU d   1       3.094  47.710   7.765  0.00  0.00     0.028 H 
ATOM     34  H55 LEU d   1       2.316  46.533   6.653  0.00  0.00     0.028 H 
ENDBRANCH  29  31
BRANCH  29  35
ATOM     35  CD2 LEU d   1       1.001  47.710   9.664  0.00  0.00    -0.073 C 
ATOM     36  H56 LEU d   1      -0.010  48.027   9.958  0.00  0.00     0.028 H 
ATOM     37  H57 LEU d   1       1.707  48.537   9.829  0.00  0.00     0.028 H 
ATOM     38  H58 LEU d   1       1.304  46.843  10.269  0.00  0.00     0.028 H 
ENDBRANCH  29  35
ENDBRANCH  26  29
ENDBRANCH  14  26
ENDBRANCH  12  14
ENDBRANCH   7  10
ENDBRANCH   5   7
ENDBRANCH   1   3
BRANCH   1  39
ATOM     39  N   BTK d   1      -1.949  44.011   5.827  0.00  0.00    -0.346 N 
ATOM     40  C   GLY d   1      -0.857  44.720   5.567  0.00  0.00     0.236 C 
ATOM     41  O   GLY d   1      -0.908  45.955   5.378  0.00  0.00    -0.272 OA
ATOM     42  H27 BTK d   1      -1.875  43.029   5.998  0.00  0.00     0.163 HD
BRANCH  40  43
ATOM     43  CA  GLY d   1       0.476  43.971   5.527  0.00  0.00     0.069 C 
ATOM     44  H25 GLY d   1       0.894  44.095   4.517  0.00  0.00     0.078 H 
ATOM     45  H26 GLY d   1       1.143  44.446   6.261  0.00  0.00     0.078 H 
BRANCH  43  46
ATOM     46  N   GLY d   1       0.451  42.532   5.820  0.00  0.00    -0.351 N 
ATOM     47  C   GLY d   1       0.243  42.028   7.045  0.00  0.00     0.235 C 
ATOM     48  O   GLY d   1       0.086  42.720   8.054  0.00  0.00    -0.272 OA
ATOM     49  H24 GLY d   1       0.597  41.893   5.065  0.00  0.00     0.163 HD
BRANCH  47  50
ATOM     50  CA  GLY d   1       0.225  40.505   7.172  0.00  0.00     0.069 C 
ATOM     51  H22 GLY d   1       0.117  40.070   6.168  0.00  0.00     0.078 H 
ATOM     52  H23 GLY d   1       1.178  40.178   7.613  0.00  0.00     0.078 H 
BRANCH  50  53
ATOM     53  N   GLY d   1      -0.886  40.011   8.025  0.00  0.00    -0.351 N 
ATOM     54  C   BTK d   1      -2.170  40.236   7.709  0.00  0.00     0.248 C 
ATOM     55  O   BTK d   1      -2.511  40.950   6.720  0.00  0.00    -0.271 OA
ATOM     56  H21 GLY d   1      -0.671  39.498   8.856  0.00  0.00     0.163 HD
BRANCH  54  57
ATOM     57  CA  BTK d   1      -3.205  39.660   8.646  0.00  0.00     0.176 C 
ATOM     58  H4  BTK d   1      -2.694  39.271   9.539  0.00  0.00     0.099 H 
BRANCH  57  59
ATOM     59  N   BTK d   1      -4.139  40.774   9.056  0.00  0.00    -0.067 N 
ATOM     60  H1  BTK d   1      -4.840  40.411   9.683  0.00  0.00     0.275 HD
ATOM     61  H2  BTK d   1      -4.586  41.156   8.237  0.00  0.00     0.275 HD
ATOM     62  H3  BTK d   1      -3.614  41.498   9.521  0.00  0.00     0.275 HD
ENDBRANCH  57  59
BRANCH  57  63
ATOM     63  CB  BTK d   1      -3.993  38.524   8.016  0.00  0.00    -0.030 C 
ATOM     64  H5  BTK d   1      -4.064  38.716   6.935  0.00  0.00     0.036 H 
ATOM     65  H6  BTK d   1      -5.001  38.523   8.456  0.00  0.00     0.036 H 
BRANCH  63  66
ATOM     66  CG  BTK d   1      -3.386  37.130   8.213  0.00  0.00    -0.061 C 
ATOM     67  H11 BTK d   1      -3.816  36.641   9.100  0.00  0.00     0.033 H 
ATOM     68  H12 BTK d   1      -2.293  37.194   8.323  0.00  0.00     0.033 H 
BRANCH  66  69
ATOM     69  CD  BTK d   1      -3.751  36.380   6.964  0.00  0.00    -0.050 C 
ATOM     70  H7  BTK d   1      -4.832  36.178   6.981  0.00  0.00     0.035 H 
ATOM     71  H8  BTK d   1      -3.509  37.009   6.095  0.00  0.00     0.035 H 
BRANCH  69  72
ATOM     72  CE  BTK d   1      -3.029  35.084   6.827  0.00  0.00    -0.005 C 
ATOM     73  H9  BTK d   1      -3.187  34.508   7.751  0.00  0.00     0.064 H 
ATOM     74  H10 BTK d   1      -1.957  35.303   6.710  0.00  0.00     0.064 H 
BRANCH  72  75
ATOM     75  NZ  BTK d   1      -3.427  34.288   5.748  0.00  0.00    -0.361 N 
ATOM     76  CAN BTK d   1      -3.659  32.972   5.873  0.00  0.00     0.217 C 
ATOM     77  OAD BTK d   1      -3.643  32.344   6.911  0.00  0.00    -0.274 OA
ATOM     78  H13 BTK d   1      -3.543  34.715   4.851  0.00  0.00     0.162 HD
BRANCH  76  79
ATOM     79  CAJ BTK d   1      -4.050  32.208   4.622  0.00  0.00     0.009 C 
ATOM     80  H19 BTK d   1      -4.111  32.924   3.789  0.00  0.00     0.047 H 
ATOM     81  H20 BTK d   1      -3.263  31.468   4.413  0.00  0.00     0.047 H 
BRANCH  79  82
ATOM     82  CAF BTK d   1      -5.339  31.495   4.709  0.00  0.00    -0.061 C 
ATOM     83  H17 BTK d   1      -5.528  30.947   3.774  0.00  0.00     0.033 H 
ATOM     84  H18 BTK d   1      -5.320  30.788   5.551  0.00  0.00     0.033 H 
BRANCH  82  85
ATOM     85  CAA BTK d   1      -6.420  32.526   4.928  0.00  0.00    -0.076 C 
ATOM     86  H14 BTK d   1      -7.396  32.024   4.997  0.00  0.00     0.027 H 
ATOM     87  H15 BTK d   1      -6.430  33.232   4.085  0.00  0.00     0.027 H 
ATOM     88  H16 BTK d   1      -6.222  33.073   5.862  0.00  0.00     0.027 H 
ENDBRANCH  82  85
ENDBRANCH  79  82
ENDBRANCH  76  79
ENDBRANCH  72  75
ENDBRANCH  69  72
ENDBRANCH  66  69
ENDBRANCH  63  66
ENDBRANCH  57  63
ENDBRANCH  54  57
ENDBRANCH  50  53
ENDBRANCH  47  50
ENDBRANCH  43  46
ENDBRANCH  40  43
ENDBRANCH   1  39
BRANCH   1  89
ATOM     89  CB  BTK d   1      -4.360  43.566   5.715  0.00  0.00    -0.038 C 
ATOM     90  H29 BTK d   1      -4.306  42.906   6.593  0.00  0.00     0.036 H 
ATOM     91  H30 BTK d   1      -4.140  42.986   4.806  0.00  0.00     0.036 H 
BRANCH  89  92
ATOM     92  CG  BTK d   1      -5.776  44.115   5.608  0.00  0.00    -0.061 C 
ATOM     93  H35 BTK d   1      -5.800  45.138   6.012  0.00  0.00     0.033 H 
ATOM     94  H36 BTK d   1      -6.457  43.476   6.189  0.00  0.00     0.033 H 
BRANCH  92  95
ATOM     95  CD  BTK d   1      -6.227  44.139   4.158  0.00  0.00    -0.050 C 
ATOM     96  H31 BTK d   1      -5.647  44.884   3.593  0.00  0.00     0.035 H 
ATOM     97  H32 BTK d   1      -6.092  43.147   3.703  0.00  0.00     0.035 H 
BRANCH  95  98
ATOM     98  CE  BTK d   1      -7.700  44.517   4.165  0.00  0.00    -0.005 C 
ATOM     99  H33 BTK d   1      -7.819  45.540   4.552  0.00  0.00     0.064 H 
ATOM    100  H34 BTK d   1      -8.260  43.817   4.802  0.00  0.00     0.064 H 
BRANCH  98 101
ATOM    101  NZ  BTK d   1      -8.199  44.447   2.804  0.00  0.00    -0.361 N 
ATOM    102  CAN BTK d   1      -8.097  45.455   1.903  0.00  0.00     0.217 C 
ATOM    103  OAD BTK d   1      -7.580  46.560   2.151  0.00  0.00    -0.274 OA
ATOM    104  H37 BTK d   1      -8.646  43.602   2.512  0.00  0.00     0.162 HD
BRANCH 102 105
ATOM    105  CAJ BTK d   1      -8.725  45.195   0.547  0.00  0.00     0.009 C 
ATOM    106  H43 BTK d   1      -9.266  44.239   0.603  0.00  0.00     0.047 H 
ATOM    107  H44 BTK d   1      -9.437  46.008   0.343  0.00  0.00     0.047 H 
BRANCH 105 108
ATOM    108  CAF BTK d   1      -7.767  45.117  -0.612  0.00  0.00    -0.061 C 
ATOM    109  H41 BTK d   1      -8.320  44.725  -1.478  0.00  0.00     0.033 H 
ATOM    110  H42 BTK d   1      -7.420  46.138  -0.830  0.00  0.00     0.033 H 
BRANCH 108 111
ATOM    111  CAA BTK d   1      -6.549  44.249  -0.412  0.00  0.00    -0.076 C 
ATOM    112  H38 BTK d   1      -5.929  44.272  -1.321  0.00  0.00     0.027 H 
ATOM    113  H39 BTK d   1      -6.865  43.215  -0.209  0.00  0.00     0.027 H 
ATOM    114  H40 BTK d   1      -5.965  44.628   0.440  0.00  0.00     0.027 H 
ENDBRANCH 108 111
ENDBRANCH 105 108
ENDBRANCH 102 105
ENDBRANCH  98 101
ENDBRANCH  95  98
ENDBRANCH  92  95
ENDBRANCH  89  92
ENDBRANCH   1  89
TORSDOF 34
