REMARK WARNING: 32 MAX_TORS EXCEEDED!!!
REMARK  46 active torsions:
REMARK  status: ('A' for Active; 'I' for Inactive)
REMARK    1  A    between atoms: N_1  and  CA_2 
REMARK    2  A    between atoms: CA_2  and  C_3 
REMARK    3  A    between atoms: CA_2  and  CB_5 
REMARK       I    between atoms: C_3  and  N_7 
REMARK    4  A    between atoms: CB_5  and  OG_6 
REMARK    5  A    between atoms: N_7  and  CA_8 
REMARK    6  A    between atoms: CA_8  and  C_9 
REMARK       I    between atoms: C_9  and  N_11 
REMARK    7  A    between atoms: N_11  and  CA_12 
REMARK    8  A    between atoms: CA_12  and  C_13 
REMARK    9  A    between atoms: CA_12  and  CB_15 
REMARK       I    between atoms: C_13  and  N_22 
REMARK   10  A    between atoms: CB_15  and  CG_16 
REMARK   11  A    between atoms: CG_16  and  CD_17 
REMARK   12  A    between atoms: CD_17  and  NE_18 
REMARK       I    between atoms: NE_18  and  CZ_19 
REMARK       I    between atoms: CZ_19  and  NH1_20 
REMARK   13  A    between atoms: N_22  and  CA_23 
REMARK   14  A    between atoms: CA_23  and  C_24 
REMARK       I    between atoms: C_24  and  N_26 
REMARK   15  A    between atoms: N_26  and  CA_27 
REMARK   16  A    between atoms: CA_27  and  CB_28 
REMARK   17  A    between atoms: CA_27  and  C_38 
REMARK   18  A    between atoms: CB_28  and  CG_29 
REMARK   19  A    between atoms: CG_29  and  CD_30 
REMARK   20  A    between atoms: CD_30  and  CE_31 
REMARK   21  A    between atoms: CE_31  and  NZ_32 
REMARK       I    between atoms: NZ_32  and  CH_33 
REMARK   22  A    between atoms: CH_33  and  CX_35 
REMARK   23  A    between atoms: CY_36  and  CH3_37 
REMARK       I    between atoms: C_38  and  N_40 
REMARK   24  A    between atoms: N_40  and  CA_41 
REMARK   25  A    between atoms: CA_41  and  C_42 
REMARK       I    between atoms: C_42  and  N_44 
REMARK   26  A    between atoms: N_44  and  CA_45 
REMARK   27  A    between atoms: CA_45  and  C_46 
REMARK       I    between atoms: C_46  and  N_48 
REMARK   28  A    between atoms: N_48  and  CA_49 
REMARK   29  A    between atoms: CA_49  and  CB_50 
REMARK   30  A    between atoms: CA_49  and  C_60 
REMARK   31  A    between atoms: CB_50  and  CG_51 
REMARK   32  A    between atoms: CG_51  and  CD_52 
REMARK   33  A    between atoms: CD_52  and  CE_53 
REMARK   34  A    between atoms: CE_53  and  NZ_54 
REMARK       I    between atoms: NZ_54  and  CH_55 
REMARK   35  A    between atoms: CH_55  and  CX_57 
REMARK   36  A    between atoms: CY_58  and  CH3_59 
REMARK       I    between atoms: C_60  and  N_62 
REMARK   37  A    between atoms: N_62  and  CA_63 
REMARK   38  A    between atoms: CA_63  and  C_64 
REMARK       I    between atoms: C_64  and  N_66 
REMARK   39  A    between atoms: N_66  and  CA_67 
REMARK   40  A    between atoms: CA_67  and  C_68 
REMARK   41  A    between atoms: CA_67  and  CB_70 
REMARK       I    between atoms: C_68  and  N_74 
REMARK   42  A    between atoms: CB_70  and  CG_71 
REMARK   43  A    between atoms: CG_71  and  CD1_72 
REMARK   44  A    between atoms: CG_71  and  CD2_73 
REMARK   45  A    between atoms: N_74  and  CA_75 
REMARK   46  A    between atoms: CA_75  and  C_76 
ROOT
ATOM      1  N   GLY d   1      -3.949  40.281  10.031  0.00  0.00    -0.351 N 
ATOM      2  H43 GLY d   1      -3.650  39.856  10.885  0.00  0.00     0.163 HD
ATOM      3  C   KCR d   1      -3.488  39.780   8.889  0.00  0.00     0.240 C 
ATOM      4  O   KCR d   1      -3.777  40.258   7.784  0.00  0.00    -0.271 OA
ENDROOT
BRANCH   3   5
ATOM      5  CA  KCR d   1      -2.619  38.486   8.967  0.00  0.00     0.089 C 
ATOM      6  H28 KCR d   1      -1.613  38.663   8.558  0.00  0.00     0.087 H 
BRANCH   5   7
ATOM      7  N   KCR d   1      -2.505  38.066  10.369  0.00  0.00    -0.346 N 
ATOM      8  C   GLY d   1      -1.462  38.421  11.105  0.00  0.00     0.236 C 
ATOM      9  O   GLY d   1      -0.542  39.130  10.629  0.00  0.00    -0.272 OA
ATOM     10  H27 KCR d   1      -3.225  37.504  10.775  0.00  0.00     0.163 HD
BRANCH   8  11
ATOM     11  CA  GLY d   1      -1.412  37.897  12.532  0.00  0.00     0.069 C 
ATOM     12  H25 GLY d   1      -1.883  38.635  13.197  0.00  0.00     0.078 H 
ATOM     13  H26 GLY d   1      -1.970  36.950  12.581  0.00  0.00     0.078 H 
BRANCH  11  14
ATOM     14  N   GLY d   1      -0.030  37.659  12.990  0.00  0.00    -0.351 N 
ATOM     15  C   ARG d   1       0.511  38.355  13.997  0.00  0.00     0.240 C 
ATOM     16  O   ARG d   1      -0.053  39.286  14.583  0.00  0.00    -0.271 OA
ATOM     17  H24 GLY d   1       0.518  36.957  12.535  0.00  0.00     0.163 HD
BRANCH  15  18
ATOM     18  CA  ARG d   1       1.852  37.930  14.447  0.00  0.00     0.089 C 
ATOM     19  H12 ARG d   1       1.986  38.181  15.509  0.00  0.00     0.087 H 
BRANCH  18  20
ATOM     20  N   ARG d   1       1.999  36.468  14.265  0.00  0.00    -0.346 N 
ATOM     21  C   GLY d   1       1.300  35.580  14.999  0.00  0.00     0.236 C 
ATOM     22  O   GLY d   1       0.388  35.917  15.782  0.00  0.00    -0.272 OA
ATOM     23  H11 ARG d   1       2.638  36.128  13.575  0.00  0.00     0.163 HD
BRANCH  21  24
ATOM     24  CA  GLY d   1       1.709  34.103  14.834  0.00  0.00     0.069 C 
ATOM     25  H9  GLY d   1       1.885  33.899  13.768  0.00  0.00     0.078 H 
ATOM     26  H10 GLY d   1       2.636  33.924  15.399  0.00  0.00     0.078 H 
BRANCH  24  27
ATOM     27  N   GLY d   1       0.658  33.185  15.332  0.00  0.00    -0.350 N 
ATOM     28  C   SER d   1       0.599  32.851  16.615  0.00  0.00     0.250 C 
ATOM     29  O   SER d   1       1.524  33.088  17.376  0.00  0.00    -0.271 OA
ATOM     30  H8  GLY d   1      -0.015  32.812  14.693  0.00  0.00     0.163 HD
BRANCH  28  31
ATOM     31  CA  SER d   1      -0.634  32.055  17.113  0.00  0.00     0.195 C 
ATOM     32  H4  SER d   1      -0.876  31.274  16.377  0.00  0.00     0.102 H 
BRANCH  31  33
ATOM     33  N   SER d   1      -0.268  31.437  18.382  0.00  0.00    -0.064 N 
ATOM     34  H1  SER d   1      -1.050  30.909  18.736  0.00  0.00     0.275 HD
ATOM     35  H2  SER d   1      -0.018  32.154  19.045  0.00  0.00     0.275 HD
ATOM     36  H3  SER d   1       0.517  30.821  18.242  0.00  0.00     0.275 HD
ENDBRANCH  31  33
BRANCH  31  37
ATOM     37  CB  SER d   1      -1.893  32.950  17.318  0.00  0.00     0.051 C 
ATOM     38  H5  SER d   1      -2.688  32.334  17.764  0.00  0.00     0.077 H 
ATOM     39  H6  SER d   1      -2.222  33.317  16.334  0.00  0.00     0.077 H 
BRANCH  37  40
ATOM     40  OG  SER d   1      -1.666  34.080  18.169  0.00  0.00    -0.398 OA
ATOM     41  H7  SER d   1      -2.470  34.580  18.251  0.00  0.00     0.209 HD
ENDBRANCH  37  40
ENDBRANCH  31  37
ENDBRANCH  28  31
ENDBRANCH  24  27
ENDBRANCH  21  24
ENDBRANCH  18  20
BRANCH  18  42
ATOM     42  CB  ARG d   1       2.886  38.668  13.611  0.00  0.00    -0.036 C 
ATOM     43  H13 ARG d   1       2.704  39.751  13.673  0.00  0.00     0.036 H 
ATOM     44  H14 ARG d   1       2.811  38.343  12.563  0.00  0.00     0.036 H 
BRANCH  42  45
ATOM     45  CG  ARG d   1       4.287  38.352  14.146  0.00  0.00    -0.048 C 
ATOM     46  H15 ARG d   1       4.415  37.260  14.173  0.00  0.00     0.035 H 
ATOM     47  H16 ARG d   1       4.374  38.757  15.165  0.00  0.00     0.035 H 
BRANCH  45  48
ATOM     48  CD  ARG d   1       5.397  38.953  13.285  0.00  0.00     0.009 C 
ATOM     49  H17 ARG d   1       5.419  40.043  13.432  0.00  0.00     0.064 H 
ATOM     50  H18 ARG d   1       5.195  38.730  12.227  0.00  0.00     0.064 H 
BRANCH  48  51
ATOM     51  NE  ARG d   1       6.682  38.398  13.651  0.00  0.00    -0.227 N 
ATOM     52  CZ  ARG d   1       7.788  38.400  12.863  0.00  0.00     0.665 C 
ATOM     53  NH1 ARG d   1       7.817  38.997  11.645  0.00  0.00    -0.235 N 
ATOM     54  NH2 ARG d   1       8.894  37.823  13.336  0.00  0.00    -0.235 N 
ATOM     55  H20 ARG d   1       8.678  38.974  11.081  0.00  0.00     0.174 HD
ATOM     56  H21 ARG d   1       6.978  39.473  11.285  0.00  0.00     0.174 HD
ATOM     57  H22 ARG d   1       8.882  37.367  14.259  0.00  0.00     0.174 HD
ATOM     58  H23 ARG d   1       9.759  37.833  12.778  0.00  0.00     0.174 HD
ATOM     59  H19 ARG d   1       6.764  37.967  14.583  0.00  0.00     0.177 HD
ENDBRANCH  48  51
ENDBRANCH  45  48
ENDBRANCH  42  45
ENDBRANCH  18  42
ENDBRANCH  15  18
ENDBRANCH  11  14
ENDBRANCH   8  11
ENDBRANCH   5   7
BRANCH   5  60
ATOM     60  CB  KCR d   1      -3.367  37.473   8.105  0.00  0.00    -0.038 C 
ATOM     61  H29 KCR d   1      -3.258  37.770   7.051  0.00  0.00     0.036 H 
ATOM     62  H30 KCR d   1      -4.430  37.500   8.386  0.00  0.00     0.036 H 
BRANCH  60  63
ATOM     63  CG  KCR d   1      -2.858  36.003   8.255  0.00  0.00    -0.061 C 
ATOM     64  H31 KCR d   1      -3.294  35.569   9.166  0.00  0.00     0.033 H 
ATOM     65  H32 KCR d   1      -1.762  36.015   8.343  0.00  0.00     0.033 H 
BRANCH  63  66
ATOM     66  CD  KCR d   1      -3.247  35.128   7.056  0.00  0.00    -0.050 C 
ATOM     67  H33 KCR d   1      -2.554  34.276   6.991  0.00  0.00     0.035 H 
ATOM     68  H34 KCR d   1      -3.179  35.726   6.135  0.00  0.00     0.035 H 
BRANCH  66  69
ATOM     69  CE  KCR d   1      -4.706  34.592   7.213  0.00  0.00    -0.004 C 
ATOM     70  H35 KCR d   1      -5.424  35.424   7.264  0.00  0.00     0.064 H 
ATOM     71  H36 KCR d   1      -4.798  33.972   8.117  0.00  0.00     0.064 H 
BRANCH  69  72
ATOM     72  NZ  KCR d   1      -4.922  33.805   6.031  0.00  0.00    -0.358 N 
ATOM     73  CH  KCR d   1      -4.876  32.447   6.056  0.00  0.00     0.240 C 
ATOM     74  OH  KCR d   1      -4.691  31.851   7.134  0.00  0.00    -0.269 OA
ATOM     75  H37 KCR d   1      -5.112  34.269   5.166  0.00  0.00     0.162 HD
BRANCH  73  76
ATOM     76  CX  KCR d   1      -4.987  31.839   4.699  0.00  0.00    -0.022 C 
ATOM     77  CY  KCR d   1      -4.699  30.498   4.590  0.00  0.00    -0.102 C 
ATOM     78  H39 KCR d   1      -4.463  29.864   5.443  0.00  0.00     0.076 H 
ATOM     79  H38 KCR d   1      -5.283  32.430   3.833  0.00  0.00     0.091 H 
BRANCH  77  80
ATOM     80  CH3 KCR d   1      -4.743  30.000   3.180  0.00  0.00    -0.059 C 
ATOM     81  H40 KCR d   1      -4.505  28.926   3.163  0.00  0.00     0.032 H 
ATOM     82  H41 KCR d   1      -4.007  30.549   2.574  0.00  0.00     0.032 H 
ATOM     83  H42 KCR d   1      -5.750  30.159   2.766  0.00  0.00     0.032 H 
ENDBRANCH  77  80
ENDBRANCH  73  76
ENDBRANCH  69  72
ENDBRANCH  66  69
ENDBRANCH  63  66
ENDBRANCH  60  63
ENDBRANCH   5  60
ENDBRANCH   3   5
BRANCH   1  84
ATOM     84  CA  GLY d   1      -4.886  41.440  10.115  0.00  0.00     0.069 C 
ATOM     85  H44 GLY d   1      -4.487  42.260   9.500  0.00  0.00     0.078 H 
ATOM     86  H45 GLY d   1      -4.950  41.766  11.164  0.00  0.00     0.078 H 
BRANCH  84  87
ATOM     87  C   GLY d   1      -6.287  41.100   9.624  0.00  0.00     0.235 C 
ATOM     88  O   GLY d   1      -6.535  39.979   9.199  0.00  0.00    -0.272 OA
ATOM     89  N   GLY d   1      -7.217  42.052   9.628  0.00  0.00    -0.351 N 
ATOM     90  H46 GLY d   1      -6.985  42.975   9.936  0.00  0.00     0.163 HD
BRANCH  89  91
ATOM     91  CA  GLY d   1      -8.586  41.750   9.180  0.00  0.00     0.069 C 
ATOM     92  H47 GLY d   1      -9.227  42.600   9.456  0.00  0.00     0.078 H 
ATOM     93  H48 GLY d   1      -8.924  40.848   9.712  0.00  0.00     0.078 H 
BRANCH  91  94
ATOM     94  C   GLY d   1      -8.756  41.503   7.687  0.00  0.00     0.236 C 
ATOM     95  O   GLY d   1      -9.665  40.788   7.250  0.00  0.00    -0.272 OA
ATOM     96  N   KCR d   1      -7.865  42.062   6.882  0.00  0.00    -0.346 N 
ATOM     97  H49 KCR d   1      -7.053  42.500   7.268  0.00  0.00     0.163 HD
BRANCH  96  98
ATOM     98  CA  KCR d   1      -8.059  42.044   5.444  0.00  0.00     0.089 C 
ATOM     99  H50 KCR d   1      -9.115  41.838   5.213  0.00  0.00     0.087 H 
BRANCH  98 100
ATOM    100  CB  KCR d   1      -7.660  43.417   4.916  0.00  0.00    -0.038 C 
ATOM    101  H51 KCR d   1      -7.516  43.358   3.827  0.00  0.00     0.036 H 
ATOM    102  H52 KCR d   1      -6.720  43.729   5.394  0.00  0.00     0.036 H 
BRANCH 100 103
ATOM    103  CG  KCR d   1      -8.758  44.461   5.227  0.00  0.00    -0.061 C 
ATOM    104  H53 KCR d   1      -8.993  44.421   6.301  0.00  0.00     0.033 H 
ATOM    105  H54 KCR d   1      -9.659  44.215   4.645  0.00  0.00     0.033 H 
BRANCH 103 106
ATOM    106  CD  KCR d   1      -8.305  45.901   4.865  0.00  0.00    -0.050 C 
ATOM    107  H55 KCR d   1      -7.402  46.140   5.446  0.00  0.00     0.035 H 
ATOM    108  H56 KCR d   1      -9.110  46.600   5.135  0.00  0.00     0.035 H 
BRANCH 106 109
ATOM    109  CE  KCR d   1      -7.989  46.074   3.381  0.00  0.00    -0.004 C 
ATOM    110  H57 KCR d   1      -7.237  45.332   3.076  0.00  0.00     0.064 H 
ATOM    111  H58 KCR d   1      -7.598  47.087   3.203  0.00  0.00     0.064 H 
BRANCH 109 112
ATOM    112  NZ  KCR d   1      -9.208  45.879   2.607  0.00  0.00    -0.358 N 
ATOM    113  CH  KCR d   1      -9.910  46.922   2.129  0.00  0.00     0.240 C 
ATOM    114  OH  KCR d   1      -9.512  48.083   2.279  0.00  0.00    -0.269 OA
ATOM    115  H59 KCR d   1      -9.530  44.949   2.427  0.00  0.00     0.162 HD
BRANCH 113 116
ATOM    116  CX  KCR d   1     -11.151  46.504   1.360  0.00  0.00    -0.022 C 
ATOM    117  CY  KCR d   1     -11.889  47.207   0.535  0.00  0.00    -0.102 C 
ATOM    118  H61 KCR d   1     -11.629  48.251   0.366  0.00  0.00     0.076 H 
ATOM    119  H60 KCR d   1     -11.473  45.475   1.516  0.00  0.00     0.091 H 
BRANCH 117 120
ATOM    120  CH3 KCR d   1     -13.081  46.637  -0.191  0.00  0.00    -0.059 C 
ATOM    121  H62 KCR d   1     -13.534  47.417  -0.821  0.00  0.00     0.032 H 
ATOM    122  H63 KCR d   1     -13.821  46.282   0.541  0.00  0.00     0.032 H 
ATOM    123  H64 KCR d   1     -12.758  45.797  -0.823  0.00  0.00     0.032 H 
ENDBRANCH 117 120
ENDBRANCH 113 116
ENDBRANCH 109 112
ENDBRANCH 106 109
ENDBRANCH 103 106
ENDBRANCH 100 103
ENDBRANCH  98 100
BRANCH  98 124
ATOM    124  C   KCR d   1      -7.189  41.005   4.787  0.00  0.00     0.240 C 
ATOM    125  O   KCR d   1      -7.249  40.830   3.557  0.00  0.00    -0.271 OA
ATOM    126  N   GLY d   1      -6.364  40.296   5.564  0.00  0.00    -0.351 N 
ATOM    127  H65 GLY d   1      -6.211  40.559   6.517  0.00  0.00     0.163 HD
BRANCH 126 128
ATOM    128  CA  GLY d   1      -5.681  39.115   4.989  0.00  0.00     0.069 C 
ATOM    129  H66 GLY d   1      -6.261  38.815   4.104  0.00  0.00     0.078 H 
ATOM    130  H67 GLY d   1      -5.732  38.320   5.748  0.00  0.00     0.078 H 
BRANCH 128 131
ATOM    131  C   GLY d   1      -4.212  39.208   4.544  0.00  0.00     0.236 C 
ATOM    132  O   GLY d   1      -3.560  38.185   4.428  0.00  0.00    -0.272 OA
ATOM    133  N   LEU d   1      -3.710  40.419   4.270  0.00  0.00    -0.346 N 
ATOM    134  H68 LEU d   1      -4.317  41.204   4.392  0.00  0.00     0.163 HD
BRANCH 133 135
ATOM    135  CA  LEU d   1      -2.341  40.692   3.804  0.00  0.00     0.089 C 
ATOM    136  H69 LEU d   1      -1.812  39.731   3.726  0.00  0.00     0.087 H 
BRANCH 135 137
ATOM    137  C   LEU d   1      -1.589  41.553   4.812  0.00  0.00     0.240 C 
ATOM    138  O   LEU d   1      -0.801  42.384   4.394  0.00  0.00    -0.271 OA
ATOM    139  N   GLY d   1      -1.807  41.330   6.109  0.00  0.00    -0.349 N 
ATOM    140  H79 GLY d   1      -2.462  40.618   6.363  0.00  0.00     0.163 HD
BRANCH 139 141
ATOM    141  CA  GLY d   1      -1.137  42.073   7.184  0.00  0.00     0.075 C 
ATOM    142  H80 GLY d   1      -0.151  42.393   6.814  0.00  0.00     0.080 H 
ATOM    143  H81 GLY d   1      -1.005  41.392   8.038  0.00  0.00     0.080 H 
BRANCH 141 144
ATOM    144  C   GLY d   1      -1.882  43.312   7.677  0.00  0.00     0.191 C 
ATOM    145  O   GLY d   1      -2.974  43.633   7.139  0.00  0.00    -0.647 OA
ATOM    146  OXT GLY d   1      -1.394  43.996   8.615  0.00  0.00    -0.647 OA
ENDBRANCH 141 144
ENDBRANCH 139 141
ENDBRANCH 135 137
BRANCH 135 147
ATOM    147  CB  LEU d   1      -2.365  41.331   2.397  0.00  0.00    -0.035 C 
ATOM    148  H70 LEU d   1      -1.327  41.465   2.059  0.00  0.00     0.037 H 
ATOM    149  H71 LEU d   1      -2.856  42.312   2.470  0.00  0.00     0.037 H 
BRANCH 147 150
ATOM    150  CG  LEU d   1      -3.131  40.470   1.323  0.00  0.00    -0.059 C 
ATOM    151  H72 LEU d   1      -4.120  40.162   1.694  0.00  0.00     0.038 H 
BRANCH 150 152
ATOM    152  CD1 LEU d   1      -3.232  41.251   0.024  0.00  0.00    -0.073 C 
ATOM    153  H73 LEU d   1      -3.767  40.649  -0.725  0.00  0.00     0.028 H 
ATOM    154  H74 LEU d   1      -2.222  41.482  -0.345  0.00  0.00     0.028 H 
ATOM    155  H75 LEU d   1      -3.781  42.188   0.201  0.00  0.00     0.028 H 
ENDBRANCH 150 152
BRANCH 150 156
ATOM    156  CD2 LEU d   1      -2.254  39.283   0.972  0.00  0.00    -0.073 C 
ATOM    157  H76 LEU d   1      -2.121  38.650   1.861  0.00  0.00     0.028 H 
ATOM    158  H77 LEU d   1      -1.273  39.641   0.627  0.00  0.00     0.028 H 
ATOM    159  H78 LEU d   1      -2.732  38.697   0.173  0.00  0.00     0.028 H 
ENDBRANCH 150 156
ENDBRANCH 147 150
ENDBRANCH 135 147
ENDBRANCH 133 135
ENDBRANCH 128 131
ENDBRANCH 126 128
ENDBRANCH  98 124
ENDBRANCH  96  98
ENDBRANCH  91  94
ENDBRANCH  89  91
ENDBRANCH  84  87
ENDBRANCH   1  84
TORSDOF 46
