REMARK  17 active torsions:
REMARK  status: ('A' for Active; 'I' for Inactive)
REMARK    1  A    between atoms: C17_2  and  C18_3 
REMARK       I    between atoms: C17_2  and  N12_4 
REMARK    2  A    between atoms: N12_4  and  C12_5 
REMARK    3  A    between atoms: C13_6  and  C14_8 
REMARK    4  A    between atoms: C14_8  and  O14_9 
REMARK    5  A    between atoms: C14_8  and  C15_10 
REMARK    6  A    between atoms: C15_10  and  O15_11 
REMARK    7  A    between atoms: C15_10  and  C16_12 
REMARK    8  A    between atoms: C16_12  and  O16_13 
REMARK    9  A    between atoms: C11_14  and  O11_15 
REMARK   10  A    between atoms: C9_17  and  C19_18 
REMARK   11  A    between atoms: C9_17  and  O9_21 
REMARK   12  A    between atoms: O9_21  and  C3_22 
REMARK   13  A    between atoms: C4_23  and  O4_28 
REMARK   14  A    between atoms: C5_24  and  C6_26 
REMARK   15  A    between atoms: C6_26  and  O6_27 
REMARK   16  A    between atoms: C2_29  and  O2_30 
REMARK   17  A    between atoms: C1_31  and  O1_32 
ROOT
ATOM      1  C12 SLT d   1     -52.135 -54.024 -23.175  0.00  0.00     0.064 C 
ATOM      2  C13 SLT d   1     -53.005 -53.505 -24.321  0.00  0.00     0.091 C 
ATOM      3  O13 SLT d   1     -54.355 -53.996 -24.214  0.00  0.00    -0.336 OA
ATOM      4  C11 SLT d   1     -52.234 -55.540 -23.153  0.00  0.00     0.063 C 
ATOM      5  C10 SLT d   1     -53.687 -55.974 -23.028  0.00  0.00     0.024 C 
ATOM      6  C9  SLT d   1     -54.589 -55.418 -24.144  0.00  0.00     0.259 C 
ATOM      7  H5  SLT d   1     -52.511 -53.603 -22.231  0.00  0.00     0.080 H 
ATOM      8  H6  SLT d   1     -52.579 -53.897 -25.256  0.00  0.00     0.090 H 
ATOM      9  H14 SLT d   1     -51.823 -55.944 -24.090  0.00  0.00     0.086 H 
ATOM     10  H16 SLT d   1     -54.074 -55.623 -22.060  0.00  0.00     0.045 H 
ATOM     11  H17 SLT d   1     -53.727 -57.073 -23.062  0.00  0.00     0.045 H 
ENDROOT
BRANCH   6  12
ATOM     12  C19 SLT d   1     -54.231 -56.136 -25.445  0.00  0.00     0.239 C 
ATOM     13  O20 SLT d   1     -54.094 -57.393 -25.481  0.00  0.00    -0.644 OA
ATOM     14  O19 SLT d   1     -54.039 -55.454 -26.483  0.00  0.00    -0.644 OA
ENDBRANCH   6  12
BRANCH   6  15
ATOM     15  O9  SLT d   1     -55.914 -55.585 -23.571  0.00  0.00    -0.336 OA
BRANCH  15  16
ATOM     16  C3  SLT d   1     -57.254 -55.897 -24.061  0.00  0.00     0.099 C 
ATOM     17  C4  SLT d   1     -58.262 -54.971 -23.310  0.00  0.00     0.090 C 
ATOM     18  C5  SLT d   1     -59.674 -54.939 -23.937  0.00  0.00     0.089 C 
ATOM     19  H19 SLT d   1     -58.376 -55.384 -22.297  0.00  0.00     0.091 H 
ATOM     20  O5  SLT d   1     -59.543 -54.764 -25.353  0.00  0.00    -0.349 OA
ATOM     21  H20 SLT d   1     -60.141 -55.917 -23.747  0.00  0.00     0.090 H 
ATOM     22  C1  SLT d   1     -58.948 -55.913 -25.955  0.00  0.00     0.156 C 
ATOM     23  C2  SLT d   1     -57.479 -55.977 -25.579  0.00  0.00     0.110 C 
ATOM     24  H27 SLT d   1     -59.458 -56.813 -25.581  0.00  0.00     0.133 H 
ATOM     25  H25 SLT d   1     -56.913 -55.175 -26.076  0.00  0.00     0.094 H 
ATOM     26  H18 SLT d   1     -57.459 -56.919 -23.708  0.00  0.00     0.091 H 
BRANCH  17  27
ATOM     27  O4  SLT d   1     -57.730 -53.644 -23.172  0.00  0.00    -0.390 OA
ATOM     28  H24 SLT d   1     -56.864 -53.690 -22.785  0.00  0.00     0.210 HD
ENDBRANCH  17  27
BRANCH  18  29
ATOM     29  C6  SLT d   1     -60.619 -53.866 -23.373  0.00  0.00     0.043 C 
ATOM     30  H21 SLT d   1     -60.235 -52.870 -23.638  0.00  0.00     0.078 H 
ATOM     31  H22 SLT d   1     -60.664 -53.962 -22.278  0.00  0.00     0.078 H 
BRANCH  29  32
ATOM     32  O6  SLT d   1     -61.945 -54.024 -23.918  0.00  0.00    -0.398 OA
ATOM     33  H23 SLT d   1     -61.910 -53.939 -24.863  0.00  0.00     0.209 HD
ENDBRANCH  29  32
ENDBRANCH  18  29
BRANCH  22  34
ATOM     34  O1  SLT d   1     -59.061 -55.877 -27.372  0.00  0.00    -0.369 OA
ATOM     35  H28 SLT d   1     -58.656 -56.654 -27.741  0.00  0.00     0.212 HD
ENDBRANCH  22  34
BRANCH  23  36
ATOM     36  O2  SLT d   1     -57.087 -57.268 -26.059  0.00  0.00    -0.388 OA
ATOM     37  H26 SLT d   1     -56.167 -57.409 -25.869  0.00  0.00     0.210 HD
ENDBRANCH  23  36
ENDBRANCH  15  16
ENDBRANCH   6  15
BRANCH   2  38
ATOM     38  C14 SLT d   1     -53.005 -51.964 -24.423  0.00  0.00     0.089 C 
ATOM     39  H7  SLT d   1     -51.968 -51.645 -24.244  0.00  0.00     0.091 H 
BRANCH  38  40
ATOM     40  O14 SLT d   1     -53.793 -51.388 -23.377  0.00  0.00    -0.390 OA
ATOM     41  H8  SLT d   1     -53.780 -50.441 -23.457  0.00  0.00     0.210 HD
ENDBRANCH  38  40
BRANCH  38  42
ATOM     42  C15 SLT d   1     -53.376 -51.421 -25.820  0.00  0.00     0.083 C 
ATOM     43  H9  SLT d   1     -52.492 -51.597 -26.451  0.00  0.00     0.090 H 
BRANCH  42  44
ATOM     44  O15 SLT d   1     -53.661 -50.022 -25.847  0.00  0.00    -0.391 OA
ATOM     45  H10 SLT d   1     -54.395 -49.838 -25.272  0.00  0.00     0.210 HD
ENDBRANCH  42  44
BRANCH  42  46
ATOM     46  C16 SLT d   1     -54.547 -52.071 -26.498  0.00  0.00     0.043 C 
ATOM     47  H11 SLT d   1     -55.025 -51.369 -27.197  0.00  0.00     0.078 H 
ATOM     48  H12 SLT d   1     -55.284 -52.406 -25.754  0.00  0.00     0.078 H 
BRANCH  46  49
ATOM     49  O16 SLT d   1     -54.010 -53.186 -27.203  0.00  0.00    -0.398 OA
ATOM     50  H13 SLT d   1     -53.593 -53.778 -26.587  0.00  0.00     0.209 HD
ENDBRANCH  46  49
ENDBRANCH  42  46
ENDBRANCH  38  42
ENDBRANCH   2  38
BRANCH   4  51
ATOM     51  O11 SLT d   1     -51.457 -56.033 -22.046  0.00  0.00    -0.393 OA
ATOM     52  H15 SLT d   1     -50.551 -55.768 -22.154  0.00  0.00     0.210 HD
ENDBRANCH   4  51
BRANCH   1  53
ATOM     53  N12 SLT d   1     -50.700 -53.708 -23.305  0.00  0.00    -0.352 N 
ATOM     54  C17 SLT d   1     -50.085 -52.743 -22.636  0.00  0.00     0.214 C 
ATOM     55  O17 SLT d   1     -50.703 -51.995 -21.919  0.00  0.00    -0.274 OA
ATOM     56  H4  SLT d   1     -50.156 -54.258 -23.939  0.00  0.00     0.163 HD
BRANCH  54  57
ATOM     57  C18 SLT d   1     -48.596 -52.600 -22.773  0.00  0.00    -0.003 C 
ATOM     58  H1  SLT d   1     -48.216 -53.367 -23.465  0.00  0.00     0.040 H 
ATOM     59  H2  SLT d   1     -48.123 -52.728 -21.788  0.00  0.00     0.040 H 
ATOM     60  H3  SLT d   1     -48.358 -51.601 -23.167  0.00  0.00     0.040 H 
ENDBRANCH  54  57
ENDBRANCH   1  53
TORSDOF 17
