REMARK  5 active torsions:
REMARK  status: ('A' for Active; 'I' for Inactive)
REMARK    1  A    between atoms: C8_8  and  C22_22 
REMARK    2  A    between atoms: C23_23  and  C9_9 
REMARK    3  A    between atoms: C24_24  and  C10_10 
REMARK       I    between atoms: N25_25  and  C13_13 
REMARK       I    between atoms: C13_13  and  N26_26 
REMARK    4  A    between atoms: N26_26  and  C23_23 
REMARK    5  A    between atoms: C24_24  and  N27_27 
ROOT
ATOM      1  C13 4K7 d   1     -73.373  22.102 -16.587  0.00  0.00     0.318 C 
ATOM      2  C14 4K7 d   1     -73.602  24.315 -13.569  0.00  0.00    -0.049 C 
ATOM      3  C15 4K7 d   1     -72.292  25.118 -13.687  0.00  0.00    -0.053 C 
ATOM      4  C16 4K7 d   1     -71.412  26.531 -15.607  0.00  0.00    -0.032 C 
ATOM      5  C17 4K7 d   1     -73.579  22.994 -14.342  0.00  0.00    -0.001 C 
ATOM      6  C18 4K7 d   1     -72.652  24.451 -16.140  0.00  0.00     0.008 C 
ATOM      7  C19 4K7 d   1     -69.891  26.537 -15.862  0.00  0.00     0.085 C 
ATOM      8  C20 4K7 d   1     -70.345  24.345 -15.130  0.00  0.00     0.092 C 
ATOM      9  C21 4K7 d   1     -71.698  25.098 -15.116  0.00  0.00     0.002 C 
ATOM     10  N25 4K7 d   1     -73.209  23.138 -15.755  0.00  0.00    -0.333 N 
ATOM     11  N26 4K7 d   1     -73.033  22.165 -17.876  0.00  0.00    -0.339 N 
ATOM     12  N27 4K7 d   1     -69.518  25.126 -16.055  0.00  0.00    -0.066 N 
ATOM     13  O28 4K7 d   1     -73.866  21.047 -16.129  0.00  0.00    -0.247 OA
ATOM     14  H8  4K7 d   1     -74.425  24.932 -13.958  0.00  0.00     0.035 H 
ATOM     15  H9  4K7 d   1     -73.781  24.094 -12.506  0.00  0.00     0.035 H 
ATOM     16  H10 4K7 d   1     -71.553  24.688 -12.994  0.00  0.00     0.034 H 
ATOM     17  H11 4K7 d   1     -72.494  26.162 -13.406  0.00  0.00     0.034 H 
ATOM     18  H12 4K7 d   1     -71.965  26.745 -16.533  0.00  0.00     0.036 H 
ATOM     19  H13 4K7 d   1     -71.683  27.270 -14.838  0.00  0.00     0.036 H 
ATOM     20  H14 4K7 d   1     -74.582  22.545 -14.291  0.00  0.00     0.064 H 
ATOM     21  H15 4K7 d   1     -72.852  22.323 -13.860  0.00  0.00     0.064 H 
ATOM     22  H16 4K7 d   1     -72.099  24.321 -17.082  0.00  0.00     0.065 H 
ATOM     23  H17 4K7 d   1     -73.493  25.141 -16.301  0.00  0.00     0.065 H 
ATOM     24  H18 4K7 d   1     -69.358  26.960 -14.998  0.00  0.00     0.076 H 
ATOM     25  H19 4K7 d   1     -69.655  27.123 -16.762  0.00  0.00     0.076 H 
ATOM     26  H20 4K7 d   1     -70.474  23.315 -15.494  0.00  0.00     0.077 H 
ATOM     27  H21 4K7 d   1     -69.897  24.326 -14.126  0.00  0.00     0.077 H 
ATOM     28  H29 4K7 d   1     -72.629  23.006 -18.236  0.00  0.00     0.164 HD
ATOM     29  H30 4K7 d   1     -69.697  24.840 -17.005  0.00  0.00     0.280 HD
ENDROOT
BRANCH  12  30
ATOM     30  C24 4K7 d   1     -68.080  24.964 -15.751  0.00  0.00     0.107 C 
ATOM     31  H27 4K7 d   1     -67.489  25.480 -16.523  0.00  0.00     0.083 H 
ATOM     32  H28 4K7 d   1     -67.868  25.410 -14.768  0.00  0.00     0.083 H 
BRANCH  30  33
ATOM     33  C10 4K7 d   1     -67.689  23.498 -15.725  0.00  0.00    -0.031 A 
ATOM     34  C5  4K7 d   1     -67.250  22.908 -14.535  0.00  0.00    -0.073 A 
ATOM     35  C6  4K7 d   1     -66.893  21.555 -14.508  0.00  0.00    -0.060 A 
ATOM     36  H5  4K7 d   1     -67.186  23.501 -13.630  0.00  0.00     0.084 H 
ATOM     37  C11 4K7 d   1     -66.969  20.783 -15.674  0.00  0.00     0.055 A 
ATOM     38  H6  4K7 d   1     -66.557  21.103 -13.582  0.00  0.00     0.086 H 
ATOM     39  C12 4K7 d   1     -67.405  21.373 -16.863  0.00  0.00     0.056 A 
ATOM     40 CL1  4K7 d   1     -66.530  19.101 -15.651  0.00  0.00    -0.083 Cl
ATOM     41  C7  4K7 d   1     -67.760  22.725 -16.888  0.00  0.00    -0.053 A 
ATOM     42 CL2  4K7 d   1     -67.512  20.435 -18.321  0.00  0.00    -0.083 Cl
ATOM     43  H7  4K7 d   1     -68.093  23.177 -17.815  0.00  0.00     0.087 H 
ENDBRANCH  30  33
ENDBRANCH  12  30
BRANCH  11  44
ATOM     44  C23 4K7 d   1     -73.242  21.020 -18.779  0.00  0.00     0.021 C 
ATOM     45  H25 4K7 d   1     -74.306  20.742 -18.766  0.00  0.00     0.071 H 
ATOM     46  H26 4K7 d   1     -72.951  21.310 -19.799  0.00  0.00     0.071 H 
BRANCH  44  47
ATOM     47  C9  4K7 d   1     -72.418  19.831 -18.351  0.00  0.00    -0.040 A 
ATOM     48  C3  4K7 d   1     -72.892  18.534 -18.594  0.00  0.00    -0.075 A 
ATOM     49  C1  4K7 d   1     -72.136  17.425 -18.197  0.00  0.00    -0.077 A 
ATOM     50  H3  4K7 d   1     -73.845  18.390 -19.090  0.00  0.00     0.084 H 
ATOM     51  C8  4K7 d   1     -70.909  17.622 -17.555  0.00  0.00    -0.062 A 
ATOM     52  H1  4K7 d   1     -72.499  16.421 -18.386  0.00  0.00     0.084 H 
ATOM     53  C2  4K7 d   1     -70.436  18.913 -17.304  0.00  0.00    -0.077 A 
ATOM     54  C4  4K7 d   1     -71.192  20.021 -17.703  0.00  0.00    -0.075 A 
ATOM     55  H2  4K7 d   1     -69.486  19.056 -16.802  0.00  0.00     0.084 H 
ATOM     56  H4  4K7 d   1     -70.829  21.024 -17.511  0.00  0.00     0.084 H 
BRANCH  51  57
ATOM     57  C22 4K7 d   1     -70.090  16.442 -17.117  0.00  0.00    -0.051 C 
ATOM     58  H22 4K7 d   1     -70.609  15.512 -17.393  0.00  0.00     0.033 H 
ATOM     59  H23 4K7 d   1     -69.953  16.475 -16.026  0.00  0.00     0.033 H 
ATOM     60  H24 4K7 d   1     -69.108  16.474 -17.611  0.00  0.00     0.033 H 
ENDBRANCH  51  57
ENDBRANCH  44  47
ENDBRANCH  11  44
TORSDOF 5
