REMARK  8 active torsions:
REMARK  status: ('A' for Active; 'I' for Inactive)
REMARK    1  A    between atoms: C25_2  and  N3_31 
REMARK    2  A    between atoms: C23_4  and  N4_34 
REMARK    3  A    between atoms: C22_5  and  O6_32 
REMARK    4  A    between atoms: C21_6  and  C26_7 
REMARK    5  A    between atoms: C21_6  and  N2_8 
REMARK    6  A    between atoms: C8_23  and  O5_24 
REMARK    7  A    between atoms: O6_32  and  C27_33 
REMARK    8  A    between atoms: N4_34  and  C28_35 
ROOT
ATOM      1  O4  STU d   1     -20.084  35.708 -53.719  0.00  0.00    -0.333 OA
ATOM      2  C25 STU d   1     -21.111  34.656 -53.571  0.00  0.00     0.115 C 
ATOM      3  C24 STU d   1     -21.357  34.392 -52.068  0.00  0.00     0.005 C 
ATOM      4  C23 STU d   1     -20.460  35.269 -51.239  0.00  0.00     0.134 C 
ATOM      5  C22 STU d   1     -19.048  35.128 -51.670  0.00  0.00     0.113 C 
ATOM      6  C21 STU d   1     -18.877  35.748 -53.024  0.00  0.00     0.168 C 
ATOM      7  H1  STU d   1     -22.049  34.983 -54.043  0.00  0.00     0.118 H 
ATOM      8  H2  STU d   1     -21.143  33.337 -51.844  0.00  0.00     0.042 H 
ATOM      9  H3  STU d   1     -22.407  34.613 -51.826  0.00  0.00     0.042 H 
ATOM     10  H4  STU d   1     -20.772  36.317 -51.357  0.00  0.00     0.088 H 
ATOM     11  H5  STU d   1     -18.394  35.645 -50.952  0.00  0.00     0.094 H 
ENDROOT
BRANCH   4  12
ATOM     12  N4  STU d   1     -20.563  34.887 -49.839  0.00  0.00    -0.072 N 
ATOM     13  H26 STU d   1     -19.930  34.124 -49.654  0.00  0.00     0.277 HD
ATOM     14  H27 STU d   1     -21.508  34.595 -49.642  0.00  0.00     0.277 HD
BRANCH  12  15
ATOM     15  C28 STU d   1     -20.222  36.008 -48.988  0.00  0.00     0.065 C 
ATOM     16  H28 STU d   1     -20.304  35.706 -47.933  0.00  0.00     0.067 H 
ATOM     17  H29 STU d   1     -20.912  36.841 -49.185  0.00  0.00     0.067 H 
ATOM     18  H30 STU d   1     -19.191  36.328 -49.199  0.00  0.00     0.067 H 
ENDBRANCH  12  15
ENDBRANCH   4  12
BRANCH   5  19
ATOM     19  O6  STU d   1     -18.703  33.737 -51.704  0.00  0.00    -0.384 OA
BRANCH  19  20
ATOM     20  C27 STU d   1     -17.381  33.422 -51.237  0.00  0.00     0.005 C 
ATOM     21  H23 STU d   1     -17.218  32.336 -51.304  0.00  0.00     0.066 H 
ATOM     22  H24 STU d   1     -17.275  33.745 -50.191  0.00  0.00     0.066 H 
ATOM     23  H25 STU d   1     -16.639  33.944 -51.859  0.00  0.00     0.066 H 
ENDBRANCH  19  20
ENDBRANCH   5  19
BRANCH   2  24
ATOM     24  N3  STU d   1     -20.663  33.528 -54.182  0.00  0.00    -0.316 N 
ATOM     25  C19 STU d   1     -19.303  33.234 -54.731  0.00  0.00     0.077 A 
ATOM     26  C18 STU d   1     -18.137  33.888 -54.531  0.00  0.00     0.077 A 
ATOM     27  C6  STU d   1     -19.397  32.067 -55.544  0.00  0.00     0.017 A 
ATOM     28  N2  STU d   1     -17.844  35.041 -53.767  0.00  0.00    -0.308 N 
ATOM     29  C11 STU d   1     -16.977  33.416 -55.137  0.00  0.00     0.014 A 
ATOM     30  C17 STU d   1     -16.430  35.278 -53.924  0.00  0.00     0.049 A 
ATOM     31  C12 STU d   1     -15.908  34.283 -54.762  0.00  0.00     0.004 A 
ATOM     32  C16 STU d   1     -15.597  36.263 -53.412  0.00  0.00    -0.056 A 
ATOM     33  C13 STU d   1     -14.550  34.280 -55.083  0.00  0.00    -0.070 A 
ATOM     34  C14 STU d   1     -13.697  35.271 -54.567  0.00  0.00    -0.082 A 
ATOM     35  H12 STU d   1     -14.151  33.510 -55.733  0.00  0.00     0.084 H 
ATOM     36  C15 STU d   1     -14.228  36.268 -53.727  0.00  0.00    -0.081 A 
ATOM     37  H11 STU d   1     -12.641  35.267 -54.813  0.00  0.00     0.083 H 
ATOM     38  H10 STU d   1     -13.581  37.039 -53.324  0.00  0.00     0.083 H 
ATOM     39  H9  STU d   1     -16.005  37.032 -52.766  0.00  0.00     0.087 H 
ATOM     40  C10 STU d   1     -17.040  32.268 -55.947  0.00  0.00    -0.008 A 
ATOM     41  C7  STU d   1     -18.209  31.606 -56.151  0.00  0.00     0.020 A 
ATOM     42  C9  STU d   1     -15.872  31.589 -56.710  0.00  0.00     0.110 A 
ATOM     43  C8  STU d   1     -17.954  30.530 -56.989  0.00  0.00     0.218 A 
ATOM     44  N1  STU d   1     -16.559  30.417 -57.300  0.00  0.00    -0.041 N 
ATOM     45  H17 STU d   1     -17.849  29.869 -56.116  0.00  0.00     0.137 H 
ATOM     46  H15 STU d   1     -16.187  29.567 -56.907  0.00  0.00     0.281 HD
ATOM     47  H16 STU d   1     -16.429  30.410 -58.300  0.00  0.00     0.281 HD
ATOM     48  H13 STU d   1     -15.067  31.282 -56.026  0.00  0.00     0.083 H 
ATOM     49  H14 STU d   1     -15.460  32.249 -57.488  0.00  0.00     0.083 H 
ATOM     50  C5  STU d   1     -20.761  31.628 -55.541  0.00  0.00     0.004 A 
ATOM     51  C20 STU d   1     -21.506  32.488 -54.753  0.00  0.00     0.048 A 
ATOM     52  C4  STU d   1     -21.444  30.557 -56.154  0.00  0.00    -0.070 A 
ATOM     53  C1  STU d   1     -22.861  32.337 -54.541  0.00  0.00    -0.056 A 
ATOM     54  C2  STU d   1     -23.544  31.283 -55.141  0.00  0.00    -0.081 A 
ATOM     55  H19 STU d   1     -23.393  33.038 -53.908  0.00  0.00     0.087 H 
ATOM     56  C3  STU d   1     -22.835  30.386 -55.954  0.00  0.00    -0.082 A 
ATOM     57  H20 STU d   1     -24.609  31.157 -54.982  0.00  0.00     0.083 H 
ATOM     58  H21 STU d   1     -23.353  29.561 -56.430  0.00  0.00     0.083 H 
ATOM     59  H22 STU d   1     -20.901  29.860 -56.782  0.00  0.00     0.084 H 
BRANCH  43  60
ATOM     60  O5  STU d   1     -18.878  29.618 -57.526  0.00  0.00    -0.366 OA
ATOM     61  H18 STU d   1     -19.751  29.836 -57.220  0.00  0.00     0.212 HD
ENDBRANCH  43  60
ENDBRANCH   2  24
BRANCH   6  62
ATOM     62  C26 STU d   1     -18.540  37.187 -52.896  0.00  0.00    -0.028 C 
ATOM     63  H6  STU d   1     -17.590  37.294 -52.352  0.00  0.00     0.034 H 
ATOM     64  H7  STU d   1     -19.339  37.703 -52.343  0.00  0.00     0.034 H 
ATOM     65  H8  STU d   1     -18.441  37.631 -53.898  0.00  0.00     0.034 H 
ENDBRANCH   6  62
TORSDOF 8
