REMARK  9 active torsions:
REMARK  status: ('A' for Active; 'I' for Inactive)
REMARK    1  A    between atoms: NBL_8  and  CAB_9 
REMARK    2  A    between atoms: CBK_13  and  NBN_12 
REMARK       I    between atoms: CBA_19  and  NBM_18 
REMARK    3  A    between atoms: CBB_21  and  CBA_19 
REMARK    4  A    between atoms: CBE_23  and  OAZ_24 
REMARK    5  A    between atoms: OAZ_24  and  CAA_25 
REMARK    6  A    between atoms: NAY_29  and  CBC_28 
REMARK    7  A    between atoms: NAY_29  and  C2_30 
REMARK    8  A    between atoms: NBP_31  and  CAD_32 
REMARK    9  A    between atoms: NBO_41  and  CAC_42 
ROOT
ATOM      1  CBB 4K4 d   1     -21.528 -13.456 -35.887  0.00  0.00     0.035 A 
ATOM      2  CAN 4K4 d   1     -22.542 -14.264 -35.322  0.00  0.00    -0.033 A 
ATOM      3  CBE 4K4 d   1     -23.332 -13.758 -34.262  0.00  0.00     0.096 A 
ATOM      4  CAI 4K4 d   1     -21.332 -12.157 -35.387  0.00  0.00    -0.065 A 
ATOM      5  CAJ 4K4 d   1     -22.077 -11.658 -34.325  0.00  0.00    -0.053 A 
ATOM      6  CBC 4K4 d   1     -23.058 -12.460 -33.765  0.00  0.00     0.082 A 
ATOM      7  H24 4K4 d   1     -22.713 -15.266 -35.699  0.00  0.00     0.089 H 
ATOM      8  H28 4K4 d   1     -20.578 -11.526 -35.843  0.00  0.00     0.085 H 
ATOM      9  H29 4K4 d   1     -21.894 -10.661 -33.942  0.00  0.00     0.087 H 
ENDROOT
BRANCH   1  10
ATOM     10  CBA 4K4 d   1     -20.747 -13.929 -36.967  0.00  0.00     0.253 C 
ATOM     11  NBM 4K4 d   1     -19.381 -13.738 -37.058  0.00  0.00    -0.348 N 
ATOM     12  CAR 4K4 d   1     -18.538 -13.012 -36.021  0.00  0.00    -0.000 C 
ATOM     13  CAQ 4K4 d   1     -18.687 -14.267 -38.287  0.00  0.00    -0.000 C 
ATOM     14  CAP 4K4 d   1     -17.107 -13.609 -35.764  0.00  0.00    -0.023 C 
ATOM     15  H18 4K4 d   1     -18.415 -11.971 -36.355  0.00  0.00     0.064 H 
ATOM     16  H19 4K4 d   1     -19.087 -13.029 -35.068  0.00  0.00     0.064 H 
ATOM     17  CBK 4K4 d   1     -16.815 -14.885 -36.624  0.00  0.00     0.107 C 
ATOM     18  H16 4K4 d   1     -16.358 -12.842 -36.009  0.00  0.00     0.038 H 
ATOM     19  H17 4K4 d   1     -17.024 -13.876 -34.700  0.00  0.00     0.038 H 
ATOM     20  CAO 4K4 d   1     -17.189 -14.634 -38.107  0.00  0.00    -0.023 C 
ATOM     21  H15 4K4 d   1     -17.495 -15.669 -36.260  0.00  0.00     0.084 H 
ATOM     22  H20 4K4 d   1     -16.977 -15.546 -38.684  0.00  0.00     0.038 H 
ATOM     23  H21 4K4 d   1     -16.574 -13.807 -38.491  0.00  0.00     0.038 H 
ATOM     24  H22 4K4 d   1     -19.220 -15.172 -38.613  0.00  0.00     0.064 H 
ATOM     25  H23 4K4 d   1     -18.755 -13.498 -39.071  0.00  0.00     0.064 H 
ATOM     26  OAE 4K4 d   1     -21.362 -14.527 -37.851  0.00  0.00    -0.267 OA
BRANCH  17  27
ATOM     27  NBN 4K4 d   1     -15.427 -15.428 -36.439  0.00  0.00    -0.064 N 
ATOM     28  CAU 4K4 d   1     -14.305 -14.838 -37.237  0.00  0.00     0.106 C 
ATOM     29  CAS 4K4 d   1     -13.410 -15.889 -37.941  0.00  0.00     0.105 C 
ATOM     30  H2  4K4 d   1     -14.736 -14.181 -38.006  0.00  0.00     0.078 H 
ATOM     31  H3  4K4 d   1     -13.674 -14.245 -36.559  0.00  0.00     0.078 H 
ATOM     32  NBL 4K4 d   1     -14.192 -17.100 -38.290  0.00  0.00    -0.072 N 
ATOM     33  H4  4K4 d   1     -12.589 -16.172 -37.267  0.00  0.00     0.078 H 
ATOM     34  H5  4K4 d   1     -12.995 -15.451 -38.861  0.00  0.00     0.078 H 
ATOM     35  CAT 4K4 d   1     -14.596 -17.804 -37.057  0.00  0.00     0.105 C 
ATOM     36  H6  4K4 d   1     -15.027 -16.802 -38.769  0.00  0.00     0.279 HD
ATOM     37  CAV 4K4 d   1     -15.367 -16.877 -36.071  0.00  0.00     0.106 C 
ATOM     38  H10 4K4 d   1     -13.694 -18.182 -36.554  0.00  0.00     0.078 H 
ATOM     39  H11 4K4 d   1     -15.246 -18.649 -37.329  0.00  0.00     0.078 H 
ATOM     40  H12 4K4 d   1     -14.880 -16.954 -35.087  0.00  0.00     0.078 H 
ATOM     41  H13 4K4 d   1     -16.400 -17.248 -35.999  0.00  0.00     0.078 H 
ATOM     42  H14 4K4 d   1     -15.207 -15.020 -35.544  0.00  0.00     0.280 HD
BRANCH  32  43
ATOM     43  CAB 4K4 d   1     -13.455 -18.002 -39.197  0.00  0.00     0.066 C 
ATOM     44  H7  4K4 d   1     -14.076 -18.881 -39.424  0.00  0.00     0.068 H 
ATOM     45  H8  4K4 d   1     -12.522 -18.327 -38.713  0.00  0.00     0.068 H 
ATOM     46  H9  4K4 d   1     -13.217 -17.470 -40.130  0.00  0.00     0.068 H 
ENDBRANCH  32  43
ENDBRANCH  17  27
ENDBRANCH   1  10
BRANCH   3  47
ATOM     47  OAZ 4K4 d   1     -24.332 -14.481 -33.595  0.00  0.00    -0.354 OA
BRANCH  47  48
ATOM     48  CAA 4K4 d   1     -25.400 -15.037 -34.309  0.00  0.00     0.010 C 
ATOM     49  H25 4K4 d   1     -26.073 -15.561 -33.614  0.00  0.00     0.066 H 
ATOM     50  H26 4K4 d   1     -25.013 -15.750 -35.052  0.00  0.00     0.066 H 
ATOM     51  H27 4K4 d   1     -25.954 -14.237 -34.822  0.00  0.00     0.066 H 
ENDBRANCH  47  48
ENDBRANCH   3  47
BRANCH   6  52
ATOM     52  NAY 4K4 d   1     -23.831 -12.055 -32.765  0.00  0.00    -0.185 N 
ATOM     53  H30 4K4 d   1     -24.845 -12.228 -32.825  0.00  0.00     0.184 HD
BRANCH  52  54
ATOM     54  C2  4K4 d   1     -23.357 -11.438 -31.692  0.00  0.00     0.729 A 
ATOM     55  N1  4K4 d   1     -24.216 -11.118 -30.706  0.00  0.00    -0.073 NA
ATOM     56  C6  4K4 d   1     -23.799 -10.446 -29.555  0.00  0.00     0.051 A 
ATOM     57  C5  4K4 d   1     -22.459 -10.099 -29.424  0.00  0.00     0.102 A 
ATOM     58  H1  4K4 d   1     -24.510 -10.198 -28.775  0.00  0.00     0.119 H 
ATOM     59  C4  4K4 d   1     -21.611 -10.473 -30.476  0.00  0.00     0.177 A 
ATOM     60  NBO 4K4 d   1     -22.127  -9.456 -28.248  0.00  0.00    -0.314 N 
ATOM     61  N3  4K4 d   1     -22.075 -11.110 -31.584  0.00  0.00    -0.042 NA
ATOM     62  NBP 4K4 d   1     -20.296 -10.183 -30.579  0.00  0.00    -0.333 N 
ATOM     63  CBH 4K4 d   1     -19.869  -8.965 -30.268  0.00  0.00     0.051 A 
ATOM     64  CAL 4K4 d   1     -19.090  -8.439 -31.292  0.00  0.00    -0.056 A 
ATOM     65  CBG 4K4 d   1     -20.192  -8.253 -29.122  0.00  0.00     0.059 A 
ATOM     66  CAH 4K4 d   1     -18.574  -7.178 -31.166  0.00  0.00    -0.081 A 
ATOM     67  H34 4K4 d   1     -18.893  -9.023 -32.184  0.00  0.00     0.087 H 
ATOM     68  CAG 4K4 d   1     -18.867  -6.468 -30.009  0.00  0.00    -0.082 A 
ATOM     69  H35 4K4 d   1     -17.956  -6.747 -31.945  0.00  0.00     0.083 H 
ATOM     70  CAK 4K4 d   1     -19.678  -6.971 -28.996  0.00  0.00    -0.065 A 
ATOM     71  H36 4K4 d   1     -18.445  -5.477 -29.889  0.00  0.00     0.083 H 
ATOM     72  H37 4K4 d   1     -19.904  -6.370 -28.122  0.00  0.00     0.085 H 
ATOM     73  CBF 4K4 d   1     -21.041  -8.649 -28.066  0.00  0.00     0.260 C 
ATOM     74  OAF 4K4 d   1     -20.917  -8.165 -26.927  0.00  0.00    -0.267 OA
BRANCH  62  75
ATOM     75  CAD 4K4 d   1     -19.298 -11.127 -31.184  0.00  0.00    -0.012 C 
ATOM     76  H31 4K4 d   1     -19.784 -12.092 -31.390  0.00  0.00     0.057 H 
ATOM     77  H32 4K4 d   1     -18.465 -11.279 -30.482  0.00  0.00     0.057 H 
ATOM     78  H33 4K4 d   1     -18.914 -10.702 -32.123  0.00  0.00     0.057 H 
ENDBRANCH  62  75
BRANCH  60  79
ATOM     79  CAC 4K4 d   1     -22.930  -9.724 -26.960  0.00  0.00    -0.011 C 
ATOM     80  H38 4K4 d   1     -23.784 -10.379 -27.190  0.00  0.00     0.057 H 
ATOM     81  H39 4K4 d   1     -23.298  -8.771 -26.552  0.00  0.00     0.057 H 
ATOM     82  H40 4K4 d   1     -22.282 -10.214 -26.219  0.00  0.00     0.057 H 
ENDBRANCH  60  79
ENDBRANCH  52  54
ENDBRANCH   6  52
TORSDOF 9
