REMARK  8 active torsions:
REMARK  status: ('A' for Active; 'I' for Inactive)
REMARK    1  A    between atoms: NAS_9  and  C4_1 
REMARK    2  A    between atoms: C5_2  and  CBF_10 
REMARK    3  A    between atoms: CBD_8  and  NAS_9 
REMARK    4  A    between atoms: C2_14  and  NAR_15 
REMARK    5  A    between atoms: NAR_15  and  CAY_16 
REMARK    6  A    between atoms: CAZ_17  and  OAT_19 
REMARK    7  A    between atoms: OAT_19  and  CAA_20 
REMARK    8  A    between atoms: CBA_24  and  CAV_25 
REMARK       I    between atoms: CAV_25  and  NBE_27 
ROOT
ATOM      1  CAY 4K5 d   1      -9.777  15.880  18.953  0.00  0.00     0.085 A 
ATOM      2  CAZ 4K5 d   1     -10.392  17.108  19.266  0.00  0.00     0.096 A 
ATOM      3  CAI 4K5 d   1      -9.798  18.031  20.153  0.00  0.00    -0.030 A 
ATOM      4  CAH 4K5 d   1      -8.559  15.581  19.581  0.00  0.00    -0.016 A 
ATOM      5  CAW 4K5 d   1      -7.974  16.520  20.444  0.00  0.00     0.134 A 
ATOM      6  FAC 4K5 d   1      -6.801  16.217  20.950  0.00  0.00    -0.205 F 
ATOM      7  CBA 4K5 d   1      -8.554  17.768  20.708  0.00  0.00     0.073 A 
ATOM      8  H9  4K5 d   1     -10.316  18.950  20.402  0.00  0.00     0.089 H 
ATOM      9  H13 4K5 d   1      -8.072  14.629  19.401  0.00  0.00     0.091 H 
ENDROOT
BRANCH   1  10
ATOM     10  NAR 4K5 d   1     -10.536  15.007  18.155  0.00  0.00    -0.185 N 
ATOM     11  H8  4K5 d   1     -11.553  15.169  18.138  0.00  0.00     0.184 HD
BRANCH  10  12
ATOM     12  C2  4K5 d   1     -10.091  14.007  17.428  0.00  0.00     0.728 C 
ATOM     13  N1  4K5 d   1     -11.007  13.342  16.687  0.00  0.00    -0.074 NA
ATOM     14  C6  4K5 d   1     -10.613  12.312  15.876  0.00  0.00     0.039 C 
ATOM     15  C5  4K5 d   1      -9.283  11.908  15.733  0.00  0.00     0.112 C 
ATOM     16  H1  4K5 d   1     -11.373  11.781  15.315  0.00  0.00     0.117 H 
ATOM     17  C4  4K5 d   1      -8.345  12.579  16.608  0.00  0.00     0.159 C 
ATOM     18  N3  4K5 d   1      -8.813  13.634  17.346  0.00  0.00    -0.044 NA
BRANCH  15  19
ATOM     19  CBF 4K5 d   1      -8.906  10.880  14.860  0.00  0.00     0.422 C 
ATOM     20  FAE 4K5 d   1      -9.878  10.358  14.093  0.00  0.00    -0.166 F 
ATOM     21  FAF 4K5 d   1      -7.975  11.292  13.910  0.00  0.00    -0.166 F 
ATOM     22  FAD 4K5 d   1      -8.293   9.845  15.390  0.00  0.00    -0.166 F 
ENDBRANCH  15  19
BRANCH  17  23
ATOM     23  NAS 4K5 d   1      -7.058  12.282  16.571  0.00  0.00    -0.369 N 
ATOM     24  H7  4K5 d   1      -6.648  11.643  15.874  0.00  0.00     0.161 HD
BRANCH  23  25
ATOM     25  CBD 4K5 d   1      -6.247  12.961  17.638  0.00  0.00     0.011 A 
ATOM     26  CAL 4K5 d   1      -5.709  14.353  17.321  0.00  0.00    -0.044 A 
ATOM     27  CAM 4K5 d   1      -4.771  13.183  17.296  0.00  0.00    -0.044 A 
ATOM     28  H2  4K5 d   1      -5.992  14.848  16.381  0.00  0.00     0.036 H 
ATOM     29  H3  4K5 d   1      -5.627  15.104  18.121  0.00  0.00     0.036 H 
ATOM     30  H4  4K5 d   1      -4.005  13.077  18.078  0.00  0.00     0.036 H 
ATOM     31  H5  4K5 d   1      -4.369  12.822  16.338  0.00  0.00     0.036 H 
ATOM     32  H6  4K5 d   1      -6.584  12.684  18.648  0.00  0.00     0.072 H 
ENDBRANCH  23  25
ENDBRANCH  17  23
ENDBRANCH  10  12
ENDBRANCH   1  10
BRANCH   2  33
ATOM     33  OAT 4K5 d   1     -11.607  17.334  18.653  0.00  0.00    -0.354 OA
BRANCH  33  34
ATOM     34  CAA 4K5 d   1     -12.311  18.609  19.030  0.00  0.00     0.010 C 
ATOM     35  H10 4K5 d   1     -13.262  18.679  18.482  0.00  0.00     0.066 H 
ATOM     36  H11 4K5 d   1     -11.675  19.469  18.772  0.00  0.00     0.066 H 
ATOM     37  H12 4K5 d   1     -12.511  18.612  20.112  0.00  0.00     0.066 H 
ENDBRANCH  33  34
ENDBRANCH   2  33
BRANCH   7  38
ATOM     38  CAV 4K5 d   1      -8.040  18.717  21.633  0.00  0.00     0.257 C 
ATOM     39  OAB 4K5 d   1      -8.524  18.689  22.780  0.00  0.00    -0.267 OA
ATOM     40  NBE 4K5 d   1      -7.152  19.673  21.332  0.00  0.00    -0.344 N 
ATOM     41  CAN 4K5 d   1      -6.765  20.624  22.451  0.00  0.00     0.018 C 
ATOM     42  CAO 4K5 d   1      -6.556  19.788  19.974  0.00  0.00     0.018 C 
ATOM     43  CAJ 4K5 d   1      -5.343  21.200  22.317  0.00  0.00     0.034 C 
ATOM     44  H14 4K5 d   1      -6.830  20.081  23.405  0.00  0.00     0.067 H 
ATOM     45  H15 4K5 d   1      -7.479  21.461  22.456  0.00  0.00     0.067 H 
ATOM     46  OAU 4K5 d   1      -5.062  21.536  20.919  0.00  0.00    -0.388 OA
ATOM     47  H16 4K5 d   1      -4.614  20.453  22.665  0.00  0.00     0.076 H 
ATOM     48  H17 4K5 d   1      -5.259  22.108  22.933  0.00  0.00     0.076 H 
ATOM     49  CAK 4K5 d   1      -5.121  20.349  20.030  0.00  0.00     0.034 C 
ATOM     50  H18 4K5 d   1      -4.444  19.573  20.416  0.00  0.00     0.076 H 
ATOM     51  H19 4K5 d   1      -4.806  20.639  19.017  0.00  0.00     0.076 H 
ATOM     52  H20 4K5 d   1      -7.179  20.461  19.366  0.00  0.00     0.067 H 
ATOM     53  H21 4K5 d   1      -6.532  18.791  19.509  0.00  0.00     0.067 H 
ENDBRANCH   7  38
TORSDOF 8
