REMARK  27 active torsions:
REMARK  status: ('A' for Active; 'I' for Inactive)
REMARK    1  A    between atoms: N_1  and  CA_2 
REMARK    2  A    between atoms: CA_8  and  CB_11 
REMARK    3  A    between atoms: CB_11  and  CG_12 
REMARK    4  A    between atoms: CA_22  and  CB_25 
REMARK    5  A    between atoms: CB_25  and  OG1_26 
REMARK    6  A    between atoms: CB_25  and  CG2_27 
REMARK    7  A    between atoms: CA_29  and  CB_32 
REMARK    8  A    between atoms: CB_32  and  OG1_33 
REMARK    9  A    between atoms: CB_32  and  CG2_34 
REMARK   10  A    between atoms: CA_36  and  CB_39 
REMARK   11  A    between atoms: CB_39  and  CG_40 
REMARK   12  A    between atoms: CG_40  and  CD_41 
REMARK   13  A    between atoms: CD_41  and  NE_42 
REMARK       I    between atoms: NE_42  and  CZ_43 
REMARK       I    between atoms: CZ_43  and  NH1_44 
REMARK   14  A    between atoms: CA_47  and  CB_50 
REMARK   15  A    between atoms: CB_50  and  CG_51 
REMARK   16  A    between atoms: CG_51  and  SD_52 
REMARK   17  A    between atoms: SD_52  and  CE_53 
REMARK   18  A    between atoms: CA_55  and  CB_58 
REMARK   19  A    between atoms: CA_74  and  CB_77 
REMARK   20  A    between atoms: CB_77  and  CG_78 
REMARK   21  A    between atoms: CG_78  and  CD_79 
REMARK       I    between atoms: CD_79  and  NE2_81 
REMARK   22  A    between atoms: CA_83  and  CB_86 
REMARK   23  A    between atoms: CA_88  and  CB_91 
REMARK   24  A    between atoms: CB_91  and  CG1_92 
REMARK   25  A    between atoms: CB_91  and  CG2_93 
REMARK   26  A    between atoms: CG1_92  and  CD1_94 
REMARK   27  A    between atoms: CA_96  and  C_97 
ROOT
ATOM      1  CA  CYS d   1     -10.618  20.221 -28.321  0.00  0.00     0.184 C 
ATOM      2  C   CYS d   1     -11.648  19.441 -27.512  0.00  0.00     0.249 C 
ATOM      3  O   CYS d   1     -12.171  18.424 -27.968  0.00  0.00    -0.271 OA
ATOM      4  CB  CYS d   1     -11.326  21.262 -29.193  0.00  0.00     0.021 C 
ATOM      5  SG  CYS d   1     -10.224  22.445 -30.002  0.00  0.00    -0.095 SA
ATOM      6  N   CYS d   1      -9.086  23.476 -26.015  0.00  0.00    -0.344 N 
ATOM      7  CA  CYS d   1      -8.293  22.767 -27.013  0.00  0.00     0.105 C 
ATOM      8  CB  CYS d   1      -8.171  23.608 -28.285  0.00  0.00     0.015 C 
ATOM      9  SG  CYS d   1      -9.756  24.137 -28.979  0.00  0.00    -0.095 SA
ATOM     10  H4  CYS d   1      -9.957  20.748 -27.618  0.00  0.00     0.100 H 
ATOM     11  H5  CYS d   1     -12.024  21.825 -28.556  0.00  0.00     0.054 H 
ATOM     12  H6  CYS d   1     -11.889  20.729 -29.973  0.00  0.00     0.054 H 
ATOM     13  H96 CYS d   1      -8.963  24.463 -25.907  0.00  0.00     0.163 HD
ATOM     14  H97 CYS d   1      -8.815  21.831 -27.263  0.00  0.00     0.090 H 
ATOM     15  H98 CYS d   1      -7.644  23.011 -29.044  0.00  0.00     0.054 H 
ATOM     16  H99 CYS d   1      -7.581  24.506 -28.050  0.00  0.00     0.054 H 
ATOM     17  N   TRP d   1     -11.929  19.924 -26.307  0.00  0.00    -0.346 N 
ATOM     18  CA  TRP d   1     -12.975  19.349 -25.472  0.00  0.00     0.093 C 
ATOM     19  C   TRP d   1     -13.993  20.413 -25.089  0.00  0.00     0.241 C 
ATOM     20  O   TRP d   1     -13.704  21.609 -25.132  0.00  0.00    -0.271 OA
ATOM     21  H7  TRP d   1     -11.408  20.705 -25.963  0.00  0.00     0.163 HD
ATOM     22  H8  TRP d   1     -13.487  18.565 -26.049  0.00  0.00     0.088 H 
ATOM     23  N   THR d   1     -15.186  19.969 -24.714  0.00  0.00    -0.344 N 
ATOM     24  CA  THR d   1     -16.216  20.872 -24.228  0.00  0.00     0.113 C 
ATOM     25  C   THR d   1     -16.606  20.486 -22.809  0.00  0.00     0.243 C 
ATOM     26  O   THR d   1     -16.925  19.328 -22.541  0.00  0.00    -0.271 OA
ATOM     27  N   THR d   1     -16.565  21.451 -21.897  0.00  0.00    -0.344 N 
ATOM     28  CA  THR d   1     -16.944  21.188 -20.517  0.00  0.00     0.113 C 
ATOM     29  C   THR d   1     -18.419  20.821 -20.435  0.00  0.00     0.243 C 
ATOM     30  O   THR d   1     -19.230  21.286 -21.237  0.00  0.00    -0.271 OA
ATOM     31  H17 THR d   1     -15.381  18.990 -24.767  0.00  0.00     0.163 HD
ATOM     32  H18 THR d   1     -15.808  21.894 -24.220  0.00  0.00     0.091 H 
ATOM     33  H24 THR d   1     -16.270  22.369 -22.162  0.00  0.00     0.163 HD
ATOM     34  H25 THR d   1     -16.351  20.334 -20.157  0.00  0.00     0.091 H 
ATOM     35  N   ARG d   1     -18.786  19.965 -19.512  0.00  0.00    -0.346 N 
ATOM     36  CA  ARG d   1     -20.154  19.558 -19.367  0.00  0.00     0.089 C 
ATOM     37  C   ARG d   1     -20.884  20.398 -18.350  0.00  0.00     0.241 C 
ATOM     38  O   ARG d   1     -22.017  20.632 -18.495  0.00  0.00    -0.271 OA
ATOM     39  H31 ARG d   1     -18.096  19.587 -18.895  0.00  0.00     0.163 HD
ATOM     40  H32 ARG d   1     -20.647  19.692 -20.341  0.00  0.00     0.087 H 
ATOM     41  N   MET d   1     -20.198  20.809 -17.306  0.00  0.00    -0.346 N 
ATOM     42  CA  MET d   1     -20.775  21.616 -16.243  0.00  0.00     0.090 C 
ATOM     43  C   MET d   1     -20.871  23.070 -16.677  0.00  0.00     0.241 C 
ATOM     44  O   MET d   1     -20.192  23.474 -17.599  0.00  0.00    -0.271 OA
ATOM     45  H44 MET d   1     -19.233  20.554 -17.240  0.00  0.00     0.163 HD
ATOM     46  H45 MET d   1     -21.796  21.250 -16.057  0.00  0.00     0.087 H 
ATOM     47  N   SER d   1     -21.779  23.816 -16.073  0.00  0.00    -0.346 N 
ATOM     48  CA  SER d   1     -21.981  25.172 -16.498  0.00  0.00     0.086 C 
ATOM     49  C   SER d   1     -21.090  26.085 -15.727  0.00  0.00     0.243 C 
ATOM     50  O   SER d   1     -20.862  25.907 -14.560  0.00  0.00    -0.271 OA
ATOM     51  H53 SER d   1     -22.323  23.438 -15.324  0.00  0.00     0.163 HD
ATOM     52  H54 SER d   1     -21.696  25.238 -17.558  0.00  0.00     0.086 H 
ATOM     53  N   PRO d   1     -20.580  27.076 -16.417  0.00  0.00    -0.337 N 
ATOM     54  CA  PRO d   1     -20.898  27.302 -17.832  0.00  0.00     0.092 C 
ATOM     55  C   PRO d   1     -19.897  26.642 -18.779  0.00  0.00     0.243 C 
ATOM     56  O   PRO d   1     -18.689  26.680 -18.532  0.00  0.00    -0.271 OA
ATOM     57  CB  PRO d   1     -20.843  28.825 -17.968  0.00  0.00    -0.036 C 
ATOM     58  CG  PRO d   1     -19.875  29.266 -16.904  0.00  0.00    -0.048 C 
ATOM     59  CD  PRO d   1     -19.828  28.202 -15.833  0.00  0.00    -0.001 C 
ATOM     60  N   PRO d   1     -20.409  26.033 -19.859  0.00  0.00    -0.337 N 
ATOM     61  CA  PRO d   1     -19.667  25.312 -20.904  0.00  0.00     0.091 C 
ATOM     62  C   PRO d   1     -18.697  26.157 -21.729  0.00  0.00     0.241 C 
ATOM     63  O   PRO d   1     -19.013  27.301 -22.044  0.00  0.00    -0.271 OA
ATOM     64  CB  PRO d   1     -20.776  24.791 -21.816  0.00  0.00    -0.036 C 
ATOM     65  CG  PRO d   1     -21.968  24.712 -20.960  0.00  0.00    -0.048 C 
ATOM     66  CD  PRO d   1     -21.863  25.874 -20.025  0.00  0.00    -0.001 C 
ATOM     67  H58 PRO d   1     -21.906  26.926 -18.061  0.00  0.00     0.087 H 
ATOM     68  H59 PRO d   1     -21.836  29.266 -17.797  0.00  0.00     0.036 H 
ATOM     69  H60 PRO d   1     -20.481  29.113 -18.966  0.00  0.00     0.036 H 
ATOM     70  H61 PRO d   1     -20.211  30.218 -16.467  0.00  0.00     0.035 H 
ATOM     71  H62 PRO d   1     -18.875  29.396 -17.343  0.00  0.00     0.035 H 
ATOM     72  H63 PRO d   1     -18.790  27.909 -15.618  0.00  0.00     0.064 H 
ATOM     73  H64 PRO d   1     -20.308  28.556 -14.909  0.00  0.00     0.064 H 
ATOM     74  H65 PRO d   1     -19.106  24.481 -20.452  0.00  0.00     0.087 H 
ATOM     75  H66 PRO d   1     -20.517  23.797 -22.210  0.00  0.00     0.036 H 
ATOM     76  H67 PRO d   1     -20.946  25.485 -22.652  0.00  0.00     0.036 H 
ATOM     77  H68 PRO d   1     -21.977  23.766 -20.399  0.00  0.00     0.035 H 
ATOM     78  H69 PRO d   1     -22.883  24.787 -21.566  0.00  0.00     0.035 H 
ATOM     79  H70 PRO d   1     -22.312  26.777 -20.464  0.00  0.00     0.064 H 
ATOM     80  H71 PRO d   1     -22.349  25.653 -19.063  0.00  0.00     0.064 H 
ATOM     81  N   GLN d   1     -17.562  25.573 -22.116  0.00  0.00    -0.346 N 
ATOM     82  CA  GLN d   1     -16.535  26.266 -22.896  0.00  0.00     0.090 C 
ATOM     83  C   GLN d   1     -15.731  25.261 -23.707  0.00  0.00     0.241 C 
ATOM     84  O   GLN d   1     -15.719  24.076 -23.392  0.00  0.00    -0.271 OA
ATOM     85  N   GLN d   1     -15.054  25.736 -24.746  0.00  0.00    -0.346 N 
ATOM     86  CA  GLN d   1     -14.200  24.867 -25.542  0.00  0.00     0.086 C 
ATOM     87  C   GLN d   1     -12.762  24.945 -25.045  0.00  0.00     0.240 C 
ATOM     88  O   GLN d   1     -12.203  26.033 -24.906  0.00  0.00    -0.271 OA
ATOM     89  H72 GLN d   1     -17.405  24.619 -21.862  0.00  0.00     0.163 HD
ATOM     90  H73 GLN d   1     -17.030  26.963 -23.588  0.00  0.00     0.087 H 
ATOM     91  H80 GLN d   1     -15.132  26.704 -24.985  0.00  0.00     0.163 HD
ATOM     92  H81 GLN d   1     -14.554  23.832 -25.426  0.00  0.00     0.086 H 
ATOM     93  N   ILE d   1     -12.174  23.788 -24.762  0.00  0.00    -0.346 N 
ATOM     94  CA  ILE d   1     -10.791  23.725 -24.309  0.00  0.00     0.092 C 
ATOM     95  C   ILE d   1      -9.967  22.846 -25.245  0.00  0.00     0.241 C 
ATOM     96  O   ILE d   1     -10.130  21.626 -25.271  0.00  0.00    -0.271 OA
ATOM     97  H85 ILE d   1     -12.694  22.939 -24.862  0.00  0.00     0.163 HD
ATOM     98  H86 ILE d   1     -10.376  24.744 -24.329  0.00  0.00     0.088 H 
ENDROOT
BRANCH  18  99
ATOM     99  CB  TRP d   1     -12.387  18.714 -24.210  0.00  0.00    -0.012 C 
ATOM    100  H9  TRP d   1     -13.216  18.447 -23.539  0.00  0.00     0.044 H 
ATOM    101  H10 TRP d   1     -11.742  19.457 -23.718  0.00  0.00     0.044 H 
BRANCH  99 102
ATOM    102  CG  TRP d   1     -11.575  17.483 -24.468  0.00  0.00    -0.028 A 
ATOM    103  CD1 TRP d   1     -12.009  16.190 -24.416  0.00  0.00    -0.015 A 
ATOM    104  NE1 TRP d   1     -10.977  15.332 -24.708  0.00  0.00    -0.365 N 
ATOM    105  H11 TRP d   1     -13.026  15.883 -24.177  0.00  0.00     0.112 H 
ATOM    106  CE2 TRP d   1      -9.846  16.066 -24.954  0.00  0.00     0.042 A 
ATOM    107  H12 TRP d   1     -11.042  14.305 -24.737  0.00  0.00     0.165 HD
ATOM    108  CD2 TRP d   1     -10.185  17.426 -24.810  0.00  0.00    -0.002 A 
ATOM    109  CZ2 TRP d   1      -8.560  15.648 -25.289  0.00  0.00    -0.056 A 
ATOM    110  CE3 TRP d   1      -9.195  18.393 -25.010  0.00  0.00    -0.070 A 
ATOM    111  CZ3 TRP d   1      -7.918  17.976 -25.343  0.00  0.00    -0.082 A 
ATOM    112  H13 TRP d   1      -9.423  19.448 -24.906  0.00  0.00     0.084 H 
ATOM    113  CH2 TRP d   1      -7.612  16.616 -25.479  0.00  0.00    -0.081 A 
ATOM    114  H15 TRP d   1      -7.141  18.715 -25.501  0.00  0.00     0.083 H 
ATOM    115  H16 TRP d   1      -6.601  16.324 -25.741  0.00  0.00     0.083 H 
ATOM    116  H14 TRP d   1      -8.320  14.596 -25.395  0.00  0.00     0.086 H 
ENDBRANCH  99 102
ENDBRANCH  18  99
BRANCH   1 117
ATOM    117  N   CYS d   1      -9.795  19.342 -29.142  0.00  0.00    -0.066 N 
ATOM    118  H1  CYS d   1      -9.129  19.893 -29.660  0.00  0.00     0.275 HD
ATOM    119  H2  CYS d   1     -10.383  18.834 -29.784  0.00  0.00     0.275 HD
ATOM    120  H3  CYS d   1      -9.304  18.691 -28.549  0.00  0.00     0.275 HD
ENDBRANCH   1 117
BRANCH  24 121
ATOM    121  CB  THR d   1     -17.462  20.852 -25.131  0.00  0.00     0.060 C 
ATOM    122  H19 THR d   1     -17.841  19.822 -25.199  0.00  0.00     0.086 H 
BRANCH 121 123
ATOM    123  OG1 THR d   1     -17.113  21.317 -26.440  0.00  0.00    -0.393 OA
ATOM    124  H20 THR d   1     -17.884  21.304 -26.995  0.00  0.00     0.210 HD
ENDBRANCH 121 123
BRANCH 121 125
ATOM    125  CG2 THR d   1     -18.549  21.747 -24.558  0.00  0.00    -0.050 C 
ATOM    126  H21 THR d   1     -19.430  21.720 -25.216  0.00  0.00     0.031 H 
ATOM    127  H22 THR d   1     -18.175  22.779 -24.488  0.00  0.00     0.031 H 
ATOM    128  H23 THR d   1     -18.828  21.389 -23.556  0.00  0.00     0.031 H 
ENDBRANCH 121 125
ENDBRANCH  24 121
BRANCH  28 129
ATOM    129  CB  THR d   1     -16.659  22.391 -19.602  0.00  0.00     0.060 C 
ATOM    130  H26 THR d   1     -17.093  22.202 -18.609  0.00  0.00     0.086 H 
BRANCH 129 131
ATOM    131  OG1 THR d   1     -17.243  23.569 -20.162  0.00  0.00    -0.393 OA
ATOM    132  H27 THR d   1     -17.065  24.310 -19.595  0.00  0.00     0.210 HD
ENDBRANCH 129 131
BRANCH 129 133
ATOM    133  CG2 THR d   1     -15.169  22.605 -19.465  0.00  0.00    -0.050 C 
ATOM    134  H28 THR d   1     -14.981  23.468 -18.809  0.00  0.00     0.031 H 
ATOM    135  H29 THR d   1     -14.733  22.797 -20.457  0.00  0.00     0.031 H 
ATOM    136  H30 THR d   1     -14.708  21.706 -19.030  0.00  0.00     0.031 H 
ENDBRANCH 129 133
ENDBRANCH  28 129
BRANCH   7 137
ATOM    137  C   CYS d   1      -6.905  22.411 -26.487  0.00  0.00     0.197 C 
ATOM    138  O   CYS d   1      -6.236  23.233 -25.862  0.00  0.00    -0.646 OA
ATOM    139  OXT CYS d   1      -6.425  21.294 -26.676  0.00  0.00    -0.646 OA
ENDBRANCH   7 137
BRANCH  36 140
ATOM    140  CB  ARG d   1     -20.267  18.087 -18.974  0.00  0.00    -0.036 C 
ATOM    141  H33 ARG d   1     -21.320  17.889 -18.724  0.00  0.00     0.036 H 
ATOM    142  H34 ARG d   1     -19.642  17.932 -18.082  0.00  0.00     0.036 H 
BRANCH 140 143
ATOM    143  CG  ARG d   1     -19.850  17.084 -19.997  0.00  0.00    -0.048 C 
ATOM    144  H35 ARG d   1     -18.848  17.355 -20.360  0.00  0.00     0.035 H 
ATOM    145  H36 ARG d   1     -20.565  17.122 -20.832  0.00  0.00     0.035 H 
BRANCH 143 146
ATOM    146  CD  ARG d   1     -19.802  15.678 -19.478  0.00  0.00     0.009 C 
ATOM    147  H37 ARG d   1     -20.762  15.431 -19.000  0.00  0.00     0.064 H 
ATOM    148  H38 ARG d   1     -18.991  15.587 -18.740  0.00  0.00     0.064 H 
BRANCH 146 149
ATOM    149  NE  ARG d   1     -19.560  14.763 -20.576  0.00  0.00    -0.227 N 
ATOM    150  CZ  ARG d   1     -18.452  14.099 -20.780  0.00  0.00     0.665 C 
ATOM    151  NH1 ARG d   1     -17.483  14.187 -19.931  0.00  0.00    -0.235 N 
ATOM    152  NH2 ARG d   1     -18.339  13.331 -21.828  0.00  0.00    -0.235 N 
ATOM    153  H40 ARG d   1     -16.610  13.665 -20.090  0.00  0.00     0.174 HD
ATOM    154  H41 ARG d   1     -17.583  14.780 -19.095  0.00  0.00     0.174 HD
ATOM    155  H42 ARG d   1     -19.114  13.263 -22.503  0.00  0.00     0.174 HD
ATOM    156  H43 ARG d   1     -17.475  12.792 -21.981  0.00  0.00     0.174 HD
ATOM    157  H39 ARG d   1     -20.325  14.624 -21.252  0.00  0.00     0.177 HD
ENDBRANCH 146 149
ENDBRANCH 143 146
ENDBRANCH 140 143
ENDBRANCH  36 140
BRANCH  94 158
ATOM    158  CB  ILE d   1     -10.690  23.190 -22.869  0.00  0.00    -0.030 C 
ATOM    159  H87 ILE d   1     -11.189  22.211 -22.821  0.00  0.00     0.043 H 
BRANCH 158 160
ATOM    160  CG1 ILE d   1     -11.383  24.146 -21.898  0.00  0.00    -0.063 C 
ATOM    161  H88 ILE d   1     -12.367  24.408 -22.313  0.00  0.00     0.033 H 
ATOM    162  H89 ILE d   1     -10.769  25.054 -21.809  0.00  0.00     0.033 H 
BRANCH 160 163
ATOM    163  CD1 ILE d   1     -11.588  23.572 -20.514  0.00  0.00    -0.076 C 
ATOM    164  H93 ILE d   1     -12.090  24.317 -19.879  0.00  0.00     0.027 H 
ATOM    165  H94 ILE d   1     -10.613  23.314 -20.076  0.00  0.00     0.027 H 
ATOM    166  H95 ILE d   1     -12.211  22.668 -20.581  0.00  0.00     0.027 H 
ENDBRANCH 160 163
ENDBRANCH 158 160
BRANCH 158 167
ATOM    167  CG2 ILE d   1      -9.238  23.019 -22.467  0.00  0.00    -0.071 C 
ATOM    168  H90 ILE d   1      -8.742  22.331 -23.167  0.00  0.00     0.028 H 
ATOM    169  H91 ILE d   1      -9.186  22.606 -21.449  0.00  0.00     0.028 H 
ATOM    170  H92 ILE d   1      -8.733  23.996 -22.493  0.00  0.00     0.028 H 
ENDBRANCH 158 167
ENDBRANCH  94 158
BRANCH  42 171
ATOM    171  CB  MET d   1     -19.992  21.477 -14.949  0.00  0.00    -0.030 C 
ATOM    172  H46 MET d   1     -20.122  22.401 -14.366  0.00  0.00     0.037 H 
ATOM    173  H47 MET d   1     -18.929  21.349 -15.201  0.00  0.00     0.037 H 
BRANCH 171 174
ATOM    174  CG  MET d   1     -20.420  20.309 -14.089  0.00  0.00    -0.021 C 
ATOM    175  H48 MET d   1     -20.457  19.409 -14.721  0.00  0.00     0.049 H 
ATOM    176  H49 MET d   1     -21.424  20.520 -13.693  0.00  0.00     0.049 H 
BRANCH 174 177
ATOM    177  SD  MET d   1     -19.341  19.988 -12.726  0.00  0.00    -0.173 SA
BRANCH 177 178
ATOM    178  CE  MET d   1     -17.830  19.603 -13.534  0.00  0.00    -0.035 C 
ATOM    179  H50 MET d   1     -17.059  19.379 -12.782  0.00  0.00     0.041 H 
ATOM    180  H51 MET d   1     -17.510  20.462 -14.142  0.00  0.00     0.041 H 
ATOM    181  H52 MET d   1     -17.974  18.727 -14.184  0.00  0.00     0.041 H 
ENDBRANCH 177 178
ENDBRANCH 174 177
ENDBRANCH 171 174
ENDBRANCH  42 171
BRANCH  86 182
ATOM    182  CB  GLN d   1     -14.273  25.238 -27.024  0.00  0.00    -0.049 C 
ATOM    183  H82 GLN d   1     -13.620  24.568 -27.602  0.00  0.00     0.030 H 
ATOM    184  H83 GLN d   1     -13.942  26.278 -27.158  0.00  0.00     0.030 H 
ATOM    185  H84 GLN d   1     -15.310  25.135 -27.377  0.00  0.00     0.030 H 
ENDBRANCH  86 182
BRANCH  48 186
ATOM    186  CB  SER d   1     -23.440  25.594 -16.390  0.00  0.00    -0.049 C 
ATOM    187  H55 SER d   1     -23.546  26.636 -16.725  0.00  0.00     0.030 H 
ATOM    188  H56 SER d   1     -23.770  25.510 -15.344  0.00  0.00     0.030 H 
ATOM    189  H57 SER d   1     -24.058  24.941 -17.023  0.00  0.00     0.030 H 
ENDBRANCH  48 186
BRANCH  82 190
ATOM    190  CB  GLN d   1     -15.607  27.068 -21.976  0.00  0.00    -0.030 C 
ATOM    191  H74 GLN d   1     -16.203  27.840 -21.468  0.00  0.00     0.037 H 
ATOM    192  H75 GLN d   1     -14.834  27.549 -22.594  0.00  0.00     0.037 H 
BRANCH 190 193
ATOM    193  CG  GLN d   1     -14.917  26.217 -20.917  0.00  0.00     0.011 C 
ATOM    194  H76 GLN d   1     -14.079  25.682 -21.388  0.00  0.00     0.047 H 
ATOM    195  H77 GLN d   1     -15.642  25.489 -20.524  0.00  0.00     0.047 H 
BRANCH 193 196
ATOM    196  CD  GLN d   1     -14.378  27.038 -19.759  0.00  0.00     0.215 C 
ATOM    197  OE1 GLN d   1     -13.465  27.848 -19.927  0.00  0.00    -0.274 OA
ATOM    198  NE2 GLN d   1     -14.944  26.833 -18.575  0.00  0.00    -0.370 N 
ATOM    199  H78 GLN d   1     -14.630  27.345 -17.776  0.00  0.00     0.159 HD
ATOM    200  H79 GLN d   1     -15.684  26.166 -18.483  0.00  0.00     0.159 HD
ENDBRANCH 193 196
ENDBRANCH 190 193
ENDBRANCH  82 190
TORSDOF 26
