REMARK  27 active torsions:
REMARK  status: ('A' for Active; 'I' for Inactive)
REMARK    1  A    between atoms: N_1  and  CA_2 
REMARK    2  A    between atoms: CA_8  and  CB_9 
REMARK    3  A    between atoms: CB_9  and  CG_10 
REMARK    4  A    between atoms: CA_22  and  CB_25 
REMARK    5  A    between atoms: CB_25  and  OG1_26 
REMARK    6  A    between atoms: CB_25  and  CG2_27 
REMARK    7  A    between atoms: CA_29  and  CB_32 
REMARK    8  A    between atoms: CB_32  and  OG1_33 
REMARK    9  A    between atoms: CB_32  and  CG2_34 
REMARK   10  A    between atoms: CA_36  and  CB_39 
REMARK   11  A    between atoms: CB_39  and  CG_40 
REMARK   12  A    between atoms: CG_40  and  CD_41 
REMARK   13  A    between atoms: CD_41  and  NE_42 
REMARK       I    between atoms: NE_42  and  CZ_43 
REMARK       I    between atoms: CZ_43  and  NH1_44 
REMARK   14  A    between atoms: CA_47  and  CB_50 
REMARK   15  A    between atoms: CB_50  and  CG_51 
REMARK   16  A    between atoms: CG_51  and  SD_52 
REMARK   17  A    between atoms: SD_52  and  CE_53 
REMARK   18  A    between atoms: CA_55  and  CB_58 
REMARK   19  A    between atoms: CA_74  and  CB_77 
REMARK   20  A    between atoms: CB_77  and  CG_78 
REMARK   21  A    between atoms: CG_78  and  CD_79 
REMARK       I    between atoms: CD_79  and  NE2_81 
REMARK   22  A    between atoms: CA_83  and  CB_86 
REMARK   23  A    between atoms: CA_88  and  CB_91 
REMARK   24  A    between atoms: CB_91  and  CG1_92 
REMARK   25  A    between atoms: CB_91  and  CG2_93 
REMARK   26  A    between atoms: CG1_92  and  CD1_94 
REMARK   27  A    between atoms: CA_96  and  C_97 
ROOT
ATOM      1  CA  CYS d   1     -10.801  20.318 -28.113  0.00  0.00     0.184 C 
ATOM      2  C   CYS d   1     -11.821  19.469 -27.354  0.00  0.00     0.249 C 
ATOM      3  O   CYS d   1     -12.231  18.399 -27.810  0.00  0.00    -0.271 OA
ATOM      4  CB  CYS d   1     -11.491  21.041 -29.271  0.00  0.00     0.021 C 
ATOM      5  SG  CYS d   1     -10.690  22.583 -29.773  0.00  0.00    -0.095 SA
ATOM      6  N   CYS d   1      -9.319  23.670 -25.717  0.00  0.00    -0.344 N 
ATOM      7  CA  CYS d   1      -8.565  22.975 -26.757  0.00  0.00     0.105 C 
ATOM      8  CB  CYS d   1      -8.581  23.794 -28.049  0.00  0.00     0.015 C 
ATOM      9  SG  CYS d   1     -10.243  24.204 -28.634  0.00  0.00    -0.095 SA
ATOM     10  H4  CYS d   1     -10.406  21.074 -27.419  0.00  0.00     0.100 H 
ATOM     11  H5  CYS d   1     -12.522  21.273 -28.966  0.00  0.00     0.054 H 
ATOM     12  H6  CYS d   1     -11.508  20.364 -30.138  0.00  0.00     0.054 H 
ATOM     13  H95 CYS d   1      -9.079  24.613 -25.487  0.00  0.00     0.163 HD
ATOM     14  H96 CYS d   1      -9.062  22.012 -26.949  0.00  0.00     0.090 H 
ATOM     15  H97 CYS d   1      -8.071  23.215 -28.833  0.00  0.00     0.054 H 
ATOM     16  H98 CYS d   1      -8.035  24.732 -27.872  0.00  0.00     0.054 H 
ATOM     17  N   TRN d   1     -12.225  19.965 -26.190  0.00  0.00    -0.346 N 
ATOM     18  CA  TRN d   1     -13.230  19.324 -25.379  0.00  0.00     0.093 C 
ATOM     19  C   TRN d   1     -14.216  20.390 -24.941  0.00  0.00     0.241 C 
ATOM     20  O   TRN d   1     -13.956  21.594 -24.925  0.00  0.00    -0.271 OA
ATOM     21  H7  TRN d   1     -11.816  20.817 -25.863  0.00  0.00     0.163 HD
ATOM     22  H8  TRN d   1     -13.739  18.567 -25.993  0.00  0.00     0.088 H 
ATOM     23  N   THR d   1     -15.407  19.932 -24.571  0.00  0.00    -0.344 N 
ATOM     24  CA  THR d   1     -16.440  20.831 -24.072  0.00  0.00     0.113 C 
ATOM     25  C   THR d   1     -16.839  20.441 -22.653  0.00  0.00     0.243 C 
ATOM     26  O   THR d   1     -17.146  19.281 -22.386  0.00  0.00    -0.271 OA
ATOM     27  N   THR d   1     -16.821  21.406 -21.739  0.00  0.00    -0.344 N 
ATOM     28  CA  THR d   1     -17.203  21.128 -20.362  0.00  0.00     0.113 C 
ATOM     29  C   THR d   1     -18.688  20.809 -20.277  0.00  0.00     0.243 C 
ATOM     30  O   THR d   1     -19.506  21.414 -20.972  0.00  0.00    -0.271 OA
ATOM     31  H16 THR d   1     -15.598  18.953 -24.636  0.00  0.00     0.163 HD
ATOM     32  H17 THR d   1     -16.028  21.851 -24.053  0.00  0.00     0.091 H 
ATOM     33  H23 THR d   1     -16.543  22.331 -21.999  0.00  0.00     0.163 HD
ATOM     34  H24 THR d   1     -16.637  20.248 -20.023  0.00  0.00     0.091 H 
ATOM     35  N   ARG d   1     -19.027  19.844 -19.430  0.00  0.00    -0.346 N 
ATOM     36  CA  ARG d   1     -20.411  19.434 -19.258  0.00  0.00     0.089 C 
ATOM     37  C   ARG d   1     -21.116  20.305 -18.223  0.00  0.00     0.241 C 
ATOM     38  O   ARG d   1     -22.322  20.533 -18.311  0.00  0.00    -0.271 OA
ATOM     39  H30 ARG d   1     -18.313  19.389 -18.898  0.00  0.00     0.163 HD
ATOM     40  H31 ARG d   1     -20.929  19.555 -20.221  0.00  0.00     0.087 H 
ATOM     41  N   MET d   1     -20.361  20.796 -17.245  0.00  0.00    -0.346 N 
ATOM     42  CA  MET d   1     -20.940  21.610 -16.179  0.00  0.00     0.090 C 
ATOM     43  C   MET d   1     -20.982  23.093 -16.540  0.00  0.00     0.241 C 
ATOM     44  O   MET d   1     -20.080  23.611 -17.202  0.00  0.00    -0.271 OA
ATOM     45  H43 MET d   1     -19.380  20.605 -17.239  0.00  0.00     0.163 HD
ATOM     46  H44 MET d   1     -21.975  21.272 -16.023  0.00  0.00     0.087 H 
ATOM     47  N   SER d   1     -22.044  23.763 -16.102  0.00  0.00    -0.346 N 
ATOM     48  CA  SER d   1     -22.236  25.184 -16.369  0.00  0.00     0.086 C 
ATOM     49  C   SER d   1     -21.201  26.023 -15.628  0.00  0.00     0.243 C 
ATOM     50  O   SER d   1     -20.919  25.770 -14.458  0.00  0.00    -0.271 OA
ATOM     51  H52 SER d   1     -22.736  23.275 -15.570  0.00  0.00     0.163 HD
ATOM     52  H53 SER d   1     -22.110  25.353 -17.449  0.00  0.00     0.086 H 
ATOM     53  N   PRO d   1     -20.632  27.031 -16.308  0.00  0.00    -0.337 N 
ATOM     54  CA  PRO d   1     -20.940  27.380 -17.700  0.00  0.00     0.092 C 
ATOM     55  C   PRO d   1     -20.176  26.531 -18.714  0.00  0.00     0.243 C 
ATOM     56  O   PRO d   1     -18.982  26.289 -18.535  0.00  0.00    -0.271 OA
ATOM     57  CB  PRO d   1     -20.508  28.844 -17.787  0.00  0.00    -0.036 C 
ATOM     58  CG  PRO d   1     -19.373  28.939 -16.824  0.00  0.00    -0.048 C 
ATOM     59  CD  PRO d   1     -19.689  27.986 -15.698  0.00  0.00    -0.001 C 
ATOM     60  N   PRO d   1     -20.866  26.077 -19.771  0.00  0.00    -0.337 N 
ATOM     61  CA  PRO d   1     -20.233  25.292 -20.836  0.00  0.00     0.091 C 
ATOM     62  C   PRO d   1     -19.209  26.115 -21.609  0.00  0.00     0.241 C 
ATOM     63  O   PRO d   1     -19.488  27.257 -21.973  0.00  0.00    -0.271 OA
ATOM     64  CB  PRO d   1     -21.412  24.898 -21.738  0.00  0.00    -0.036 C 
ATOM     65  CG  PRO d   1     -22.634  25.086 -20.893  0.00  0.00    -0.048 C 
ATOM     66  CD  PRO d   1     -22.314  26.231 -19.988  0.00  0.00    -0.001 C 
ATOM     67  H57 PRO d   1     -22.018  27.277 -17.891  0.00  0.00     0.087 H 
ATOM     68  H58 PRO d   1     -21.329  29.513 -17.491  0.00  0.00     0.036 H 
ATOM     69  H59 PRO d   1     -20.179  29.095 -18.806  0.00  0.00     0.036 H 
ATOM     70  H60 PRO d   1     -19.285  29.966 -16.440  0.00  0.00     0.035 H 
ATOM     71  H61 PRO d   1     -18.432  28.649 -17.315  0.00  0.00     0.035 H 
ATOM     72  H62 PRO d   1     -18.780  27.473 -15.351  0.00  0.00     0.064 H 
ATOM     73  H63 PRO d   1     -20.156  28.515 -14.855  0.00  0.00     0.064 H 
ATOM     74  H64 PRO d   1     -19.742  24.399 -20.421  0.00  0.00     0.087 H 
ATOM     75  H65 PRO d   1     -21.321  23.849 -22.056  0.00  0.00     0.036 H 
ATOM     76  H66 PRO d   1     -21.453  25.547 -22.625  0.00  0.00     0.036 H 
ATOM     77  H67 PRO d   1     -22.841  24.178 -20.308  0.00  0.00     0.035 H 
ATOM     78  H68 PRO d   1     -23.505  25.323 -21.522  0.00  0.00     0.035 H 
ATOM     79  H69 PRO d   1     -22.543  27.193 -20.470  0.00  0.00     0.064 H 
ATOM     80  H70 PRO d   1     -22.867  26.154 -19.041  0.00  0.00     0.064 H 
ATOM     81  N   GLN d   1     -18.038  25.538 -21.851  0.00  0.00    -0.346 N 
ATOM     82  CA  GLN d   1     -16.983  26.223 -22.587  0.00  0.00     0.090 C 
ATOM     83  C   GLN d   1     -16.170  25.233 -23.414  0.00  0.00     0.241 C 
ATOM     84  O   GLN d   1     -16.202  24.028 -23.164  0.00  0.00    -0.271 OA
ATOM     85  N   GLN d   1     -15.442  25.746 -24.398  0.00  0.00    -0.346 N 
ATOM     86  CA  GLN d   1     -14.608  24.902 -25.244  0.00  0.00     0.086 C 
ATOM     87  C   GLN d   1     -13.142  25.057 -24.869  0.00  0.00     0.240 C 
ATOM     88  O   GLN d   1     -12.589  26.156 -24.925  0.00  0.00    -0.271 OA
ATOM     89  H71 GLN d   1     -17.876  24.609 -21.519  0.00  0.00     0.163 HD
ATOM     90  H72 GLN d   1     -17.451  26.946 -23.271  0.00  0.00     0.087 H 
ATOM     91  H79 GLN d   1     -15.466  26.732 -24.562  0.00  0.00     0.163 HD
ATOM     92  H80 GLN d   1     -14.900  23.854 -25.083  0.00  0.00     0.086 H 
ATOM     93  N   ILE d   1     -12.521  23.948 -24.484  0.00  0.00    -0.346 N 
ATOM     94  CA  ILE d   1     -11.114  23.944 -24.105  0.00  0.00     0.092 C 
ATOM     95  C   ILE d   1     -10.317  23.077 -25.070  0.00  0.00     0.241 C 
ATOM     96  O   ILE d   1     -10.603  21.892 -25.223  0.00  0.00    -0.271 OA
ATOM     97  H84 ILE d   1     -13.034  23.090 -24.453  0.00  0.00     0.163 HD
ATOM     98  H85 ILE d   1     -10.736  24.975 -24.161  0.00  0.00     0.088 H 
ENDROOT
BRANCH  36  99
ATOM     99  CB  ARG d   1     -20.482  17.960 -18.853  0.00  0.00    -0.036 C 
ATOM    100  H32 ARG d   1     -21.539  17.688 -18.718  0.00  0.00     0.036 H 
ATOM    101  H33 ARG d   1     -19.947  17.836 -17.900  0.00  0.00     0.036 H 
BRANCH  99 102
ATOM    102  CG  ARG d   1     -19.869  17.012 -19.874  0.00  0.00    -0.048 C 
ATOM    103  H34 ARG d   1     -18.793  17.224 -19.958  0.00  0.00     0.035 H 
ATOM    104  H35 ARG d   1     -20.352  17.175 -20.849  0.00  0.00     0.035 H 
BRANCH 102 105
ATOM    105  CD  ARG d   1     -20.057  15.556 -19.465  0.00  0.00     0.009 C 
ATOM    106  H36 ARG d   1     -21.089  15.415 -19.113  0.00  0.00     0.064 H 
ATOM    107  H37 ARG d   1     -19.356  15.321 -18.650  0.00  0.00     0.064 H 
BRANCH 105 108
ATOM    108  NE  ARG d   1     -19.809  14.645 -20.580  0.00  0.00    -0.227 N 
ATOM    109  CZ  ARG d   1     -18.661  14.005 -20.793  0.00  0.00     0.665 C 
ATOM    110  NH1 ARG d   1     -17.637  14.160 -19.961  0.00  0.00    -0.235 N 
ATOM    111  NH2 ARG d   1     -18.540  13.200 -21.839  0.00  0.00    -0.235 N 
ATOM    112  H39 ARG d   1     -16.753  13.661 -20.134  0.00  0.00     0.174 HD
ATOM    113  H40 ARG d   1     -17.727  14.779 -19.143  0.00  0.00     0.174 HD
ATOM    114  H41 ARG d   1     -19.331  13.076 -22.488  0.00  0.00     0.174 HD
ATOM    115  H42 ARG d   1     -17.655  12.699 -22.003  0.00  0.00     0.174 HD
ATOM    116  H38 ARG d   1     -20.576  14.487 -21.248  0.00  0.00     0.177 HD
ENDBRANCH 105 108
ENDBRANCH 102 105
ENDBRANCH  99 102
ENDBRANCH  36  99
BRANCH  28 117
ATOM    117  CB  THR d   1     -16.877  22.297 -19.423  0.00  0.00     0.060 C 
ATOM    118  H25 THR d   1     -17.243  22.061 -18.413  0.00  0.00     0.086 H 
BRANCH 117 119
ATOM    119  OG1 THR d   1     -17.521  23.491 -19.890  0.00  0.00    -0.393 OA
ATOM    120  H26 THR d   1     -18.461  23.356 -19.909  0.00  0.00     0.210 HD
ENDBRANCH 117 119
BRANCH 117 121
ATOM    121  CG2 THR d   1     -15.382  22.514 -19.371  0.00  0.00    -0.050 C 
ATOM    122  H27 THR d   1     -15.157  23.353 -18.696  0.00  0.00     0.031 H 
ATOM    123  H28 THR d   1     -15.010  22.745 -20.380  0.00  0.00     0.031 H 
ATOM    124  H29 THR d   1     -14.892  21.602 -18.999  0.00  0.00     0.031 H 
ENDBRANCH 117 121
ENDBRANCH  28 117
BRANCH  42 125
ATOM    125  CB  MET d   1     -20.169  21.409 -14.872  0.00  0.00    -0.030 C 
ATOM    126  H45 MET d   1     -20.424  22.231 -14.187  0.00  0.00     0.037 H 
ATOM    127  H46 MET d   1     -19.092  21.437 -15.095  0.00  0.00     0.037 H 
BRANCH 125 128
ATOM    128  CG  MET d   1     -20.484  20.092 -14.182  0.00  0.00    -0.021 C 
ATOM    129  H47 MET d   1     -20.226  19.271 -14.867  0.00  0.00     0.049 H 
ATOM    130  H48 MET d   1     -21.562  20.064 -13.965  0.00  0.00     0.049 H 
BRANCH 128 131
ATOM    131  SD  MET d   1     -19.588  19.845 -12.638  0.00  0.00    -0.173 SA
BRANCH 131 132
ATOM    132  CE  MET d   1     -17.908  19.660 -13.229  0.00  0.00    -0.035 C 
ATOM    133  H49 MET d   1     -17.234  19.499 -12.374  0.00  0.00     0.041 H 
ATOM    134  H50 MET d   1     -17.606  20.571 -13.767  0.00  0.00     0.041 H 
ATOM    135  H51 MET d   1     -17.851  18.797 -13.909  0.00  0.00     0.041 H 
ENDBRANCH 131 132
ENDBRANCH 128 131
ENDBRANCH 125 128
ENDBRANCH  42 125
BRANCH  24 136
ATOM    136  CB  THR d   1     -17.689  20.828 -24.981  0.00  0.00     0.060 C 
ATOM    137  H18 THR d   1     -18.091  19.806 -25.036  0.00  0.00     0.086 H 
BRANCH 136 138
ATOM    138  OG1 THR d   1     -17.328  21.269 -26.297  0.00  0.00    -0.393 OA
ATOM    139  H19 THR d   1     -16.673  20.683 -26.658  0.00  0.00     0.210 HD
ENDBRANCH 136 138
BRANCH 136 140
ATOM    140  CG2 THR d   1     -18.758  21.757 -24.425  0.00  0.00    -0.050 C 
ATOM    141  H20 THR d   1     -19.637  21.741 -25.085  0.00  0.00     0.031 H 
ATOM    142  H21 THR d   1     -18.361  22.781 -24.369  0.00  0.00     0.031 H 
ATOM    143  H22 THR d   1     -19.049  21.421 -23.419  0.00  0.00     0.031 H 
ENDBRANCH 136 140
ENDBRANCH  24 136
BRANCH  48 144
ATOM    144  CB  SER d   1     -23.649  25.618 -15.972  0.00  0.00    -0.049 C 
ATOM    145  H54 SER d   1     -23.775  26.691 -16.180  0.00  0.00     0.030 H 
ATOM    146  H55 SER d   1     -23.802  25.433 -14.899  0.00  0.00     0.030 H 
ATOM    147  H56 SER d   1     -24.386  25.043 -16.552  0.00  0.00     0.030 H 
ENDBRANCH  48 144
BRANCH  18 148
ATOM    148  CB  TRN d   1     -12.712  18.645 -24.092  0.00  0.00    -0.012 C 
ATOM    149  H9  TRN d   1     -13.570  18.282 -23.507  0.00  0.00     0.044 H 
ATOM    150  H10 TRN d   1     -12.149  19.381 -23.499  0.00  0.00     0.044 H 
BRANCH 148 151
ATOM    151  CG  TRN d   1     -11.835  17.513 -24.410  0.00  0.00    -0.026 A 
ATOM    152  CD1 TRN d   1     -12.198  16.162 -24.395  0.00  0.00    -0.014 A 
ATOM    153  NE1 TRN d   1     -11.116  15.359 -24.755  0.00  0.00    -0.350 N 
ATOM    154  H11 TRN d   1     -13.188  15.789 -24.138  0.00  0.00     0.112 H 
ATOM    155  CE2 TRN d   1     -10.019  16.194 -25.021  0.00  0.00     0.138 A 
ATOM    156  H12 TRN d   1     -11.121  14.331 -24.815  0.00  0.00     0.166 HD
ATOM    157  CD2 TRN d   1     -10.448  17.572 -24.808  0.00  0.00     0.018 A 
ATOM    158  NZ2 TRN d   1      -8.759  15.825 -25.409  0.00  0.00    -0.242 NA
ATOM    159  CE3 TRN d   1      -9.508  18.584 -25.016  0.00  0.00    -0.067 A 
ATOM    160  CZ3 TRN d   1      -8.228  18.217 -25.409  0.00  0.00    -0.065 A 
ATOM    161  H13 TRN d   1      -9.770  19.626 -24.875  0.00  0.00     0.085 H 
ATOM    162  CH2 TRN d   1      -7.910  16.844 -25.588  0.00  0.00     0.004 A 
ATOM    163  H15 TRN d   1      -7.473  18.976 -25.579  0.00  0.00     0.085 H 
ATOM    164  H14 TRN d   1      -6.899  16.602 -25.894  0.00  0.00     0.114 H 
ENDBRANCH 148 151
ENDBRANCH  18 148
BRANCH   1 165
ATOM    165  N   CYS d   1      -9.673  19.532 -28.605  0.00  0.00    -0.066 N 
ATOM    166  H1  CYS d   1      -9.032  20.135 -29.096  0.00  0.00     0.275 HD
ATOM    167  H2  CYS d   1     -10.009  18.818 -29.232  0.00  0.00     0.275 HD
ATOM    168  H3  CYS d   1      -9.199  19.101 -27.827  0.00  0.00     0.275 HD
ENDBRANCH   1 165
BRANCH  82 169
ATOM    169  CB  GLN d   1     -16.067  26.987 -21.628  0.00  0.00    -0.030 C 
ATOM    170  H73 GLN d   1     -16.696  27.578 -20.946  0.00  0.00     0.037 H 
ATOM    171  H74 GLN d   1     -15.432  27.662 -22.220  0.00  0.00     0.037 H 
BRANCH 169 172
ATOM    172  CG  GLN d   1     -15.166  26.093 -20.793  0.00  0.00     0.011 C 
ATOM    173  H75 GLN d   1     -14.445  25.599 -21.461  0.00  0.00     0.047 H 
ATOM    174  H76 GLN d   1     -15.787  25.332 -20.298  0.00  0.00     0.047 H 
BRANCH 172 175
ATOM    175  CD  GLN d   1     -14.398  26.857 -19.731  0.00  0.00     0.215 C 
ATOM    176  OE1 GLN d   1     -13.394  27.510 -20.023  0.00  0.00    -0.274 OA
ATOM    177  NE2 GLN d   1     -14.863  26.774 -18.489  0.00  0.00    -0.370 N 
ATOM    178  H77 GLN d   1     -14.397  27.257 -17.747  0.00  0.00     0.159 HD
ATOM    179  H78 GLN d   1     -15.679  26.229 -18.296  0.00  0.00     0.159 HD
ENDBRANCH 172 175
ENDBRANCH 169 172
ENDBRANCH  82 169
BRANCH   7 180
ATOM    180  C   CYS d   1      -7.124  22.686 -26.342  0.00  0.00     0.197 C 
ATOM    181  O   CYS d   1      -6.472  23.515 -25.710  0.00  0.00    -0.646 OA
ATOM    182  OXT CYS d   1      -6.587  21.619 -26.632  0.00  0.00    -0.646 OA
ENDBRANCH   7 180
BRANCH  86 183
ATOM    183  CB  GLN d   1     -14.815  25.239 -26.721  0.00  0.00    -0.049 C 
ATOM    184  H81 GLN d   1     -14.176  24.590 -27.338  0.00  0.00     0.030 H 
ATOM    185  H82 GLN d   1     -14.548  26.291 -26.898  0.00  0.00     0.030 H 
ATOM    186  H83 GLN d   1     -15.869  25.078 -26.990  0.00  0.00     0.030 H 
ENDBRANCH  86 183
BRANCH  94 187
ATOM    187  CB  ILE d   1     -10.922  23.432 -22.667  0.00  0.00    -0.030 C 
ATOM    188  H86 ILE d   1     -11.290  22.397 -22.614  0.00  0.00     0.043 H 
BRANCH 187 189
ATOM    189  CG1 ILE d   1     -11.737  24.285 -21.691  0.00  0.00    -0.063 C 
ATOM    190  H87 ILE d   1     -12.771  24.344 -22.062  0.00  0.00     0.033 H 
ATOM    191  H88 ILE d   1     -11.299  25.294 -21.663  0.00  0.00     0.033 H 
BRANCH 189 192
ATOM    192  CD1 ILE d   1     -11.768  23.740 -20.282  0.00  0.00    -0.076 C 
ATOM    193  H92 ILE d   1     -12.370  24.405 -19.645  0.00  0.00     0.027 H 
ATOM    194  H93 ILE d   1     -10.743  23.684 -19.888  0.00  0.00     0.027 H 
ATOM    195  H94 ILE d   1     -12.214  22.735 -20.287  0.00  0.00     0.027 H 
ENDBRANCH 189 192
ENDBRANCH 187 189
BRANCH 187 196
ATOM    196  CG2 ILE d   1      -9.445  23.435 -22.292  0.00  0.00    -0.071 C 
ATOM    197  H89 ILE d   1      -8.884  22.816 -23.008  0.00  0.00     0.028 H 
ATOM    198  H90 ILE d   1      -9.323  23.025 -21.279  0.00  0.00     0.028 H 
ATOM    199  H91 ILE d   1      -9.062  24.466 -22.319  0.00  0.00     0.028 H 
ENDBRANCH 187 196
ENDBRANCH  94 187
TORSDOF 27
