REMARK  30 active torsions:
REMARK  status: ('A' for Active; 'I' for Inactive)
REMARK    1  A    between atoms: N_1  and  CA_2 
REMARK    2  A    between atoms: CA_8  and  CB_9 
REMARK    3  A    between atoms: CB_9  and  CG_10 
REMARK    4  A    between atoms: CA_23  and  CB_26 
REMARK    5  A    between atoms: CB_26  and  OG1_27 
REMARK    6  A    between atoms: CB_26  and  CG2_28 
REMARK    7  A    between atoms: CA_30  and  CB_33 
REMARK    8  A    between atoms: CB_33  and  OG1_34 
REMARK    9  A    between atoms: CB_33  and  CG2_35 
REMARK   10  A    between atoms: CA_37  and  CB_40 
REMARK   11  A    between atoms: CB_40  and  CG_41 
REMARK   12  A    between atoms: CG_41  and  CD_42 
REMARK   13  A    between atoms: CD_42  and  NE_43 
REMARK       I    between atoms: NE_43  and  CZ_44 
REMARK       I    between atoms: CZ_44  and  NH1_45 
REMARK   14  A    between atoms: CA_48  and  CB_51 
REMARK   15  A    between atoms: CB_51  and  CG_52 
REMARK   16  A    between atoms: CG_52  and  SD_53 
REMARK   17  A    between atoms: SD_53  and  CE_54 
REMARK   18  A    between atoms: CA_56  and  CB_59 
REMARK   19  A    between atoms: CB_59  and  OG_60 
REMARK   20  A    between atoms: CA_76  and  CB_79 
REMARK   21  A    between atoms: CB_79  and  CG_80 
REMARK   22  A    between atoms: CG_80  and  CD_81 
REMARK       I    between atoms: CD_81  and  NE2_83 
REMARK   23  A    between atoms: CA_85  and  CB_88 
REMARK   24  A    between atoms: CB_88  and  CG_89 
REMARK   25  A    between atoms: CG_89  and  CD_90 
REMARK       I    between atoms: CD_90  and  NE2_92 
REMARK   26  A    between atoms: CA_94  and  CB_97 
REMARK   27  A    between atoms: CB_97  and  CG1_98 
REMARK   28  A    between atoms: CB_97  and  CG2_99 
REMARK   29  A    between atoms: CG1_98  and  CD1_100 
REMARK   30  A    between atoms: CA_102  and  C_103 
ROOT
ATOM      1  CA  CYS d   1     -11.106  20.070 -28.412  0.00  0.00     0.184 C 
ATOM      2  C   CYS d   1     -12.184  19.358 -27.600  0.00  0.00     0.249 C 
ATOM      3  O   CYS d   1     -12.711  18.326 -28.014  0.00  0.00    -0.271 OA
ATOM      4  CB  CYS d   1     -11.753  21.086 -29.356  0.00  0.00     0.021 C 
ATOM      5  SG  CYS d   1     -10.592  22.226 -30.143  0.00  0.00    -0.095 SA
ATOM      6  N   CYS d   1      -9.349  23.553 -26.030  0.00  0.00    -0.344 N 
ATOM      7  CA  CYS d   1      -8.651  22.946 -27.159  0.00  0.00     0.105 C 
ATOM      8  CB  CYS d   1      -8.870  23.777 -28.426  0.00  0.00     0.015 C 
ATOM      9  SG  CYS d   1     -10.594  23.880 -28.962  0.00  0.00    -0.095 SA
ATOM     10  H4  CYS d   1     -10.453  20.613 -27.713  0.00  0.00     0.100 H 
ATOM     11  H5  CYS d   1     -12.477  21.679 -28.778  0.00  0.00     0.054 H 
ATOM     12  H6  CYS d   1     -12.280  20.532 -30.147  0.00  0.00     0.054 H 
ATOM     13  H98 CYS d   1      -9.125  24.490 -25.763  0.00  0.00     0.163 HD
ATOM     14  H99 CYS d   1      -9.076  21.945 -27.323  0.00  0.00     0.090 H 
ATOM     15 0H10 CYS d   1      -8.283  23.326 -29.239  0.00  0.00     0.054 H 
ATOM     16 1H10 CYS d   1      -8.507  24.798 -28.235  0.00  0.00     0.054 H 
ATOM     17  N   6CW d   1     -12.505  19.921 -26.439  0.00  0.00    -0.346 N 
ATOM     18  CA  6CW d   1     -13.534  19.382 -25.586  0.00  0.00     0.093 C 
ATOM     19  C   6CW d   1     -14.516  20.464 -25.151  0.00  0.00     0.241 C 
ATOM     20  O   6CW d   1     -14.271  21.670 -25.183  0.00  0.00    -0.271 OA
ATOM     21  H7  6CW d   1     -12.017  20.744 -26.149  0.00  0.00     0.163 HD
ATOM     22  H8  6CW d   1     -14.075  18.611 -26.155  0.00  0.00     0.088 H 
ATOM     23  N   THR d   1     -15.684  20.001 -24.720  0.00  0.00    -0.344 N 
ATOM     24  CA  THR d   1     -16.717  20.889 -24.206  0.00  0.00     0.113 C 
ATOM     25  C   THR d   1     -17.069  20.497 -22.777  0.00  0.00     0.243 C 
ATOM     26  O   THR d   1     -17.363  19.336 -22.505  0.00  0.00    -0.271 OA
ATOM     27  N   THR d   1     -17.025  21.461 -21.862  0.00  0.00    -0.344 N 
ATOM     28  CA  THR d   1     -17.368  21.189 -20.470  0.00  0.00     0.113 C 
ATOM     29  C   THR d   1     -18.848  20.844 -20.337  0.00  0.00     0.243 C 
ATOM     30  O   THR d   1     -19.693  21.422 -21.019  0.00  0.00    -0.271 OA
ATOM     31  H16 THR d   1     -15.858  19.017 -24.749  0.00  0.00     0.163 HD
ATOM     32  H17 THR d   1     -16.325  21.917 -24.207  0.00  0.00     0.091 H 
ATOM     33  H23 THR d   1     -16.753  22.385 -22.131  0.00  0.00     0.163 HD
ATOM     34  H24 THR d   1     -16.776  20.324 -20.137  0.00  0.00     0.091 H 
ATOM     35  N   ARG d   1     -19.151  19.892 -19.461  0.00  0.00    -0.346 N 
ATOM     36  CA  ARG d   1     -20.527  19.461 -19.245  0.00  0.00     0.089 C 
ATOM     37  C   ARG d   1     -21.218  20.329 -18.198  0.00  0.00     0.241 C 
ATOM     38  O   ARG d   1     -22.411  20.616 -18.305  0.00  0.00    -0.271 OA
ATOM     39  H30 ARG d   1     -18.417  19.460 -18.937  0.00  0.00     0.163 HD
ATOM     40  H31 ARG d   1     -21.073  19.565 -20.194  0.00  0.00     0.087 H 
ATOM     41  N   MET d   1     -20.462  20.746 -17.188  0.00  0.00    -0.346 N 
ATOM     42  CA  MET d   1     -21.005  21.574 -16.118  0.00  0.00     0.090 C 
ATOM     43  C   MET d   1     -21.007  23.050 -16.502  0.00  0.00     0.241 C 
ATOM     44  O   MET d   1     -20.046  23.554 -17.083  0.00  0.00    -0.271 OA
ATOM     45  H43 MET d   1     -19.497  20.485 -17.161  0.00  0.00     0.163 HD
ATOM     46  H44 MET d   1     -22.046  21.265 -15.941  0.00  0.00     0.087 H 
ATOM     47  N   SER d   1     -22.097  23.735 -16.168  0.00  0.00    -0.344 N 
ATOM     48  CA  SER d   1     -22.264  25.146 -16.499  0.00  0.00     0.109 C 
ATOM     49  C   SER d   1     -21.349  26.035 -15.656  0.00  0.00     0.245 C 
ATOM     50  O   SER d   1     -21.133  25.761 -14.476  0.00  0.00    -0.271 OA
ATOM     51  H52 SER d   1     -22.828  23.266 -15.672  0.00  0.00     0.163 HD
ATOM     52  H53 SER d   1     -21.996  25.284 -17.557  0.00  0.00     0.090 H 
ATOM     53  N   PRO d   1     -20.813  27.110 -16.258  0.00  0.00    -0.337 N 
ATOM     54  CA  PRO d   1     -21.030  27.509 -17.654  0.00  0.00     0.092 C 
ATOM     55  C   PRO d   1     -20.181  26.716 -18.646  0.00  0.00     0.243 C 
ATOM     56  O   PRO d   1     -18.975  26.567 -18.447  0.00  0.00    -0.271 OA
ATOM     57  CB  PRO d   1     -20.629  28.985 -17.657  0.00  0.00    -0.036 C 
ATOM     58  CG  PRO d   1     -19.604  29.086 -16.589  0.00  0.00    -0.048 C 
ATOM     59  CD  PRO d   1     -20.008  28.102 -15.523  0.00  0.00    -0.001 C 
ATOM     60  N   PRO d   1     -20.817  26.205 -19.711  0.00  0.00    -0.337 N 
ATOM     61  CA  PRO d   1     -20.137  25.419 -20.744  0.00  0.00     0.091 C 
ATOM     62  C   PRO d   1     -19.159  26.252 -21.560  0.00  0.00     0.241 C 
ATOM     63  O   PRO d   1     -19.488  27.349 -22.011  0.00  0.00    -0.271 OA
ATOM     64  CB  PRO d   1     -21.288  24.917 -21.625  0.00  0.00    -0.036 C 
ATOM     65  CG  PRO d   1     -22.520  25.085 -20.798  0.00  0.00    -0.048 C 
ATOM     66  CD  PRO d   1     -22.264  26.290 -19.957  0.00  0.00    -0.001 C 
ATOM     67  H57 PRO d   1     -22.090  27.392 -17.923  0.00  0.00     0.087 H 
ATOM     68  H58 PRO d   1     -21.494  29.625 -17.429  0.00  0.00     0.036 H 
ATOM     69  H59 PRO d   1     -20.207  29.273 -18.631  0.00  0.00     0.036 H 
ATOM     70  H60 PRO d   1     -19.582  30.106 -16.177  0.00  0.00     0.035 H 
ATOM     71  H61 PRO d   1     -18.611  28.830 -16.988  0.00  0.00     0.035 H 
ATOM     72  H62 PRO d   1     -19.124  27.631 -15.067  0.00  0.00     0.064 H 
ATOM     73  H63 PRO d   1     -20.607  28.593 -14.741  0.00  0.00     0.064 H 
ATOM     74  H64 PRO d   1     -19.596  24.575 -20.290  0.00  0.00     0.087 H 
ATOM     75  H65 PRO d   1     -21.140  23.859 -21.886  0.00  0.00     0.036 H 
ATOM     76  H66 PRO d   1     -21.358  25.515 -22.546  0.00  0.00     0.036 H 
ATOM     77  H67 PRO d   1     -22.683  24.200 -20.165  0.00  0.00     0.035 H 
ATOM     78  H68 PRO d   1     -23.398  25.243 -21.441  0.00  0.00     0.035 H 
ATOM     79  H69 PRO d   1     -22.522  27.213 -20.497  0.00  0.00     0.064 H 
ATOM     80  H70 PRO d   1     -22.831  26.245 -19.015  0.00  0.00     0.064 H 
ATOM     81  N   GLN d   1     -17.959  25.714 -21.740  0.00  0.00    -0.346 N 
ATOM     82  CA  GLN d   1     -16.909  26.372 -22.501  0.00  0.00     0.090 C 
ATOM     83  C   GLN d   1     -16.194  25.346 -23.363  0.00  0.00     0.241 C 
ATOM     84  O   GLN d   1     -16.437  24.144 -23.242  0.00  0.00    -0.271 OA
ATOM     85  N   GLN d   1     -15.312  25.812 -24.237  0.00  0.00    -0.346 N 
ATOM     86  CA  GLN d   1     -14.531  24.891 -25.045  0.00  0.00     0.090 C 
ATOM     87  C   GLN d   1     -13.051  24.970 -24.677  0.00  0.00     0.241 C 
ATOM     88  O   GLN d   1     -12.508  26.051 -24.428  0.00  0.00    -0.271 OA
ATOM     89  H71 GLN d   1     -17.769  24.819 -21.336  0.00  0.00     0.163 HD
ATOM     90  H72 GLN d   1     -17.365  27.131 -23.154  0.00  0.00     0.087 H 
ATOM     91  H79 GLN d   1     -15.184  26.799 -24.340  0.00  0.00     0.163 HD
ATOM     92  H80 GLN d   1     -14.887  23.871 -24.839  0.00  0.00     0.087 H 
ATOM     93  N   ILE d   1     -12.414  23.805 -24.632  0.00  0.00    -0.346 N 
ATOM     94  CA  ILE d   1     -11.012  23.662 -24.265  0.00  0.00     0.092 C 
ATOM     95  C   ILE d   1     -10.275  22.887 -25.350  0.00  0.00     0.241 C 
ATOM     96  O   ILE d   1     -10.546  21.710 -25.571  0.00  0.00    -0.271 OA
ATOM     97  H87 ILE d   1     -12.927  22.978 -24.864  0.00  0.00     0.163 HD
ATOM     98  H88 ILE d   1     -10.566  24.663 -24.174  0.00  0.00     0.088 H 
ENDROOT
BRANCH  18  99
ATOM     99  CB  6CW d   1     -12.978  18.748 -24.294  0.00  0.00    -0.012 C 
ATOM    100  H9  6CW d   1     -13.822  18.414 -23.673  0.00  0.00     0.044 H 
ATOM    101  H10 6CW d   1     -12.399  19.508 -23.749  0.00  0.00     0.044 H 
BRANCH  99 102
ATOM    102  CG  6CW d   1     -12.109  17.599 -24.562  0.00  0.00    -0.028 A 
ATOM    103  CD2 6CW d   1     -10.724  17.644 -24.982  0.00  0.00    -0.002 A 
ATOM    104  CE3 6CW d   1      -9.820  18.673 -25.250  0.00  0.00    -0.069 A 
ATOM    105  CE2 6CW d   1     -10.297  16.269 -25.117  0.00  0.00     0.044 A 
ATOM    106  CZ3 6CW d   1      -8.531  18.357 -25.644  0.00  0.00    -0.061 A 
ATOM    107  H11 6CW d   1     -10.124  19.709 -25.151  0.00  0.00     0.085 H 
ATOM    108  CH2 6CW d   1      -8.132  17.012 -25.771  0.00  0.00     0.036 A 
ATOM    109  H15 6CW d   1      -7.824  19.150 -25.856  0.00  0.00     0.086 H 
ATOM    110  CZ2 6CW d   1      -8.991  15.950 -25.515  0.00  0.00    -0.035 A 
ATOM    111 CLL  6CW d   1      -6.539  16.676 -26.257  0.00  0.00    -0.084 Cl
ATOM    112  H14 6CW d   1      -8.666  14.921 -25.618  0.00  0.00     0.089 H 
ATOM    113  NE1 6CW d   1     -11.376  15.443 -24.794  0.00  0.00    -0.365 N 
ATOM    114  CD1 6CW d   1     -12.462  16.251 -24.461  0.00  0.00    -0.015 A 
ATOM    115  H12 6CW d   1     -11.370  14.413 -24.801  0.00  0.00     0.165 HD
ATOM    116  H13 6CW d   1     -13.444  15.884 -24.165  0.00  0.00     0.112 H 
ENDBRANCH  99 102
ENDBRANCH  18  99
BRANCH   1 117
ATOM    117  N   CYS d   1     -10.281  19.129 -29.161  0.00  0.00    -0.066 N 
ATOM    118  H1  CYS d   1      -9.583  19.636 -29.683  0.00  0.00     0.275 HD
ATOM    119  H2  CYS d   1     -10.862  18.605 -29.797  0.00  0.00     0.275 HD
ATOM    120  H3  CYS d   1      -9.828  18.496 -28.521  0.00  0.00     0.275 HD
ENDBRANCH   1 117
BRANCH  24 121
ATOM    121  CB  THR d   1     -17.986  20.849 -25.078  0.00  0.00     0.060 C 
ATOM    122  H18 THR d   1     -18.337  19.809 -25.152  0.00  0.00     0.086 H 
BRANCH 121 123
ATOM    123  OG1 THR d   1     -17.686  21.343 -26.390  0.00  0.00    -0.393 OA
ATOM    124  H19 THR d   1     -18.471  21.317 -26.924  0.00  0.00     0.210 HD
ENDBRANCH 121 123
BRANCH 121 125
ATOM    125  CG2 THR d   1     -19.084  21.703 -24.463  0.00  0.00    -0.050 C 
ATOM    126  H20 THR d   1     -19.980  21.662 -25.099  0.00  0.00     0.031 H 
ATOM    127  H21 THR d   1     -18.738  22.744 -24.384  0.00  0.00     0.031 H 
ATOM    128  H22 THR d   1     -19.328  21.321 -23.461  0.00  0.00     0.031 H 
ENDBRANCH 121 125
ENDBRANCH  24 121
BRANCH  28 129
ATOM    129  CB  THR d   1     -17.038  22.382 -19.553  0.00  0.00     0.060 C 
ATOM    130  H25 THR d   1     -17.479  22.206 -18.561  0.00  0.00     0.086 H 
BRANCH 129 131
ATOM    131  OG1 THR d   1     -17.586  23.582 -20.110  0.00  0.00    -0.393 OA
ATOM    132  H26 THR d   1     -17.211  23.731 -20.970  0.00  0.00     0.210 HD
ENDBRANCH 129 131
BRANCH 129 133
ATOM    133  CG2 THR d   1     -15.534  22.541 -19.409  0.00  0.00    -0.050 C 
ATOM    134  H27 THR d   1     -15.317  23.396 -18.752  0.00  0.00     0.031 H 
ATOM    135  H28 THR d   1     -15.087  22.716 -20.399  0.00  0.00     0.031 H 
ATOM    136  H29 THR d   1     -15.109  21.626 -18.972  0.00  0.00     0.031 H 
ENDBRANCH 129 133
ENDBRANCH  28 129
BRANCH   7 137
ATOM    137  C   CYS d   1      -7.156  22.787 -26.892  0.00  0.00     0.197 C 
ATOM    138  O   CYS d   1      -6.666  23.151 -25.824  0.00  0.00    -0.646 OA
ATOM    139  OXT CYS d   1      -6.415  22.292 -27.740  0.00  0.00    -0.646 OA
ENDBRANCH   7 137
BRANCH  36 140
ATOM    140  CB  ARG d   1     -20.568  17.991 -18.822  0.00  0.00    -0.036 C 
ATOM    141  H32 ARG d   1     -21.608  17.733 -18.573  0.00  0.00     0.036 H 
ATOM    142  H33 ARG d   1     -19.937  17.872 -17.929  0.00  0.00     0.036 H 
BRANCH 140 143
ATOM    143  CG  ARG d   1     -20.077  17.019 -19.886  0.00  0.00    -0.048 C 
ATOM    144  H34 ARG d   1     -19.035  17.263 -20.142  0.00  0.00     0.035 H 
ATOM    145  H35 ARG d   1     -20.708  17.119 -20.782  0.00  0.00     0.035 H 
BRANCH 143 146
ATOM    146  CD  ARG d   1     -20.142  15.582 -19.391  0.00  0.00     0.009 C 
ATOM    147  H36 ARG d   1     -21.107  15.424 -18.887  0.00  0.00     0.064 H 
ATOM    148  H37 ARG d   1     -19.323  15.416 -18.675  0.00  0.00     0.064 H 
BRANCH 146 149
ATOM    149  NE  ARG d   1     -20.017  14.617 -20.480  0.00  0.00    -0.227 N 
ATOM    150  CZ  ARG d   1     -18.888  13.996 -20.809  0.00  0.00     0.665 C 
ATOM    151  NH1 ARG d   1     -17.773  14.234 -20.132  0.00  0.00    -0.235 N 
ATOM    152  NH2 ARG d   1     -18.875  13.134 -21.817  0.00  0.00    -0.235 N 
ATOM    153  H39 ARG d   1     -16.901  13.751 -20.390  0.00  0.00     0.174 HD
ATOM    154  H40 ARG d   1     -17.779  14.902 -19.348  0.00  0.00     0.174 HD
ATOM    155  H41 ARG d   1     -19.739  12.946 -22.345  0.00  0.00     0.174 HD
ATOM    156  H42 ARG d   1     -18.001  12.652 -22.071  0.00  0.00     0.174 HD
ATOM    157  H38 ARG d   1     -20.861  14.403 -21.031  0.00  0.00     0.177 HD
ENDBRANCH 146 149
ENDBRANCH 143 146
ENDBRANCH 140 143
ENDBRANCH  36 140
BRANCH  94 158
ATOM    158  CB  ILE d   1     -10.868  22.932 -22.917  0.00  0.00    -0.030 C 
ATOM    159  H89 ILE d   1     -11.100  21.868 -23.074  0.00  0.00     0.043 H 
BRANCH 158 160
ATOM    160  CG1 ILE d   1     -11.866  23.496 -21.896  0.00  0.00    -0.063 C 
ATOM    161  H90 ILE d   1     -12.850  23.577 -22.382  0.00  0.00     0.033 H 
ATOM    162  H91 ILE d   1     -11.523  24.496 -21.593  0.00  0.00     0.033 H 
BRANCH 160 163
ATOM    163  CD1 ILE d   1     -12.017  22.654 -20.660  0.00  0.00    -0.076 C 
ATOM    164  H95 ILE d   1     -12.745  23.124 -19.983  0.00  0.00     0.027 H 
ATOM    165  H96 ILE d   1     -11.045  22.571 -20.152  0.00  0.00     0.027 H 
ATOM    166  H97 ILE d   1     -12.371  21.651 -20.941  0.00  0.00     0.027 H 
ENDBRANCH 160 163
ENDBRANCH 158 160
BRANCH 158 167
ATOM    167  CG2 ILE d   1      -9.441  23.034 -22.398  0.00  0.00    -0.071 C 
ATOM    168  H92 ILE d   1      -8.748  22.624 -23.147  0.00  0.00     0.028 H 
ATOM    169  H93 ILE d   1      -9.349  22.463 -21.462  0.00  0.00     0.028 H 
ATOM    170  H94 ILE d   1      -9.194  24.089 -22.209  0.00  0.00     0.028 H 
ENDBRANCH 158 167
ENDBRANCH  94 158
BRANCH  42 171
ATOM    171  CB  MET d   1     -20.215  21.365 -14.826  0.00  0.00    -0.030 C 
ATOM    172  H45 MET d   1     -20.485  22.164 -14.120  0.00  0.00     0.037 H 
ATOM    173  H46 MET d   1     -19.142  21.430 -15.060  0.00  0.00     0.037 H 
BRANCH 171 174
ATOM    174  CG  MET d   1     -20.480  20.026 -14.159  0.00  0.00    -0.021 C 
ATOM    175  H47 MET d   1     -20.207  19.226 -14.862  0.00  0.00     0.049 H 
ATOM    176  H48 MET d   1     -21.553  19.958 -13.925  0.00  0.00     0.049 H 
BRANCH 174 177
ATOM    177  SD  MET d   1     -19.547  19.792 -12.635  0.00  0.00    -0.173 SA
BRANCH 177 178
ATOM    178  CE  MET d   1     -17.875  19.670 -13.266  0.00  0.00    -0.035 C 
ATOM    179  H49 MET d   1     -17.177  19.522 -12.429  0.00  0.00     0.041 H 
ATOM    180  H50 MET d   1     -17.616  20.596 -13.800  0.00  0.00     0.041 H 
ATOM    181  H51 MET d   1     -17.805  18.817 -13.957  0.00  0.00     0.041 H 
ENDBRANCH 177 178
ENDBRANCH 174 177
ENDBRANCH 171 174
ENDBRANCH  42 171
BRANCH  86 182
ATOM    182  CB  GLN d   1     -14.702  25.164 -26.527  0.00  0.00    -0.030 C 
ATOM    183  H81 GLN d   1     -13.788  25.644 -26.907  0.00  0.00     0.037 H 
ATOM    184  H82 GLN d   1     -15.557  25.841 -26.667  0.00  0.00     0.037 H 
BRANCH 182 185
ATOM    185  CG  GLN d   1     -14.953  23.881 -27.323  0.00  0.00     0.011 C 
ATOM    186  H83 GLN d   1     -15.862  23.401 -26.931  0.00  0.00     0.047 H 
ATOM    187  H84 GLN d   1     -14.093  23.210 -27.181  0.00  0.00     0.047 H 
BRANCH 185 188
ATOM    188  CD  GLN d   1     -15.137  24.114 -28.804  0.00  0.00     0.215 C 
ATOM    189  OE1 GLN d   1     -16.128  23.680 -29.382  0.00  0.00    -0.274 OA
ATOM    190  NE2 GLN d   1     -14.164  24.762 -29.438  0.00  0.00    -0.370 N 
ATOM    191  H85 GLN d   1     -14.239  24.941 -30.419  0.00  0.00     0.159 HD
ATOM    192  H86 GLN d   1     -13.357  25.070 -28.934  0.00  0.00     0.159 HD
ENDBRANCH 185 188
ENDBRANCH 182 185
ENDBRANCH  86 182
BRANCH  48 193
ATOM    193  CB  SER d   1     -23.725  25.564 -16.311  0.00  0.00     0.044 C 
ATOM    194  H54 SER d   1     -23.809  26.651 -16.460  0.00  0.00     0.077 H 
ATOM    195  H55 SER d   1     -24.043  25.308 -15.289  0.00  0.00     0.077 H 
BRANCH 193 196
ATOM    196  OG  SER d   1     -24.572  24.904 -17.237  0.00  0.00    -0.398 OA
ATOM    197  H56 SER d   1     -25.470  25.182 -17.097  0.00  0.00     0.209 HD
ENDBRANCH 193 196
ENDBRANCH  48 193
BRANCH  82 198
ATOM    198  CB  GLN d   1     -15.922  27.063 -21.564  0.00  0.00    -0.030 C 
ATOM    199  H73 GLN d   1     -16.466  27.816 -20.975  0.00  0.00     0.037 H 
ATOM    200  H74 GLN d   1     -15.151  27.559 -22.172  0.00  0.00     0.037 H 
BRANCH 198 201
ATOM    201  CG  GLN d   1     -15.239  26.103 -20.607  0.00  0.00     0.011 C 
ATOM    202  H75 GLN d   1     -14.621  25.405 -21.191  0.00  0.00     0.047 H 
ATOM    203  H76 GLN d   1     -16.012  25.541 -20.062  0.00  0.00     0.047 H 
BRANCH 201 204
ATOM    204  CD  GLN d   1     -14.354  26.806 -19.602  0.00  0.00     0.215 C 
ATOM    205  OE1 GLN d   1     -14.626  26.793 -18.401  0.00  0.00    -0.274 OA
ATOM    206  NE2 GLN d   1     -13.288  27.430 -20.088  0.00  0.00    -0.370 N 
ATOM    207  H77 GLN d   1     -12.666  27.912 -19.471  0.00  0.00     0.159 HD
ATOM    208  H78 GLN d   1     -13.107  27.418 -21.071  0.00  0.00     0.159 HD
ENDBRANCH 201 204
ENDBRANCH 198 201
ENDBRANCH  82 198
TORSDOF 30
