REMARK  15 active torsions:
REMARK  status: ('A' for Active; 'I' for Inactive)
REMARK    1  A    between atoms: N_1  and  CA_2 
REMARK    2  A    between atoms: CA_2  and  C_3 
REMARK    3  A    between atoms: CA_2  and  CB_5 
REMARK       I    between atoms: C_3  and  N_9 
REMARK    4  A    between atoms: CB_5  and  CG_6 
REMARK    5  A    between atoms: N_9  and  CA_10 
REMARK    6  A    between atoms: CA_10  and  C_11 
REMARK    7  A    between atoms: CA_10  and  CB_13 
REMARK       I    between atoms: C_11  and  N_17 
REMARK    8  A    between atoms: CB_13  and  CG1_14 
REMARK    9  A    between atoms: CB_13  and  CG2_15 
REMARK   10  A    between atoms: CG1_14  and  CD1_16 
REMARK   11  A    between atoms: CA_18  and  C_19 
REMARK       I    between atoms: C_19  and  N_24 
REMARK   12  A    between atoms: N_24  and  CA_25 
REMARK   13  A    between atoms: CA_25  and  C_26 
REMARK   14  A    between atoms: CA_25  and  CB_28 
REMARK   15  A    between atoms: CB_28  and  CG_29 
ROOT
ATOM      1  C   ILE d   1      86.761  44.621  30.873  0.00  0.00     0.243 C 
ATOM      2  O   ILE d   1      87.923  44.683  30.461  0.00  0.00    -0.271 OA
ATOM      3  N   PRO d   1      86.144  43.446  31.106  0.00  0.00    -0.337 N 
ATOM      4  CA  PRO d   1      86.885  42.184  31.046  0.00  0.00     0.091 C 
ATOM      5  CB  PRO d   1      86.052  41.285  31.954  0.00  0.00    -0.036 C 
ATOM      6  CG  PRO d   1      84.652  41.724  31.671  0.00  0.00    -0.048 C 
ATOM      7  CD  PRO d   1      84.716  43.208  31.394  0.00  0.00    -0.001 C 
ATOM      8  H18 PRO d   1      87.900  42.318  31.449  0.00  0.00     0.087 H 
ATOM      9  H19 PRO d   1      86.310  41.444  33.011  0.00  0.00     0.036 H 
ATOM     10  H20 PRO d   1      86.193  40.225  31.697  0.00  0.00     0.036 H 
ATOM     11  H21 PRO d   1      84.009  41.527  32.541  0.00  0.00     0.035 H 
ATOM     12  H22 PRO d   1      84.256  41.191  30.794  0.00  0.00     0.035 H 
ATOM     13  H23 PRO d   1      84.091  43.473  30.528  0.00  0.00     0.064 H 
ATOM     14  H24 PRO d   1      84.391  43.786  32.272  0.00  0.00     0.064 H 
ENDROOT
BRANCH   1  15
ATOM     15  CA  ILE d   1      85.967  45.914  31.165  0.00  0.00     0.092 C 
ATOM     16  H8  ILE d   1      85.037  45.639  31.685  0.00  0.00     0.088 H 
BRANCH  15  17
ATOM     17  N   ILE d   1      86.771  46.741  32.065  0.00  0.00    -0.346 N 
ATOM     18  C   ASP d   1      86.996  46.368  33.324  0.00  0.00     0.249 C 
ATOM     19  O   ASP d   1      86.368  45.462  33.870  0.00  0.00    -0.271 OA
ATOM     20  H7  ILE d   1      87.158  47.600  31.730  0.00  0.00     0.163 HD
BRANCH  18  21
ATOM     21  CA  ASP d   1      88.042  47.154  34.119  0.00  0.00     0.185 C 
ATOM     22  H4  ASP d   1      88.444  46.482  34.891  0.00  0.00     0.100 H 
BRANCH  21  23
ATOM     23  N   ASP d   1      89.208  47.633  33.308  0.00  0.00    -0.066 N 
ATOM     24  H1  ASP d   1      89.846  48.138  33.903  0.00  0.00     0.275 HD
ATOM     25  H2  ASP d   1      88.880  48.241  32.574  0.00  0.00     0.275 HD
ATOM     26  H3  ASP d   1      89.682  46.842  32.902  0.00  0.00     0.275 HD
ENDBRANCH  21  23
BRANCH  21  27
ATOM     27  CB  ASP d   1      87.341  48.314  34.818  0.00  0.00     0.050 C 
ATOM     28  H5  ASP d   1      86.817  48.918  34.063  0.00  0.00     0.052 H 
ATOM     29  H6  ASP d   1      88.097  48.933  35.322  0.00  0.00     0.052 H 
BRANCH  27  30
ATOM     30  CG  ASP d   1      86.333  47.836  35.849  0.00  0.00     0.175 C 
ATOM     31  OD1 ASP d   1      86.754  47.130  36.794  0.00  0.00    -0.648 OA
ATOM     32  OD2 ASP d   1      85.128  48.146  35.707  0.00  0.00    -0.648 OA
ENDBRANCH  27  30
ENDBRANCH  21  27
ENDBRANCH  18  21
ENDBRANCH  15  17
BRANCH  15  33
ATOM     33  CB  ILE d   1      85.570  46.673  29.872  0.00  0.00    -0.030 C 
ATOM     34  H9  ILE d   1      85.169  47.653  30.170  0.00  0.00     0.043 H 
BRANCH  33  35
ATOM     35  CG1 ILE d   1      84.463  45.919  29.119  0.00  0.00    -0.063 C 
ATOM     36  H10 ILE d   1      83.788  45.465  29.859  0.00  0.00     0.033 H 
ATOM     37  H11 ILE d   1      84.931  45.127  28.516  0.00  0.00     0.033 H 
BRANCH  35  38
ATOM     38  CD1 ILE d   1      83.640  46.797  28.198  0.00  0.00    -0.076 C 
ATOM     39  H15 ILE d   1      82.873  46.187  27.698  0.00  0.00     0.027 H 
ATOM     40  H16 ILE d   1      84.296  47.252  27.442  0.00  0.00     0.027 H 
ATOM     41  H17 ILE d   1      83.153  47.589  28.785  0.00  0.00     0.027 H 
ENDBRANCH  35  38
ENDBRANCH  33  35
BRANCH  33  42
ATOM     42  CG2 ILE d   1      86.773  46.923  28.963  0.00  0.00    -0.071 C 
ATOM     43  H12 ILE d   1      87.550  47.463  29.524  0.00  0.00     0.028 H 
ATOM     44  H13 ILE d   1      86.460  47.526  28.098  0.00  0.00     0.028 H 
ATOM     45  H14 ILE d   1      87.175  45.961  28.613  0.00  0.00     0.028 H 
ENDBRANCH  33  42
ENDBRANCH  15  33
ENDBRANCH   1  15
BRANCH   4  46
ATOM     46  C   PRO d   1      86.995  41.589  29.629  0.00  0.00     0.241 C 
ATOM     47  O   PRO d   1      87.156  40.369  29.466  0.00  0.00    -0.271 OA
ATOM     48  N   PHE d   1      86.905  42.440  28.612  0.00  0.00    -0.344 N 
ATOM     49  H25 PHE d   1      86.669  43.394  28.797  0.00  0.00     0.163 HD
BRANCH  48  50
ATOM     50  CA  PHE d   1      87.141  42.023  27.234  0.00  0.00     0.100 C 
ATOM     51  H26 PHE d   1      87.957  41.285  27.227  0.00  0.00     0.090 H 
BRANCH  50  52
ATOM     52  C   PHE d   1      87.564  43.222  26.400  0.00  0.00     0.197 C 
ATOM     53  O   PHE d   1      87.420  44.369  26.824  0.00  0.00    -0.646 OA
ATOM     54  OXT PHE d   1      88.052  43.072  25.286  0.00  0.00    -0.646 OA
ENDBRANCH  50  52
BRANCH  50  55
ATOM     55  CB  PHE d   1      85.889  41.365  26.639  0.00  0.00    -0.013 C 
ATOM     56  H27 PHE d   1      85.754  40.384  27.117  0.00  0.00     0.043 H 
ATOM     57  H28 PHE d   1      86.051  41.227  25.560  0.00  0.00     0.043 H 
BRANCH  55  58
ATOM     58  CG  PHE d   1      84.627  42.162  26.830  0.00  0.00    -0.056 A 
ATOM     59  CD1 PHE d   1      84.329  43.235  25.994  0.00  0.00    -0.077 A 
ATOM     60  CE1 PHE d   1      83.165  43.966  26.167  0.00  0.00    -0.082 A 
ATOM     61  H29 PHE d   1      85.016  43.501  25.199  0.00  0.00     0.084 H 
ATOM     62  CZ  PHE d   1      82.277  43.623  27.169  0.00  0.00    -0.083 A 
ATOM     63  H31 PHE d   1      82.951  44.806  25.517  0.00  0.00     0.083 H 
ATOM     64  CE2 PHE d   1      82.553  42.551  28.000  0.00  0.00    -0.082 A 
ATOM     65  H33 PHE d   1      81.365  44.193  27.304  0.00  0.00     0.083 H 
ATOM     66  CD2 PHE d   1      83.722  41.826  27.828  0.00  0.00    -0.077 A 
ATOM     67  H32 PHE d   1      81.856  42.279  28.784  0.00  0.00     0.083 H 
ATOM     68  H30 PHE d   1      83.932  40.986  28.481  0.00  0.00     0.084 H 
ENDBRANCH  55  58
ENDBRANCH  50  55
ENDBRANCH  48  50
ENDBRANCH   4  46
TORSDOF 15
