REMARK  12 active torsions:
REMARK  status: ('A' for Active; 'I' for Inactive)
REMARK    1  A    between atoms: C2_1  and  NBB_21 
REMARK    2  A    between atoms: NAZ_17  and  C4_2 
REMARK    3  A    between atoms: CAQ_6  and  CAP_5 
REMARK    4  A    between atoms: CBE_7  and  CAQ_6 
REMARK       I    between atoms: NBA_9  and  CBE_7 
REMARK    5  A    between atoms: CBH_10  and  NBA_9 
REMARK    6  A    between atoms: CAV_16  and  CBF_15 
REMARK    7  A    between atoms: CAV_16  and  NAZ_17 
REMARK    8  A    between atoms: NBB_21  and  CBK_22 
REMARK    9  A    between atoms: CBL_23  and  OBC_25 
REMARK   10  A    between atoms: OBC_25  and  CAA_26 
REMARK   11  A    between atoms: CBI_29  and  NBP_30 
REMARK   12  A    between atoms: NBO_33  and  CAB_34 
ROOT
ATOM      1  NBB 4LH d   1      -8.114 -17.778   2.280  0.00  0.00    -0.185 N 
ATOM      2  H15 4LH d   1      -8.868 -18.441   2.052  0.00  0.00     0.184 HD
ENDROOT
BRANCH   1   3
ATOM      3  C2  4LH d   1      -7.406 -17.972   3.414  0.00  0.00     0.728 A 
ATOM      4  N3  4LH d   1      -6.321 -17.227   3.707  0.00  0.00    -0.043 NA
ATOM      5  C4  4LH d   1      -5.602 -17.389   4.833  0.00  0.00     0.166 A 
ATOM      6  C5  4LH d   1      -5.945 -18.384   5.752  0.00  0.00     0.098 A 
ATOM      7  C6  4LH d   1      -7.061 -19.177   5.466  0.00  0.00     0.046 A 
ATOM      8 CL5  4LH d   1      -5.016 -18.642   7.228  0.00  0.00    -0.079 Cl
ATOM      9  N1  4LH d   1      -7.781 -18.941   4.275  0.00  0.00    -0.073 NA
ATOM     10  H1  4LH d   1      -7.368 -19.961   6.149  0.00  0.00     0.118 H 
BRANCH   5  11
ATOM     11  NAZ 4LH d   1      -4.546 -16.617   5.107  0.00  0.00    -0.369 N 
ATOM     12  H14 4LH d   1      -3.933 -16.878   5.893  0.00  0.00     0.161 HD
BRANCH  11  13
ATOM     13  CAV 4LH d   1      -4.221 -15.398   4.324  0.00  0.00     0.018 C 
ATOM     14  H12 4LH d   1      -3.142 -15.204   4.418  0.00  0.00     0.071 H 
ATOM     15  H13 4LH d   1      -4.469 -15.588   3.269  0.00  0.00     0.071 H 
BRANCH  13  16
ATOM     16  CBF 4LH d   1      -4.913 -14.253   4.740  0.00  0.00    -0.038 A 
ATOM     17  CAN 4LH d   1      -5.262 -13.265   3.808  0.00  0.00    -0.050 A 
ATOM     18  CBH 4LH d   1      -5.932 -12.091   4.195  0.00  0.00     0.035 A 
ATOM     19  H8  4LH d   1      -5.009 -13.410   2.764  0.00  0.00     0.087 H 
ATOM     20  CAJ 4LH d   1      -6.230 -11.941   5.553  0.00  0.00    -0.057 A 
ATOM     21  CAH 4LH d   1      -5.879 -12.912   6.491  0.00  0.00    -0.080 A 
ATOM     22  H9  4LH d   1      -6.747 -11.048   5.885  0.00  0.00     0.086 H 
ATOM     23  CAI 4LH d   1      -5.218 -14.066   6.085  0.00  0.00    -0.075 A 
ATOM     24  H10 4LH d   1      -6.122 -12.767   7.537  0.00  0.00     0.083 H 
ATOM     25  H11 4LH d   1      -4.941 -14.818   6.814  0.00  0.00     0.084 H 
BRANCH  18  26
ATOM     26  NBA 4LH d   1      -6.318 -11.075   3.378  0.00  0.00    -0.327 N 
ATOM     27  CBE 4LH d   1      -6.130 -11.040   2.032  0.00  0.00     0.221 C 
ATOM     28  OAE 4LH d   1      -5.520 -11.885   1.385  0.00  0.00    -0.273 OA
ATOM     29  H7  4LH d   1      -6.776 -10.293   3.800  0.00  0.00     0.169 HD
BRANCH  27  30
ATOM     30  CAQ 4LH d   1      -6.660  -9.789   1.289  0.00  0.00     0.006 C 
ATOM     31  H5  4LH d   1      -5.855  -9.040   1.254  0.00  0.00     0.046 H 
ATOM     32  H6  4LH d   1      -6.932 -10.084   0.265  0.00  0.00     0.046 H 
BRANCH  30  33
ATOM     33  CAP 4LH d   1      -7.885  -9.150   1.948  0.00  0.00    -0.068 C 
ATOM     34  H2  4LH d   1      -8.199  -8.272   1.364  0.00  0.00     0.028 H 
ATOM     35  H3  4LH d   1      -7.630  -8.837   2.971  0.00  0.00     0.028 H 
ATOM     36  H4  4LH d   1      -8.706  -9.881   1.982  0.00  0.00     0.028 H 
ENDBRANCH  30  33
ENDBRANCH  27  30
ENDBRANCH  18  26
ENDBRANCH  13  16
ENDBRANCH  11  13
ENDBRANCH   5  11
ENDBRANCH   1   3
BRANCH   1  37
ATOM     37  CBK 4LH d   1      -7.876 -16.750   1.429  0.00  0.00     0.082 A 
ATOM     38  CBL 4LH d   1      -8.123 -16.991   0.067  0.00  0.00     0.097 A 
ATOM     39  CAO 4LH d   1      -7.873 -15.994  -0.888  0.00  0.00    -0.023 A 
ATOM     40  CBI 4LH d   1      -7.479 -14.718  -0.481  0.00  0.00     0.033 A 
ATOM     41  H16 4LH d   1      -7.986 -16.215  -1.943  0.00  0.00     0.091 H 
ATOM     42  CAK 4LH d   1      -7.290 -14.464   0.882  0.00  0.00    -0.055 A 
ATOM     43  CAL 4LH d   1      -7.498 -15.464   1.829  0.00  0.00    -0.052 A 
ATOM     44  H21 4LH d   1      -6.978 -13.477   1.205  0.00  0.00     0.087 H 
ATOM     45  H20 4LH d   1      -7.366 -15.244   2.882  0.00  0.00     0.087 H 
BRANCH  38  46
ATOM     46  OBC 4LH d   1      -8.478 -18.268  -0.285  0.00  0.00    -0.354 OA
BRANCH  46  47
ATOM     47  CAA 4LH d   1      -9.656 -18.366  -1.092  0.00  0.00     0.010 C 
ATOM     48  H17 4LH d   1      -9.857 -19.423  -1.320  0.00  0.00     0.066 H 
ATOM     49  H18 4LH d   1      -9.506 -17.811  -2.029  0.00  0.00     0.066 H 
ATOM     50  H19 4LH d   1     -10.511 -17.940  -0.546  0.00  0.00     0.066 H 
ENDBRANCH  46  47
ENDBRANCH  38  46
BRANCH  40  51
ATOM     51  NBP 4LH d   1      -7.311 -13.740  -1.391  0.00  0.00    -0.378 N 
ATOM     52  CAT 4LH d   1      -8.484 -13.284  -2.191  0.00  0.00     0.018 C 
ATOM     53  CAR 4LH d   1      -8.132 -13.167  -3.691  0.00  0.00     0.098 C 
ATOM     54  H22 4LH d   1      -8.808 -12.300  -1.822  0.00  0.00     0.066 H 
ATOM     55  H23 4LH d   1      -9.303 -14.009  -2.071  0.00  0.00     0.066 H 
ATOM     56  NBO 4LH d   1      -6.736 -12.732  -3.974  0.00  0.00    -0.072 N 
ATOM     57  H24 4LH d   1      -8.817 -12.437  -4.147  0.00  0.00     0.078 H 
ATOM     58  H25 4LH d   1      -8.284 -14.152  -4.156  0.00  0.00     0.078 H 
ATOM     59  CAS 4LH d   1      -5.915 -12.209  -2.852  0.00  0.00     0.098 C 
ATOM     60  H26 4LH d   1      -6.858 -11.926  -4.567  0.00  0.00     0.279 HD
ATOM     61  CAU 4LH d   1      -5.974 -13.085  -1.583  0.00  0.00     0.018 C 
ATOM     62  H30 4LH d   1      -6.276 -11.202  -2.596  0.00  0.00     0.078 H 
ATOM     63  H31 4LH d   1      -4.868 -12.149  -3.185  0.00  0.00     0.078 H 
ATOM     64  H32 4LH d   1      -5.206 -13.869  -1.661  0.00  0.00     0.066 H 
ATOM     65  H33 4LH d   1      -5.764 -12.452  -0.709  0.00  0.00     0.066 H 
BRANCH  56  66
ATOM     66  CAB 4LH d   1      -6.010 -13.702  -4.814  0.00  0.00     0.066 C 
ATOM     67  H27 4LH d   1      -4.988 -13.338  -4.995  0.00  0.00     0.068 H 
ATOM     68  H28 4LH d   1      -6.533 -13.819  -5.775  0.00  0.00     0.068 H 
ATOM     69  H29 4LH d   1      -5.968 -14.673  -4.299  0.00  0.00     0.068 H 
ENDBRANCH  56  66
ENDBRANCH  40  51
ENDBRANCH   1  37
TORSDOF 12
