REMARK  3 active torsions:
REMARK  status: ('A' for Active; 'I' for Inactive)
REMARK    1  A    between atoms: C9_3  and  C10_4 
REMARK       I    between atoms: N_19  and  C9_3 
REMARK    2  A    between atoms: C13_14  and  S_15 
REMARK    3  A    between atoms: S_15  and  N1_16 
ROOT
ATOM      1  C3  4KD d   1      18.574  11.100  11.742  0.00  0.00    -0.075 A 
ATOM      2  C4  4KD d   1      18.512   9.923  12.539  0.00  0.00    -0.034 A 
ATOM      3  C9  4KD d   1      16.367   7.199  13.094  0.00  0.00     0.254 C 
ATOM      4  C5  4KD d   1      17.851   8.696  11.928  0.00  0.00     0.022 C 
ATOM      5  C6  4KD d   1      18.647   7.587  13.969  0.00  0.00     0.002 C 
ATOM      6  C7  4KD d   1      18.926   8.808  14.773  0.00  0.00    -0.025 C 
ATOM      7  C8  4KD d   1      19.014   9.970  13.867  0.00  0.00    -0.049 A 
ATOM      8  O   4KD d   1      15.398   7.554  12.399  0.00  0.00    -0.267 OA
ATOM      9  N   4KD d   1      17.575   7.760  13.007  0.00  0.00    -0.343 N 
ATOM     10  C18 4KD d   1      19.612  11.140  14.392  0.00  0.00    -0.076 A 
ATOM     11  C17 4KD d   1      19.693  12.277  13.580  0.00  0.00    -0.082 A 
ATOM     12  C16 4KD d   1      19.176  12.265  12.271  0.00  0.00    -0.082 A 
ATOM     13  H1  4KD d   1      18.164  11.104  10.739  0.00  0.00     0.084 H 
ATOM     14  H2  4KD d   1      18.526   8.233  11.194  0.00  0.00     0.071 H 
ATOM     15  H3  4KD d   1      16.912   8.984  11.432  0.00  0.00     0.071 H 
ATOM     16  H4  4KD d   1      18.370   6.774  14.656  0.00  0.00     0.064 H 
ATOM     17  H5  4KD d   1      19.562   7.312  13.425  0.00  0.00     0.064 H 
ATOM     18  H6  4KD d   1      19.878   8.686  15.310  0.00  0.00     0.042 H 
ATOM     19  H7  4KD d   1      18.114   8.966  15.498  0.00  0.00     0.042 H 
ATOM     20  H14 4KD d   1      20.000  11.155  15.404  0.00  0.00     0.084 H 
ATOM     21  H15 4KD d   1      20.159  13.177  13.964  0.00  0.00     0.083 H 
ATOM     22  H16 4KD d   1      19.240  13.159  11.661  0.00  0.00     0.083 H 
ENDROOT
BRANCH   3  23
ATOM     23  C10 4KD d   1      16.107   6.069  14.047  0.00  0.00     0.032 A 
ATOM     24  C11 4KD d   1      16.945   4.932  14.061  0.00  0.00    -0.066 A 
ATOM     25  C12 4KD d   1      16.633   3.894  14.958  0.00  0.00    -0.059 A 
ATOM     26  H8  4KD d   1      17.802   4.861  13.401  0.00  0.00     0.085 H 
ATOM     27  C13 4KD d   1      15.528   3.890  15.775  0.00  0.00     0.079 A 
ATOM     28  H9  4KD d   1      17.305   3.045  15.008  0.00  0.00     0.085 H 
ATOM     29  C14 4KD d   1      14.729   5.048  15.664  0.00  0.00    -0.059 A 
ATOM     30  C15 4KD d   1      15.018   6.124  14.846  0.00  0.00    -0.066 A 
ATOM     31  H11 4KD d   1      13.826   5.097  16.262  0.00  0.00     0.085 H 
ATOM     32  H10 4KD d   1      14.380   7.000  14.845  0.00  0.00     0.085 H 
BRANCH  27  33
ATOM     33  S   4KD d   1      15.083   2.642  16.843  0.00  0.00     0.256 S 
ATOM     34  O1  4KD d   1      13.629   2.637  16.780  0.00  0.00    -0.201 OA
ATOM     35  O2  4KD d   1      15.650   2.907  18.128  0.00  0.00    -0.201 OA
BRANCH  33  36
ATOM     36  N1  4KD d   1      15.686   1.319  16.199  0.00  0.00    -0.324 N 
ATOM     37  H12 4KD d   1      15.554   0.437  16.652  0.00  0.00     0.169 HD
ATOM     38  H13 4KD d   1      16.197   1.369  15.341  0.00  0.00     0.169 HD
ENDBRANCH  33  36
ENDBRANCH  27  33
ENDBRANCH   3  23
TORSDOF 3
