REMARK  5 active torsions:
REMARK  status: ('A' for Active; 'I' for Inactive)
REMARK    1  A    between atoms: CAS_3  and  NBA_4 
REMARK    2  A    between atoms: CAO_7  and  CAM_8 
REMARK    3  A    between atoms: CAJ_15  and  CBC_16 
REMARK    4  A    between atoms: CAF_20  and  CBB_21 
REMARK    5  A    between atoms: NAD_23  and  CAP_24 
ROOT
ATOM      1  CAM 558 d   1     -19.225 -61.806 138.521  0.00  0.00    -0.022 A 
ATOM      2  CAN 558 d   1     -17.949 -61.475 138.027  0.00  0.00    -0.044 A 
ATOM      3  CAC 558 d   1     -17.035 -60.756 138.831  0.00  0.00     0.063 A 
ATOM      4  CAL 558 d   1     -19.582 -61.465 139.828  0.00  0.00    -0.070 A 
ATOM      5  CAK 558 d   1     -18.679 -60.735 140.648  0.00  0.00    -0.053 A 
ATOM      6  CAB 558 d   1     -17.395 -60.374 140.138  0.00  0.00     0.069 A 
ATOM      7  NAA 558 d   1     -16.498 -59.714 140.932  0.00  0.00    -0.282 N 
ATOM      8  CAJ 558 d   1     -16.550 -58.670 141.707  0.00  0.00     0.131 A 
ATOM      9  NAI 558 d   1     -15.340 -58.414 142.286  0.00  0.00    -0.135 NA
ATOM     10  NAH 558 d   1     -14.568 -59.276 141.815  0.00  0.00    -0.134 NA
ATOM     11  CAG 558 d   1     -15.199 -60.067 140.990  0.00  0.00     0.140 A 
ATOM     12  CAF 558 d   1     -14.629 -61.187 140.262  0.00  0.00     0.018 C 
ATOM     13  CAE 558 d   1     -14.514 -60.871 138.804  0.00  0.00     0.010 C 
ATOM     14  NAD 558 d   1     -15.810 -60.416 138.259  0.00  0.00    -0.344 N 
ATOM     15  H6  558 d   1     -17.666 -61.773 137.024  0.00  0.00     0.088 H 
ATOM     16  H7  558 d   1     -20.550 -61.758 140.218  0.00  0.00     0.084 H 
ATOM     17  H8  558 d   1     -18.964 -60.454 141.655  0.00  0.00     0.087 H 
ATOM     18  H12 558 d   1     -15.306 -62.046 140.377  0.00  0.00     0.054 H 
ATOM     19  H16 558 d   1     -14.193 -61.774 138.264  0.00  0.00     0.066 H 
ATOM     20  H17 558 d   1     -13.766 -60.076 138.666  0.00  0.00     0.066 H 
ENDROOT
BRANCH   1  21
ATOM     21  CAO 558 d   1     -20.099 -62.536 137.682  0.00  0.00    -0.008 A 
ATOM     22  CAU 558 d   1     -19.540 -63.234 136.583  0.00  0.00    -0.067 A 
ATOM     23  CAT 558 d   1     -20.337 -64.003 135.735  0.00  0.00    -0.038 A 
ATOM     24  H1  558 d   1     -18.474 -63.169 136.398  0.00  0.00     0.085 H 
ATOM     25  CAS 558 d   1     -21.713 -64.030 135.940  0.00  0.00     0.120 A 
ATOM     26  H2  558 d   1     -19.890 -64.572 134.927  0.00  0.00     0.089 H 
ATOM     27  NAR 558 d   1     -22.285 -63.371 136.981  0.00  0.00    -0.243 NA
ATOM     28  CAQ 558 d   1     -21.490 -62.598 137.882  0.00  0.00     0.015 A 
ATOM     29  H5  558 d   1     -21.952 -62.068 138.707  0.00  0.00     0.116 H 
BRANCH  25  30
ATOM     30  NBA 558 d   1     -22.411 -64.771 135.090  0.00  0.00    -0.384 N 
ATOM     31  H3  558 d   1     -23.435 -64.836 135.184  0.00  0.00     0.157 HD
ATOM     32  H4  558 d   1     -21.929 -65.282 134.336  0.00  0.00     0.157 HD
ENDBRANCH  25  30
ENDBRANCH   1  21
BRANCH  14  33
ATOM     33  CAP 558 d   1     -15.769 -59.787 137.054  0.00  0.00     0.035 A 
ATOM     34  CAV 558 d   1     -16.892 -59.103 136.517  0.00  0.00    -0.055 A 
ATOM     35  CAW 558 d   1     -16.809 -58.458 135.289  0.00  0.00    -0.060 A 
ATOM     36  H18 558 d   1     -17.824 -59.084 137.071  0.00  0.00     0.087 H 
ATOM     37  CAX 558 d   1     -15.636 -58.474 134.533  0.00  0.00     0.034 A 
ATOM     38  H19 558 d   1     -17.676 -57.930 134.909  0.00  0.00     0.086 H 
ATOM     39 CLB  558 d   1     -15.570 -57.674 132.983  0.00  0.00    -0.084 Cl
ATOM     40  CAY 558 d   1     -14.551 -59.191 135.018  0.00  0.00    -0.060 A 
ATOM     41  CAZ 558 d   1     -14.583 -59.830 136.254  0.00  0.00    -0.055 A 
ATOM     42  H20 558 d   1     -13.652 -59.255 134.416  0.00  0.00     0.086 H 
ATOM     43  H21 558 d   1     -13.708 -60.361 136.611  0.00  0.00     0.087 H 
ENDBRANCH  14  33
BRANCH   8  44
ATOM     44  CBC 558 d   1     -17.870 -57.979 141.903  0.00  0.00    -0.019 C 
ATOM     45  H9  558 d   1     -17.739 -57.123 142.581  0.00  0.00     0.037 H 
ATOM     46  H10 558 d   1     -18.592 -58.685 142.339  0.00  0.00     0.037 H 
ATOM     47  H11 558 d   1     -18.245 -57.623 140.932  0.00  0.00     0.037 H 
ENDBRANCH   8  44
BRANCH  12  48
ATOM     48  CBB 558 d   1     -13.233 -61.589 140.831  0.00  0.00    -0.065 C 
ATOM     49  H13 558 d   1     -12.834 -62.438 140.257  0.00  0.00     0.028 H 
ATOM     50  H14 558 d   1     -13.337 -61.878 141.887  0.00  0.00     0.028 H 
ATOM     51  H15 558 d   1     -12.544 -60.735 140.750  0.00  0.00     0.028 H 
ENDBRANCH  12  48
TORSDOF 5
