REMARK  5 active torsions:
REMARK  status: ('A' for Active; 'I' for Inactive)
REMARK    1  A    between atoms: CAS_3  and  NBA_4 
REMARK    2  A    between atoms: CAO_7  and  CAM_8 
REMARK    3  A    between atoms: CAJ_15  and  CBC_16 
REMARK    4  A    between atoms: CAF_20  and  CBB_21 
REMARK    5  A    between atoms: NAD_23  and  CAP_24 
ROOT
ATOM      1  CAM 559 d   1     -27.506 -59.530 137.897  0.00  0.00    -0.022 A 
ATOM      2  CAN 559 d   1     -26.316 -59.086 137.335  0.00  0.00    -0.044 A 
ATOM      3  CAC 559 d   1     -25.422 -58.294 138.078  0.00  0.00     0.063 A 
ATOM      4  CAL 559 d   1     -27.858 -59.212 139.171  0.00  0.00    -0.070 A 
ATOM      5  CAK 559 d   1     -26.998 -58.424 139.950  0.00  0.00    -0.053 A 
ATOM      6  CAB 559 d   1     -25.773 -57.973 139.411  0.00  0.00     0.069 A 
ATOM      7  NAA 559 d   1     -24.904 -57.222 140.229  0.00  0.00    -0.282 N 
ATOM      8  CAJ 559 d   1     -25.094 -56.234 141.095  0.00  0.00     0.131 A 
ATOM      9  NAI 559 d   1     -23.979 -55.855 141.607  0.00  0.00    -0.135 NA
ATOM     10  NAH 559 d   1     -22.931 -56.710 141.088  0.00  0.00    -0.134 NA
ATOM     11  CAG 559 d   1     -23.545 -57.533 140.239  0.00  0.00     0.140 A 
ATOM     12  CAF 559 d   1     -22.767 -58.558 139.530  0.00  0.00     0.018 C 
ATOM     13  CAE 559 d   1     -22.884 -58.362 138.034  0.00  0.00     0.010 C 
ATOM     14  NAD 559 d   1     -24.204 -57.880 137.500  0.00  0.00    -0.344 N 
ATOM     15  H6  559 d   1     -26.074 -59.353 136.313  0.00  0.00     0.088 H 
ATOM     16  H7  559 d   1     -28.797 -59.565 139.582  0.00  0.00     0.084 H 
ATOM     17  H8  559 d   1     -27.273 -58.161 140.965  0.00  0.00     0.087 H 
ATOM     18  H12 559 d   1     -21.706 -58.456 139.803  0.00  0.00     0.054 H 
ATOM     19  H16 559 d   1     -22.669 -59.329 137.557  0.00  0.00     0.066 H 
ATOM     20  H17 559 d   1     -22.120 -57.628 137.737  0.00  0.00     0.066 H 
ENDROOT
BRANCH   1  21
ATOM     21  CAO 559 d   1     -28.419 -60.309 137.021  0.00  0.00    -0.008 A 
ATOM     22  CAU 559 d   1     -27.934 -61.130 135.978  0.00  0.00    -0.067 A 
ATOM     23  CAT 559 d   1     -28.777 -61.868 135.187  0.00  0.00    -0.038 A 
ATOM     24  H1  559 d   1     -26.866 -61.178 135.798  0.00  0.00     0.085 H 
ATOM     25  CAS 559 d   1     -30.138 -61.827 135.414  0.00  0.00     0.120 A 
ATOM     26  H2  559 d   1     -28.377 -62.481 134.387  0.00  0.00     0.089 H 
ATOM     27  NAR 559 d   1     -30.657 -61.097 136.399  0.00  0.00    -0.243 NA
ATOM     28  CAQ 559 d   1     -29.819 -60.309 137.247  0.00  0.00     0.015 A 
ATOM     29  H5  559 d   1     -30.247 -59.720 138.050  0.00  0.00     0.116 H 
BRANCH  25  30
ATOM     30  NBA 559 d   1     -30.891 -62.534 134.602  0.00  0.00    -0.384 N 
ATOM     31  H3  559 d   1     -31.914 -62.541 134.724  0.00  0.00     0.157 HD
ATOM     32  H4  559 d   1     -30.459 -63.081 133.844  0.00  0.00     0.157 HD
ENDBRANCH  25  30
ENDBRANCH   1  21
BRANCH  14  33
ATOM     33  CAP 559 d   1     -24.214 -57.365 136.235  0.00  0.00     0.035 A 
ATOM     34  CAV 559 d   1     -25.316 -56.698 135.734  0.00  0.00    -0.055 A 
ATOM     35  CAW 559 d   1     -25.367 -56.071 134.509  0.00  0.00    -0.060 A 
ATOM     36  H18 559 d   1     -26.206 -56.666 136.351  0.00  0.00     0.087 H 
ATOM     37  CAX 559 d   1     -24.256 -56.092 133.717  0.00  0.00     0.034 A 
ATOM     38  H19 559 d   1     -26.271 -55.571 134.181  0.00  0.00     0.086 H 
ATOM     39 CLB  559 d   1     -24.180 -55.349 132.179  0.00  0.00    -0.084 Cl
ATOM     40  CAY 559 d   1     -23.101 -56.818 134.176  0.00  0.00    -0.060 A 
ATOM     41  CAZ 559 d   1     -23.042 -57.419 135.412  0.00  0.00    -0.055 A 
ATOM     42  H20 559 d   1     -22.241 -56.894 133.520  0.00  0.00     0.086 H 
ATOM     43  H21 559 d   1     -22.140 -57.916 135.752  0.00  0.00     0.087 H 
ENDBRANCH  14  33
BRANCH   8  44
ATOM     44  CBC 559 d   1     -26.440 -55.619 141.352  0.00  0.00    -0.019 C 
ATOM     45  H9  559 d   1     -26.342 -54.824 142.106  0.00  0.00     0.037 H 
ATOM     46  H10 559 d   1     -27.131 -56.391 141.721  0.00  0.00     0.037 H 
ATOM     47  H11 559 d   1     -26.832 -55.191 140.417  0.00  0.00     0.037 H 
ENDBRANCH   8  44
BRANCH  12  48
ATOM     48  CBB 559 d   1     -23.253 -59.913 139.997  0.00  0.00    -0.065 C 
ATOM     49  H13 559 d   1     -22.687 -60.703 139.482  0.00  0.00     0.028 H 
ATOM     50  H14 559 d   1     -24.323 -60.018 139.766  0.00  0.00     0.028 H 
ATOM     51  H15 559 d   1     -23.102 -60.002 141.083  0.00  0.00     0.028 H 
ENDBRANCH  12  48
TORSDOF 5
