REMARK  5 active torsions:
REMARK  status: ('A' for Active; 'I' for Inactive)
REMARK    1  A    between atoms: CAF_6  and  CAG_7 
REMARK    2  A    between atoms: CAK_11  and  CAL_12 
REMARK    3  A    between atoms: CAL_12  and  NAM_13 
REMARK    4  A    between atoms: CAP_16  and  NAQ_17 
REMARK    5  A    between atoms: CAX_24  and  CAY_25 
ROOT
ATOM      1  NAM 4KG d   1      -0.149   2.685 -24.171  0.00  0.00    -0.145 N 
ATOM      2  CAN 4KG d   1       1.081   3.098 -24.718  0.00  0.00     0.274 A 
ATOM      3  OAO 4KG d   1       1.114   3.969 -25.616  0.00  0.00    -0.266 OA
ATOM      4  CAP 4KG d   1      -0.155   1.700 -23.159  0.00  0.00     0.681 A 
ATOM      5  NAR 4KG d   1       1.007   1.167 -22.727  0.00  0.00    -0.191 N 
ATOM      6  CAS 4KG d   1       2.194   1.555 -23.244  0.00  0.00     0.065 A 
ATOM      7  CAT 4KG d   1       3.364   0.976 -22.766  0.00  0.00    -0.045 A 
ATOM      8  CAU 4KG d   1       2.254   2.523 -24.244  0.00  0.00     0.060 A 
ATOM      9  CAV 4KG d   1       3.485   2.909 -24.762  0.00  0.00    -0.065 A 
ATOM     10  CAW 4KG d   1       4.655   2.330 -24.281  0.00  0.00    -0.071 A 
ATOM     11  CAX 4KG d   1       4.594   1.358 -23.286  0.00  0.00    -0.024 A 
ATOM     12  H16 4KG d   1       0.989   0.450 -21.988  0.00  0.00     0.184 HD
ATOM     13  H17 4KG d   1       3.316   0.225 -21.986  0.00  0.00     0.088 H 
ATOM     14  H18 4KG d   1       3.533   3.661 -25.541  0.00  0.00     0.085 H 
ATOM     15  H19 4KG d   1       5.615   2.636 -24.681  0.00  0.00     0.084 H 
ENDROOT
BRANCH   1  16
ATOM     16  CAL 4KG d   1      -1.399   3.278 -24.656  0.00  0.00     0.044 C 
ATOM     17  H12 4KG d   1      -2.056   3.490 -23.800  0.00  0.00     0.069 H 
ATOM     18  H13 4KG d   1      -1.174   4.215 -25.187  0.00  0.00     0.069 H 
BRANCH  16  19
ATOM     19  CAK 4KG d   1      -2.104   2.319 -25.606  0.00  0.00     0.056 C 
ATOM     20  OAH 4KG d   1      -1.331   2.160 -26.800  0.00  0.00    -0.374 OA
ATOM     21  CAG 4KG d   1      -2.154   2.335 -27.955  0.00  0.00     0.064 C 
ATOM     22  CAI 4KG d   1      -3.372   3.124 -27.504  0.00  0.00    -0.035 C 
ATOM     23  H6  4KG d   1      -2.463   1.355 -28.349  0.00  0.00     0.091 H 
ATOM     24  CAJ 4KG d   1      -3.452   2.903 -26.003  0.00  0.00    -0.037 C 
ATOM     25  H7  4KG d   1      -4.280   2.749 -27.999  0.00  0.00     0.037 H 
ATOM     26  H8  4KG d   1      -3.246   4.193 -27.731  0.00  0.00     0.037 H 
ATOM     27  H9  4KG d   1      -4.262   2.200 -25.761  0.00  0.00     0.036 H 
ATOM     28  H10 4KG d   1      -3.626   3.856 -25.483  0.00  0.00     0.036 H 
ATOM     29  H11 4KG d   1      -2.243   1.345 -25.114  0.00  0.00     0.085 H 
BRANCH  21  30
ATOM     30  CAF 4KG d   1      -1.426   3.078 -29.008  0.00  0.00    -0.029 A 
ATOM     31  CAA 4KG d   1      -1.474   2.638 -30.328  0.00  0.00    -0.074 A 
ATOM     32  CAB 4KG d   1      -0.791   3.332 -31.319  0.00  0.00    -0.082 A 
ATOM     33  H1  4KG d   1      -2.045   1.753 -30.583  0.00  0.00     0.084 H 
ATOM     34  CAC 4KG d   1      -0.063   4.467 -30.989  0.00  0.00    -0.083 A 
ATOM     35  H2  4KG d   1      -0.826   2.988 -32.346  0.00  0.00     0.083 H 
ATOM     36  CAD 4KG d   1      -0.017   4.911 -29.672  0.00  0.00    -0.082 A 
ATOM     37  H3  4KG d   1       0.471   5.009 -31.761  0.00  0.00     0.083 H 
ATOM     38  CAE 4KG d   1      -0.699   4.216 -28.679  0.00  0.00    -0.074 A 
ATOM     39  H4  4KG d   1       0.551   5.799 -29.419  0.00  0.00     0.083 H 
ATOM     40  H5  4KG d   1      -0.664   4.561 -27.652  0.00  0.00     0.084 H 
ENDBRANCH  21  30
ENDBRANCH  16  19
ENDBRANCH   1  16
BRANCH   4  41
ATOM     41  NAQ 4KG d   1      -1.319   1.282 -22.610  0.00  0.00    -0.234 N 
ATOM     42  H14 4KG d   1      -1.312   0.563 -21.872  0.00  0.00     0.174 HD
ATOM     43  H15 4KG d   1      -2.212   1.683 -22.930  0.00  0.00     0.174 HD
ENDBRANCH   4  41
BRANCH  11  44
ATOM     44  CAY 4KG d   1       5.839   0.737 -22.758  0.00  0.00    -0.026 A 
ATOM     45  CAZ 4KG d   1       5.801  -0.529 -22.182  0.00  0.00    -0.072 A 
ATOM     46  CBA 4KG d   1       6.964  -1.110 -21.684  0.00  0.00    -0.082 A 
ATOM     47  H20 4KG d   1       4.861  -1.066 -22.121  0.00  0.00     0.084 H 
ATOM     48  CBB 4KG d   1       8.170  -0.424 -21.761  0.00  0.00    -0.083 A 
ATOM     49  H21 4KG d   1       6.929  -2.097 -21.236  0.00  0.00     0.083 H 
ATOM     50  CBC 4KG d   1       8.207   0.842 -22.335  0.00  0.00    -0.082 A 
ATOM     51  H22 4KG d   1       9.078  -0.874 -21.375  0.00  0.00     0.083 H 
ATOM     52  CBD 4KG d   1       7.044   1.422 -22.833  0.00  0.00    -0.072 A 
ATOM     53  H23 4KG d   1       9.146   1.380 -22.395  0.00  0.00     0.083 H 
ATOM     54  H24 4KG d   1       7.079   2.409 -23.280  0.00  0.00     0.084 H 
ENDBRANCH  11  44
TORSDOF 5
