REMARK  23 active torsions:
REMARK  status: ('A' for Active; 'I' for Inactive)
REMARK    1  A    between atoms: C15_15  and  N1_1 
REMARK       I    between atoms: N1_1  and  C14_16 
REMARK    2  A    between atoms: C2_2  and  C30_21 
REMARK       I    between atoms: C19_12  and  N3_3 
REMARK    3  A    between atoms: C4_4  and  C31_20 
REMARK    4  A    between atoms: C5_5  and  O6_45 
REMARK    5  A    between atoms: C6_6  and  O7_43 
REMARK    6  A    between atoms: C6_6  and  C32_44 
REMARK    7  A    between atoms: N5_8  and  C21_7 
REMARK       I    between atoms: C20_9  and  N5_8 
REMARK       I    between atoms: N4_11  and  C20_9 
REMARK       I    between atoms: C19_12  and  N4_11 
REMARK    8  A    between atoms: C18_50  and  N2_13 
REMARK    9  A    between atoms: C16_14  and  C15_15 
REMARK   10  A    between atoms: C17_49  and  C16_14 
REMARK   11  A    between atoms: C14_16  and  O3_18 
REMARK   12  A    between atoms: O3_18  and  C3_19 
REMARK   13  A    between atoms: C13_25  and  C28_26 
REMARK   14  A    between atoms: C28_26  and  C29_27 
REMARK   15  A    between atoms: C12_28  and  O10_29 
REMARK   16  A    between atoms: C12_28  and  C35_30 
REMARK   17  A    between atoms: C10_32  and  C34_33 
REMARK   18  A    between atoms: C25_35  and  C26_36 
REMARK   19  A    between atoms: C25_35  and  C27_37 
REMARK   20  A    between atoms: C8_40  and  C33_41 
REMARK   21  A    between atoms: O6_45  and  C22_46 
REMARK   22  A    between atoms: C22_46  and  C23_47 
REMARK   23  A    between atoms: C17_49  and  C18_50 
ROOT
ATOM      1  C23 M6V d   1     -22.843  -0.054 -31.616  0.00  0.00    -0.091 C 
ATOM      2  C24 M6V d   1     -22.035  -0.884 -32.125  0.00  0.00    -0.152 C 
ATOM      3  H58 M6V d   1     -21.361  -1.577 -32.550  0.00  0.00     0.166 H 
ENDROOT
BRANCH   1   4
ATOM      4  C22 M6V d   1     -23.755   0.896 -31.025  0.00  0.00     0.074 C 
ATOM      5  H56 M6V d   1     -23.918   0.642 -29.967  0.00  0.00     0.093 H 
ATOM      6  H57 M6V d   1     -23.331   1.908 -31.098  0.00  0.00     0.093 H 
BRANCH   4   7
ATOM      7  O6  M6V d   1     -24.987   0.847 -31.720  0.00  0.00    -0.371 OA
BRANCH   7   8
ATOM      8  C5  M6V d   1     -24.927   1.645 -32.928  0.00  0.00     0.074 C 
ATOM      9  C4  M6V d   1     -25.199   3.149 -32.667  0.00  0.00    -0.003 C 
ATOM     10  C3  M6V d   1     -24.004   3.993 -33.095  0.00  0.00     0.067 C 
ATOM     11  H5  M6V d   1     -26.044   3.422 -33.316  0.00  0.00     0.047 H 
ATOM     12  C2  M6V d   1     -24.348   5.491 -33.378  0.00  0.00     0.053 C 
ATOM     13  H17 M6V d   1     -23.587   3.563 -34.018  0.00  0.00     0.086 H 
ATOM     14  C1  M6V d   1     -25.690   5.725 -34.043  0.00  0.00     0.265 C 
ATOM     15  H2  M6V d   1     -24.355   6.019 -32.413  0.00  0.00     0.059 H 
ATOM     16  O1  M6V d   1     -25.781   5.731 -35.237  0.00  0.00    -0.265 OA
ATOM     17  O2  M6V d   1     -26.909   5.908 -33.270  0.00  0.00    -0.312 OA
ATOM     18  C13 M6V d   1     -28.061   6.443 -33.931  0.00  0.00     0.079 C 
ATOM     19  C12 M6V d   1     -29.232   5.499 -33.691  0.00  0.00     0.107 C 
ATOM     20  H24 M6V d   1     -27.869   6.513 -35.012  0.00  0.00     0.089 H 
ATOM     21  C11 M6V d   1     -28.838   4.217 -34.511  0.00  0.00     0.079 C 
ATOM     22  C10 M6V d   1     -29.473   2.887 -34.084  0.00  0.00    -0.004 C 
ATOM     23  O9  M6V d   1     -28.989   4.358 -35.933  0.00  0.00    -0.347 OA
ATOM     24  H34 M6V d   1     -27.759   4.098 -34.330  0.00  0.00     0.088 H 
ATOM     25  C9  M6V d   1     -29.006   1.760 -35.031  0.00  0.00     0.051 C 
ATOM     26  H35 M6V d   1     -29.067   2.656 -33.088  0.00  0.00     0.047 H 
ATOM     27  O8  M6V d   1     -27.999   2.193 -35.975  0.00  0.00    -0.350 OA
ATOM     28  C8  M6V d   1     -28.459   0.522 -34.263  0.00  0.00    -0.029 C 
ATOM     29  H45 M6V d   1     -29.887   1.438 -35.605  0.00  0.00     0.084 H 
ATOM     30  C25 M6V d   1     -28.326   3.372 -36.738  0.00  0.00     0.158 C 
ATOM     31  C7  M6V d   1     -27.282   0.831 -33.305  0.00  0.00    -0.029 C 
ATOM     32  H46 M6V d   1     -28.077  -0.179 -35.020  0.00  0.00     0.043 H 
ATOM     33  C6  M6V d   1     -25.907   1.050 -33.948  0.00  0.00     0.081 C 
ATOM     34  H50 M6V d   1     -27.538   1.744 -32.747  0.00  0.00     0.038 H 
ATOM     35  H51 M6V d   1     -27.192  -0.013 -32.605  0.00  0.00     0.038 H 
ATOM     36  H6  M6V d   1     -23.910   1.563 -33.340  0.00  0.00     0.088 H 
BRANCH   9  37
ATOM     37  C31 M6V d   1     -25.613   3.531 -31.242  0.00  0.00    -0.068 C 
ATOM     38  H18 M6V d   1     -26.475   2.921 -30.935  0.00  0.00     0.028 H 
ATOM     39  H19 M6V d   1     -25.888   4.596 -31.213  0.00  0.00     0.028 H 
ATOM     40  H20 M6V d   1     -24.773   3.350 -30.555  0.00  0.00     0.028 H 
ENDBRANCH   9  37
BRANCH  10  41
ATOM     41  O3  M6V d   1     -23.031   3.898 -32.050  0.00  0.00    -0.297 OA
BRANCH  41  42
ATOM     42  C14 M6V d   1     -21.695   3.587 -32.455  0.00  0.00     0.360 C 
ATOM     43  N1  M6V d   1     -20.758   3.564 -31.519  0.00  0.00    -0.337 N 
ATOM     44  H1  M6V d   1     -20.940   4.029 -30.653  0.00  0.00     0.164 HD
ATOM     45  O4  M6V d   1     -21.489   3.250 -33.590  0.00  0.00    -0.239 OA
BRANCH  43  46
ATOM     46  C15 M6V d   1     -19.464   2.888 -31.691  0.00  0.00    -0.003 C 
ATOM     47  H15 M6V d   1     -18.716   3.613 -32.044  0.00  0.00     0.064 H 
ATOM     48  H16 M6V d   1     -19.569   2.080 -32.430  0.00  0.00     0.064 H 
BRANCH  46  49
ATOM     49  C16 M6V d   1     -19.007   2.295 -30.342  0.00  0.00    -0.049 C 
ATOM     50  H13 M6V d   1     -19.447   2.901 -29.536  0.00  0.00     0.035 H 
ATOM     51  H14 M6V d   1     -17.910   2.362 -30.294  0.00  0.00     0.035 H 
BRANCH  49  52
ATOM     52  C17 M6V d   1     -19.405   0.835 -30.111  0.00  0.00    -0.048 C 
ATOM     53  H59 M6V d   1     -18.617   0.205 -30.550  0.00  0.00     0.035 H 
ATOM     54  H60 M6V d   1     -20.352   0.663 -30.644  0.00  0.00     0.035 H 
BRANCH  52  55
ATOM     55  C18 M6V d   1     -19.609   0.367 -28.626  0.00  0.00     0.009 C 
ATOM     56  H61 M6V d   1     -18.625   0.294 -28.140  0.00  0.00     0.064 H 
ATOM     57  H62 M6V d   1     -20.223   1.114 -28.101  0.00  0.00     0.064 H 
BRANCH  55  58
ATOM     58  N2  M6V d   1     -20.283  -0.950 -28.539  0.00  0.00    -0.226 N 
ATOM     59  C19 M6V d   1     -19.792  -1.959 -29.261  0.00  0.00     0.675 C 
ATOM     60  N3  M6V d   1     -18.684  -1.817 -29.888  0.00  0.00    -0.235 N 
ATOM     61  N4  M6V d   1     -20.464  -3.095 -29.312  0.00  0.00    -0.142 N 
ATOM     62  H3  M6V d   1     -18.304  -2.595 -30.445  0.00  0.00     0.174 HD
ATOM     63  H4  M6V d   1     -18.173  -0.924 -29.835  0.00  0.00     0.174 HD
ATOM     64  C20 M6V d   1     -20.043  -4.139 -30.038  0.00  0.00     0.334 C 
ATOM     65  H11 M6V d   1     -21.314  -3.178 -28.792  0.00  0.00     0.189 HD
ATOM     66  N5  M6V d   1     -20.957  -5.091 -30.189  0.00  0.00    -0.347 N 
ATOM     67  O5  M6V d   1     -18.904  -4.268 -30.579  0.00  0.00    -0.247 OA
ATOM     68  H10 M6V d   1     -21.883  -4.994 -29.825  0.00  0.00     0.163 HD
ATOM     69  H12 M6V d   1     -21.108  -1.083 -27.937  0.00  0.00     0.177 HD
BRANCH  66  70
ATOM     70  C21 M6V d   1     -20.540  -6.279 -30.911  0.00  0.00    -0.017 C 
ATOM     71  H7  M6V d   1     -21.380  -6.987 -30.968  0.00  0.00     0.056 H 
ATOM     72  H8  M6V d   1     -19.698  -6.751 -30.384  0.00  0.00     0.056 H 
ATOM     73  H9  M6V d   1     -20.226  -5.999 -31.927  0.00  0.00     0.056 H 
ENDBRANCH  66  70
ENDBRANCH  55  58
ENDBRANCH  52  55
ENDBRANCH  49  52
ENDBRANCH  46  49
ENDBRANCH  43  46
ENDBRANCH  41  42
ENDBRANCH  10  41
BRANCH  12  74
ATOM     74  C30 M6V d   1     -23.257   6.094 -34.269  0.00  0.00    -0.062 C 
ATOM     75  H21 M6V d   1     -23.492   7.149 -34.473  0.00  0.00     0.028 H 
ATOM     76  H22 M6V d   1     -23.210   5.539 -35.218  0.00  0.00     0.028 H 
ATOM     77  H23 M6V d   1     -22.286   6.027 -33.756  0.00  0.00     0.028 H 
ENDBRANCH  12  74
BRANCH  18  78
ATOM     78  C28 M6V d   1     -28.349   7.847 -33.383  0.00  0.00    -0.041 C 
ATOM     79  H25 M6V d   1     -28.463   7.796 -32.290  0.00  0.00     0.036 H 
ATOM     80  H26 M6V d   1     -29.278   8.230 -33.831  0.00  0.00     0.036 H 
BRANCH  78  81
ATOM     81  C29 M6V d   1     -27.201   8.781 -33.727  0.00  0.00    -0.074 C 
ATOM     82  H27 M6V d   1     -27.414   9.785 -33.331  0.00  0.00     0.027 H 
ATOM     83  H28 M6V d   1     -27.086   8.834 -34.820  0.00  0.00     0.027 H 
ATOM     84  H29 M6V d   1     -26.271   8.400 -33.279  0.00  0.00     0.027 H 
ENDBRANCH  78  81
ENDBRANCH  18  78
BRANCH  19  85
ATOM     85  O10 M6V d   1     -30.431   6.109 -34.143  0.00  0.00    -0.385 OA
ATOM     86  H30 M6V d   1     -30.359   6.296 -35.072  0.00  0.00     0.210 HD
ENDBRANCH  19  85
BRANCH  19  87
ATOM     87  C35 M6V d   1     -29.503   5.319 -32.193  0.00  0.00    -0.043 C 
ATOM     88  H31 M6V d   1     -30.352   4.634 -32.054  0.00  0.00     0.031 H 
ATOM     89  H32 M6V d   1     -29.742   6.294 -31.744  0.00  0.00     0.031 H 
ATOM     90  H33 M6V d   1     -28.610   4.900 -31.706  0.00  0.00     0.031 H 
ENDBRANCH  19  87
BRANCH  22  91
ATOM     91  C34 M6V d   1     -30.987   2.913 -33.918  0.00  0.00    -0.068 C 
ATOM     92  H36 M6V d   1     -31.340   1.917 -33.612  0.00  0.00     0.028 H 
ATOM     93  H37 M6V d   1     -31.456   3.191 -34.873  0.00  0.00     0.028 H 
ATOM     94  H38 M6V d   1     -31.259   3.650 -33.148  0.00  0.00     0.028 H 
ENDBRANCH  22  91
BRANCH  30  95
ATOM     95  C26 M6V d   1     -27.040   3.907 -37.352  0.00  0.00    -0.026 C 
ATOM     96  H39 M6V d   1     -27.262   4.809 -37.941  0.00  0.00     0.035 H 
ATOM     97  H40 M6V d   1     -26.600   3.141 -38.007  0.00  0.00     0.035 H 
ATOM     98  H41 M6V d   1     -26.328   4.158 -36.552  0.00  0.00     0.035 H 
ENDBRANCH  30  95
BRANCH  30  99
ATOM     99  C27 M6V d   1     -29.278   3.014 -37.878  0.00  0.00    -0.026 C 
ATOM    100  H42 M6V d   1     -28.808   2.257 -38.524  0.00  0.00     0.035 H 
ATOM    101  H43 M6V d   1     -29.497   3.915 -38.469  0.00  0.00     0.035 H 
ATOM    102  H44 M6V d   1     -30.213   2.612 -37.462  0.00  0.00     0.035 H 
ENDBRANCH  30  99
BRANCH  28 103
ATOM    103  C33 M6V d   1     -29.599  -0.186 -33.505  0.00  0.00    -0.070 C 
ATOM    104  H47 M6V d   1     -29.196  -1.058 -32.968  0.00  0.00     0.028 H 
ATOM    105  H48 M6V d   1     -30.365  -0.518 -34.221  0.00  0.00     0.028 H 
ATOM    106  H49 M6V d   1     -30.049   0.512 -32.784  0.00  0.00     0.028 H 
ENDBRANCH  28 103
BRANCH  33 107
ATOM    107  O7  M6V d   1     -25.978   1.913 -35.091  0.00  0.00    -0.388 OA
ATOM    108  H52 M6V d   1     -26.552   1.527 -35.742  0.00  0.00     0.210 HD
ENDBRANCH  33 107
BRANCH  33 109
ATOM    109  C32 M6V d   1     -25.334  -0.283 -34.404  0.00  0.00    -0.045 C 
ATOM    110  H53 M6V d   1     -24.348  -0.120 -34.864  0.00  0.00     0.031 H 
ATOM    111  H54 M6V d   1     -26.011  -0.741 -35.140  0.00  0.00     0.031 H 
ATOM    112  H55 M6V d   1     -25.228  -0.952 -33.538  0.00  0.00     0.031 H 
ENDBRANCH  33 109
ENDBRANCH   7   8
ENDBRANCH   4   7
ENDBRANCH   1   4
TORSDOF 23
