REMARK  21 active torsions:
REMARK  status: ('A' for Active; 'I' for Inactive)
REMARK    1  A    between atoms: C19_1  and  N5_2 
REMARK       I    between atoms: N5_2  and  C18_3 
REMARK       I    between atoms: C18_3  and  N4_5 
REMARK       I    between atoms: N4_5  and  C17_6 
REMARK       I    between atoms: C17_6  and  N3_7 
REMARK    2  A    between atoms: N2_8  and  C16_9 
REMARK    3  A    between atoms: C16_9  and  C15_10 
REMARK    4  A    between atoms: C15_10  and  N1_11 
REMARK       I    between atoms: N1_11  and  C14_12 
REMARK    5  A    between atoms: C14_12  and  O3_14 
REMARK    6  A    between atoms: O3_14  and  C3_15 
REMARK    7  A    between atoms: C4_16  and  C29_17 
REMARK    8  A    between atoms: C2_18  and  C28_19 
REMARK    9  A    between atoms: C13_23  and  C26_24 
REMARK   10  A    between atoms: C26_24  and  C27_25 
REMARK   11  A    between atoms: C12_26  and  O10_27 
REMARK   12  A    between atoms: C12_26  and  C33_28 
REMARK   13  A    between atoms: C10_30  and  C32_31 
REMARK   14  A    between atoms: C23_33  and  C24_34 
REMARK   15  A    between atoms: C23_33  and  C25_35 
REMARK   16  A    between atoms: C8_38  and  C31_39 
REMARK   17  A    between atoms: C6_41  and  O7_42 
REMARK   18  A    between atoms: C6_41  and  C30_43 
REMARK   19  A    between atoms: C5_44  and  O6_45 
REMARK   20  A    between atoms: O6_45  and  C20_46 
REMARK   21  A    between atoms: C20_46  and  C21_47 
ROOT
ATOM      1  C21 M6A d   1     -23.540  -3.032 -31.266  0.00  0.00    -0.091 C 
ATOM      2  C22 M6A d   1     -23.607  -4.244 -30.865  0.00  0.00    -0.152 C 
ATOM      3  H58 M6A d   1     -23.662  -5.245 -30.534  0.00  0.00     0.166 H 
ENDROOT
BRANCH   1   4
ATOM      4  C20 M6A d   1     -23.472  -1.638 -31.697  0.00  0.00     0.074 C 
ATOM      5  H56 M6A d   1     -23.207  -1.012 -30.832  0.00  0.00     0.093 H 
ATOM      6  H57 M6A d   1     -22.695  -1.543 -32.470  0.00  0.00     0.093 H 
BRANCH   4   7
ATOM      7  O6  M6A d   1     -24.706  -1.183 -32.230  0.00  0.00    -0.371 OA
BRANCH   7   8
ATOM      8  C5  M6A d   1     -24.503  -0.016 -33.056  0.00  0.00     0.074 C 
ATOM      9  C4  M6A d   1     -24.608   1.289 -32.248  0.00  0.00    -0.003 C 
ATOM     10  C3  M6A d   1     -23.274   1.986 -31.997  0.00  0.00     0.067 C 
ATOM     11  H15 M6A d   1     -25.205   1.978 -32.863  0.00  0.00     0.047 H 
ATOM     12  C2  M6A d   1     -23.475   3.420 -31.438  0.00  0.00     0.053 C 
ATOM     13  H14 M6A d   1     -22.720   2.041 -32.946  0.00  0.00     0.086 H 
ATOM     14  C1  M6A d   1     -24.440   4.192 -32.269  0.00  0.00     0.265 C 
ATOM     15  H19 M6A d   1     -23.871   3.331 -30.416  0.00  0.00     0.059 H 
ATOM     16  O1  M6A d   1     -24.163   4.479 -33.418  0.00  0.00    -0.265 OA
ATOM     17  O2  M6A d   1     -25.715   4.509 -31.650  0.00  0.00    -0.312 OA
ATOM     18  C13 M6A d   1     -26.653   5.294 -32.390  0.00  0.00     0.079 C 
ATOM     19  C12 M6A d   1     -27.979   4.510 -32.495  0.00  0.00     0.107 C 
ATOM     20  H23 M6A d   1     -26.264   5.466 -33.405  0.00  0.00     0.089 H 
ATOM     21  C11 M6A d   1     -27.845   3.558 -33.668  0.00  0.00     0.079 C 
ATOM     22  C10 M6A d   1     -28.901   2.463 -33.816  0.00  0.00    -0.004 C 
ATOM     23  O9  M6A d   1     -27.791   4.379 -34.834  0.00  0.00    -0.347 OA
ATOM     24  H33 M6A d   1     -26.880   3.042 -33.559  0.00  0.00     0.088 H 
ATOM     25  C9  M6A d   1     -28.544   1.643 -35.056  0.00  0.00     0.051 C 
ATOM     26  H34 M6A d   1     -28.835   1.814 -32.931  0.00  0.00     0.047 H 
ATOM     27  O8  M6A d   1     -27.485   2.221 -35.782  0.00  0.00    -0.350 OA
ATOM     28  C8  M6A d   1     -28.110   0.212 -34.771  0.00  0.00    -0.029 C 
ATOM     29  H44 M6A d   1     -29.440   1.613 -35.694  0.00  0.00     0.084 H 
ATOM     30  C23 M6A d   1     -27.551   3.653 -36.052  0.00  0.00     0.158 C 
ATOM     31  C7  M6A d   1     -26.995   0.084 -33.695  0.00  0.00    -0.029 C 
ATOM     32  H45 M6A d   1     -27.689  -0.198 -35.701  0.00  0.00     0.043 H 
ATOM     33  C6  M6A d   1     -25.527  -0.029 -34.208  0.00  0.00     0.081 C 
ATOM     34  H49 M6A d   1     -27.209  -0.816 -33.100  0.00  0.00     0.038 H 
ATOM     35  H50 M6A d   1     -27.053   0.972 -33.049  0.00  0.00     0.038 H 
ATOM     36  H55 M6A d   1     -23.492  -0.069 -33.486  0.00  0.00     0.088 H 
BRANCH   9  37
ATOM     37  C29 M6A d   1     -25.373   1.097 -30.934  0.00  0.00    -0.068 C 
ATOM     38  H16 M6A d   1     -26.330   0.594 -31.137  0.00  0.00     0.028 H 
ATOM     39  H17 M6A d   1     -25.565   2.078 -30.475  0.00  0.00     0.028 H 
ATOM     40  H18 M6A d   1     -24.773   0.481 -30.247  0.00  0.00     0.028 H 
ENDBRANCH   9  37
BRANCH  10  41
ATOM     41  O3  M6A d   1     -22.505   1.250 -31.034  0.00  0.00    -0.297 OA
BRANCH  41  42
ATOM     42  C14 M6A d   1     -21.178   0.896 -31.486  0.00  0.00     0.360 C 
ATOM     43  N1  M6A d   1     -20.394   0.570 -30.470  0.00  0.00    -0.335 N 
ATOM     44  H13 M6A d   1     -20.755   0.719 -29.549  0.00  0.00     0.164 HD
ATOM     45  O4  M6A d   1     -20.904   0.883 -32.689  0.00  0.00    -0.239 OA
BRANCH  43  46
ATOM     46  C15 M6A d   1     -19.055   0.015 -30.577  0.00  0.00     0.012 C 
ATOM     47  H11 M6A d   1     -18.898  -0.388 -31.588  0.00  0.00     0.066 H 
ATOM     48  H12 M6A d   1     -18.309   0.798 -30.375  0.00  0.00     0.066 H 
BRANCH  46  49
ATOM     49  C16 M6A d   1     -18.922  -1.109 -29.543  0.00  0.00     0.024 C 
ATOM     50  H9  M6A d   1     -17.859  -1.376 -29.447  0.00  0.00     0.067 H 
ATOM     51  H10 M6A d   1     -19.297  -0.744 -28.576  0.00  0.00     0.067 H 
BRANCH  49  52
ATOM     52  N2  M6A d   1     -19.668  -2.297 -29.912  0.00  0.00    -0.225 N 
ATOM     53  C17 M6A d   1     -20.644  -2.855 -29.167  0.00  0.00     0.675 C 
ATOM     54  N4  M6A d   1     -21.029  -4.129 -29.368  0.00  0.00    -0.142 N 
ATOM     55  N3  M6A d   1     -21.148  -2.252 -28.180  0.00  0.00    -0.235 N 
ATOM     56  C18 M6A d   1     -20.421  -4.982 -30.219  0.00  0.00     0.334 C 
ATOM     57  H5  M6A d   1     -21.817  -4.466 -28.853  0.00  0.00     0.189 HD
ATOM     58  N5  M6A d   1     -21.058  -6.149 -30.333  0.00  0.00    -0.347 N 
ATOM     59  O5  M6A d   1     -19.347  -4.769 -30.813  0.00  0.00    -0.247 OA
ATOM     60  H4  M6A d   1     -21.952  -6.258 -29.898  0.00  0.00     0.163 HD
ATOM     61  H6  M6A d   1     -20.885  -1.276 -27.984  0.00  0.00     0.174 HD
ATOM     62  H7  M6A d   1     -21.822  -2.736 -27.570  0.00  0.00     0.174 HD
ATOM     63  H8  M6A d   1     -19.435  -2.747 -30.809  0.00  0.00     0.177 HD
BRANCH  58  64
ATOM     64  C19 M6A d   1     -20.498  -7.257 -31.063  0.00  0.00    -0.017 C 
ATOM     65  H1  M6A d   1     -21.192  -8.110 -31.024  0.00  0.00     0.056 H 
ATOM     66  H2  M6A d   1     -19.537  -7.545 -30.612  0.00  0.00     0.056 H 
ATOM     67  H3  M6A d   1     -20.337  -6.962 -32.111  0.00  0.00     0.056 H 
ENDBRANCH  58  64
ENDBRANCH  49  52
ENDBRANCH  46  49
ENDBRANCH  43  46
ENDBRANCH  41  42
ENDBRANCH  10  41
BRANCH  12  68
ATOM     68  C28 M6A d   1     -22.189   4.233 -31.395  0.00  0.00    -0.062 C 
ATOM     69  H20 M6A d   1     -22.401   5.234 -30.991  0.00  0.00     0.028 H 
ATOM     70  H21 M6A d   1     -21.781   4.327 -32.412  0.00  0.00     0.028 H 
ATOM     71  H22 M6A d   1     -21.456   3.725 -30.751  0.00  0.00     0.028 H 
ENDBRANCH  12  68
BRANCH  18  72
ATOM     72  C26 M6A d   1     -26.827   6.652 -31.697  0.00  0.00    -0.041 C 
ATOM     73  H24 M6A d   1     -27.608   6.547 -30.930  0.00  0.00     0.036 H 
ATOM     74  H25 M6A d   1     -27.151   7.383 -32.453  0.00  0.00     0.036 H 
BRANCH  72  75
ATOM     75  C27 M6A d   1     -25.577   7.190 -31.026  0.00  0.00    -0.074 C 
ATOM     76  H26 M6A d   1     -25.800   8.161 -30.560  0.00  0.00     0.027 H 
ATOM     77  H27 M6A d   1     -24.784   7.317 -31.777  0.00  0.00     0.027 H 
ATOM     78  H28 M6A d   1     -25.241   6.482 -30.254  0.00  0.00     0.027 H 
ENDBRANCH  72  75
ENDBRANCH  18  72
BRANCH  19  79
ATOM     79  O10 M6A d   1     -29.048   5.393 -32.823  0.00  0.00    -0.385 OA
ATOM     80  H29 M6A d   1     -28.867   5.812 -33.656  0.00  0.00     0.210 HD
ENDBRANCH  19  79
BRANCH  19  81
ATOM     81  C33 M6A d   1     -28.327   3.816 -31.177  0.00  0.00    -0.043 C 
ATOM     82  H30 M6A d   1     -29.275   3.269 -31.290  0.00  0.00     0.031 H 
ATOM     83  H31 M6A d   1     -28.430   4.569 -30.382  0.00  0.00     0.031 H 
ATOM     84  H32 M6A d   1     -27.526   3.110 -30.912  0.00  0.00     0.031 H 
ENDBRANCH  19  81
BRANCH  22  85
ATOM     85  C32 M6A d   1     -30.354   2.954 -33.913  0.00  0.00    -0.068 C 
ATOM     86  H35 M6A d   1     -31.027   2.090 -34.016  0.00  0.00     0.028 H 
ATOM     87  H36 M6A d   1     -30.462   3.609 -34.790  0.00  0.00     0.028 H 
ATOM     88  H37 M6A d   1     -30.613   3.514 -33.002  0.00  0.00     0.028 H 
ENDBRANCH  22  85
BRANCH  30  89
ATOM     89  C24 M6A d   1     -26.182   4.056 -36.626  0.00  0.00    -0.026 C 
ATOM     90  H38 M6A d   1     -26.180   5.133 -36.848  0.00  0.00     0.035 H 
ATOM     91  H39 M6A d   1     -25.991   3.491 -37.550  0.00  0.00     0.035 H 
ATOM     92  H40 M6A d   1     -25.395   3.832 -35.890  0.00  0.00     0.035 H 
ENDBRANCH  30  89
BRANCH  30  93
ATOM     93  C25 M6A d   1     -28.627   4.008 -37.093  0.00  0.00    -0.026 C 
ATOM     94  H41 M6A d   1     -28.437   3.449 -38.022  0.00  0.00     0.035 H 
ATOM     95  H42 M6A d   1     -28.594   5.088 -37.301  0.00  0.00     0.035 H 
ATOM     96  H43 M6A d   1     -29.619   3.741 -36.701  0.00  0.00     0.035 H 
ENDBRANCH  30  93
BRANCH  28  97
ATOM     97  C31 M6A d   1     -29.368  -0.586 -34.441  0.00  0.00    -0.070 C 
ATOM     98  H46 M6A d   1     -29.095  -1.630 -34.228  0.00  0.00     0.028 H 
ATOM     99  H47 M6A d   1     -30.057  -0.555 -35.298  0.00  0.00     0.028 H 
ATOM    100  H48 M6A d   1     -29.859  -0.148 -33.559  0.00  0.00     0.028 H 
ENDBRANCH  28  97
BRANCH  33 101
ATOM    101  O7  M6A d   1     -25.164   1.063 -35.071  0.00  0.00    -0.388 OA
ATOM    102  H51 M6A d   1     -25.740   1.073 -35.826  0.00  0.00     0.210 HD
ENDBRANCH  33 101
BRANCH  33 103
ATOM    103  C30 M6A d   1     -25.373  -1.324 -34.968  0.00  0.00    -0.045 C 
ATOM    104  H52 M6A d   1     -24.340  -1.413 -35.334  0.00  0.00     0.031 H 
ATOM    105  H53 M6A d   1     -26.067  -1.333 -35.822  0.00  0.00     0.031 H 
ATOM    106  H54 M6A d   1     -25.600  -2.169 -34.302  0.00  0.00     0.031 H 
ENDBRANCH  33 103
ENDBRANCH   7   8
ENDBRANCH   4   7
ENDBRANCH   1   4
TORSDOF 21
