REMARK  22 active torsions:
REMARK  status: ('A' for Active; 'I' for Inactive)
REMARK    1  A    between atoms: C20_1  and  N5_2 
REMARK       I    between atoms: N5_2  and  C19_3 
REMARK       I    between atoms: C19_3  and  N4_5 
REMARK       I    between atoms: N4_5  and  C18_6 
REMARK       I    between atoms: C18_6  and  N3_7 
REMARK    2  A    between atoms: N2_8  and  C17_9 
REMARK    3  A    between atoms: C17_9  and  C16_10 
REMARK    4  A    between atoms: C16_10  and  C15_11 
REMARK    5  A    between atoms: C15_11  and  N1_12 
REMARK       I    between atoms: N1_12  and  C14_13 
REMARK    6  A    between atoms: C14_13  and  O3_15 
REMARK    7  A    between atoms: O3_15  and  C3_16 
REMARK    8  A    between atoms: C4_17  and  C30_18 
REMARK    9  A    between atoms: C2_19  and  C29_20 
REMARK   10  A    between atoms: C13_24  and  C27_25 
REMARK   11  A    between atoms: C27_25  and  C28_26 
REMARK   12  A    between atoms: C12_27  and  O10_28 
REMARK   13  A    between atoms: C12_27  and  C34_29 
REMARK   14  A    between atoms: C10_31  and  C33_32 
REMARK   15  A    between atoms: C24_34  and  C25_35 
REMARK   16  A    between atoms: C24_34  and  C26_36 
REMARK   17  A    between atoms: C8_39  and  C32_40 
REMARK   18  A    between atoms: C6_42  and  O7_43 
REMARK   19  A    between atoms: C6_42  and  C31_44 
REMARK   20  A    between atoms: C5_45  and  O6_46 
REMARK   21  A    between atoms: O6_46  and  C21_47 
REMARK   22  A    between atoms: C21_47  and  C22_48 
ROOT
ATOM      1  C22 M6B d   1     -23.030  -2.225 -31.556  0.00  0.00    -0.091 C 
ATOM      2  C23 M6B d   1     -22.645  -3.423 -31.675  0.00  0.00    -0.152 C 
ATOM      3  H60 M6B d   1     -22.323  -4.424 -31.774  0.00  0.00     0.166 H 
ENDROOT
BRANCH   1   4
ATOM      4  C21 M6B d   1     -23.423  -0.825 -31.426  0.00  0.00     0.074 C 
ATOM      5  H58 M6B d   1     -23.435  -0.540 -30.364  0.00  0.00     0.093 H 
ATOM      6  H59 M6B d   1     -22.710  -0.187 -31.969  0.00  0.00     0.093 H 
BRANCH   4   7
ATOM      7  O6  M6B d   1     -24.743  -0.668 -31.988  0.00  0.00    -0.371 OA
BRANCH   7   8
ATOM      8  C5  M6B d   1     -24.686   0.270 -33.055  0.00  0.00     0.074 C 
ATOM      9  C4  M6B d   1     -24.913   1.696 -32.497  0.00  0.00    -0.003 C 
ATOM     10  C3  M6B d   1     -23.689   2.574 -32.624  0.00  0.00     0.067 C 
ATOM     11  H17 M6B d   1     -25.682   2.155 -33.136  0.00  0.00     0.047 H 
ATOM     12  C2  M6B d   1     -23.994   4.092 -32.520  0.00  0.00     0.053 C 
ATOM     13  H16 M6B d   1     -23.200   2.371 -33.588  0.00  0.00     0.086 H 
ATOM     14  C1  M6B d   1     -24.965   4.515 -33.574  0.00  0.00     0.265 C 
ATOM     15  H21 M6B d   1     -24.410   4.297 -31.522  0.00  0.00     0.059 H 
ATOM     16  O1  M6B d   1     -24.736   4.475 -34.784  0.00  0.00    -0.265 OA
ATOM     17  O2  M6B d   1     -26.289   4.770 -33.128  0.00  0.00    -0.312 OA
ATOM     18  C13 M6B d   1     -27.055   5.185 -34.253  0.00  0.00     0.079 C 
ATOM     19  C12 M6B d   1     -28.350   4.443 -33.944  0.00  0.00     0.107 C 
ATOM     20  H25 M6B d   1     -26.635   4.787 -35.189  0.00  0.00     0.089 H 
ATOM     21  C11 M6B d   1     -28.288   3.105 -34.690  0.00  0.00     0.079 C 
ATOM     22  C10 M6B d   1     -29.227   1.990 -34.310  0.00  0.00    -0.004 C 
ATOM     23  O9  M6B d   1     -28.460   3.389 -36.072  0.00  0.00    -0.347 OA
ATOM     24  H35 M6B d   1     -27.272   2.712 -34.536  0.00  0.00     0.088 H 
ATOM     25  C9  M6B d   1     -28.871   0.798 -35.218  0.00  0.00     0.051 C 
ATOM     26  H36 M6B d   1     -29.042   1.715 -33.261  0.00  0.00     0.047 H 
ATOM     27  O8  M6B d   1     -27.791   1.144 -36.075  0.00  0.00    -0.350 OA
ATOM     28  C8  M6B d   1     -28.327  -0.431 -34.507  0.00  0.00    -0.029 C 
ATOM     29  H46 M6B d   1     -29.765   0.528 -35.799  0.00  0.00     0.084 H 
ATOM     30  C24 M6B d   1     -28.034   2.328 -36.899  0.00  0.00     0.158 C 
ATOM     31  C7  M6B d   1     -27.151  -0.025 -33.569  0.00  0.00    -0.029 C 
ATOM     32  H47 M6B d   1     -27.911  -1.114 -35.262  0.00  0.00     0.043 H 
ATOM     33  C6  M6B d   1     -25.721  -0.116 -34.131  0.00  0.00     0.081 C 
ATOM     34  H51 M6B d   1     -27.198  -0.676 -32.684  0.00  0.00     0.038 H 
ATOM     35  H52 M6B d   1     -27.319   1.019 -33.266  0.00  0.00     0.038 H 
ATOM     36  H57 M6B d   1     -23.685   0.233 -33.510  0.00  0.00     0.088 H 
BRANCH   9  37
ATOM     37  C30 M6B d   1     -25.493   1.681 -31.084  0.00  0.00    -0.068 C 
ATOM     38  H18 M6B d   1     -26.377   1.027 -31.058  0.00  0.00     0.028 H 
ATOM     39  H19 M6B d   1     -25.783   2.702 -30.796  0.00  0.00     0.028 H 
ATOM     40  H20 M6B d   1     -24.736   1.303 -30.381  0.00  0.00     0.028 H 
ENDBRANCH   9  37
BRANCH  10  41
ATOM     41  O3  M6B d   1     -22.822   2.243 -31.550  0.00  0.00    -0.297 OA
BRANCH  41  42
ATOM     42  C14 M6B d   1     -21.482   1.990 -32.003  0.00  0.00     0.360 C 
ATOM     43  N1  M6B d   1     -20.598   1.827 -31.057  0.00  0.00    -0.337 N 
ATOM     44  H15 M6B d   1     -20.837   2.092 -30.123  0.00  0.00     0.164 HD
ATOM     45  O4  M6B d   1     -21.253   1.736 -33.182  0.00  0.00    -0.239 OA
BRANCH  43  46
ATOM     46  C15 M6B d   1     -19.279   1.274 -31.312  0.00  0.00    -0.001 C 
ATOM     47  H13 M6B d   1     -18.952   1.567 -32.321  0.00  0.00     0.064 H 
ATOM     48  H14 M6B d   1     -18.571   1.668 -30.568  0.00  0.00     0.064 H 
BRANCH  46  49
ATOM     49  C16 M6B d   1     -19.312  -0.260 -31.216  0.00  0.00    -0.035 C 
ATOM     50  H11 M6B d   1     -20.098  -0.632 -31.889  0.00  0.00     0.037 H 
ATOM     51  H12 M6B d   1     -18.336  -0.648 -31.542  0.00  0.00     0.037 H 
BRANCH  49  52
ATOM     52  C17 M6B d   1     -19.597  -0.793 -29.792  0.00  0.00     0.011 C 
ATOM     53  H9  M6B d   1     -18.724  -0.598 -29.152  0.00  0.00     0.064 H 
ATOM     54  H10 M6B d   1     -20.476  -0.274 -29.381  0.00  0.00     0.064 H 
BRANCH  52  55
ATOM     55  N2  M6B d   1     -19.862  -2.245 -29.822  0.00  0.00    -0.226 N 
ATOM     56  C18 M6B d   1     -20.751  -2.840 -28.992  0.00  0.00     0.675 C 
ATOM     57  N4  M6B d   1     -21.018  -4.120 -29.154  0.00  0.00    -0.142 N 
ATOM     58  N3  M6B d   1     -21.210  -2.244 -27.934  0.00  0.00    -0.235 N 
ATOM     59  C19 M6B d   1     -20.407  -4.899 -30.110  0.00  0.00     0.334 C 
ATOM     60  H5  M6B d   1     -21.696  -4.545 -28.555  0.00  0.00     0.189 HD
ATOM     61  N5  M6B d   1     -20.951  -6.089 -30.256  0.00  0.00    -0.347 N 
ATOM     62  O5  M6B d   1     -19.449  -4.545 -30.805  0.00  0.00    -0.247 OA
ATOM     63  H4  M6B d   1     -21.776  -6.291 -29.727  0.00  0.00     0.163 HD
ATOM     64  H6  M6B d   1     -21.017  -1.244 -27.782  0.00  0.00     0.174 HD
ATOM     65  H7  M6B d   1     -21.767  -2.771 -27.247  0.00  0.00     0.174 HD
ATOM     66  H8  M6B d   1     -19.351  -2.828 -30.500  0.00  0.00     0.177 HD
BRANCH  61  67
ATOM     67  C20 M6B d   1     -20.438  -7.132 -31.132  0.00  0.00    -0.017 C 
ATOM     68  H1  M6B d   1     -21.083  -8.021 -31.061  0.00  0.00     0.056 H 
ATOM     69  H2  M6B d   1     -19.415  -7.396 -30.827  0.00  0.00     0.056 H 
ATOM     70  H3  M6B d   1     -20.429  -6.768 -32.170  0.00  0.00     0.056 H 
ENDBRANCH  61  67
ENDBRANCH  52  55
ENDBRANCH  49  52
ENDBRANCH  46  49
ENDBRANCH  43  46
ENDBRANCH  41  42
ENDBRANCH  10  41
BRANCH  12  71
ATOM     71  C29 M6B d   1     -22.773   4.945 -32.744  0.00  0.00    -0.062 C 
ATOM     72  H22 M6B d   1     -23.047   6.007 -32.659  0.00  0.00     0.028 H 
ATOM     73  H23 M6B d   1     -22.369   4.750 -33.748  0.00  0.00     0.028 H 
ATOM     74  H24 M6B d   1     -22.012   4.701 -31.988  0.00  0.00     0.028 H 
ENDBRANCH  12  71
BRANCH  18  75
ATOM     75  C27 M6B d   1     -27.019   6.740 -34.370  0.00  0.00    -0.041 C 
ATOM     76  H26 M6B d   1     -27.125   7.166 -33.362  0.00  0.00     0.036 H 
ATOM     77  H27 M6B d   1     -27.866   7.061 -34.995  0.00  0.00     0.036 H 
BRANCH  75  78
ATOM     78  C28 M6B d   1     -25.716   7.288 -34.996  0.00  0.00    -0.074 C 
ATOM     79  H28 M6B d   1     -25.766   8.386 -35.044  0.00  0.00     0.027 H 
ATOM     80  H29 M6B d   1     -25.598   6.881 -36.011  0.00  0.00     0.027 H 
ATOM     81  H30 M6B d   1     -24.857   6.987 -34.378  0.00  0.00     0.027 H 
ENDBRANCH  75  78
ENDBRANCH  18  75
BRANCH  19  82
ATOM     82  O10 M6B d   1     -29.443   5.164 -34.445  0.00  0.00    -0.385 OA
ATOM     83  H31 M6B d   1     -29.353   5.261 -35.386  0.00  0.00     0.210 HD
ENDBRANCH  19  82
BRANCH  19  84
ATOM     84  C34 M6B d   1     -28.468   4.275 -32.447  0.00  0.00    -0.043 C 
ATOM     85  H32 M6B d   1     -29.400   3.740 -32.210  0.00  0.00     0.031 H 
ATOM     86  H33 M6B d   1     -28.481   5.265 -31.967  0.00  0.00     0.031 H 
ATOM     87  H34 M6B d   1     -27.609   3.698 -32.074  0.00  0.00     0.031 H 
ENDBRANCH  19  84
BRANCH  22  88
ATOM     88  C33 M6B d   1     -30.698   2.358 -34.442  0.00  0.00    -0.068 C 
ATOM     89  H37 M6B d   1     -31.319   1.498 -34.149  0.00  0.00     0.028 H 
ATOM     90  H38 M6B d   1     -30.916   2.629 -35.486  0.00  0.00     0.028 H 
ATOM     91  H39 M6B d   1     -30.922   3.213 -33.787  0.00  0.00     0.028 H 
ENDBRANCH  22  88
BRANCH  30  92
ATOM     92  C25 M6B d   1     -26.746   2.768 -37.573  0.00  0.00    -0.026 C 
ATOM     93  H40 M6B d   1     -26.940   3.658 -38.189  0.00  0.00     0.035 H 
ATOM     94  H41 M6B d   1     -26.370   1.955 -38.211  0.00  0.00     0.035 H 
ATOM     95  H42 M6B d   1     -25.995   3.010 -36.806  0.00  0.00     0.035 H 
ENDBRANCH  30  92
BRANCH  30  96
ATOM     96  C26 M6B d   1     -29.124   2.106 -37.969  0.00  0.00    -0.026 C 
ATOM     97  H43 M6B d   1     -28.823   1.283 -38.633  0.00  0.00     0.035 H 
ATOM     98  H44 M6B d   1     -29.251   3.026 -38.559  0.00  0.00     0.035 H 
ATOM     99  H45 M6B d   1     -30.074   1.852 -37.477  0.00  0.00     0.035 H 
ENDBRANCH  30  96
BRANCH  28 100
ATOM    100  C32 M6B d   1     -29.479  -1.141 -33.853  0.00  0.00    -0.070 C 
ATOM    101  H48 M6B d   1     -29.109  -2.036 -33.331  0.00  0.00     0.028 H 
ATOM    102  H49 M6B d   1     -30.209  -1.439 -34.620  0.00  0.00     0.028 H 
ATOM    103  H50 M6B d   1     -29.962  -0.468 -33.130  0.00  0.00     0.028 H 
ENDBRANCH  28 100
BRANCH  33 104
ATOM    104  O7  M6B d   1     -25.485   0.768 -35.201  0.00  0.00    -0.388 OA
ATOM    105  H53 M6B d   1     -24.590   0.666 -35.503  0.00  0.00     0.210 HD
ENDBRANCH  33 104
BRANCH  33 106
ATOM    106  C31 M6B d   1     -25.423  -1.528 -34.640  0.00  0.00    -0.045 C 
ATOM    107  H54 M6B d   1     -24.397  -1.566 -35.035  0.00  0.00     0.031 H 
ATOM    108  H55 M6B d   1     -26.134  -1.788 -35.438  0.00  0.00     0.031 H 
ATOM    109  H56 M6B d   1     -25.524  -2.245 -33.812  0.00  0.00     0.031 H 
ENDBRANCH  33 106
ENDBRANCH   7   8
ENDBRANCH   4   7
ENDBRANCH   1   4
TORSDOF 22
