REMARK  24 active torsions:
REMARK  status: ('A' for Active; 'I' for Inactive)
REMARK    1  A    between atoms: C2_2  and  C31_25 
REMARK    2  A    between atoms: O3_9  and  C3_3 
REMARK    3  A    between atoms: C4_4  and  C32_24 
REMARK    4  A    between atoms: C5_5  and  O6_12 
REMARK    5  A    between atoms: C6_6  and  O7_44 
REMARK    6  A    between atoms: C6_6  and  C33_45 
REMARK    7  A    between atoms: C14_23  and  O3_9 
REMARK    8  A    between atoms: O6_12  and  C23_46 
REMARK    9  A    between atoms: N5_14  and  C22_13 
REMARK       I    between atoms: C21_15  and  N5_14 
REMARK       I    between atoms: N4_16  and  C21_15 
REMARK       I    between atoms: C20_17  and  N4_16 
REMARK       I    between atoms: C20_17  and  N3_18 
REMARK   10  A    between atoms: C19_51  and  N2_19 
REMARK   11  A    between atoms: C16_20  and  C15_21 
REMARK   12  A    between atoms: C17_49  and  C16_20 
REMARK   13  A    between atoms: C15_21  and  N1_22 
REMARK       I    between atoms: N1_22  and  C14_23 
REMARK   14  A    between atoms: C13_26  and  C29_27 
REMARK   15  A    between atoms: C29_27  and  C30_28 
REMARK   16  A    between atoms: C12_29  and  O10_30 
REMARK   17  A    between atoms: C12_29  and  C36_31 
REMARK   18  A    between atoms: C10_33  and  C35_34 
REMARK   19  A    between atoms: C26_36  and  C27_37 
REMARK   20  A    between atoms: C26_36  and  C28_38 
REMARK   21  A    between atoms: C8_41  and  C34_42 
REMARK   22  A    between atoms: C23_46  and  C24_47 
REMARK   23  A    between atoms: C18_50  and  C17_49 
REMARK   24  A    between atoms: C18_50  and  C19_51 
ROOT
ATOM      1  C24 M6G d   1     -23.186  -1.333 -31.820  0.00  0.00    -0.091 C 
ATOM      2  C25 M6G d   1     -22.571  -2.425 -32.093  0.00  0.00    -0.152 C 
ATOM      3  H58 M6G d   1     -22.065  -3.324 -32.318  0.00  0.00     0.166 H 
ENDROOT
BRANCH   1   4
ATOM      4  C23 M6G d   1     -23.943  -0.144 -31.427  0.00  0.00     0.074 C 
ATOM      5  H56 M6G d   1     -24.039  -0.126 -30.331  0.00  0.00     0.093 H 
ATOM      6  H57 M6G d   1     -23.401   0.753 -31.762  0.00  0.00     0.093 H 
BRANCH   4   7
ATOM      7  O6  M6G d   1     -25.255  -0.144 -32.012  0.00  0.00    -0.371 OA
BRANCH   7   8
ATOM      8  C5  M6G d   1     -25.292   0.705 -33.174  0.00  0.00     0.074 C 
ATOM      9  C4  M6G d   1     -25.727   2.128 -32.841  0.00  0.00    -0.003 C 
ATOM     10  C3  M6G d   1     -24.643   3.126 -33.222  0.00  0.00     0.067 C 
ATOM     11  H3  M6G d   1     -26.603   2.343 -33.470  0.00  0.00     0.047 H 
ATOM     12  C2  M6G d   1     -25.157   4.572 -33.254  0.00  0.00     0.053 C 
ATOM     13  H2  M6G d   1     -24.251   2.857 -34.214  0.00  0.00     0.086 H 
ATOM     14  C1  M6G d   1     -26.427   4.666 -34.063  0.00  0.00     0.265 C 
ATOM     15  H1  M6G d   1     -25.393   4.866 -32.221  0.00  0.00     0.059 H 
ATOM     16  O1  M6G d   1     -26.394   4.696 -35.280  0.00  0.00    -0.265 OA
ATOM     17  O2  M6G d   1     -27.714   4.686 -33.368  0.00  0.00    -0.312 OA
ATOM     18  C13 M6G d   1     -28.832   5.000 -34.239  0.00  0.00     0.079 C 
ATOM     19  C12 M6G d   1     -29.937   3.969 -34.012  0.00  0.00     0.107 C 
ATOM     20  H24 M6G d   1     -28.496   4.920 -35.283  0.00  0.00     0.089 H 
ATOM     21  C11 M6G d   1     -29.498   2.722 -34.791  0.00  0.00     0.079 C 
ATOM     22  C10 M6G d   1     -30.044   1.359 -34.396  0.00  0.00    -0.004 C 
ATOM     23  O9  M6G d   1     -29.830   2.907 -36.161  0.00  0.00    -0.347 OA
ATOM     24  H34 M6G d   1     -28.404   2.665 -34.693  0.00  0.00     0.088 H 
ATOM     25  C9  M6G d   1     -29.417   0.356 -35.379  0.00  0.00     0.051 C 
ATOM     26  H35 M6G d   1     -29.690   1.125 -33.381  0.00  0.00     0.047 H 
ATOM     27  O8  M6G d   1     -28.505   0.968 -36.293  0.00  0.00    -0.350 OA
ATOM     28  C8  M6G d   1     -28.620  -0.695 -34.639  0.00  0.00    -0.029 C 
ATOM     29  H45 M6G d   1     -30.228  -0.125 -35.945  0.00  0.00     0.084 H 
ATOM     30  C26 M6G d   1     -29.128   2.021 -37.041  0.00  0.00     0.158 C 
ATOM     31  C7  M6G d   1     -27.611  -0.062 -33.654  0.00  0.00    -0.029 C 
ATOM     32  H46 M6G d   1     -28.056  -1.297 -35.367  0.00  0.00     0.043 H 
ATOM     33  C6  M6G d   1     -26.199   0.061 -34.213  0.00  0.00     0.081 C 
ATOM     34  H50 M6G d   1     -27.968   0.944 -33.391  0.00  0.00     0.038 H 
ATOM     35  H51 M6G d   1     -27.572  -0.686 -32.749  0.00  0.00     0.038 H 
ATOM     36  H4  M6G d   1     -24.276   0.760 -33.591  0.00  0.00     0.088 H 
BRANCH   9  37
ATOM     37  C32 M6G d   1     -26.171   2.327 -31.398  0.00  0.00    -0.068 C 
ATOM     38  H18 M6G d   1     -26.466   3.376 -31.247  0.00  0.00     0.028 H 
ATOM     39  H19 M6G d   1     -25.340   2.078 -30.721  0.00  0.00     0.028 H 
ATOM     40  H20 M6G d   1     -27.027   1.671 -31.184  0.00  0.00     0.028 H 
ENDBRANCH   9  37
BRANCH  10  41
ATOM     41  O3  M6G d   1     -23.600   3.095 -32.270  0.00  0.00    -0.297 OA
BRANCH  41  42
ATOM     42  C14 M6G d   1     -22.323   2.803 -32.888  0.00  0.00     0.360 C 
ATOM     43  O4  M6G d   1     -22.319   2.461 -34.040  0.00  0.00    -0.239 OA
ATOM     44  N1  M6G d   1     -21.224   2.868 -32.161  0.00  0.00    -0.337 N 
ATOM     45  H17 M6G d   1     -21.285   3.243 -31.236  0.00  0.00     0.164 HD
BRANCH  44  46
ATOM     46  C15 M6G d   1     -19.935   2.422 -32.641  0.00  0.00    -0.003 C 
ATOM     47  H15 M6G d   1     -20.078   1.751 -33.501  0.00  0.00     0.064 H 
ATOM     48  H16 M6G d   1     -19.340   3.293 -32.951  0.00  0.00     0.064 H 
BRANCH  46  49
ATOM     49  C16 M6G d   1     -19.193   1.669 -31.525  0.00  0.00    -0.050 C 
ATOM     50  H13 M6G d   1     -19.563   2.031 -30.555  0.00  0.00     0.035 H 
ATOM     51  H14 M6G d   1     -18.118   1.887 -31.613  0.00  0.00     0.035 H 
BRANCH  49  52
ATOM     52  C17 M6G d   1     -19.386   0.148 -31.581  0.00  0.00    -0.062 C 
ATOM     53  H59 M6G d   1     -18.943  -0.258 -32.502  0.00  0.00     0.033 H 
ATOM     54  H60 M6G d   1     -20.457  -0.101 -31.549  0.00  0.00     0.033 H 
BRANCH  52  55
ATOM     55  C18 M6G d   1     -18.682  -0.418 -30.370  0.00  0.00    -0.050 C 
ATOM     56  H61 M6G d   1     -18.078   0.381 -29.916  0.00  0.00     0.035 H 
ATOM     57  H62 M6G d   1     -18.022  -1.233 -30.703  0.00  0.00     0.035 H 
BRANCH  55  58
ATOM     58  C19 M6G d   1     -19.615  -0.962 -29.319  0.00  0.00     0.009 C 
ATOM     59  H63 M6G d   1     -19.137  -0.884 -28.331  0.00  0.00     0.064 H 
ATOM     60  H64 M6G d   1     -20.548  -0.379 -29.322  0.00  0.00     0.064 H 
BRANCH  58  61
ATOM     61  N2  M6G d   1     -19.914  -2.343 -29.597  0.00  0.00    -0.226 N 
ATOM     62  C20 M6G d   1     -20.835  -2.964 -28.879  0.00  0.00     0.675 C 
ATOM     63  N4  M6G d   1     -21.184  -4.211 -29.173  0.00  0.00    -0.142 N 
ATOM     64  N3  M6G d   1     -21.383  -2.371 -27.908  0.00  0.00    -0.235 N 
ATOM     65  C21 M6G d   1     -20.571  -4.967 -30.100  0.00  0.00     0.334 C 
ATOM     66  H9  M6G d   1     -21.951  -4.613 -28.673  0.00  0.00     0.189 HD
ATOM     67  O5  M6G d   1     -19.532  -4.645 -30.688  0.00  0.00    -0.247 OA
ATOM     68  N5  M6G d   1     -21.189  -6.131 -30.303  0.00  0.00    -0.347 N 
ATOM     69  H8  M6G d   1     -22.056  -6.292 -29.832  0.00  0.00     0.163 HD
ATOM     70  H10 M6G d   1     -21.114  -1.404 -27.677  0.00  0.00     0.174 HD
ATOM     71  H11 M6G d   1     -22.099  -2.855 -27.347  0.00  0.00     0.174 HD
ATOM     72  H12 M6G d   1     -19.416  -2.842 -30.348  0.00  0.00     0.177 HD
BRANCH  68  73
ATOM     73  C22 M6G d   1     -20.679  -7.172 -31.164  0.00  0.00    -0.017 C 
ATOM     74  H5  M6G d   1     -21.373  -8.025 -31.159  0.00  0.00     0.056 H 
ATOM     75  H6  M6G d   1     -19.694  -7.499 -30.800  0.00  0.00     0.056 H 
ATOM     76  H7  M6G d   1     -20.582  -6.785 -32.189  0.00  0.00     0.056 H 
ENDBRANCH  68  73
ENDBRANCH  58  61
ENDBRANCH  55  58
ENDBRANCH  52  55
ENDBRANCH  49  52
ENDBRANCH  46  49
ENDBRANCH  44  46
ENDBRANCH  41  42
ENDBRANCH  10  41
BRANCH  12  77
ATOM     77  C31 M6G d   1     -24.104   5.534 -33.775  0.00  0.00    -0.062 C 
ATOM     78  H21 M6G d   1     -24.512   6.556 -33.782  0.00  0.00     0.028 H 
ATOM     79  H22 M6G d   1     -23.819   5.247 -34.798  0.00  0.00     0.028 H 
ATOM     80  H23 M6G d   1     -23.219   5.497 -33.123  0.00  0.00     0.028 H 
ENDBRANCH  12  77
BRANCH  18  81
ATOM     81  C29 M6G d   1     -29.316   6.440 -34.008  0.00  0.00    -0.041 C 
ATOM     82  H25 M6G d   1     -29.569   6.573 -32.946  0.00  0.00     0.036 H 
ATOM     83  H26 M6G d   1     -30.209   6.627 -34.623  0.00  0.00     0.036 H 
BRANCH  81  84
ATOM     84  C30 M6G d   1     -28.229   7.424 -34.391  0.00  0.00    -0.074 C 
ATOM     85  H27 M6G d   1     -28.587   8.450 -34.221  0.00  0.00     0.027 H 
ATOM     86  H28 M6G d   1     -27.976   7.295 -35.454  0.00  0.00     0.027 H 
ATOM     87  H29 M6G d   1     -27.335   7.241 -33.776  0.00  0.00     0.027 H 
ENDBRANCH  81  84
ENDBRANCH  18  81
BRANCH  19  88
ATOM     88  O10 M6G d   1     -31.169   4.461 -34.555  0.00  0.00    -0.385 OA
ATOM     89  H30 M6G d   1     -31.064   4.614 -35.487  0.00  0.00     0.210 HD
ENDBRANCH  19  88
BRANCH  19  90
ATOM     90  C36 M6G d   1     -30.074   3.764 -32.508  0.00  0.00    -0.043 C 
ATOM     91  H31 M6G d   1     -30.864   3.025 -32.309  0.00  0.00     0.031 H 
ATOM     92  H32 M6G d   1     -30.337   4.719 -32.030  0.00  0.00     0.031 H 
ATOM     93  H33 M6G d   1     -29.120   3.400 -32.099  0.00  0.00     0.031 H 
ENDBRANCH  19  90
BRANCH  22  94
ATOM     94  C35 M6G d   1     -31.570   1.283 -34.365  0.00  0.00    -0.068 C 
ATOM     95  H36 M6G d   1     -31.881   0.269 -34.072  0.00  0.00     0.028 H 
ATOM     96  H37 M6G d   1     -31.969   1.514 -35.364  0.00  0.00     0.028 H 
ATOM     97  H38 M6G d   1     -31.959   2.010 -33.637  0.00  0.00     0.028 H 
ENDBRANCH  22  94
BRANCH  30  98
ATOM     98  C27 M6G d   1     -28.009   2.764 -37.758  0.00  0.00    -0.026 C 
ATOM     99  H39 M6G d   1     -28.436   3.587 -38.350  0.00  0.00     0.035 H 
ATOM    100  H40 M6G d   1     -27.477   2.070 -38.425  0.00  0.00     0.035 H 
ATOM    101  H41 M6G d   1     -27.306   3.172 -37.017  0.00  0.00     0.035 H 
ENDBRANCH  30  98
BRANCH  30 102
ATOM    102  C28 M6G d   1     -30.153   1.484 -38.026  0.00  0.00    -0.026 C 
ATOM    103  H42 M6G d   1     -29.661   0.794 -38.728  0.00  0.00     0.035 H 
ATOM    104  H43 M6G d   1     -30.598   2.321 -38.585  0.00  0.00     0.035 H 
ATOM    105  H44 M6G d   1     -30.942   0.948 -37.478  0.00  0.00     0.035 H 
ENDBRANCH  30 102
BRANCH  28 106
ATOM    106  C34 M6G d   1     -29.615  -1.587 -33.923  0.00  0.00    -0.070 C 
ATOM    107  H47 M6G d   1     -29.074  -2.369 -33.370  0.00  0.00     0.028 H 
ATOM    108  H48 M6G d   1     -30.284  -2.055 -34.660  0.00  0.00     0.028 H 
ATOM    109  H49 M6G d   1     -30.208  -0.984 -33.220  0.00  0.00     0.028 H 
ENDBRANCH  28 106
BRANCH  33 110
ATOM    110  O7  M6G d   1     -26.201   0.905 -35.370  0.00  0.00    -0.388 OA
ATOM    111  H52 M6G d   1     -25.317   0.975 -35.711  0.00  0.00     0.210 HD
ENDBRANCH  33 110
BRANCH  33 112
ATOM    112  C33 M6G d   1     -25.650  -1.322 -34.574  0.00  0.00    -0.045 C 
ATOM    113  H53 M6G d   1     -24.631  -1.219 -34.976  0.00  0.00     0.031 H 
ATOM    114  H54 M6G d   1     -26.298  -1.787 -35.332  0.00  0.00     0.031 H 
ATOM    115  H55 M6G d   1     -25.627  -1.954 -33.674  0.00  0.00     0.031 H 
ENDBRANCH  33 112
ENDBRANCH   7   8
ENDBRANCH   4   7
ENDBRANCH   1   4
TORSDOF 24
