REMARK  26 active torsions:
REMARK  status: ('A' for Active; 'I' for Inactive)
REMARK    1  A    between atoms: N5_2  and  C24_1 
REMARK       I    between atoms: C23_3  and  N5_2 
REMARK       I    between atoms: N4_5  and  C23_3 
REMARK       I    between atoms: C22_6  and  N4_5 
REMARK       I    between atoms: C22_6  and  N3_7 
REMARK    2  A    between atoms: C21_53  and  N2_8 
REMARK    3  A    between atoms: C16_9  and  C15_10 
REMARK    4  A    between atoms: C17_49  and  C16_9 
REMARK    5  A    between atoms: C15_10  and  N1_11 
REMARK       I    between atoms: N1_11  and  C14_12 
REMARK    6  A    between atoms: C14_12  and  O3_14 
REMARK    7  A    between atoms: O3_14  and  C3_15 
REMARK    8  A    between atoms: C4_16  and  C34_17 
REMARK    9  A    between atoms: C2_18  and  C33_19 
REMARK   10  A    between atoms: C13_23  and  C31_24 
REMARK   11  A    between atoms: C31_24  and  C32_25 
REMARK   12  A    between atoms: C12_26  and  O10_27 
REMARK   13  A    between atoms: C12_26  and  C38_28 
REMARK   14  A    between atoms: C10_30  and  C37_31 
REMARK   15  A    between atoms: C28_33  and  C29_34 
REMARK   16  A    between atoms: C28_33  and  C30_35 
REMARK   17  A    between atoms: C8_38  and  C36_39 
REMARK   18  A    between atoms: C6_41  and  O7_42 
REMARK   19  A    between atoms: C6_41  and  C35_43 
REMARK   20  A    between atoms: C5_44  and  O6_45 
REMARK   21  A    between atoms: O6_45  and  C25_46 
REMARK   22  A    between atoms: C25_46  and  C26_47 
REMARK   23  A    between atoms: C18_50  and  C17_49 
REMARK   24  A    between atoms: C19_51  and  C18_50 
REMARK   25  A    between atoms: C20_52  and  C19_51 
REMARK   26  A    between atoms: C20_52  and  C21_53 
ROOT
ATOM      1  C26 M6E d   1     -27.877   8.504 -23.953  0.00  0.00    -0.091 C 
ATOM      2  C27 M6E d   1     -28.981   9.061 -24.280  0.00  0.00    -0.152 C 
ATOM      3  H58 M6E d   1     -29.892   9.521 -24.550  0.00  0.00     0.166 H 
ENDROOT
BRANCH   1   4
ATOM      4  C25 M6E d   1     -26.593   7.850 -23.600  0.00  0.00     0.074 C 
ATOM      5  H56 M6E d   1     -26.612   6.807 -23.948  0.00  0.00     0.093 H 
ATOM      6  H57 M6E d   1     -25.768   8.386 -24.092  0.00  0.00     0.093 H 
BRANCH   4   7
ATOM      7  O6  M6E d   1     -26.387   7.870 -22.175  0.00  0.00    -0.371 OA
BRANCH   7   8
ATOM      8  C5  M6E d   1     -25.021   7.821 -21.720  0.00  0.00     0.074 C 
ATOM      9  C4  M6E d   1     -24.658   6.385 -21.272  0.00  0.00    -0.003 C 
ATOM     10  C3  M6E d   1     -23.597   5.719 -22.188  0.00  0.00     0.067 C 
ATOM     11  H15 M6E d   1     -24.213   6.461 -20.269  0.00  0.00     0.047 H 
ATOM     12  C2  M6E d   1     -23.056   4.347 -21.661  0.00  0.00     0.053 C 
ATOM     13  H14 M6E d   1     -22.732   6.395 -22.258  0.00  0.00     0.086 H 
ATOM     14  C1  M6E d   1     -22.681   4.394 -20.204  0.00  0.00     0.265 C 
ATOM     15  H19 M6E d   1     -23.888   3.636 -21.773  0.00  0.00     0.059 H 
ATOM     16  O1  M6E d   1     -21.518   4.504 -19.854  0.00  0.00    -0.265 OA
ATOM     17  O2  M6E d   1     -23.751   4.235 -19.226  0.00  0.00    -0.312 OA
ATOM     18  C13 M6E d   1     -23.404   4.163 -17.835  0.00  0.00     0.079 C 
ATOM     19  C12 M6E d   1     -24.430   5.026 -17.078  0.00  0.00     0.107 C 
ATOM     20  H23 M6E d   1     -22.408   4.608 -17.693  0.00  0.00     0.089 H 
ATOM     21  C11 M6E d   1     -24.016   6.494 -17.337  0.00  0.00     0.079 C 
ATOM     22  C10 M6E d   1     -25.013   7.559 -16.858  0.00  0.00    -0.004 C 
ATOM     23  O9  M6E d   1     -22.698   6.768 -16.814  0.00  0.00    -0.347 OA
ATOM     24  H33 M6E d   1     -23.956   6.602 -18.430  0.00  0.00     0.088 H 
ATOM     25  C9  M6E d   1     -24.499   8.943 -17.277  0.00  0.00     0.051 C 
ATOM     26  H34 M6E d   1     -25.965   7.375 -17.377  0.00  0.00     0.047 H 
ATOM     27  O8  M6E d   1     -23.148   8.881 -17.821  0.00  0.00    -0.350 OA
ATOM     28  C8  M6E d   1     -25.488   9.625 -18.252  0.00  0.00    -0.029 C 
ATOM     29  H44 M6E d   1     -24.454   9.564 -16.370  0.00  0.00     0.084 H 
ATOM     30  C28 M6E d   1     -22.148   8.042 -17.176  0.00  0.00     0.158 C 
ATOM     31  C7  M6E d   1     -25.805   8.762 -19.485  0.00  0.00    -0.029 C 
ATOM     32  H45 M6E d   1     -25.005  10.546 -18.610  0.00  0.00     0.043 H 
ATOM     33  C6  M6E d   1     -24.810   8.912 -20.639  0.00  0.00     0.081 C 
ATOM     34  H49 M6E d   1     -26.803   9.043 -19.853  0.00  0.00     0.038 H 
ATOM     35  H50 M6E d   1     -25.813   7.707 -19.173  0.00  0.00     0.038 H 
ATOM     36  H55 M6E d   1     -24.367   8.070 -22.568  0.00  0.00     0.088 H 
BRANCH   9  37
ATOM     37  C34 M6E d   1     -25.920   5.522 -21.148  0.00  0.00    -0.068 C 
ATOM     38  H16 M6E d   1     -26.646   6.026 -20.493  0.00  0.00     0.028 H 
ATOM     39  H17 M6E d   1     -25.655   4.545 -20.718  0.00  0.00     0.028 H 
ATOM     40  H18 M6E d   1     -26.364   5.376 -22.144  0.00  0.00     0.028 H 
ENDBRANCH   9  37
BRANCH  10  41
ATOM     41  O3  M6E d   1     -24.211   5.624 -23.495  0.00  0.00    -0.297 OA
BRANCH  41  42
ATOM     42  C14 M6E d   1     -23.362   5.720 -24.689  0.00  0.00     0.360 C 
ATOM     43  N1  M6E d   1     -23.951   5.556 -25.874  0.00  0.00    -0.337 N 
ATOM     44  H13 M6E d   1     -24.923   5.768 -25.974  0.00  0.00     0.164 HD
ATOM     45  O4  M6E d   1     -22.149   5.818 -24.589  0.00  0.00    -0.239 OA
BRANCH  43  46
ATOM     46  C15 M6E d   1     -23.203   5.074 -27.021  0.00  0.00    -0.003 C 
ATOM     47  H11 M6E d   1     -23.792   5.220 -27.939  0.00  0.00     0.064 H 
ATOM     48  H12 M6E d   1     -22.253   5.622 -27.104  0.00  0.00     0.064 H 
BRANCH  46  49
ATOM     49  C16 M6E d   1     -22.926   3.586 -26.815  0.00  0.00    -0.050 C 
ATOM     50  H9  M6E d   1     -23.883   3.043 -26.829  0.00  0.00     0.035 H 
ATOM     51  H10 M6E d   1     -22.441   3.449 -25.837  0.00  0.00     0.035 H 
BRANCH  49  52
ATOM     52  C17 M6E d   1     -22.021   3.011 -27.895  0.00  0.00    -0.064 C 
ATOM     53  H59 M6E d   1     -20.977   3.051 -27.552  0.00  0.00     0.033 H 
ATOM     54  H60 M6E d   1     -22.128   3.607 -28.813  0.00  0.00     0.033 H 
BRANCH  52  55
ATOM     55  C18 M6E d   1     -22.400   1.560 -28.189  0.00  0.00    -0.065 C 
ATOM     56  H61 M6E d   1     -22.777   1.499 -29.221  0.00  0.00     0.033 H 
ATOM     57  H62 M6E d   1     -23.194   1.257 -27.490  0.00  0.00     0.033 H 
BRANCH  55  58
ATOM     58  C19 M6E d   1     -21.223   0.588 -28.041  0.00  0.00    -0.064 C 
ATOM     59  H63 M6E d   1     -20.291   1.140 -28.233  0.00  0.00     0.033 H 
ATOM     60  H64 M6E d   1     -21.337  -0.211 -28.789  0.00  0.00     0.033 H 
BRANCH  58  61
ATOM     61  C20 M6E d   1     -21.125  -0.058 -26.656  0.00  0.00    -0.050 C 
ATOM     62  H65 M6E d   1     -22.141  -0.187 -26.254  0.00  0.00     0.035 H 
ATOM     63  H66 M6E d   1     -20.550   0.608 -25.995  0.00  0.00     0.035 H 
BRANCH  61  64
ATOM     64  C21 M6E d   1     -20.437  -1.421 -26.697  0.00  0.00     0.009 C 
ATOM     65  H67 M6E d   1     -19.440  -1.290 -27.143  0.00  0.00     0.064 H 
ATOM     66  H68 M6E d   1     -20.332  -1.785 -25.664  0.00  0.00     0.064 H 
BRANCH  64  67
ATOM     67  N2  M6E d   1     -21.155  -2.435 -27.470  0.00  0.00    -0.226 N 
ATOM     68  C22 M6E d   1     -20.650  -2.912 -28.598  0.00  0.00     0.675 C 
ATOM     69  N4  M6E d   1     -21.103  -4.100 -29.031  0.00  0.00    -0.142 N 
ATOM     70  N3  M6E d   1     -19.682  -2.258 -29.124  0.00  0.00    -0.235 N 
ATOM     71  C23 M6E d   1     -20.512  -4.872 -29.976  0.00  0.00     0.334 C 
ATOM     72  H5  M6E d   1     -21.948  -4.444 -28.622  0.00  0.00     0.189 HD
ATOM     73  N5  M6E d   1     -21.159  -6.030 -30.191  0.00  0.00    -0.347 N 
ATOM     74  O5  M6E d   1     -19.452  -4.622 -30.584  0.00  0.00    -0.247 OA
ATOM     75  H4  M6E d   1     -21.996  -6.210 -29.674  0.00  0.00     0.163 HD
ATOM     76  H6  M6E d   1     -19.398  -1.351 -28.728  0.00  0.00     0.174 HD
ATOM     77  H7  M6E d   1     -19.188  -2.639 -29.943  0.00  0.00     0.174 HD
ATOM     78  H8  M6E d   1     -22.064  -2.782 -27.133  0.00  0.00     0.177 HD
BRANCH  73  79
ATOM     79  C24 M6E d   1     -20.707  -7.026 -31.130  0.00  0.00    -0.017 C 
ATOM     80  H1  M6E d   1     -21.403  -7.878 -31.124  0.00  0.00     0.056 H 
ATOM     81  H2  M6E d   1     -19.703  -7.371 -30.844  0.00  0.00     0.056 H 
ATOM     82  H3  M6E d   1     -20.671  -6.589 -32.139  0.00  0.00     0.056 H 
ENDBRANCH  73  79
ENDBRANCH  64  67
ENDBRANCH  61  64
ENDBRANCH  58  61
ENDBRANCH  55  58
ENDBRANCH  52  55
ENDBRANCH  49  52
ENDBRANCH  46  49
ENDBRANCH  43  46
ENDBRANCH  41  42
ENDBRANCH  10  41
BRANCH  12  83
ATOM     83  C33 M6E d   1     -21.844   3.741 -22.396  0.00  0.00    -0.062 C 
ATOM     84  H20 M6E d   1     -21.571   2.785 -21.926  0.00  0.00     0.028 H 
ATOM     85  H21 M6E d   1     -20.993   4.436 -22.335  0.00  0.00     0.028 H 
ATOM     86  H22 M6E d   1     -22.103   3.570 -23.451  0.00  0.00     0.028 H 
ENDBRANCH  12  83
BRANCH  18  87
ATOM     87  C31 M6E d   1     -23.327   2.703 -17.358  0.00  0.00    -0.041 C 
ATOM     88  H24 M6E d   1     -23.751   2.053 -18.138  0.00  0.00     0.036 H 
ATOM     89  H25 M6E d   1     -23.917   2.601 -16.435  0.00  0.00     0.036 H 
BRANCH  87  90
ATOM     90  C32 M6E d   1     -21.899   2.262 -17.077  0.00  0.00    -0.074 C 
ATOM     91  H26 M6E d   1     -21.898   1.215 -16.740  0.00  0.00     0.027 H 
ATOM     92  H27 M6E d   1     -21.466   2.900 -16.292  0.00  0.00     0.027 H 
ATOM     93  H28 M6E d   1     -21.300   2.352 -17.995  0.00  0.00     0.027 H 
ENDBRANCH  87  90
ENDBRANCH  18  87
BRANCH  19  94
ATOM     94  O10 M6E d   1     -24.353   4.721 -15.684  0.00  0.00    -0.385 OA
ATOM     95  H29 M6E d   1     -23.477   4.910 -15.367  0.00  0.00     0.210 HD
ENDBRANCH  19  94
BRANCH  19  96
ATOM     96  C38 M6E d   1     -25.878   4.745 -17.514  0.00  0.00    -0.043 C 
ATOM     97  H30 M6E d   1     -26.564   5.387 -16.942  0.00  0.00     0.031 H 
ATOM     98  H31 M6E d   1     -26.120   3.689 -17.323  0.00  0.00     0.031 H 
ATOM     99  H32 M6E d   1     -25.985   4.958 -18.588  0.00  0.00     0.031 H 
ENDBRANCH  19  96
BRANCH  22 100
ATOM    100  C37 M6E d   1     -25.306   7.524 -15.362  0.00  0.00    -0.068 C 
ATOM    101  H35 M6E d   1     -26.026   8.317 -15.111  0.00  0.00     0.028 H 
ATOM    102  H36 M6E d   1     -24.373   7.685 -14.802  0.00  0.00     0.028 H 
ATOM    103  H37 M6E d   1     -25.731   6.545 -15.094  0.00  0.00     0.028 H 
ENDBRANCH  22 100
BRANCH  30 104
ATOM    104  C29 M6E d   1     -20.962   7.863 -18.119  0.00  0.00    -0.026 C 
ATOM    105  H38 M6E d   1     -20.203   7.230 -17.637  0.00  0.00     0.035 H 
ATOM    106  H39 M6E d   1     -20.526   8.846 -18.351  0.00  0.00     0.035 H 
ATOM    107  H40 M6E d   1     -21.302   7.384 -19.049  0.00  0.00     0.035 H 
ENDBRANCH  30 104
BRANCH  30 108
ATOM    108  C30 M6E d   1     -21.559   8.677 -15.925  0.00  0.00    -0.026 C 
ATOM    109  H41 M6E d   1     -21.130   9.658 -16.179  0.00  0.00     0.035 H 
ATOM    110  H42 M6E d   1     -20.770   8.026 -15.520  0.00  0.00     0.035 H 
ATOM    111  H43 M6E d   1     -22.351   8.807 -15.172  0.00  0.00     0.035 H 
ENDBRANCH  30 108
BRANCH  28 112
ATOM    112  C36 M6E d   1     -26.793  10.027 -17.544  0.00  0.00    -0.070 C 
ATOM    113  H46 M6E d   1     -27.469  10.507 -18.267  0.00  0.00     0.028 H 
ATOM    114  H47 M6E d   1     -26.567  10.731 -16.730  0.00  0.00     0.028 H 
ATOM    115  H48 M6E d   1     -27.277   9.130 -17.129  0.00  0.00     0.028 H 
ENDBRANCH  28 112
BRANCH  33 116
ATOM    116  O7  M6E d   1     -23.479   8.801 -20.124  0.00  0.00    -0.388 OA
ATOM    117  H51 M6E d   1     -23.331   9.485 -19.482  0.00  0.00     0.210 HD
ENDBRANCH  33 116
BRANCH  33 118
ATOM    118  C35 M6E d   1     -24.948  10.314 -21.245  0.00  0.00    -0.045 C 
ATOM    119  H52 M6E d   1     -24.235  10.427 -22.075  0.00  0.00     0.031 H 
ATOM    120  H53 M6E d   1     -24.735  11.069 -20.474  0.00  0.00     0.031 H 
ATOM    121  H54 M6E d   1     -25.973  10.452 -21.621  0.00  0.00     0.031 H 
ENDBRANCH  33 118
ENDBRANCH   7   8
ENDBRANCH   4   7
ENDBRANCH   1   4
TORSDOF 26
