REMARK  22 active torsions:
REMARK  status: ('A' for Active; 'I' for Inactive)
REMARK       I    between atoms: C14_10  and  N1_1 
REMARK    1  A    between atoms: N1_1  and  C15_11 
REMARK    2  A    between atoms: C2_2  and  C29_8 
REMARK    3  A    between atoms: C3_3  and  O3_9 
REMARK    4  A    between atoms: C5_5  and  O6_43 
REMARK    5  A    between atoms: O3_9  and  C14_10 
REMARK    6  A    between atoms: C15_11  and  C16_12 
REMARK    7  A    between atoms: C16_12  and  C17_13 
REMARK    8  A    between atoms: C17_13  and  N2_14 
REMARK       I    between atoms: N2_14  and  C18_15 
REMARK       I    between atoms: C18_15  and  N3_16 
REMARK       I    between atoms: N4_17  and  C19_18 
REMARK       I    between atoms: C19_18  and  N5_20 
REMARK    9  A    between atoms: N5_20  and  C20_21 
REMARK   10  A    between atoms: C13_23  and  C27_24 
REMARK   11  A    between atoms: C27_24  and  C28_25 
REMARK   12  A    between atoms: C12_26  and  O10_27 
REMARK   13  A    between atoms: C12_26  and  C34_28 
REMARK   14  A    between atoms: C11_29  and  O9_30 
REMARK   15  A    between atoms: C9_32  and  O8_31 
REMARK   16  A    between atoms: C10_33  and  C33_34 
REMARK   17  A    between atoms: C8_35  and  C32_36 
REMARK   18  A    between atoms: C6_38  and  O7_39 
REMARK   19  A    between atoms: C6_38  and  C31_40 
REMARK   20  A    between atoms: C4_41  and  C30_42 
REMARK   21  A    between atoms: O6_43  and  C21_44 
REMARK   22  A    between atoms: C21_44  and  C22_45 
ROOT
ATOM      1  C22 M6F d   1     -23.194  -2.403 -31.501  0.00  0.00    -0.091 C 
ATOM      2  C23 M6F d   1     -23.217  -3.636 -31.159  0.00  0.00    -0.152 C 
ATOM      3  H56 M6F d   1     -23.236  -4.653 -30.877  0.00  0.00     0.166 H 
ENDROOT
BRANCH   1   4
ATOM      4  C21 M6F d   1     -23.172  -0.999 -31.928  0.00  0.00     0.074 C 
ATOM      5  H54 M6F d   1     -22.831  -0.372 -31.091  0.00  0.00     0.093 H 
ATOM      6  H55 M6F d   1     -22.478  -0.889 -32.774  0.00  0.00     0.093 H 
BRANCH   4   7
ATOM      7  O6  M6F d   1     -24.470  -0.577 -32.330  0.00  0.00    -0.371 OA
BRANCH   7   8
ATOM      8  C5  M6F d   1     -24.380   0.597 -33.154  0.00  0.00     0.074 C 
ATOM      9  C6  M6F d   1     -25.403   0.487 -34.280  0.00  0.00     0.081 C 
ATOM     10  C7  M6F d   1     -26.856   0.432 -33.782  0.00  0.00    -0.029 C 
ATOM     11  C8  M6F d   1     -27.900   0.337 -34.906  0.00  0.00    -0.029 C 
ATOM     12  H44 M6F d   1     -26.966  -0.449 -33.133  0.00  0.00     0.038 H 
ATOM     13  H45 M6F d   1     -27.057   1.344 -33.200  0.00  0.00     0.038 H 
ATOM     14  C9  M6F d   1     -28.469   1.691 -35.286  0.00  0.00     0.044 C 
ATOM     15  H40 M6F d   1     -27.399  -0.093 -35.786  0.00  0.00     0.043 H 
ATOM     16  C10 M6F d   1     -28.886   2.523 -34.079  0.00  0.00    -0.005 C 
ATOM     17  H35 M6F d   1     -29.358   1.530 -35.913  0.00  0.00     0.084 H 
ATOM     18  C11 M6F d   1     -27.903   3.665 -33.785  0.00  0.00     0.072 C 
ATOM     19  H36 M6F d   1     -28.922   1.869 -33.196  0.00  0.00     0.047 H 
ATOM     20  C12 M6F d   1     -28.239   4.528 -32.574  0.00  0.00     0.107 C 
ATOM     21  H32 M6F d   1     -26.906   3.227 -33.631  0.00  0.00     0.088 H 
ATOM     22  C13 M6F d   1     -27.134   5.554 -32.333  0.00  0.00     0.079 C 
ATOM     23  O2  M6F d   1     -26.055   4.928 -31.646  0.00  0.00    -0.312 OA
ATOM     24  H22 M6F d   1     -26.792   5.955 -33.298  0.00  0.00     0.089 H 
ATOM     25  C1  M6F d   1     -24.777   4.819 -32.331  0.00  0.00     0.265 C 
ATOM     26  C2  M6F d   1     -23.662   4.143 -31.614  0.00  0.00     0.053 C 
ATOM     27  O1  M6F d   1     -24.624   5.180 -33.478  0.00  0.00    -0.265 OA
ATOM     28  C3  M6F d   1     -23.349   2.767 -32.213  0.00  0.00     0.067 C 
ATOM     29  H2  M6F d   1     -23.966   3.987 -30.568  0.00  0.00     0.059 H 
ATOM     30  C4  M6F d   1     -24.597   1.881 -32.352  0.00  0.00    -0.003 C 
ATOM     31  H3  M6F d   1     -22.881   2.882 -33.202  0.00  0.00     0.086 H 
ATOM     32  H50 M6F d   1     -25.352   2.475 -32.888  0.00  0.00     0.047 H 
ATOM     33  H4  M6F d   1     -23.373   0.636 -33.595  0.00  0.00     0.088 H 
BRANCH   9  34
ATOM     34  O7  M6F d   1     -25.153   1.633 -35.059  0.00  0.00    -0.388 OA
ATOM     35  H46 M6F d   1     -25.726   1.631 -35.817  0.00  0.00     0.210 HD
ENDBRANCH   9  34
BRANCH   9  36
ATOM     36  C31 M6F d   1     -25.097  -0.720 -35.134  0.00  0.00    -0.045 C 
ATOM     37  H47 M6F d   1     -24.055  -0.667 -35.483  0.00  0.00     0.031 H 
ATOM     38  H48 M6F d   1     -25.774  -0.737 -36.001  0.00  0.00     0.031 H 
ATOM     39  H49 M6F d   1     -25.239  -1.635 -34.540  0.00  0.00     0.031 H 
ENDBRANCH   9  36
BRANCH  11  40
ATOM     40  C32 M6F d   1     -29.084  -0.550 -34.539  0.00  0.00    -0.070 C 
ATOM     41  H41 M6F d   1     -28.720  -1.548 -34.255  0.00  0.00     0.028 H 
ATOM     42  H42 M6F d   1     -29.758  -0.638 -35.404  0.00  0.00     0.028 H 
ATOM     43  H43 M6F d   1     -29.628  -0.104 -33.694  0.00  0.00     0.028 H 
ENDBRANCH  11  40
BRANCH  14  44
ATOM     44  O8  M6F d   1     -27.490   2.391 -36.041  0.00  0.00    -0.395 OA
ATOM     45  H34 M6F d   1     -26.730   2.556 -35.496  0.00  0.00     0.210 HD
ENDBRANCH  14  44
BRANCH  16  46
ATOM     46  C33 M6F d   1     -30.278   3.063 -34.352  0.00  0.00    -0.068 C 
ATOM     47  H37 M6F d   1     -30.610   3.670 -33.497  0.00  0.00     0.028 H 
ATOM     48  H38 M6F d   1     -30.974   2.224 -34.498  0.00  0.00     0.028 H 
ATOM     49  H39 M6F d   1     -30.258   3.686 -35.258  0.00  0.00     0.028 H 
ENDBRANCH  16  46
BRANCH  18  50
ATOM     50  O9  M6F d   1     -27.882   4.527 -34.912  0.00  0.00    -0.392 OA
ATOM     51  H33 M6F d   1     -27.675   4.024 -35.691  0.00  0.00     0.210 HD
ENDBRANCH  18  50
BRANCH  20  52
ATOM     52  O10 M6F d   1     -29.448   5.228 -32.852  0.00  0.00    -0.385 OA
ATOM     53  H28 M6F d   1     -29.330   5.767 -33.625  0.00  0.00     0.210 HD
ENDBRANCH  20  52
BRANCH  20  54
ATOM     54  C34 M6F d   1     -28.486   3.682 -31.330  0.00  0.00    -0.043 C 
ATOM     55  H29 M6F d   1     -29.285   2.954 -31.534  0.00  0.00     0.031 H 
ATOM     56  H30 M6F d   1     -28.788   4.334 -30.497  0.00  0.00     0.031 H 
ATOM     57  H31 M6F d   1     -27.563   3.147 -31.061  0.00  0.00     0.031 H 
ENDBRANCH  20  54
BRANCH  22  58
ATOM     58  C27 M6F d   1     -27.614   6.695 -31.436  0.00  0.00    -0.041 C 
ATOM     59  H23 M6F d   1     -28.251   6.284 -30.639  0.00  0.00     0.036 H 
ATOM     60  H24 M6F d   1     -28.195   7.408 -32.039  0.00  0.00     0.036 H 
BRANCH  58  61
ATOM     61  C28 M6F d   1     -26.430   7.419 -30.808  0.00  0.00    -0.074 C 
ATOM     62  H25 M6F d   1     -26.797   8.235 -30.168  0.00  0.00     0.027 H 
ATOM     63  H26 M6F d   1     -25.791   7.835 -31.602  0.00  0.00     0.027 H 
ATOM     64  H27 M6F d   1     -25.847   6.711 -30.201  0.00  0.00     0.027 H 
ENDBRANCH  58  61
ENDBRANCH  22  58
BRANCH  26  65
ATOM     65  C29 M6F d   1     -22.468   5.071 -31.626  0.00  0.00    -0.062 C 
ATOM     66  H5  M6F d   1     -22.751   6.039 -31.186  0.00  0.00     0.028 H 
ATOM     67  H6  M6F d   1     -22.133   5.224 -32.662  0.00  0.00     0.028 H 
ATOM     68  H7  M6F d   1     -21.652   4.626 -31.038  0.00  0.00     0.028 H 
ENDBRANCH  26  65
BRANCH  28  69
ATOM     69  O3  M6F d   1     -22.434   2.187 -31.290  0.00  0.00    -0.297 OA
BRANCH  69  70
ATOM     70  C14 M6F d   1     -21.098   2.022 -31.803  0.00  0.00     0.360 C 
ATOM     71  N1  M6F d   1     -20.155   1.692 -30.940  0.00  0.00    -0.337 N 
ATOM     72  H1  M6F d   1     -20.365   1.843 -29.974  0.00  0.00     0.164 HD
ATOM     73  O4  M6F d   1     -20.958   1.912 -33.016  0.00  0.00    -0.239 OA
BRANCH  71  74
ATOM     74  C15 M6F d   1     -18.840   1.132 -31.238  0.00  0.00    -0.001 C 
ATOM     75  H8  M6F d   1     -18.101   1.471 -30.497  0.00  0.00     0.064 H 
ATOM     76  H9  M6F d   1     -18.514   1.431 -32.245  0.00  0.00     0.064 H 
BRANCH  74  77
ATOM     77  C16 M6F d   1     -19.018  -0.389 -31.161  0.00  0.00    -0.035 C 
ATOM     78  H10 M6F d   1     -18.090  -0.872 -31.500  0.00  0.00     0.037 H 
ATOM     79  H11 M6F d   1     -19.847  -0.682 -31.822  0.00  0.00     0.037 H 
BRANCH  77  80
ATOM     80  C17 M6F d   1     -19.331  -0.867 -29.731  0.00  0.00     0.011 C 
ATOM     81  H12 M6F d   1     -20.156  -0.272 -29.312  0.00  0.00     0.064 H 
ATOM     82  H13 M6F d   1     -18.439  -0.754 -29.098  0.00  0.00     0.064 H 
BRANCH  80  83
ATOM     83  N2  M6F d   1     -19.720  -2.279 -29.791  0.00  0.00    -0.226 N 
ATOM     84  C18 M6F d   1     -20.574  -2.886 -29.060  0.00  0.00     0.675 C 
ATOM     85  N3  M6F d   1     -21.134  -2.313 -28.094  0.00  0.00    -0.235 N 
ATOM     86  N4  M6F d   1     -20.854  -4.177 -29.181  0.00  0.00    -0.142 N 
ATOM     87  H15 M6F d   1     -21.819  -2.824 -27.519  0.00  0.00     0.174 HD
ATOM     88  H16 M6F d   1     -20.908  -1.332 -27.876  0.00  0.00     0.174 HD
ATOM     89  C19 M6F d   1     -20.323  -4.957 -30.131  0.00  0.00     0.334 C 
ATOM     90  H17 M6F d   1     -21.493  -4.588 -28.531  0.00  0.00     0.189 HD
ATOM     91  O5  M6F d   1     -19.378  -4.576 -30.801  0.00  0.00    -0.247 OA
ATOM     92  N5  M6F d   1     -20.793  -6.125 -30.243  0.00  0.00    -0.347 N 
ATOM     93  H18 M6F d   1     -21.558  -6.337 -29.634  0.00  0.00     0.163 HD
ATOM     94  H14 M6F d   1     -19.249  -2.849 -30.508  0.00  0.00     0.177 HD
BRANCH  92  95
ATOM     95  C20 M6F d   1     -20.387  -7.206 -31.125  0.00  0.00    -0.017 C 
ATOM     96  H19 M6F d   1     -21.025  -8.084 -30.946  0.00  0.00     0.056 H 
ATOM     97  H20 M6F d   1     -19.338  -7.468 -30.925  0.00  0.00     0.056 H 
ATOM     98  H21 M6F d   1     -20.491  -6.884 -32.172  0.00  0.00     0.056 H 
ENDBRANCH  92  95
ENDBRANCH  80  83
ENDBRANCH  77  80
ENDBRANCH  74  77
ENDBRANCH  71  74
ENDBRANCH  69  70
ENDBRANCH  28  69
BRANCH  30  99
ATOM     99  C30 M6F d   1     -25.165   1.524 -30.988  0.00  0.00    -0.068 C 
ATOM    100  H51 M6F d   1     -25.324   2.443 -30.405  0.00  0.00     0.028 H 
ATOM    101  H52 M6F d   1     -24.458   0.870 -30.456  0.00  0.00     0.028 H 
ATOM    102  H53 M6F d   1     -26.124   1.000 -31.116  0.00  0.00     0.028 H 
ENDBRANCH  30  99
ENDBRANCH   7   8
ENDBRANCH   4   7
ENDBRANCH   1   4
TORSDOF 22
