REMARK WARNING: 32 MAX_TORS EXCEEDED!!!
REMARK  53 active torsions:
REMARK  status: ('A' for Active; 'I' for Inactive)
REMARK    1  A    between atoms: N_1  and  CA_2 
REMARK    2  A    between atoms: CA_2  and  C_3 
REMARK    3  A    between atoms: CA_2  and  CB_5 
REMARK       I    between atoms: C_3  and  N_8 
REMARK    4  A    between atoms: CB_5  and  CG1_6 
REMARK    5  A    between atoms: CB_5  and  CG2_7 
REMARK    6  A    between atoms: N_8  and  CA_9 
REMARK    7  A    between atoms: CA_9  and  C_10 
REMARK    8  A    between atoms: CA_9  and  CB_12 
REMARK       I    between atoms: C_10  and  N_13 
REMARK    9  A    between atoms: N_13  and  CA_14 
REMARK   10  A    between atoms: CA_14  and  C_15 
REMARK   11  A    between atoms: CA_14  and  CB_17 
REMARK       I    between atoms: C_15  and  N_20 
REMARK   12  A    between atoms: CB_17  and  OG1_18 
REMARK   13  A    between atoms: CB_17  and  CG2_19 
REMARK   14  A    between atoms: N_20  and  CA_21 
REMARK   15  A    between atoms: CA_21  and  C_22 
REMARK   16  A    between atoms: CA_21  and  CB_24 
REMARK       I    between atoms: C_22  and  N_27 
REMARK   17  A    between atoms: CB_24  and  CG1_25 
REMARK   18  A    between atoms: CB_24  and  CG2_26 
REMARK   19  A    between atoms: N_27  and  CA_28 
REMARK   20  A    between atoms: CA_28  and  C_29 
REMARK   21  A    between atoms: CA_28  and  CB_31 
REMARK       I    between atoms: C_29  and  N_33 
REMARK   22  A    between atoms: CB_31  and  OG_32 
REMARK   23  A    between atoms: N_33  and  CA_34 
REMARK   24  A    between atoms: CA_34  and  C_35 
REMARK   25  A    between atoms: CA_34  and  CB_37 
REMARK       I    between atoms: C_35  and  N_42 
REMARK   26  A    between atoms: CB_37  and  CG_38 
REMARK   27  A    between atoms: CG_38  and  CD_39 
REMARK   28  A    between atoms: N_42  and  CA_43 
REMARK   29  A    between atoms: CA_43  and  C_44 
REMARK   30  A    between atoms: CA_43  and  CB_46 
REMARK       I    between atoms: C_44  and  N_48 
REMARK   31  A    between atoms: CB_46  and  OG_47 
REMARK   32  A    between atoms: N_48  and  CA_49 
REMARK   33  A    between atoms: CA_49  and  C_50 
REMARK   34  A    between atoms: CA_49  and  CB_52 
REMARK       I    between atoms: C_50  and  N_56 
REMARK   35  A    between atoms: CB_52  and  CG_53 
REMARK   36  A    between atoms: CG_53  and  CD1_54 
REMARK   37  A    between atoms: CG_53  and  CD2_55 
REMARK   38  A    between atoms: N_56  and  CA_57 
REMARK   39  A    between atoms: CA_57  and  C_58 
REMARK   40  A    between atoms: CA_57  and  CB_60 
REMARK       I    between atoms: C_58  and  N_64 
REMARK   41  A    between atoms: CB_60  and  CG_61 
REMARK   42  A    between atoms: CG_61  and  CD1_62 
REMARK   43  A    between atoms: CG_61  and  CD2_63 
REMARK   44  A    between atoms: N_64  and  CA_65 
REMARK   45  A    between atoms: CA_65  and  C_66 
REMARK   46  A    between atoms: CA_65  and  CB_68 
REMARK       I    between atoms: C_66  and  N_71 
REMARK   47  A    between atoms: CB_68  and  OG1_69 
REMARK   48  A    between atoms: CB_68  and  CG2_70 
REMARK   49  A    between atoms: N_71  and  CA_72 
REMARK   50  A    between atoms: CA_72  and  C_73 
REMARK   51  A    between atoms: CA_72  and  CB_75 
REMARK   52  A    between atoms: CB_75  and  CG_76 
REMARK   53  A    between atoms: CG_76  and  CD_77 
ROOT
ATOM      1  CA  GLU d   1      -8.219   3.297  -9.439  0.00  0.00     0.090 C 
ATOM      2  H39 GLU d   1      -7.845   3.728 -10.379  0.00  0.00     0.087 H 
ENDROOT
BRANCH   1   3
ATOM      3  N   GLU d   1      -7.084   3.019  -8.581  0.00  0.00    -0.346 N 
ATOM      4  C   SER d   1      -6.277   4.001  -8.195  0.00  0.00     0.243 C 
ATOM      5  O   SER d   1      -6.483   5.184  -8.499  0.00  0.00    -0.271 OA
ATOM      6  H38 GLU d   1      -6.908   2.083  -8.278  0.00  0.00     0.163 HD
BRANCH   4   7
ATOM      7  CA  SER d   1      -5.106   3.615  -7.309  0.00  0.00     0.109 C 
ATOM      8  H34 SER d   1      -4.769   2.601  -7.571  0.00  0.00     0.090 H 
BRANCH   7   9
ATOM      9  N   SER d   1      -4.011   4.550  -7.516  0.00  0.00    -0.344 N 
ATOM     10  C   VAL d   1      -2.859   4.209  -8.087  0.00  0.00     0.241 C 
ATOM     11  O   VAL d   1      -2.564   3.051  -8.387  0.00  0.00    -0.271 OA
ATOM     12  H33 SER d   1      -4.130   5.496  -7.214  0.00  0.00     0.163 HD
BRANCH  10  13
ATOM     13  CA  VAL d   1      -1.892   5.353  -8.348  0.00  0.00     0.092 C 
ATOM     14  H25 VAL d   1      -2.280   6.265  -7.871  0.00  0.00     0.088 H 
BRANCH  13  15
ATOM     15  N   VAL d   1      -0.573   5.061  -7.776  0.00  0.00    -0.346 N 
ATOM     16  C   THR d   1      -0.135   5.707  -6.699  0.00  0.00     0.243 C 
ATOM     17  O   THR d   1      -0.826   6.490  -6.091  0.00  0.00    -0.271 OA
ATOM     18  H24 VAL d   1       0.006   4.366  -8.202  0.00  0.00     0.163 HD
BRANCH  16  19
ATOM     19  CA  THR d   1       1.291   5.418  -6.208  0.00  0.00     0.113 C 
ATOM     20  H18 THR d   1       1.837   4.833  -6.963  0.00  0.00     0.091 H 
BRANCH  19  21
ATOM     21  N   THR d   1       1.967   6.701  -5.987  0.00  0.00    -0.344 N 
ATOM     22  C   ALA d   1       2.317   7.504  -6.989  0.00  0.00     0.240 C 
ATOM     23  O   ALA d   1       2.193   7.194  -8.180  0.00  0.00    -0.271 OA
ATOM     24  H17 THR d   1       2.172   6.982  -5.050  0.00  0.00     0.163 HD
BRANCH  22  25
ATOM     25  CA  ALA d   1       2.909   8.856  -6.597  0.00  0.00     0.086 C 
ATOM     26  H13 ALA d   1       3.268   8.806  -5.558  0.00  0.00     0.086 H 
BRANCH  25  27
ATOM     27  N   ALA d   1       4.030   9.132  -7.474  0.00  0.00    -0.346 N 
ATOM     28  C   VAL d   1       5.171   8.454  -7.358  0.00  0.00     0.249 C 
ATOM     29  O   VAL d   1       5.401   7.707  -6.402  0.00  0.00    -0.271 OA
ATOM     30  H12 ALA d   1       3.946   9.840  -8.175  0.00  0.00     0.163 HD
BRANCH  28  31
ATOM     31  CA  VAL d   1       6.209   8.630  -8.480  0.00  0.00     0.178 C 
ATOM     32  H4  VAL d   1       5.964   7.903  -9.268  0.00  0.00     0.099 H 
BRANCH  31  33
ATOM     33  N   VAL d   1       6.170   9.988  -9.118  0.00  0.00    -0.066 N 
ATOM     34  H1  VAL d   1       5.238  10.175  -9.453  0.00  0.00     0.275 HD
ATOM     35  H2  VAL d   1       6.817  10.015  -9.891  0.00  0.00     0.275 HD
ATOM     36  H3  VAL d   1       6.429  10.686  -8.439  0.00  0.00     0.275 HD
ENDBRANCH  31  33
BRANCH  31  37
ATOM     37  CB  VAL d   1       7.620   8.272  -7.938  0.00  0.00    -0.025 C 
ATOM     38  H5  VAL d   1       7.534   7.327  -7.381  0.00  0.00     0.042 H 
BRANCH  37  39
ATOM     39  CG1 VAL d   1       8.600   8.042  -9.084  0.00  0.00    -0.071 C 
ATOM     40  H6  VAL d   1       9.590   7.790  -8.675  0.00  0.00     0.028 H 
ATOM     41  H7  VAL d   1       8.676   8.956  -9.691  0.00  0.00     0.028 H 
ATOM     42  H8  VAL d   1       8.242   7.213  -9.712  0.00  0.00     0.028 H 
ENDBRANCH  37  39
BRANCH  37  43
ATOM     43  CG2 VAL d   1       8.122   9.334  -6.963  0.00  0.00    -0.071 C 
ATOM     44  H9  VAL d   1       7.387   9.467  -6.155  0.00  0.00     0.028 H 
ATOM     45  H10 VAL d   1       8.258  10.287  -7.496  0.00  0.00     0.028 H 
ATOM     46  H11 VAL d   1       9.083   9.014  -6.535  0.00  0.00     0.028 H 
ENDBRANCH  37  43
ENDBRANCH  31  37
ENDBRANCH  28  31
ENDBRANCH  25  27
BRANCH  25  47
ATOM     47  CB  ALA d   1       1.857   9.951  -6.697  0.00  0.00    -0.049 C 
ATOM     48  H14 ALA d   1       1.020   9.717  -6.023  0.00  0.00     0.030 H 
ATOM     49  H15 ALA d   1       1.489  10.012  -7.732  0.00  0.00     0.030 H 
ATOM     50  H16 ALA d   1       2.302  10.915  -6.408  0.00  0.00     0.030 H 
ENDBRANCH  25  47
ENDBRANCH  22  25
ENDBRANCH  19  21
BRANCH  19  51
ATOM     51  CB  THR d   1       1.226   4.626  -4.888  0.00  0.00     0.060 C 
ATOM     52  H19 THR d   1       0.689   5.229  -4.141  0.00  0.00     0.086 H 
BRANCH  51  53
ATOM     53  OG1 THR d   1       2.559   4.370  -4.419  0.00  0.00    -0.393 OA
ATOM     54  H20 THR d   1       2.519   3.882  -3.605  0.00  0.00     0.210 HD
ENDBRANCH  51  53
BRANCH  51  55
ATOM     55  CG2 THR d   1       0.496   3.296  -5.062  0.00  0.00    -0.050 C 
ATOM     56  H21 THR d   1       0.471   2.763  -4.100  0.00  0.00     0.031 H 
ATOM     57  H22 THR d   1       1.024   2.683  -5.808  0.00  0.00     0.031 H 
ATOM     58  H23 THR d   1      -0.533   3.484  -5.404  0.00  0.00     0.031 H 
ENDBRANCH  51  55
ENDBRANCH  19  51
ENDBRANCH  16  19
ENDBRANCH  13  15
BRANCH  13  59
ATOM     59  CB  VAL d   1      -1.818   5.584  -9.870  0.00  0.00    -0.033 C 
ATOM     60  H26 VAL d   1      -1.485   4.652 -10.350  0.00  0.00     0.042 H 
BRANCH  59  61
ATOM     61  CG1 VAL d   1      -3.180   5.963 -10.432  0.00  0.00    -0.071 C 
ATOM     62  H27 VAL d   1      -3.098   6.122 -11.517  0.00  0.00     0.028 H 
ATOM     63  H28 VAL d   1      -3.530   6.889  -9.952  0.00  0.00     0.028 H 
ATOM     64  H29 VAL d   1      -3.897   5.153 -10.233  0.00  0.00     0.028 H 
ENDBRANCH  59  61
BRANCH  59  65
ATOM     65  CG2 VAL d   1      -0.822   6.682 -10.185  0.00  0.00    -0.071 C 
ATOM     66  H30 VAL d   1       0.164   6.410  -9.780  0.00  0.00     0.028 H 
ATOM     67  H31 VAL d   1      -1.159   7.625  -9.729  0.00  0.00     0.028 H 
ATOM     68  H32 VAL d   1      -0.748   6.808 -11.275  0.00  0.00     0.028 H 
ENDBRANCH  59  65
ENDBRANCH  13  59
ENDBRANCH  10  13
ENDBRANCH   7   9
BRANCH   7  69
ATOM     69  CB  SER d   1      -5.557   3.633  -5.842  0.00  0.00     0.044 C 
ATOM     70  H35 SER d   1      -6.414   2.953  -5.730  0.00  0.00     0.077 H 
ATOM     71  H36 SER d   1      -5.865   4.657  -5.582  0.00  0.00     0.077 H 
BRANCH  69  72
ATOM     72  OG  SER d   1      -4.536   3.226  -4.946  0.00  0.00    -0.398 OA
ATOM     73  H37 SER d   1      -4.267   2.339  -5.156  0.00  0.00     0.209 HD
ENDBRANCH  69  72
ENDBRANCH   7  69
ENDBRANCH   4   7
ENDBRANCH   1   3
BRANCH   1  74
ATOM     74  C   GLU d   1      -9.168   4.303  -8.790  0.00  0.00     0.241 C 
ATOM     75  O   GLU d   1      -9.696   5.207  -9.459  0.00  0.00    -0.271 OA
ATOM     76  N   SER d   1      -9.399   4.131  -7.494  0.00  0.00    -0.344 N 
ATOM     77  H44 SER d   1      -9.001   3.337  -7.033  0.00  0.00     0.163 HD
BRANCH  76  78
ATOM     78  CA  SER d   1     -10.211   5.058  -6.722  0.00  0.00     0.109 C 
ATOM     79  H45 SER d   1     -10.021   6.084  -7.069  0.00  0.00     0.090 H 
BRANCH  78  80
ATOM     80  C   SER d   1      -9.802   4.933  -5.264  0.00  0.00     0.243 C 
ATOM     81  O   SER d   1      -8.995   4.083  -4.908  0.00  0.00    -0.271 OA
ATOM     82  N   LEU d   1     -10.363   5.769  -4.405  0.00  0.00    -0.346 N 
ATOM     83  H49 LEU d   1     -11.002   6.465  -4.733  0.00  0.00     0.163 HD
BRANCH  82  84
ATOM     84  CA  LEU d   1     -10.055   5.681  -2.984  0.00  0.00     0.089 C 
ATOM     85  H50 LEU d   1      -8.977   5.854  -2.854  0.00  0.00     0.087 H 
BRANCH  84  86
ATOM     86  C   LEU d   1     -10.382   4.290  -2.420  0.00  0.00     0.241 C 
ATOM     87  O   LEU d   1      -9.677   3.780  -1.563  0.00  0.00    -0.271 OA
ATOM     88  N   LEU d   1     -11.468   3.700  -2.905  0.00  0.00    -0.346 N 
ATOM     89  H60 LEU d   1     -11.964   4.135  -3.656  0.00  0.00     0.163 HD
BRANCH  88  90
ATOM     90  CA  LEU d   1     -11.953   2.441  -2.374  0.00  0.00     0.089 C 
ATOM     91  H61 LEU d   1     -11.648   2.393  -1.318  0.00  0.00     0.087 H 
BRANCH  90  92
ATOM     92  C   LEU d   1     -11.386   1.212  -3.061  0.00  0.00     0.241 C 
ATOM     93  O   LEU d   1     -11.572   0.094  -2.575  0.00  0.00    -0.271 OA
ATOM     94  N   THR d   1     -10.717   1.404  -4.191  0.00  0.00    -0.344 N 
ATOM     95  H71 THR d   1     -10.658   2.330  -4.565  0.00  0.00     0.163 HD
BRANCH  94  96
ATOM     96  CA  THR d   1     -10.068   0.320  -4.903  0.00  0.00     0.113 C 
ATOM     97  H72 THR d   1     -10.197  -0.619  -4.345  0.00  0.00     0.091 H 
BRANCH  96  98
ATOM     98  C   THR d   1      -8.584   0.654  -4.988  0.00  0.00     0.243 C 
ATOM     99  O   THR d   1      -8.144   1.347  -5.912  0.00  0.00    -0.271 OA
ATOM    100  N   GLU d   1      -7.842   0.156  -3.995  0.00  0.00    -0.345 N 
ATOM    101  H78 GLU d   1      -8.308  -0.381  -3.292  0.00  0.00     0.163 HD
BRANCH 100 102
ATOM    102  CA  GLU d   1      -6.391   0.341  -3.863  0.00  0.00     0.097 C 
ATOM    103  H79 GLU d   1      -6.204   1.385  -3.570  0.00  0.00     0.089 H 
BRANCH 102 104
ATOM    104  C   GLU d   1      -5.630   0.059  -5.158  0.00  0.00     0.196 C 
ATOM    105  O   GLU d   1      -4.542   0.606  -5.377  0.00  0.00    -0.646 OA
ATOM    106  OXT GLU d   1      -6.094  -0.719  -6.001  0.00  0.00    -0.646 OA
ENDBRANCH 102 104
BRANCH 102 107
ATOM    107  CB  GLU d   1      -5.845  -0.592  -2.773  0.00  0.00    -0.028 C 
ATOM    108  H80 GLU d   1      -4.748  -0.602  -2.852  0.00  0.00     0.037 H 
ATOM    109  H81 GLU d   1      -6.235  -1.603  -2.963  0.00  0.00     0.037 H 
BRANCH 107 110
ATOM    110  CG  GLU d   1      -6.210  -0.208  -1.350  0.00  0.00     0.018 C 
ATOM    111  H82 GLU d   1      -7.278   0.055  -1.321  0.00  0.00     0.049 H 
ATOM    112  H83 GLU d   1      -5.609   0.665  -1.058  0.00  0.00     0.049 H 
BRANCH 110 113
ATOM    113  CD  GLU d   1      -5.959  -1.328  -0.346  0.00  0.00     0.172 C 
ATOM    114  OE1 GLU d   1      -6.713  -2.329  -0.357  0.00  0.00    -0.648 OA
ATOM    115  OE2 GLU d   1      -5.014  -1.202   0.465  0.00  0.00    -0.648 OA
ENDBRANCH 110 113
ENDBRANCH 107 110
ENDBRANCH 102 107
ENDBRANCH 100 102
ENDBRANCH  96  98
BRANCH  96 116
ATOM    116  CB  THR d   1     -10.695   0.159  -6.287  0.00  0.00     0.060 C 
ATOM    117  H73 THR d   1     -10.561   1.092  -6.855  0.00  0.00     0.086 H 
BRANCH 116 118
ATOM    118  OG1 THR d   1     -12.095  -0.101  -6.125  0.00  0.00    -0.393 OA
ATOM    119  H74 THR d   1     -12.498  -0.203  -6.979  0.00  0.00     0.210 HD
ENDBRANCH 116 118
BRANCH 116 120
ATOM    120  CG2 THR d   1     -10.040  -0.982  -7.053  0.00  0.00    -0.050 C 
ATOM    121  H75 THR d   1     -10.509  -1.076  -8.043  0.00  0.00     0.031 H 
ATOM    122  H76 THR d   1     -10.171  -1.921  -6.495  0.00  0.00     0.031 H 
ATOM    123  H77 THR d   1      -8.967  -0.774  -7.174  0.00  0.00     0.031 H 
ENDBRANCH 116 120
ENDBRANCH  96 116
ENDBRANCH  94  96
ENDBRANCH  90  92
BRANCH  90 124
ATOM    124  CB  LEU d   1     -13.481   2.413  -2.430  0.00  0.00    -0.035 C 
ATOM    125  H62 LEU d   1     -13.824   1.466  -1.988  0.00  0.00     0.037 H 
ATOM    126  H63 LEU d   1     -13.787   2.458  -3.486  0.00  0.00     0.037 H 
BRANCH 124 127
ATOM    127  CG  LEU d   1     -14.167   3.572  -1.679  0.00  0.00    -0.059 C 
ATOM    128  H64 LEU d   1     -13.916   4.500  -2.213  0.00  0.00     0.038 H 
BRANCH 127 129
ATOM    129  CD1 LEU d   1     -15.685   3.425  -1.701  0.00  0.00    -0.073 C 
ATOM    130  H65 LEU d   1     -16.143   4.265  -1.158  0.00  0.00     0.028 H 
ATOM    131  H66 LEU d   1     -15.969   2.478  -1.218  0.00  0.00     0.028 H 
ATOM    132  H67 LEU d   1     -16.038   3.425  -2.743  0.00  0.00     0.028 H 
ENDBRANCH 127 129
BRANCH 127 133
ATOM    133  CD2 LEU d   1     -13.657   3.718  -0.249  0.00  0.00    -0.073 C 
ATOM    134  H68 LEU d   1     -12.562   3.822  -0.259  0.00  0.00     0.028 H 
ATOM    135  H69 LEU d   1     -13.935   2.826   0.332  0.00  0.00     0.028 H 
ATOM    136  H70 LEU d   1     -14.106   4.611   0.211  0.00  0.00     0.028 H 
ENDBRANCH 127 133
ENDBRANCH 124 127
ENDBRANCH  90 124
ENDBRANCH  88  90
ENDBRANCH  84  86
BRANCH  84 137
ATOM    137  CB  LEU d   1     -10.812   6.774  -2.230  0.00  0.00    -0.035 C 
ATOM    138  H51 LEU d   1     -11.889   6.581  -2.339  0.00  0.00     0.037 H 
ATOM    139  H52 LEU d   1     -10.565   7.742  -2.691  0.00  0.00     0.037 H 
BRANCH 137 140
ATOM    140  CG  LEU d   1     -10.495   6.864  -0.743  0.00  0.00    -0.059 C 
ATOM    141  H53 LEU d   1     -10.592   5.860  -0.305  0.00  0.00     0.038 H 
BRANCH 140 142
ATOM    142  CD1 LEU d   1      -9.072   7.342  -0.497  0.00  0.00    -0.073 C 
ATOM    143  H54 LEU d   1      -8.884   7.393   0.586  0.00  0.00     0.028 H 
ATOM    144  H55 LEU d   1      -8.939   8.340  -0.940  0.00  0.00     0.028 H 
ATOM    145  H56 LEU d   1      -8.364   6.638  -0.959  0.00  0.00     0.028 H 
ENDBRANCH 140 142
BRANCH 140 146
ATOM    146  CD2 LEU d   1     -11.516   7.773  -0.088  0.00  0.00    -0.073 C 
ATOM    147  H57 LEU d   1     -12.528   7.393  -0.290  0.00  0.00     0.028 H 
ATOM    148  H58 LEU d   1     -11.418   8.789  -0.497  0.00  0.00     0.028 H 
ATOM    149  H59 LEU d   1     -11.343   7.796   0.998  0.00  0.00     0.028 H 
ENDBRANCH 140 146
ENDBRANCH 137 140
ENDBRANCH  84 137
ENDBRANCH  82  84
ENDBRANCH  78  80
BRANCH  78 150
ATOM    150  CB  SER d   1     -11.696   4.750  -6.885  0.00  0.00     0.044 C 
ATOM    151  H46 SER d   1     -11.926   4.622  -7.953  0.00  0.00     0.077 H 
ATOM    152  H47 SER d   1     -12.287   5.585  -6.480  0.00  0.00     0.077 H 
BRANCH 150 153
ATOM    153  OG  SER d   1     -12.027   3.565  -6.192  0.00  0.00    -0.398 OA
ATOM    154  H48 SER d   1     -12.953   3.384  -6.301  0.00  0.00     0.209 HD
ENDBRANCH 150 153
ENDBRANCH  78 150
ENDBRANCH  76  78
ENDBRANCH   1  74
BRANCH   1 155
ATOM    155  CB  GLU d   1      -8.969   2.007  -9.760  0.00  0.00    -0.029 C 
ATOM    156  H40 GLU d   1      -9.396   1.608  -8.828  0.00  0.00     0.037 H 
ATOM    157  H41 GLU d   1      -8.256   1.281 -10.177  0.00  0.00     0.037 H 
BRANCH 155 158
ATOM    158  CG  GLU d   1     -10.093   2.210 -10.760  0.00  0.00     0.018 C 
ATOM    159  H42 GLU d   1      -9.700   2.769 -11.622  0.00  0.00     0.049 H 
ATOM    160  H43 GLU d   1     -10.891   2.793 -10.278  0.00  0.00     0.049 H 
BRANCH 158 161
ATOM    161  CD  GLU d   1     -10.683   0.899 -11.259  0.00  0.00     0.172 C 
ATOM    162  OE1 GLU d   1     -10.035  -0.168 -11.136  0.00  0.00    -0.648 OA
ATOM    163  OE2 GLU d   1     -11.799   0.936 -11.801  0.00  0.00    -0.648 OA
ENDBRANCH 158 161
ENDBRANCH 155 158
ENDBRANCH   1 155
TORSDOF 53
