REMARK WARNING: 32 MAX_TORS EXCEEDED!!!
REMARK  51 active torsions:
REMARK  status: ('A' for Active; 'I' for Inactive)
REMARK    1  A    between atoms: N_1  and  CA_2 
REMARK    2  A    between atoms: CA_2  and  C_3 
REMARK    3  A    between atoms: CA_2  and  CB_5 
REMARK       I    between atoms: C_3  and  N_8 
REMARK    4  A    between atoms: CB_5  and  CG1_6 
REMARK    5  A    between atoms: CB_5  and  CG2_7 
REMARK    6  A    between atoms: N_8  and  CA_9 
REMARK    7  A    between atoms: CA_9  and  C_10 
REMARK    8  A    between atoms: CA_9  and  CB_12 
REMARK       I    between atoms: C_10  and  N_13 
REMARK    9  A    between atoms: N_13  and  CA_14 
REMARK   10  A    between atoms: CA_14  and  C_15 
REMARK   11  A    between atoms: CA_14  and  CB_17 
REMARK       I    between atoms: C_15  and  N_20 
REMARK   12  A    between atoms: CB_17  and  OG1_18 
REMARK   13  A    between atoms: CB_17  and  CG2_19 
REMARK   14  A    between atoms: N_20  and  CA_21 
REMARK   15  A    between atoms: CA_21  and  C_22 
REMARK   16  A    between atoms: CA_21  and  CB_24 
REMARK       I    between atoms: C_22  and  N_27 
REMARK   17  A    between atoms: CB_24  and  CG1_25 
REMARK   18  A    between atoms: CB_24  and  CG2_26 
REMARK   19  A    between atoms: N_27  and  CA_28 
REMARK   20  A    between atoms: CA_28  and  C_29 
REMARK   21  A    between atoms: CA_28  and  CB_31 
REMARK       I    between atoms: C_29  and  N_33 
REMARK   22  A    between atoms: CB_31  and  OG_32 
REMARK   23  A    between atoms: N_33  and  CA_34 
REMARK   24  A    between atoms: CA_34  and  C_35 
REMARK   25  A    between atoms: CA_34  and  CB_37 
REMARK       I    between atoms: C_35  and  N_42 
REMARK   26  A    between atoms: CB_37  and  CG_38 
REMARK   27  A    between atoms: CG_38  and  CD_39 
REMARK   28  A    between atoms: N_42  and  CA_43 
REMARK   29  A    between atoms: CA_43  and  C_44 
REMARK   30  A    between atoms: CA_43  and  CB_46 
REMARK       I    between atoms: C_44  and  N_48 
REMARK   31  A    between atoms: CB_46  and  OG_47 
REMARK   32  A    between atoms: N_48  and  CA_49 
REMARK   33  A    between atoms: CA_49  and  C_50 
REMARK   34  A    between atoms: CA_49  and  CB_52 
REMARK       I    between atoms: C_50  and  N_59 
REMARK   35  A    between atoms: CB_52  and  CG_53 
REMARK   36  A    between atoms: N_59  and  CA_60 
REMARK   37  A    between atoms: CA_60  and  C_61 
REMARK   38  A    between atoms: CA_60  and  CB_63 
REMARK       I    between atoms: C_61  and  N_67 
REMARK   39  A    between atoms: CB_63  and  CG_64 
REMARK   40  A    between atoms: CG_64  and  CD1_65 
REMARK   41  A    between atoms: CG_64  and  CD2_66 
REMARK   42  A    between atoms: N_67  and  CA_68 
REMARK   43  A    between atoms: CA_68  and  C_69 
REMARK   44  A    between atoms: CA_68  and  CB_71 
REMARK       I    between atoms: C_69  and  N_74 
REMARK   45  A    between atoms: CB_71  and  OG1_72 
REMARK   46  A    between atoms: CB_71  and  CG2_73 
REMARK   47  A    between atoms: N_74  and  CA_75 
REMARK   48  A    between atoms: CA_75  and  C_76 
REMARK   49  A    between atoms: CA_75  and  CB_78 
REMARK   50  A    between atoms: CB_78  and  CG_79 
REMARK   51  A    between atoms: CG_79  and  CD_80 
ROOT
ATOM      1  CA  GLU d   1      -2.711  49.645 -24.588  0.00  0.00     0.090 C 
ATOM      2  H39 GLU d   1      -1.974  50.194 -23.983  0.00  0.00     0.087 H 
ENDROOT
BRANCH   1   3
ATOM      3  N   GLU d   1      -2.310  49.733 -25.997  0.00  0.00    -0.346 N 
ATOM      4  C   SER d   1      -1.193  49.149 -26.431  0.00  0.00     0.243 C 
ATOM      5  O   SER d   1      -0.402  48.560 -25.700  0.00  0.00    -0.271 OA
ATOM      6  H38 GLU d   1      -2.884  50.239 -26.641  0.00  0.00     0.163 HD
BRANCH   4   7
ATOM      7  CA  SER d   1      -0.913  49.266 -27.910  0.00  0.00     0.109 C 
ATOM      8  H34 SER d   1      -1.418  50.152 -28.321  0.00  0.00     0.090 H 
BRANCH   7   9
ATOM      9  N   SER d   1       0.527  49.412 -28.041  0.00  0.00    -0.344 N 
ATOM     10  C   VAL d   1       1.111  50.450 -28.631  0.00  0.00     0.241 C 
ATOM     11  O   VAL d   1       0.506  51.413 -29.098  0.00  0.00    -0.271 OA
ATOM     12  H33 SER d   1       1.111  48.692 -27.666  0.00  0.00     0.163 HD
BRANCH  10  13
ATOM     13  CA  VAL d   1       2.628  50.374 -28.672  0.00  0.00     0.092 C 
ATOM     14  H25 VAL d   1       2.942  49.364 -28.371  0.00  0.00     0.088 H 
BRANCH  13  15
ATOM     15  N   VAL d   1       3.078  50.615 -30.038  0.00  0.00    -0.346 N 
ATOM     16  C   THR d   1       3.657  49.669 -30.777  0.00  0.00     0.243 C 
ATOM     17  O   THR d   1       3.761  48.495 -30.438  0.00  0.00    -0.271 OA
ATOM     18  H24 VAL d   1       2.947  51.523 -30.435  0.00  0.00     0.163 HD
BRANCH  16  19
ATOM     19  CA  THR d   1       4.148  50.108 -32.138  0.00  0.00     0.113 C 
ATOM     20  H18 THR d   1       4.375  51.184 -32.127  0.00  0.00     0.091 H 
BRANCH  19  21
ATOM     21  N   THR d   1       5.370  49.372 -32.485  0.00  0.00    -0.344 N 
ATOM     22  C   ALA d   1       6.556  49.623 -31.915  0.00  0.00     0.240 C 
ATOM     23  O   ALA d   1       6.777  50.588 -31.158  0.00  0.00    -0.271 OA
ATOM     24  H17 THR d   1       5.315  48.652 -33.177  0.00  0.00     0.163 HD
BRANCH  22  25
ATOM     25  CA  ALA d   1       7.670  48.628 -32.236  0.00  0.00     0.086 C 
ATOM     26  H13 ALA d   1       7.436  48.150 -33.199  0.00  0.00     0.086 H 
BRANCH  25  27
ATOM     27  N   ALA d   1       8.993  49.272 -32.362  0.00  0.00    -0.346 N 
ATOM     28  C   VAL d   1       9.211  50.235 -33.252  0.00  0.00     0.249 C 
ATOM     29  O   VAL d   1       8.311  50.724 -33.943  0.00  0.00    -0.271 OA
ATOM     30  H12 ALA d   1       9.740  48.978 -31.766  0.00  0.00     0.163 HD
BRANCH  28  31
ATOM     31  CA  VAL d   1      10.653  50.740 -33.357  0.00  0.00     0.178 C 
ATOM     32  H4  VAL d   1      11.314  49.863 -33.413  0.00  0.00     0.099 H 
BRANCH  31  33
ATOM     33  N   VAL d   1      10.827  51.512 -34.630  0.00  0.00    -0.066 N 
ATOM     34  H1  VAL d   1      10.548  50.939 -35.411  0.00  0.00     0.275 HD
ATOM     35  H2  VAL d   1      11.795  51.774 -34.734  0.00  0.00     0.275 HD
ATOM     36  H3  VAL d   1      10.255  52.342 -34.601  0.00  0.00     0.275 HD
ENDBRANCH  31  33
BRANCH  31  37
ATOM     37  CB  VAL d   1      11.059  51.539 -32.075  0.00  0.00    -0.025 C 
ATOM     38  H5  VAL d   1      11.158  50.812 -31.256  0.00  0.00     0.042 H 
BRANCH  37  39
ATOM     39  CG1 VAL d   1      12.424  52.221 -32.255  0.00  0.00    -0.071 C 
ATOM     40  H6  VAL d   1      12.681  52.773 -31.339  0.00  0.00     0.028 H 
ATOM     41  H7  VAL d   1      12.376  52.919 -33.103  0.00  0.00     0.028 H 
ATOM     42  H8  VAL d   1      13.192  51.458 -32.451  0.00  0.00     0.028 H 
ENDBRANCH  37  39
BRANCH  37  43
ATOM     43  CG2 VAL d   1       9.989  52.552 -31.656  0.00  0.00    -0.071 C 
ATOM     44  H9  VAL d   1       9.024  52.037 -31.535  0.00  0.00     0.028 H 
ATOM     45  H10 VAL d   1       9.896  53.328 -32.430  0.00  0.00     0.028 H 
ATOM     46  H11 VAL d   1      10.278  53.018 -30.703  0.00  0.00     0.028 H 
ENDBRANCH  37  43
ENDBRANCH  31  37
ENDBRANCH  28  31
ENDBRANCH  25  27
BRANCH  25  47
ATOM     47  CB  ALA d   1       7.694  47.558 -31.158  0.00  0.00    -0.049 C 
ATOM     48  H14 ALA d   1       6.700  47.092 -31.081  0.00  0.00     0.030 H 
ATOM     49  H15 ALA d   1       7.960  48.015 -30.194  0.00  0.00     0.030 H 
ATOM     50  H16 ALA d   1       8.439  46.792 -31.419  0.00  0.00     0.030 H 
ENDBRANCH  25  47
ENDBRANCH  22  25
ENDBRANCH  19  21
BRANCH  19  51
ATOM     51  CB  THR d   1       2.999  49.840 -33.119  0.00  0.00     0.060 C 
ATOM     52  H19 THR d   1       2.095  50.351 -32.757  0.00  0.00     0.086 H 
BRANCH  51  53
ATOM     53  OG1 THR d   1       2.735  48.426 -33.189  0.00  0.00    -0.393 OA
ATOM     54  H20 THR d   1       2.493  48.107 -32.327  0.00  0.00     0.210 HD
ENDBRANCH  51  53
BRANCH  51  55
ATOM     55  CG2 THR d   1       3.351  50.385 -34.488  0.00  0.00    -0.050 C 
ATOM     56  H21 THR d   1       2.523  50.189 -35.185  0.00  0.00     0.031 H 
ATOM     57  H22 THR d   1       4.263  49.892 -34.855  0.00  0.00     0.031 H 
ATOM     58  H23 THR d   1       3.522  51.469 -34.418  0.00  0.00     0.031 H 
ENDBRANCH  51  55
ENDBRANCH  19  51
ENDBRANCH  16  19
ENDBRANCH  13  15
BRANCH  13  59
ATOM     59  CB  VAL d   1       3.246  51.390 -27.685  0.00  0.00    -0.033 C 
ATOM     60  H26 VAL d   1       2.886  52.398 -27.938  0.00  0.00     0.042 H 
BRANCH  59  61
ATOM     61  CG1 VAL d   1       2.826  51.063 -26.248  0.00  0.00    -0.071 C 
ATOM     62  H27 VAL d   1       3.274  51.795 -25.560  0.00  0.00     0.028 H 
ATOM     63  H28 VAL d   1       3.173  50.053 -25.985  0.00  0.00     0.028 H 
ATOM     64  H29 VAL d   1       1.730  51.107 -26.167  0.00  0.00     0.028 H 
ENDBRANCH  59  61
BRANCH  59  65
ATOM     65  CG2 VAL d   1       4.758  51.361 -27.812  0.00  0.00    -0.071 C 
ATOM     66  H30 VAL d   1       5.043  51.597 -28.848  0.00  0.00     0.028 H 
ATOM     67  H31 VAL d   1       5.129  50.359 -27.549  0.00  0.00     0.028 H 
ATOM     68  H32 VAL d   1       5.197  52.105 -27.132  0.00  0.00     0.028 H 
ENDBRANCH  59  65
ENDBRANCH  13  59
ENDBRANCH  10  13
ENDBRANCH   7   9
BRANCH   7  69
ATOM     69  CB  SER d   1      -1.412  48.016 -28.648  0.00  0.00     0.044 C 
ATOM     70  H35 SER d   1      -2.449  47.804 -28.349  0.00  0.00     0.077 H 
ATOM     71  H36 SER d   1      -0.773  47.159 -28.389  0.00  0.00     0.077 H 
BRANCH  69  72
ATOM     72  OG  SER d   1      -1.360  48.239 -30.056  0.00  0.00    -0.398 OA
ATOM     73  H37 SER d   1      -1.669  47.464 -30.510  0.00  0.00     0.209 HD
ENDBRANCH  69  72
ENDBRANCH   7  69
ENDBRANCH   4   7
ENDBRANCH   1   3
BRANCH   1  74
ATOM     74  C   GLU d   1      -2.772  48.210 -24.088  0.00  0.00     0.241 C 
ATOM     75  O   GLU d   1      -2.405  47.927 -22.932  0.00  0.00    -0.271 OA
ATOM     76  N   SER d   1      -3.260  47.307 -24.945  0.00  0.00    -0.344 N 
ATOM     77  H44 SER d   1      -3.586  47.610 -25.841  0.00  0.00     0.163 HD
BRANCH  76  78
ATOM     78  CA  SER d   1      -3.329  45.873 -24.600  0.00  0.00     0.109 C 
ATOM     79  H45 SER d   1      -2.413  45.605 -24.053  0.00  0.00     0.090 H 
BRANCH  78  80
ATOM     80  C   SER d   1      -3.403  45.017 -25.868  0.00  0.00     0.243 C 
ATOM     81  O   SER d   1      -3.549  45.517 -27.007  0.00  0.00    -0.271 OA
ATOM     82  N   PHE d   1      -3.354  43.715 -25.640  0.00  0.00    -0.346 N 
ATOM     83  H49 PHE d   1      -3.152  43.398 -24.713  0.00  0.00     0.163 HD
BRANCH  82  84
ATOM     84  CA  PHE d   1      -3.580  42.729 -26.675  0.00  0.00     0.093 C 
ATOM     85  H50 PHE d   1      -2.875  42.901 -27.502  0.00  0.00     0.088 H 
BRANCH  84  86
ATOM     86  C   PHE d   1      -5.014  42.825 -27.231  0.00  0.00     0.241 C 
ATOM     87  O   PHE d   1      -5.271  42.410 -28.354  0.00  0.00    -0.271 OA
ATOM     88  N   LEU d   1      -5.947  43.372 -26.447  0.00  0.00    -0.346 N 
ATOM     89  H58 LEU d   1      -5.689  43.705 -25.540  0.00  0.00     0.163 HD
BRANCH  88  90
ATOM     90  CA  LEU d   1      -7.346  43.495 -26.888  0.00  0.00     0.089 C 
ATOM     91  H59 LEU d   1      -7.496  42.754 -27.686  0.00  0.00     0.087 H 
BRANCH  90  92
ATOM     92  C   LEU d   1      -7.743  44.857 -27.454  0.00  0.00     0.241 C 
ATOM     93  O   LEU d   1      -8.753  44.943 -28.139  0.00  0.00    -0.271 OA
ATOM     94  N   THR d   1      -6.976  45.901 -27.145  0.00  0.00    -0.344 N 
ATOM     95  H69 THR d   1      -6.091  45.737 -26.709  0.00  0.00     0.163 HD
BRANCH  94  96
ATOM     96  CA  THR d   1      -7.383  47.285 -27.421  0.00  0.00     0.113 C 
ATOM     97  H70 THR d   1      -8.116  47.283 -28.241  0.00  0.00     0.091 H 
BRANCH  96  98
ATOM     98  C   THR d   1      -6.170  48.117 -27.824  0.00  0.00     0.243 C 
ATOM     99  O   THR d   1      -5.133  48.093 -27.143  0.00  0.00    -0.271 OA
ATOM    100  N   GLU d   1      -6.300  48.860 -28.918  0.00  0.00    -0.345 N 
ATOM    101  H76 GLU d   1      -7.139  48.800 -29.459  0.00  0.00     0.163 HD
BRANCH 100 102
ATOM    102  CA  GLU d   1      -5.236  49.761 -29.339  0.00  0.00     0.097 C 
ATOM    103  H77 GLU d   1      -4.284  49.212 -29.288  0.00  0.00     0.089 H 
BRANCH 102 104
ATOM    104  C   GLU d   1      -5.145  50.960 -28.405  0.00  0.00     0.196 C 
ATOM    105  O   GLU d   1      -4.077  51.186 -27.844  0.00  0.00    -0.646 OA
ATOM    106  OXT GLU d   1      -6.143  51.657 -28.247  0.00  0.00    -0.646 OA
ENDBRANCH 102 104
BRANCH 102 107
ATOM    107  CB  GLU d   1      -5.441  50.220 -30.770  0.00  0.00    -0.028 C 
ATOM    108  H78 GLU d   1      -6.323  50.876 -30.805  0.00  0.00     0.037 H 
ATOM    109  H79 GLU d   1      -5.616  49.336 -31.400  0.00  0.00     0.037 H 
BRANCH 107 110
ATOM    110  CG  GLU d   1      -4.251  50.980 -31.323  0.00  0.00     0.018 C 
ATOM    111  H80 GLU d   1      -3.334  50.414 -31.101  0.00  0.00     0.049 H 
ATOM    112  H81 GLU d   1      -4.202  51.965 -30.836  0.00  0.00     0.049 H 
BRANCH 110 113
ATOM    113  CD  GLU d   1      -4.350  51.180 -32.820  0.00  0.00     0.172 C 
ATOM    114  OE1 GLU d   1      -4.581  50.182 -33.538  0.00  0.00    -0.648 OA
ATOM    115  OE2 GLU d   1      -4.198  52.334 -33.272  0.00  0.00    -0.648 OA
ENDBRANCH 110 113
ENDBRANCH 107 110
ENDBRANCH 102 107
ENDBRANCH 100 102
ENDBRANCH  96  98
BRANCH  96 116
ATOM    116  CB  THR d   1      -8.017  47.938 -26.173  0.00  0.00     0.060 C 
ATOM    117  H71 THR d   1      -7.260  47.977 -25.376  0.00  0.00     0.086 H 
BRANCH 116 118
ATOM    118  OG1 THR d   1      -9.123  47.142 -25.724  0.00  0.00    -0.393 OA
ATOM    119  H72 THR d   1      -9.511  47.545 -24.956  0.00  0.00     0.210 HD
ENDBRANCH 116 118
BRANCH 116 120
ATOM    120  CG2 THR d   1      -8.496  49.387 -26.469  0.00  0.00    -0.050 C 
ATOM    121  H73 THR d   1      -8.941  49.819 -25.560  0.00  0.00     0.031 H 
ATOM    122  H74 THR d   1      -9.248  49.368 -27.272  0.00  0.00     0.031 H 
ATOM    123  H75 THR d   1      -7.638  49.999 -26.784  0.00  0.00     0.031 H 
ENDBRANCH 116 120
ENDBRANCH  96 116
ENDBRANCH  94  96
ENDBRANCH  90  92
BRANCH  90 124
ATOM    124  CB  LEU d   1      -8.299  43.158 -25.729  0.00  0.00    -0.035 C 
ATOM    125  H60 LEU d   1      -9.327  43.253 -26.110  0.00  0.00     0.037 H 
ATOM    126  H61 LEU d   1      -8.131  43.903 -24.937  0.00  0.00     0.037 H 
BRANCH 124 127
ATOM    127  CG  LEU d   1      -8.173  41.769 -25.087  0.00  0.00    -0.059 C 
ATOM    128  H62 LEU d   1      -7.183  41.684 -24.615  0.00  0.00     0.038 H 
BRANCH 127 129
ATOM    129  CD1 LEU d   1      -9.246  41.671 -24.011  0.00  0.00    -0.073 C 
ATOM    130  H63 LEU d   1      -9.189  40.686 -23.525  0.00  0.00     0.028 H 
ATOM    131  H64 LEU d   1     -10.238  41.797 -24.470  0.00  0.00     0.028 H 
ATOM    132  H65 LEU d   1      -9.086  42.460 -23.261  0.00  0.00     0.028 H 
ENDBRANCH 127 129
BRANCH 127 133
ATOM    133  CD2 LEU d   1      -8.307  40.633 -26.126  0.00  0.00    -0.073 C 
ATOM    134  H66 LEU d   1      -7.518  40.736 -26.885  0.00  0.00     0.028 H 
ATOM    135  H67 LEU d   1      -9.293  40.694 -26.611  0.00  0.00     0.028 H 
ATOM    136  H68 LEU d   1      -8.206  39.661 -25.621  0.00  0.00     0.028 H 
ENDBRANCH 127 133
ENDBRANCH 124 127
ENDBRANCH  90 124
ENDBRANCH  88  90
ENDBRANCH  84  86
BRANCH  84 137
ATOM    137  CB  PHE d   1      -3.302  41.353 -26.053  0.00  0.00    -0.014 C 
ATOM    138  H51 PHE d   1      -4.031  41.185 -25.246  0.00  0.00     0.043 H 
ATOM    139  H52 PHE d   1      -2.286  41.364 -25.632  0.00  0.00     0.043 H 
BRANCH 137 140
ATOM    140  CG  PHE d   1      -3.399  40.210 -27.019  0.00  0.00    -0.056 A 
ATOM    141  CD1 PHE d   1      -2.365  39.951 -27.887  0.00  0.00    -0.077 A 
ATOM    142  CE1 PHE d   1      -2.421  38.869 -28.739  0.00  0.00    -0.082 A 
ATOM    143  H53 PHE d   1      -1.499  40.603 -27.901  0.00  0.00     0.084 H 
ATOM    144  CZ  PHE d   1      -3.532  38.030 -28.754  0.00  0.00    -0.083 A 
ATOM    145  H55 PHE d   1      -1.590  38.669 -29.405  0.00  0.00     0.083 H 
ATOM    146  CE2 PHE d   1      -4.585  38.279 -27.898  0.00  0.00    -0.082 A 
ATOM    147  H57 PHE d   1      -3.569  37.187 -29.434  0.00  0.00     0.083 H 
ATOM    148  CD2 PHE d   1      -4.526  39.362 -27.040  0.00  0.00    -0.077 A 
ATOM    149  H56 PHE d   1      -5.453  37.630 -27.898  0.00  0.00     0.083 H 
ATOM    150  H54 PHE d   1      -5.358  39.562 -26.374  0.00  0.00     0.084 H 
ENDBRANCH 137 140
ENDBRANCH  84 137
ENDBRANCH  82  84
ENDBRANCH  78  80
BRANCH  78 151
ATOM    151  CB  SER d   1      -4.524  45.590 -23.700  0.00  0.00     0.044 C 
ATOM    152  H46 SER d   1      -4.586  46.387 -22.944  0.00  0.00     0.077 H 
ATOM    153  H47 SER d   1      -4.362  44.623 -23.201  0.00  0.00     0.077 H 
BRANCH 151 154
ATOM    154  OG  SER d   1      -5.756  45.534 -24.393  0.00  0.00    -0.398 OA
ATOM    155  H48 SER d   1      -6.457  45.355 -23.777  0.00  0.00     0.209 HD
ENDBRANCH 151 154
ENDBRANCH  78 151
ENDBRANCH  76  78
ENDBRANCH   1  74
BRANCH   1 156
ATOM    156  CB  GLU d   1      -4.082  50.287 -24.409  0.00  0.00    -0.029 C 
ATOM    157  H40 GLU d   1      -4.804  49.734 -25.028  0.00  0.00     0.037 H 
ATOM    158  H41 GLU d   1      -4.022  51.328 -24.758  0.00  0.00     0.037 H 
BRANCH 156 159
ATOM    159  CG  GLU d   1      -4.595  50.295 -22.973  0.00  0.00     0.018 C 
ATOM    160  H42 GLU d   1      -3.953  50.951 -22.367  0.00  0.00     0.049 H 
ATOM    161  H43 GLU d   1      -4.555  49.271 -22.573  0.00  0.00     0.049 H 
BRANCH 159 162
ATOM    162  CD  GLU d   1      -6.013  50.794 -22.899  0.00  0.00     0.172 C 
ATOM    163  OE1 GLU d   1      -6.530  51.285 -23.921  0.00  0.00    -0.648 OA
ATOM    164  OE2 GLU d   1      -6.613  50.699 -21.820  0.00  0.00    -0.648 OA
ENDBRANCH 159 162
ENDBRANCH 156 159
ENDBRANCH   1 156
TORSDOF 51
