REMARK  4 active torsions:
REMARK  status: ('A' for Active; 'I' for Inactive)
REMARK    1  A    between atoms: C1_1  and  C2_2 
REMARK    2  A    between atoms: C11_10  and  C12_11 
REMARK    3  A    between atoms: C17_16  and  N18_17 
REMARK    4  A    between atoms: C19_18  and  C23_22 
REMARK       I    between atoms: C23_22  and  N24_23 
ROOT
ATOM      1  C12 4L6 d   1     -22.356  -7.866   2.857  0.00  0.00     0.006 A 
ATOM      2  C13 4L6 d   1     -23.270  -8.318   1.908  0.00  0.00    -0.070 A 
ATOM      3  C14 4L6 d   1     -23.107  -8.025   0.559  0.00  0.00    -0.081 A 
ATOM      4  C15 4L6 d   1     -22.053  -7.270   0.098  0.00  0.00    -0.068 A 
ATOM      5  C16 4L6 d   1     -21.100  -6.808   1.027  0.00  0.00     0.024 A 
ATOM      6  C17 4L6 d   1     -19.970  -6.037   0.606  0.00  0.00     0.075 A 
ATOM      7  C19 4L6 d   1     -19.079  -5.645   1.621  0.00  0.00     0.173 A 
ATOM      8  N20 4L6 d   1     -19.308  -5.982   2.900  0.00  0.00    -0.142 NA
ATOM      9  N21 4L6 d   1     -20.336  -6.659   3.283  0.00  0.00    -0.148 NA
ATOM     10  C22 4L6 d   1     -21.247  -7.099   2.406  0.00  0.00     0.102 A 
ATOM     11  H8  4L6 d   1     -24.122  -8.908   2.227  0.00  0.00     0.084 H 
ATOM     12  H9  4L6 d   1     -23.833  -8.403  -0.152  0.00  0.00     0.083 H 
ATOM     13  H10 4L6 d   1     -21.958  -7.036  -0.956  0.00  0.00     0.085 H 
ENDROOT
BRANCH   1  14
ATOM     14  C11 4L6 d   1     -22.514  -8.182   4.306  0.00  0.00    -0.015 A 
ATOM     15  C2  4L6 d   1     -21.707  -9.160   4.952  0.00  0.00    -0.050 A 
ATOM     16  C3  4L6 d   1     -21.862  -9.440   6.285  0.00  0.00    -0.063 A 
ATOM     17  C4  4L6 d   1     -22.841  -8.733   7.018  0.00  0.00     0.012 A 
ATOM     18  H4  4L6 d   1     -21.245 -10.190   6.767  0.00  0.00     0.085 H 
ATOM     19  C5  4L6 d   1     -23.255  -8.761   8.379  0.00  0.00     0.034 A 
ATOM     20  C9  4L6 d   1     -23.646  -7.759   6.375  0.00  0.00     0.062 A 
ATOM     21  N6  4L6 d   1     -24.216  -7.889   8.537  0.00  0.00    -0.186 NA
ATOM     22  H5  4L6 d   1     -22.841  -9.401   9.157  0.00  0.00     0.118 H 
ATOM     23  N7  4L6 d   1     -24.498  -7.247   7.331  0.00  0.00    -0.278 N 
ATOM     24  H6  4L6 d   1     -25.214  -6.521   7.181  0.00  0.00     0.189 HD
ATOM     25  C10 4L6 d   1     -23.482  -7.489   5.020  0.00  0.00    -0.044 A 
ATOM     26  H7  4L6 d   1     -24.102  -6.748   4.529  0.00  0.00     0.088 H 
BRANCH  15  27
ATOM     27  C1  4L6 d   1     -20.646  -9.934   4.190  0.00  0.00    -0.050 C 
ATOM     28  H1  4L6 d   1     -20.142 -10.634   4.873  0.00  0.00     0.033 H 
ATOM     29  H2  4L6 d   1     -19.908  -9.232   3.774  0.00  0.00     0.033 H 
ATOM     30  H3  4L6 d   1     -21.119 -10.497   3.372  0.00  0.00     0.033 H 
ENDBRANCH  15  27
ENDBRANCH   1  14
BRANCH   6  31
ATOM     31  N18 4L6 d   1     -19.768  -5.730  -0.727  0.00  0.00    -0.396 N 
ATOM     32  H11 4L6 d   1     -20.449  -6.039  -1.435  0.00  0.00     0.156 HD
ATOM     33  H12 4L6 d   1     -18.937  -5.192  -1.011  0.00  0.00     0.156 HD
ENDBRANCH   6  31
BRANCH   7  34
ATOM     34  C23 4L6 d   1     -17.843  -4.889   1.347  0.00  0.00     0.272 C 
ATOM     35  N24 4L6 d   1     -16.907  -4.841   2.324  0.00  0.00    -0.365 N 
ATOM     36  H13 4L6 d   1     -16.055  -4.338   2.176  0.00  0.00     0.159 HD
ATOM     37  H14 4L6 d   1     -17.067  -5.308   3.193  0.00  0.00     0.159 HD
ATOM     38  O25 4L6 d   1     -17.645  -4.356   0.261  0.00  0.00    -0.266 OA
ENDBRANCH   7  34
TORSDOF 4
