REMARK  0 active torsions:
REMARK  status: ('A' for Active; 'I' for Inactive)
ROOT
ATOM      1 PT   1PT d   1     -35.127 -10.599 -22.162  0.00  0.00     0.000 Pt
ATOM      2  N1  1PT d   1     -35.045 -12.390 -23.164  0.00  0.00     0.085 N 
ATOM      3  N2  1PT d   1     -36.569 -11.511 -21.052  0.00  0.00     0.085 N 
ATOM      4  C1  1PT d   1     -35.845 -13.385 -22.423  0.00  0.00     0.160 C 
ATOM      5  C2  1PT d   1     -37.044 -12.699 -21.804  0.00  0.00     0.160 C 
ATOM      6  C3  1PT d   1     -37.781 -13.702 -20.913  0.00  0.00    -0.034 C 
ATOM      7  C4  1PT d   1     -38.204 -14.955 -21.679  0.00  0.00    -0.063 C 
ATOM      8  C5  1PT d   1     -37.056 -15.554 -22.474  0.00  0.00    -0.063 C 
ATOM      9  C6  1PT d   1     -36.335 -14.508 -23.317  0.00  0.00    -0.034 C 
ATOM     10  H1  1PT d   1     -34.245 -12.843 -23.578  0.00  0.00     0.313 HD
ATOM     11  H3  1PT d   1     -35.610 -11.977 -23.889  0.00  0.00     0.313 HD
ATOM     12  H4  1PT d   1     -37.356 -11.042 -20.633  0.00  0.00     0.313 HD
ATOM     13  H6  1PT d   1     -35.929 -11.804 -20.330  0.00  0.00     0.313 HD
ATOM     14  H7  1PT d   1     -35.220 -13.815 -21.626  0.00  0.00     0.091 H 
ATOM     15  H8  1PT d   1     -37.727 -12.365 -22.599  0.00  0.00     0.091 H 
ATOM     16  H9  1PT d   1     -38.679 -13.218 -20.503  0.00  0.00     0.036 H 
ATOM     17  H10 1PT d   1     -37.116 -13.999 -20.089  0.00  0.00     0.036 H 
ATOM     18  H11 1PT d   1     -39.015 -14.690 -22.373  0.00  0.00     0.033 H 
ATOM     19  H12 1PT d   1     -38.567 -15.705 -20.960  0.00  0.00     0.033 H 
ATOM     20  H13 1PT d   1     -37.455 -16.333 -23.140  0.00  0.00     0.033 H 
ATOM     21  H14 1PT d   1     -36.336 -16.003 -21.774  0.00  0.00     0.033 H 
ATOM     22  H15 1PT d   1     -35.477 -14.974 -23.823  0.00  0.00     0.036 H 
ATOM     23  H16 1PT d   1     -37.028 -14.102 -24.068  0.00  0.00     0.036 H 
ENDROOT
TORSDOF 0
