REMARK  28 active torsions:
REMARK  status: ('A' for Active; 'I' for Inactive)
REMARK    1  A    between atoms: N_1  and  CA_2 
REMARK    2  A    between atoms: CA_2  and  CB_3 
REMARK    3  A    between atoms: CA_2  and  C_15 
REMARK    4  A    between atoms: CB_3  and  CG_4 
REMARK    5  A    between atoms: CZ_9  and  OH_10 
REMARK    6  A    between atoms: OH_10  and  S_11 
REMARK       I    between atoms: C_15  and  N_17 
REMARK    7  A    between atoms: N_17  and  CA_18 
REMARK    8  A    between atoms: CA_18  and  C_19 
REMARK    9  A    between atoms: CA_18  and  CB_21 
REMARK       I    between atoms: C_19  and  N_25 
REMARK   10  A    between atoms: CB_21  and  CG1_22 
REMARK   11  A    between atoms: CB_21  and  CG2_23 
REMARK   12  A    between atoms: CG1_22  and  CD1_24 
REMARK   13  A    between atoms: N_25  and  CA_26 
REMARK   14  A    between atoms: CA_26  and  CB_27 
REMARK   15  A    between atoms: CA_26  and  C_39 
REMARK   16  A    between atoms: CB_27  and  CG_28 
REMARK   17  A    between atoms: CZ_33  and  OH_34 
REMARK   18  A    between atoms: OH_34  and  S_35 
REMARK       I    between atoms: C_39  and  N_41 
REMARK   19  A    between atoms: N_41  and  CA_42 
REMARK   20  A    between atoms: CA_42  and  C_43 
REMARK   21  A    between atoms: CA_42  and  CB_45 
REMARK       I    between atoms: C_43  and  N_48 
REMARK   22  A    between atoms: CB_45  and  OG1_46 
REMARK   23  A    between atoms: CB_45  and  CG2_47 
REMARK   24  A    between atoms: N_48  and  CA_49 
REMARK   25  A    between atoms: CA_49  and  C_50 
REMARK   26  A    between atoms: CA_49  and  CB_52 
REMARK   27  A    between atoms: CB_52  and  CG_53 
REMARK   28  A    between atoms: CG_53  and  CD_54 
REMARK       I    between atoms: CD_54  and  NE2_56 
ROOT
ATOM      1  CA  TYS d   1     -62.558  29.024  -8.298  0.00  0.00     0.093 C 
ATOM      2  H23 TYS d   1     -63.043  29.823  -7.718  0.00  0.00     0.088 H 
ENDROOT
BRANCH   1   3
ATOM      3  N   TYS d   1     -61.358  29.553  -8.945  0.00  0.00    -0.346 N 
ATOM      4  C   ILE d   1     -61.149  30.853  -9.127  0.00  0.00     0.241 C 
ATOM      5  O   ILE d   1     -61.993  31.715  -8.860  0.00  0.00    -0.271 OA
ATOM      6  H22 TYS d   1     -60.664  28.908  -9.265  0.00  0.00     0.163 HD
BRANCH   4   7
ATOM      7  CA  ILE d   1     -59.788  31.237  -9.703  0.00  0.00     0.092 C 
ATOM      8  H12 ILE d   1     -59.341  30.348 -10.171  0.00  0.00     0.088 H 
BRANCH   7   9
ATOM      9  N   ILE d   1     -59.942  32.267 -10.716  0.00  0.00    -0.346 N 
ATOM     10  C   TYS d   1     -59.827  32.028 -12.018  0.00  0.00     0.249 C 
ATOM     11  O   TYS d   1     -59.575  30.919 -12.486  0.00  0.00    -0.271 OA
ATOM     12  H11 ILE d   1     -60.144  33.200 -10.419  0.00  0.00     0.163 HD
BRANCH  10  13
ATOM     13  CA  TYS d   1     -60.030  33.232 -12.931  0.00  0.00     0.179 C 
ATOM     14  H4  TYS d   1     -59.322  34.016 -12.623  0.00  0.00     0.099 H 
BRANCH  13  15
ATOM     15  N   TYS d   1     -59.756  32.882 -14.315  0.00  0.00    -0.066 N 
ATOM     16  H1  TYS d   1     -59.896  33.691 -14.900  0.00  0.00     0.275 HD
ATOM     17  H2  TYS d   1     -60.380  32.145 -14.605  0.00  0.00     0.275 HD
ATOM     18  H3  TYS d   1     -58.802  32.567 -14.399  0.00  0.00     0.275 HD
ENDBRANCH  13  15
BRANCH  13  19
ATOM     19  CB  TYS d   1     -61.451  33.797 -12.819  0.00  0.00    -0.006 C 
ATOM     20  H5  TYS d   1     -61.502  34.722 -13.412  0.00  0.00     0.043 H 
ATOM     21  H6  TYS d   1     -61.648  34.028 -11.762  0.00  0.00     0.043 H 
BRANCH  19  22
ATOM     22  CG  TYS d   1     -62.529  32.860 -13.309  0.00  0.00    -0.056 A 
ATOM     23  CD1 TYS d   1     -63.142  31.978 -12.439  0.00  0.00    -0.074 A 
ATOM     24  CE1 TYS d   1     -64.129  31.119 -12.869  0.00  0.00    -0.049 A 
ATOM     25  H7  TYS d   1     -62.840  31.962 -11.398  0.00  0.00     0.084 H 
ATOM     26  CZ  TYS d   1     -64.525  31.130 -14.185  0.00  0.00     0.092 A 
ATOM     27  H9  TYS d   1     -64.594  30.434 -12.169  0.00  0.00     0.087 H 
ATOM     28  CE2 TYS d   1     -63.928  31.996 -15.083  0.00  0.00    -0.049 A 
ATOM     29  CD2 TYS d   1     -62.937  32.859 -14.638  0.00  0.00    -0.074 A 
ATOM     30  H10 TYS d   1     -64.231  32.000 -16.124  0.00  0.00     0.087 H 
ATOM     31  H8  TYS d   1     -62.473  33.544 -15.338  0.00  0.00     0.084 H 
BRANCH  26  32
ATOM     32  OH  TYS d   1     -65.461  30.291 -14.535  0.00  0.00    -0.214 OA
BRANCH  32  33
ATOM     33  S   TYS d   1     -66.429  30.498 -15.813  0.00  0.00     0.257 S 
ATOM     34  O1  TYS d   1     -65.690  30.030 -17.010  0.00  0.00    -0.572 OA
ATOM     35  O2  TYS d   1     -66.803  31.983 -15.983  0.00  0.00    -0.572 OA
ATOM     36  O3  TYS d   1     -67.695  29.641 -15.601  0.00  0.00    -0.572 OA
ENDBRANCH  32  33
ENDBRANCH  26  32
ENDBRANCH  19  22
ENDBRANCH  13  19
ENDBRANCH  10  13
ENDBRANCH   7   9
BRANCH   7  37
ATOM     37  CB  ILE d   1     -58.847  31.728  -8.576  0.00  0.00    -0.030 C 
ATOM     38  H13 ILE d   1     -59.279  32.641  -8.141  0.00  0.00     0.043 H 
BRANCH  37  39
ATOM     39  CG1 ILE d   1     -57.473  32.075  -9.160  0.00  0.00    -0.063 C 
ATOM     40  H14 ILE d   1     -57.627  32.675 -10.069  0.00  0.00     0.033 H 
ATOM     41  H15 ILE d   1     -56.963  31.136  -9.422  0.00  0.00     0.033 H 
BRANCH  39  42
ATOM     42  CD1 ILE d   1     -56.571  32.860  -8.218  0.00  0.00    -0.076 C 
ATOM     43  H19 ILE d   1     -55.611  33.065  -8.715  0.00  0.00     0.027 H 
ATOM     44  H20 ILE d   1     -56.393  32.272  -7.306  0.00  0.00     0.027 H 
ATOM     45  H21 ILE d   1     -57.057  33.811  -7.953  0.00  0.00     0.027 H 
ENDBRANCH  39  42
ENDBRANCH  37  39
BRANCH  37  46
ATOM     46  CG2 ILE d   1     -58.721  30.704  -7.479  0.00  0.00    -0.071 C 
ATOM     47  H16 ILE d   1     -59.718  30.473  -7.077  0.00  0.00     0.028 H 
ATOM     48  H17 ILE d   1     -58.086  31.104  -6.675  0.00  0.00     0.028 H 
ATOM     49  H18 ILE d   1     -58.267  29.787  -7.883  0.00  0.00     0.028 H 
ENDBRANCH  37  46
ENDBRANCH   7  37
ENDBRANCH   4   7
ENDBRANCH   1   3
BRANCH   1  50
ATOM     50  CB  TYS d   1     -63.557  28.518  -9.349  0.00  0.00    -0.014 C 
ATOM     51  H24 TYS d   1     -63.790  29.355 -10.024  0.00  0.00     0.043 H 
ATOM     52  H25 TYS d   1     -64.471  28.206  -8.823  0.00  0.00     0.043 H 
BRANCH  50  53
ATOM     53  CG  TYS d   1     -63.085  27.349 -10.200  0.00  0.00    -0.056 A 
ATOM     54  CD1 TYS d   1     -63.460  26.043  -9.896  0.00  0.00    -0.074 A 
ATOM     55  CE1 TYS d   1     -63.041  24.978 -10.682  0.00  0.00    -0.049 A 
ATOM     56  H26 TYS d   1     -64.088  25.855  -9.033  0.00  0.00     0.084 H 
ATOM     57  CZ  TYS d   1     -62.227  25.210 -11.787  0.00  0.00     0.092 A 
ATOM     58  H28 TYS d   1     -63.347  23.968 -10.436  0.00  0.00     0.087 H 
ATOM     59  CE2 TYS d   1     -61.847  26.500 -12.099  0.00  0.00    -0.049 A 
ATOM     60  CD2 TYS d   1     -62.270  27.553 -11.317  0.00  0.00    -0.074 A 
ATOM     61  H29 TYS d   1     -61.215  26.685 -12.960  0.00  0.00     0.087 H 
ATOM     62  H27 TYS d   1     -61.964  28.561 -11.574  0.00  0.00     0.084 H 
BRANCH  57  63
ATOM     63  OH  TYS d   1     -61.796  24.212 -12.532  0.00  0.00    -0.214 OA
BRANCH  63  64
ATOM     64  S   TYS d   1     -62.704  23.578 -13.705  0.00  0.00     0.257 S 
ATOM     65  O1  TYS d   1     -62.991  24.670 -14.659  0.00  0.00    -0.572 OA
ATOM     66  O2  TYS d   1     -61.943  22.470 -14.449  0.00  0.00    -0.572 OA
ATOM     67  O3  TYS d   1     -64.000  22.997 -13.119  0.00  0.00    -0.572 OA
ENDBRANCH  63  64
ENDBRANCH  57  63
ENDBRANCH  50  53
ENDBRANCH   1  50
BRANCH   1  68
ATOM     68  C   TYS d   1     -62.098  27.924  -7.339  0.00  0.00     0.241 C 
ATOM     69  O   TYS d   1     -60.906  27.603  -7.333  0.00  0.00    -0.271 OA
ATOM     70  N   THR d   1     -62.999  27.389  -6.514  0.00  0.00    -0.344 N 
ATOM     71  H30 THR d   1     -63.872  27.853  -6.361  0.00  0.00     0.163 HD
BRANCH  70  72
ATOM     72  CA  THR d   1     -62.715  26.126  -5.832  0.00  0.00     0.113 C 
ATOM     73  H31 THR d   1     -61.739  25.765  -6.188  0.00  0.00     0.091 H 
BRANCH  72  74
ATOM     74  C   THR d   1     -63.775  25.118  -6.219  0.00  0.00     0.243 C 
ATOM     75  O   THR d   1     -64.729  25.459  -6.888  0.00  0.00    -0.271 OA
ATOM     76  N   GLN d   1     -63.621  23.874  -5.797  0.00  0.00    -0.345 N 
ATOM     77  H37 GLN d   1     -62.824  23.627  -5.245  0.00  0.00     0.163 HD
BRANCH  76  78
ATOM     78  CA  GLN d   1     -64.616  22.862  -6.138  0.00  0.00     0.096 C 
ATOM     79  H38 GLN d   1     -65.612  23.289  -5.948  0.00  0.00     0.089 H 
BRANCH  78  80
ATOM     80  C   GLN d   1     -64.458  21.626  -5.277  0.00  0.00     0.196 C 
ATOM     81  O   GLN d   1     -65.244  20.685  -5.382  0.00  0.00    -0.646 OA
ATOM     82  OXT GLN d   1     -63.522  21.542  -4.489  0.00  0.00    -0.646 OA
ENDBRANCH  78  80
BRANCH  78  83
ATOM     83  CB  GLN d   1     -64.536  22.473  -7.625  0.00  0.00    -0.029 C 
ATOM     84  H39 GLN d   1     -64.641  23.389  -8.224  0.00  0.00     0.037 H 
ATOM     85  H40 GLN d   1     -65.372  21.793  -7.846  0.00  0.00     0.037 H 
BRANCH  83  86
ATOM     86  CG  GLN d   1     -63.246  21.785  -8.036  0.00  0.00     0.011 C 
ATOM     87  H41 GLN d   1     -63.099  20.901  -7.398  0.00  0.00     0.047 H 
ATOM     88  H42 GLN d   1     -62.410  22.485  -7.890  0.00  0.00     0.047 H 
BRANCH  86  89
ATOM     89  CD  GLN d   1     -63.261  21.340  -9.492  0.00  0.00     0.215 C 
ATOM     90  OE1 GLN d   1     -64.252  20.793  -9.979  0.00  0.00    -0.274 OA
ATOM     91  NE2 GLN d   1     -62.162  21.582 -10.192  0.00  0.00    -0.370 N 
ATOM     92  H43 GLN d   1     -62.112  21.313 -11.154  0.00  0.00     0.159 HD
ATOM     93  H44 GLN d   1     -61.382  22.034  -9.758  0.00  0.00     0.159 HD
ENDBRANCH  86  89
ENDBRANCH  83  86
ENDBRANCH  78  83
ENDBRANCH  76  78
ENDBRANCH  72  74
BRANCH  72  94
ATOM     94  CB  THR d   1     -62.637  26.239  -4.282  0.00  0.00     0.060 C 
ATOM     95  H32 THR d   1     -62.241  25.290  -3.892  0.00  0.00     0.086 H 
BRANCH  94  96
ATOM     96  OG1 THR d   1     -63.945  26.436  -3.727  0.00  0.00    -0.393 OA
ATOM     97  H33 THR d   1     -63.880  26.503  -2.782  0.00  0.00     0.210 HD
ENDBRANCH  94  96
BRANCH  94  98
ATOM     98  CG2 THR d   1     -61.687  27.353  -3.852  0.00  0.00    -0.050 C 
ATOM     99  H34 THR d   1     -61.656  27.405  -2.754  0.00  0.00     0.031 H 
ATOM    100  H35 THR d   1     -62.042  28.313  -4.254  0.00  0.00     0.031 H 
ATOM    101  H36 THR d   1     -60.678  27.144  -4.238  0.00  0.00     0.031 H 
ENDBRANCH  94  98
ENDBRANCH  72  94
ENDBRANCH  70  72
ENDBRANCH   1  68
TORSDOF 28
