REMARK WARNING: 32 MAX_TORS EXCEEDED!!!
REMARK  52 active torsions:
REMARK  status: ('A' for Active; 'I' for Inactive)
REMARK    1  A    between atoms: N_1  and  CA_2 
REMARK    2  A    between atoms: CA_2  and  C_3 
REMARK    3  A    between atoms: CA_2  and  CB_5 
REMARK       I    between atoms: C_3  and  N_10 
REMARK    4  A    between atoms: CB_5  and  CG_6 
REMARK    5  A    between atoms: CG_6  and  CD_7 
REMARK    6  A    between atoms: N_10  and  CA_11 
REMARK    7  A    between atoms: CA_11  and  C_12 
REMARK    8  A    between atoms: CA_11  and  CB_14 
REMARK       I    between atoms: C_12  and  N_18 
REMARK    9  A    between atoms: CB_14  and  CG1_15 
REMARK   10  A    between atoms: CB_14  and  CG2_16 
REMARK   11  A    between atoms: CG1_15  and  CD1_17 
REMARK   12  A    between atoms: N_18  and  CA_19 
REMARK   13  A    between atoms: CA_19  and  C_20 
REMARK   14  A    between atoms: CA_19  and  CB_22 
REMARK       I    between atoms: C_20  and  N_29 
REMARK   15  A    between atoms: CB_22  and  CG_23 
REMARK   16  A    between atoms: CG_23  and  CD_24 
REMARK   17  A    between atoms: CD_24  and  NE_25 
REMARK       I    between atoms: NE_25  and  CZ_26 
REMARK       I    between atoms: CZ_26  and  NH1_27 
REMARK   18  A    between atoms: N_29  and  CA_30 
REMARK   19  A    between atoms: CA_30  and  C_31 
REMARK   20  A    between atoms: CA_30  and  CB_33 
REMARK       I    between atoms: C_31  and  N_38 
REMARK   21  A    between atoms: CB_33  and  CG_34 
REMARK   22  A    between atoms: CG_34  and  CD_35 
REMARK   23  A    between atoms: N_38  and  CA_39 
REMARK   24  A    between atoms: CA_39  and  C_40 
REMARK   25  A    between atoms: CA_39  and  CB_42 
REMARK       I    between atoms: C_40  and  N_47 
REMARK   26  A    between atoms: CB_42  and  CG_43 
REMARK   27  A    between atoms: CG_43  and  CD_44 
REMARK       I    between atoms: CD_44  and  NE2_46 
REMARK   28  A    between atoms: N_47  and  CA_48 
REMARK   29  A    between atoms: CA_48  and  C_49 
REMARK       I    between atoms: C_49  and  N_51 
REMARK   30  A    between atoms: N_51  and  CA_52 
REMARK   31  A    between atoms: CA_52  and  C_53 
REMARK   32  A    between atoms: CA_52  and  CB_55 
REMARK       I    between atoms: C_53  and  N_59 
REMARK   33  A    between atoms: CB_55  and  CG_56 
REMARK   34  A    between atoms: N_59  and  CA_60 
REMARK   35  A    between atoms: CA_60  and  C_61 
REMARK       I    between atoms: C_61  and  N_63 
REMARK   36  A    between atoms: N_63  and  CA_64 
REMARK   37  A    between atoms: CA_64  and  C_65 
REMARK   38  A    between atoms: CA_64  and  CB_67 
REMARK       I    between atoms: C_65  and  N_68 
REMARK   39  A    between atoms: N_68  and  CA_69 
REMARK   40  A    between atoms: CA_69  and  C_70 
REMARK   41  A    between atoms: CA_69  and  CB_72 
REMARK       I    between atoms: C_70  and  N_77 
REMARK   42  A    between atoms: CB_72  and  CG_73 
REMARK   43  A    between atoms: CG_73  and  CD_74 
REMARK   44  A    between atoms: N_77  and  CA_78 
REMARK   45  A    between atoms: CA_78  and  C_79 
REMARK   46  A    between atoms: CA_78  and  CB_81 
REMARK       I    between atoms: C_79  and  N_85 
REMARK   47  A    between atoms: CB_81  and  CG_82 
REMARK   48  A    between atoms: N_85  and  CA_86 
REMARK   49  A    between atoms: CA_86  and  C_87 
REMARK   50  A    between atoms: CA_86  and  CB_89 
REMARK   51  A    between atoms: CB_89  and  CG_90 
REMARK   52  A    between atoms: CG_90  and  CD_91 
ROOT
ATOM      1  CA  GLN d   1      -4.738  -7.591  13.058  0.00  0.00     0.090 C 
ATOM      2  H40 GLN d   1      -4.539  -6.893  12.232  0.00  0.00     0.087 H 
ENDROOT
BRANCH   1   3
ATOM      3  N   GLN d   1      -3.472  -8.255  13.394  0.00  0.00    -0.346 N 
ATOM      4  C   GLU d   1      -2.285  -7.648  13.265  0.00  0.00     0.241 C 
ATOM      5  O   GLU d   1      -2.169  -6.442  13.027  0.00  0.00    -0.271 OA
ATOM      6  H39 GLN d   1      -3.497  -9.196  13.732  0.00  0.00     0.163 HD
BRANCH   4   7
ATOM      7  CA  GLU d   1      -1.037  -8.518  13.456  0.00  0.00     0.090 C 
ATOM      8  H34 GLU d   1      -1.282  -9.540  13.133  0.00  0.00     0.087 H 
BRANCH   7   9
ATOM      9  N   GLU d   1       0.111  -8.052  12.662  0.00  0.00    -0.346 N 
ATOM     10  C   ARG d   1       0.352  -8.481  11.420  0.00  0.00     0.241 C 
ATOM     11  O   ARG d   1      -0.350  -9.318  10.852  0.00  0.00    -0.271 OA
ATOM     12  H33 GLU d   1       0.737  -7.387  13.069  0.00  0.00     0.163 HD
BRANCH  10  13
ATOM     13  CA  ARG d   1       1.562  -7.880  10.703  0.00  0.00     0.089 C 
ATOM     14  H21 ARG d   1       2.133  -7.281  11.428  0.00  0.00     0.087 H 
BRANCH  13  15
ATOM     15  N   ARG d   1       2.440  -8.942  10.198  0.00  0.00    -0.346 N 
ATOM     16  C   ILE d   1       3.207  -9.614  11.057  0.00  0.00     0.241 C 
ATOM     17  O   ILE d   1       3.280  -9.298  12.241  0.00  0.00    -0.271 OA
ATOM     18  H20 ARG d   1       2.463  -9.159   9.222  0.00  0.00     0.163 HD
BRANCH  16  19
ATOM     19  CA  ILE d   1       4.032 -10.790  10.527  0.00  0.00     0.092 C 
ATOM     20  H10 ILE d   1       4.228 -10.637   9.456  0.00  0.00     0.088 H 
BRANCH  19  21
ATOM     21  N   ILE d   1       5.308 -10.846  11.239  0.00  0.00    -0.346 N 
ATOM     22  C   GLU d   1       6.256  -9.934  11.025  0.00  0.00     0.249 C 
ATOM     23  O   GLU d   1       6.128  -9.031  10.203  0.00  0.00    -0.271 OA
ATOM     24  H9  ILE d   1       5.472 -11.581  11.897  0.00  0.00     0.163 HD
BRANCH  22  25
ATOM     25  CA  GLU d   1       7.531 -10.039  11.862  0.00  0.00     0.176 C 
ATOM     26  H4  GLU d   1       7.732 -11.102  12.061  0.00  0.00     0.099 H 
BRANCH  25  27
ATOM     27  N   GLU d   1       8.668  -9.478  11.137  0.00  0.00    -0.066 N 
ATOM     28  H1  GLU d   1       9.499  -9.556  11.703  0.00  0.00     0.275 HD
ATOM     29  H2  GLU d   1       8.490  -8.507  10.932  0.00  0.00     0.275 HD
ATOM     30  H3  GLU d   1       8.800  -9.984  10.275  0.00  0.00     0.275 HD
ENDBRANCH  25  27
BRANCH  25  31
ATOM     31  CB  GLU d   1       7.349  -9.316  13.204  0.00  0.00    -0.021 C 
ATOM     32  H5  GLU d   1       8.347  -9.053  13.585  0.00  0.00     0.037 H 
ATOM     33  H6  GLU d   1       6.863 -10.014  13.902  0.00  0.00     0.037 H 
BRANCH  31  34
ATOM     34  CG  GLU d   1       6.512  -8.040  13.157  0.00  0.00     0.018 C 
ATOM     35  H7  GLU d   1       6.115  -7.851  14.165  0.00  0.00     0.049 H 
ATOM     36  H8  GLU d   1       5.678  -8.201  12.459  0.00  0.00     0.049 H 
BRANCH  34  37
ATOM     37  CD  GLU d   1       7.280  -6.801  12.706  0.00  0.00     0.172 C 
ATOM     38  OE1 GLU d   1       6.946  -5.700  13.200  0.00  0.00    -0.648 OA
ATOM     39  OE2 GLU d   1       8.190  -6.906  11.855  0.00  0.00    -0.648 OA
ENDBRANCH  34  37
ENDBRANCH  31  34
ENDBRANCH  25  31
ENDBRANCH  22  25
ENDBRANCH  19  21
BRANCH  19  40
ATOM     40  CB  ILE d   1       3.244 -12.114  10.706  0.00  0.00    -0.030 C 
ATOM     41  H11 ILE d   1       3.847 -12.929  10.280  0.00  0.00     0.043 H 
BRANCH  40  42
ATOM     42  CG1 ILE d   1       1.908 -12.069   9.957  0.00  0.00    -0.063 C 
ATOM     43  H12 ILE d   1       2.115 -12.021   8.878  0.00  0.00     0.033 H 
ATOM     44  H13 ILE d   1       1.365 -11.164  10.267  0.00  0.00     0.033 H 
BRANCH  42  45
ATOM     45  CD1 ILE d   1       1.025 -13.275  10.225  0.00  0.00    -0.076 C 
ATOM     46  H17 ILE d   1       0.088 -13.176   9.658  0.00  0.00     0.027 H 
ATOM     47  H18 ILE d   1       0.799 -13.332  11.300  0.00  0.00     0.027 H 
ATOM     48  H19 ILE d   1       1.549 -14.190   9.911  0.00  0.00     0.027 H 
ENDBRANCH  42  45
ENDBRANCH  40  42
BRANCH  40  49
ATOM     49  CG2 ILE d   1       3.016 -12.412  12.180  0.00  0.00    -0.071 C 
ATOM     50  H14 ILE d   1       3.984 -12.441  12.702  0.00  0.00     0.028 H 
ATOM     51  H15 ILE d   1       2.514 -13.385  12.284  0.00  0.00     0.028 H 
ATOM     52  H16 ILE d   1       2.385 -11.625  12.620  0.00  0.00     0.028 H 
ENDBRANCH  40  49
ENDBRANCH  19  40
ENDBRANCH  16  19
ENDBRANCH  13  15
BRANCH  13  53
ATOM     53  CB  ARG d   1       1.095  -6.952   9.577  0.00  0.00    -0.036 C 
ATOM     54  H22 ARG d   1       0.613  -7.562   8.799  0.00  0.00     0.036 H 
ATOM     55  H23 ARG d   1       1.975  -6.446   9.154  0.00  0.00     0.036 H 
BRANCH  53  56
ATOM     56  CG  ARG d   1       0.101  -5.888  10.044  0.00  0.00    -0.048 C 
ATOM     57  H24 ARG d   1       0.612  -5.216  10.749  0.00  0.00     0.035 H 
ATOM     58  H25 ARG d   1      -0.735  -6.389  10.554  0.00  0.00     0.035 H 
BRANCH  56  59
ATOM     59  CD  ARG d   1      -0.460  -5.052   8.894  0.00  0.00     0.009 C 
ATOM     60  H26 ARG d   1      -0.959  -5.712   8.169  0.00  0.00     0.064 H 
ATOM     61  H27 ARG d   1       0.361  -4.515   8.396  0.00  0.00     0.064 H 
BRANCH  59  62
ATOM     62  NE  ARG d   1      -1.423  -4.090   9.421  0.00  0.00    -0.227 N 
ATOM     63  CZ  ARG d   1      -2.735  -4.299   9.474  0.00  0.00     0.665 C 
ATOM     64  NH1 ARG d   1      -3.250  -5.425   9.001  0.00  0.00    -0.235 N 
ATOM     65  NH2 ARG d   1      -3.532  -3.379   9.999  0.00  0.00    -0.235 N 
ATOM     66  H29 ARG d   1      -4.267  -5.584   9.043  0.00  0.00     0.174 HD
ATOM     67  H30 ARG d   1      -2.633  -6.141   8.591  0.00  0.00     0.174 HD
ATOM     68  H31 ARG d   1      -3.135  -2.503  10.367  0.00  0.00     0.174 HD
ATOM     69  H32 ARG d   1      -4.548  -3.540  10.039  0.00  0.00     0.174 HD
ATOM     70  H28 ARG d   1      -1.063  -3.192   9.774  0.00  0.00     0.177 HD
ENDBRANCH  59  62
ENDBRANCH  56  59
ENDBRANCH  53  56
ENDBRANCH  13  53
ENDBRANCH  10  13
ENDBRANCH   7   9
BRANCH   7  71
ATOM     71  CB  GLU d   1      -0.657  -8.550  14.934  0.00  0.00    -0.029 C 
ATOM     72  H35 GLU d   1      -1.551  -8.814  15.518  0.00  0.00     0.037 H 
ATOM     73  H36 GLU d   1      -0.310  -7.548  15.227  0.00  0.00     0.037 H 
BRANCH  71  74
ATOM     74  CG  GLU d   1       0.436  -9.548  15.252  0.00  0.00     0.018 C 
ATOM     75  H37 GLU d   1       0.787  -9.374  16.280  0.00  0.00     0.049 H 
ATOM     76  H38 GLU d   1       1.269  -9.398  14.549  0.00  0.00     0.049 H 
BRANCH  74  77
ATOM     77  CD  GLU d   1      -0.049 -10.977  15.137  0.00  0.00     0.172 C 
ATOM     78  OE1 GLU d   1      -0.921 -11.373  15.943  0.00  0.00    -0.648 OA
ATOM     79  OE2 GLU d   1       0.433 -11.703  14.240  0.00  0.00    -0.648 OA
ENDBRANCH  74  77
ENDBRANCH  71  74
ENDBRANCH   7  71
ENDBRANCH   4   7
ENDBRANCH   1   3
BRANCH   1  80
ATOM     80  C   GLN d   1      -5.335  -6.801  14.212  0.00  0.00     0.240 C 
ATOM     81  O   GLN d   1      -6.273  -6.013  14.027  0.00  0.00    -0.271 OA
ATOM     82  N   GLY d   1      -4.811  -7.036  15.405  0.00  0.00    -0.351 N 
ATOM     83  H47 GLY d   1      -4.042  -7.670  15.487  0.00  0.00     0.163 HD
BRANCH  82  84
ATOM     84  CA  GLY d   1      -5.331  -6.391  16.595  0.00  0.00     0.069 C 
ATOM     85  H48 GLY d   1      -5.937  -5.521  16.301  0.00  0.00     0.078 H 
ATOM     86  H49 GLY d   1      -4.492  -6.058  17.224  0.00  0.00     0.078 H 
BRANCH  84  87
ATOM     87  C   GLY d   1      -6.191  -7.357  17.380  0.00  0.00     0.236 C 
ATOM     88  O   GLY d   1      -6.471  -8.470  16.915  0.00  0.00    -0.272 OA
ATOM     89  N   ASP d   1      -6.614  -6.934  18.567  0.00  0.00    -0.346 N 
ATOM     90  H50 ASP d   1      -6.386  -6.008  18.867  0.00  0.00     0.163 HD
BRANCH  89  91
ATOM     91  CA  ASP d   1      -7.402  -7.791  19.439  0.00  0.00     0.098 C 
ATOM     92  H51 ASP d   1      -6.976  -8.805  19.413  0.00  0.00     0.088 H 
BRANCH  91  93
ATOM     93  C   ASP d   1      -8.840  -7.855  18.972  0.00  0.00     0.241 C 
ATOM     94  O   ASP d   1      -9.432  -6.840  18.598  0.00  0.00    -0.271 OA
ATOM     95  N   GLY d   1      -9.405  -9.052  19.003  0.00  0.00    -0.351 N 
ATOM     96  H54 GLY d   1      -8.874  -9.848  19.293  0.00  0.00     0.163 HD
BRANCH  95  97
ATOM     97  CA  GLY d   1     -10.793  -9.209  18.617  0.00  0.00     0.069 C 
ATOM     98  H55 GLY d   1     -11.003  -8.556  17.757  0.00  0.00     0.078 H 
ATOM     99  H56 GLY d   1     -11.436  -8.921  19.462  0.00  0.00     0.078 H 
BRANCH  97 100
ATOM    100  C   GLY d   1     -11.090 -10.637  18.236  0.00  0.00     0.236 C 
ATOM    101  O   GLY d   1     -10.249 -11.523  18.419  0.00  0.00    -0.272 OA
ATOM    102  N   ALA d   1     -12.283 -10.854  17.693  0.00  0.00    -0.347 N 
ATOM    103  H57 ALA d   1     -12.897 -10.077  17.553  0.00  0.00     0.163 HD
BRANCH 102 104
ATOM    104  CA  ALA d   1     -12.730 -12.184  17.294  0.00  0.00     0.086 C 
ATOM    105  H58 ALA d   1     -11.853 -12.806  17.064  0.00  0.00     0.086 H 
BRANCH 104 106
ATOM    106  C   ALA d   1     -13.603 -12.075  16.058  0.00  0.00     0.240 C 
ATOM    107  O   ALA d   1     -14.284 -11.066  15.861  0.00  0.00    -0.271 OA
ATOM    108  N   GLU d   1     -13.609 -13.115  15.232  0.00  0.00    -0.346 N 
ATOM    109  H62 GLU d   1     -12.989 -13.883  15.396  0.00  0.00     0.163 HD
BRANCH 108 110
ATOM    110  CA  GLU d   1     -14.516 -13.146  14.084  0.00  0.00     0.090 C 
ATOM    111  H63 GLU d   1     -14.457 -12.177  13.567  0.00  0.00     0.087 H 
BRANCH 110 112
ATOM    112  C   GLU d   1     -15.952 -13.384  14.524  0.00  0.00     0.241 C 
ATOM    113  O   GLU d   1     -16.195 -14.000  15.563  0.00  0.00    -0.271 OA
ATOM    114  N   ASP d   1     -16.906 -12.898  13.730  0.00  0.00    -0.346 N 
ATOM    115  H68 ASP d   1     -16.660 -12.255  13.005  0.00  0.00     0.163 HD
BRANCH 114 116
ATOM    116  CA  ASP d   1     -18.297 -13.284  13.898  0.00  0.00     0.098 C 
ATOM    117  H69 ASP d   1     -18.554 -13.314  14.967  0.00  0.00     0.088 H 
BRANCH 116 118
ATOM    118  C   ASP d   1     -18.457 -14.663  13.277  0.00  0.00     0.241 C 
ATOM    119  O   ASP d   1     -17.662 -15.050  12.418  0.00  0.00    -0.271 OA
ATOM    120  N   GLU d   1     -19.479 -15.396  13.702  0.00  0.00    -0.345 N 
ATOM    121  H72 GLU d   1     -20.075 -15.036  14.420  0.00  0.00     0.163 HD
BRANCH 120 122
ATOM    122  CA  GLU d   1     -19.752 -16.719  13.143  0.00  0.00     0.097 C 
ATOM    123  H73 GLU d   1     -18.811 -17.289  13.142  0.00  0.00     0.089 H 
BRANCH 122 124
ATOM    124  C   GLU d   1     -20.257 -16.631  11.704  0.00  0.00     0.196 C 
ATOM    125  O   GLU d   1     -21.197 -15.891  11.408  0.00  0.00    -0.646 OA
ATOM    126  OXT GLU d   1     -19.735 -17.298  10.809  0.00  0.00    -0.646 OA
ENDBRANCH 122 124
BRANCH 122 127
ATOM    127  CB  GLU d   1     -20.768 -17.466  14.010  0.00  0.00    -0.028 C 
ATOM    128  H74 GLU d   1     -20.291 -17.707  14.971  0.00  0.00     0.037 H 
ATOM    129  H75 GLU d   1     -21.044 -18.398  13.494  0.00  0.00     0.037 H 
BRANCH 127 130
ATOM    130  CG  GLU d   1     -22.045 -16.679  14.293  0.00  0.00     0.018 C 
ATOM    131  H76 GLU d   1     -22.334 -16.136  13.381  0.00  0.00     0.049 H 
ATOM    132  H77 GLU d   1     -21.844 -15.959  15.100  0.00  0.00     0.049 H 
BRANCH 130 133
ATOM    133  CD  GLU d   1     -23.196 -17.571  14.713  0.00  0.00     0.172 C 
ATOM    134  OE1 GLU d   1     -23.084 -18.247  15.758  0.00  0.00    -0.648 OA
ATOM    135  OE2 GLU d   1     -24.214 -17.601  13.990  0.00  0.00    -0.648 OA
ENDBRANCH 130 133
ENDBRANCH 127 130
ENDBRANCH 122 127
ENDBRANCH 120 122
ENDBRANCH 116 118
BRANCH 116 136
ATOM    136  CB  ASP d   1     -19.212 -12.304  13.178  0.00  0.00     0.043 C 
ATOM    137  H70 ASP d   1     -20.240 -12.695  13.209  0.00  0.00     0.052 H 
ATOM    138  H71 ASP d   1     -18.883 -12.220  12.132  0.00  0.00     0.052 H 
BRANCH 136 139
ATOM    139  CG  ASP d   1     -19.200 -10.922  13.802  0.00  0.00     0.175 C 
ATOM    140  OD1 ASP d   1     -19.466 -10.809  15.020  0.00  0.00    -0.648 OA
ATOM    141  OD2 ASP d   1     -18.925  -9.947  13.065  0.00  0.00    -0.648 OA
ENDBRANCH 136 139
ENDBRANCH 116 136
ENDBRANCH 114 116
ENDBRANCH 110 112
BRANCH 110 142
ATOM    142  CB  GLU d   1     -14.120 -14.258  13.108  0.00  0.00    -0.029 C 
ATOM    143  H64 GLU d   1     -14.838 -14.254  12.275  0.00  0.00     0.037 H 
ATOM    144  H65 GLU d   1     -14.181 -15.219  13.640  0.00  0.00     0.037 H 
BRANCH 142 145
ATOM    145  CG  GLU d   1     -12.736 -14.126  12.535  0.00  0.00     0.018 C 
ATOM    146  H66 GLU d   1     -12.497 -15.038  11.969  0.00  0.00     0.049 H 
ATOM    147  H67 GLU d   1     -12.019 -14.009  13.361  0.00  0.00     0.049 H 
BRANCH 145 148
ATOM    148  CD  GLU d   1     -12.618 -12.936  11.615  0.00  0.00     0.172 C 
ATOM    149  OE1 GLU d   1     -13.651 -12.547  11.029  0.00  0.00    -0.648 OA
ATOM    150  OE2 GLU d   1     -11.496 -12.394  11.473  0.00  0.00    -0.648 OA
ENDBRANCH 145 148
ENDBRANCH 142 145
ENDBRANCH 110 142
ENDBRANCH 108 110
ENDBRANCH 104 106
BRANCH 104 151
ATOM    151  CB  ALA d   1     -13.513 -12.828  18.421  0.00  0.00    -0.049 C 
ATOM    152  H59 ALA d   1     -13.845 -13.830  18.111  0.00  0.00     0.030 H 
ATOM    153  H60 ALA d   1     -14.390 -12.208  18.659  0.00  0.00     0.030 H 
ATOM    154  H61 ALA d   1     -12.872 -12.914  19.311  0.00  0.00     0.030 H 
ENDBRANCH 104 151
ENDBRANCH 102 104
ENDBRANCH  97 100
ENDBRANCH  95  97
ENDBRANCH  91  93
BRANCH  91 155
ATOM    155  CB  ASP d   1      -7.359  -7.275  20.871  0.00  0.00     0.043 C 
ATOM    156  H52 ASP d   1      -8.142  -7.783  21.453  0.00  0.00     0.052 H 
ATOM    157  H53 ASP d   1      -7.553  -6.192  20.862  0.00  0.00     0.052 H 
BRANCH 155 158
ATOM    158  CG  ASP d   1      -6.019  -7.524  21.535  0.00  0.00     0.175 C 
ATOM    159  OD1 ASP d   1      -5.539  -8.679  21.496  0.00  0.00    -0.648 OA
ATOM    160  OD2 ASP d   1      -5.442  -6.562  22.086  0.00  0.00    -0.648 OA
ENDBRANCH 155 158
ENDBRANCH  91 155
ENDBRANCH  89  91
ENDBRANCH  84  87
ENDBRANCH  82  84
ENDBRANCH   1  80
BRANCH   1 161
ATOM    161  CB  GLN d   1      -5.779  -8.617  12.595  0.00  0.00    -0.030 C 
ATOM    162  H41 GLN d   1      -6.597  -8.074  12.099  0.00  0.00     0.037 H 
ATOM    163  H42 GLN d   1      -6.168  -9.134  13.485  0.00  0.00     0.037 H 
BRANCH 161 164
ATOM    164  CG  GLN d   1      -5.256  -9.672  11.626  0.00  0.00     0.011 C 
ATOM    165  H43 GLN d   1      -5.968 -10.510  11.608  0.00  0.00     0.047 H 
ATOM    166  H44 GLN d   1      -4.281 -10.027  11.992  0.00  0.00     0.047 H 
BRANCH 164 167
ATOM    167  CD  GLN d   1      -5.079  -9.161  10.204  0.00  0.00     0.215 C 
ATOM    168  OE1 GLN d   1      -5.020  -7.953   9.958  0.00  0.00    -0.274 OA
ATOM    169  NE2 GLN d   1      -4.996 -10.088   9.255  0.00  0.00    -0.370 N 
ATOM    170  H45 GLN d   1      -4.879  -9.816   8.300  0.00  0.00     0.159 HD
ATOM    171  H46 GLN d   1      -5.051 -11.057   9.496  0.00  0.00     0.159 HD
ENDBRANCH 164 167
ENDBRANCH 161 164
ENDBRANCH   1 161
TORSDOF 52
