REMARK  3 active torsions:
REMARK  status: ('A' for Active; 'I' for Inactive)
REMARK    1  A    between atoms: NAS_7  and  CAO_8 
REMARK    2  A    between atoms: NAT_11  and  CAB_12 
REMARK    3  A    between atoms: CAN_16  and  CAA_17 
ROOT
ATOM      1  CAO 4L2 d   1     111.840 139.014   6.216  0.00  0.00     0.039 A 
ATOM      2  CAH 4L2 d   1     110.536 138.742   6.660  0.00  0.00    -0.030 A 
ATOM      3  CAR 4L2 d   1     110.102 137.486   7.108  0.00  0.00     0.050 A 
ATOM      4  NAT 4L2 d   1     108.816 137.306   7.529  0.00  0.00    -0.318 N 
ATOM      5  CAP 4L2 d   1     108.436 136.077   7.930  0.00  0.00     0.248 A 
ATOM      6  OAD 4L2 d   1     107.291 135.917   8.279  0.00  0.00    -0.268 OA
ATOM      7  CAG 4L2 d   1     109.342 134.993   7.921  0.00  0.00    -0.011 A 
ATOM      8  CAN 4L2 d   1     110.655 135.143   7.516  0.00  0.00    -0.044 A 
ATOM      9  CAQ 4L2 d   1     111.055 136.431   7.105  0.00  0.00    -0.003 A 
ATOM     10  CAF 4L2 d   1     112.374 136.682   6.648  0.00  0.00    -0.068 A 
ATOM     11  CAE 4L2 d   1     112.767 137.959   6.195  0.00  0.00    -0.056 A 
ATOM     12  H9  4L2 d   1     109.819 139.555   6.656  0.00  0.00     0.090 H 
ATOM     13  H13 4L2 d   1     108.996 134.012   8.242  0.00  0.00     0.092 H 
ATOM     14  H17 4L2 d   1     113.097 135.874   6.647  0.00  0.00     0.085 H 
ATOM     15  H18 4L2 d   1     113.776 138.125   5.834  0.00  0.00     0.087 H 
ENDROOT
BRANCH   1  16
ATOM     16  NAS 4L2 d   1     112.095 140.297   5.771  0.00  0.00    -0.318 N 
ATOM     17  CAM 4L2 d   1     112.746 141.286   6.469  0.00  0.00     0.224 C 
ATOM     18  OAC 4L2 d   1     113.239 141.042   7.573  0.00  0.00    -0.273 OA
ATOM     19  CAK 4L2 d   1     112.885 142.613   5.936  0.00  0.00     0.010 C 
ATOM     20  CAI 4L2 d   1     111.686 142.990   5.012  0.00  0.00    -0.056 C 
ATOM     21  H1  4L2 d   1     113.816 142.668   5.353  0.00  0.00     0.047 H 
ATOM     22  H2  4L2 d   1     112.932 143.329   6.769  0.00  0.00     0.047 H 
ATOM     23  CAJ 4L2 d   1     111.806 141.948   3.855  0.00  0.00    -0.049 C 
ATOM     24  H3  4L2 d   1     111.785 144.018   4.633  0.00  0.00     0.033 H 
ATOM     25  H4  4L2 d   1     110.728 142.886   5.542  0.00  0.00     0.033 H 
ATOM     26  CAL 4L2 d   1     111.473 140.561   4.420  0.00  0.00     0.003 C 
ATOM     27  H5  4L2 d   1     112.831 141.951   3.457  0.00  0.00     0.035 H 
ATOM     28  H6  4L2 d   1     111.099 142.202   3.051  0.00  0.00     0.035 H 
ATOM     29  H7  4L2 d   1     111.838 139.800   3.714  0.00  0.00     0.065 H 
ATOM     30  H8  4L2 d   1     110.380 140.477   4.517  0.00  0.00     0.065 H 
ENDBRANCH   1  16
BRANCH   4  31
ATOM     31  CAB 4L2 d   1     107.771 138.397   7.598  0.00  0.00    -0.011 C 
ATOM     32  H10 4L2 d   1     108.206 139.344   7.245  0.00  0.00     0.057 H 
ATOM     33  H11 4L2 d   1     107.431 138.514   8.638  0.00  0.00     0.057 H 
ATOM     34  H12 4L2 d   1     106.916 138.126   6.961  0.00  0.00     0.057 H 
ENDBRANCH   4  31
BRANCH   8  35
ATOM     35  CAA 4L2 d   1     111.576 134.041   7.541  0.00  0.00    -0.050 C 
ATOM     36  H14 4L2 d   1     111.056 133.137   7.891  0.00  0.00     0.033 H 
ATOM     37  H15 4L2 d   1     112.407 134.273   8.223  0.00  0.00     0.033 H 
ATOM     38  H16 4L2 d   1     111.969 133.869   6.528  0.00  0.00     0.033 H 
ENDBRANCH   8  35
TORSDOF 3
