REMARK  9 active torsions:
REMARK  status: ('A' for Active; 'I' for Inactive)
REMARK    1  A    between atoms: CAK_1  and  CAJ_2 
REMARK    2  A    between atoms: NAG_6  and  CAM_7 
REMARK    3  A    between atoms: CAR_19  and  NBA_20 
REMARK       I    between atoms: NBA_20  and  CBB_21 
REMARK    4  A    between atoms: CBB_21  and  OBC_23 
REMARK    5  A    between atoms: OBC_23  and  CBD_24 
REMARK    6  A    between atoms: CBD_24  and  CBF_25 
REMARK    7  A    between atoms: CBD_24  and  CBG_26 
REMARK    8  A    between atoms: CBD_24  and  CBE_27 
REMARK    9  A    between atoms: CAS_28  and  CAU_29 
ROOT
ATOM      1  CAJ 4L3 d   1      47.376  -1.270  35.018  0.00  0.00    -0.044 A 
ATOM      2  CAI 4L3 d   1      48.668  -1.312  35.484  0.00  0.00    -0.011 A 
ATOM      3  CAH 4L3 d   1      49.766  -1.511  34.621  0.00  0.00     0.248 A 
ATOM      4  OAL 4L3 d   1      50.911  -1.539  35.101  0.00  0.00    -0.268 OA
ATOM      5  NAG 4L3 d   1      49.550  -1.764  33.276  0.00  0.00    -0.318 N 
ATOM      6  CAD 4L3 d   1      48.261  -1.796  32.780  0.00  0.00     0.050 A 
ATOM      7  CAC 4L3 d   1      48.010  -2.058  31.420  0.00  0.00    -0.030 A 
ATOM      8  CAE 4L3 d   1      47.172  -1.493  33.630  0.00  0.00    -0.003 A 
ATOM      9  CAF 4L3 d   1      45.874  -1.487  33.091  0.00  0.00    -0.068 A 
ATOM     10  CAA 4L3 d   1      45.633  -1.753  31.736  0.00  0.00    -0.056 A 
ATOM     11  CAB 4L3 d   1      46.714  -2.034  30.908  0.00  0.00     0.040 A 
ATOM     12  NAN 4L3 d   1      46.460  -2.380  29.614  0.00  0.00    -0.307 N 
ATOM     13  CAO 4L3 d   1      45.822  -3.592  29.421  0.00  0.00     0.225 C 
ATOM     14  OAT 4L3 d   1      45.426  -4.263  30.416  0.00  0.00    -0.273 OA
ATOM     15  CAP 4L3 d   1      45.430  -4.109  28.141  0.00  0.00     0.012 C 
ATOM     16  CAQ 4L3 d   1      46.256  -3.443  27.017  0.00  0.00    -0.036 C 
ATOM     17  CAR 4L3 d   1      46.323  -1.980  27.195  0.00  0.00     0.039 C 
ATOM     18  CAS 4L3 d   1      47.041  -1.608  28.541  0.00  0.00     0.065 C 
ATOM     19  H4  4L3 d   1      48.850  -1.188  36.551  0.00  0.00     0.092 H 
ATOM     20  H8  4L3 d   1      48.839  -2.282  30.759  0.00  0.00     0.090 H 
ATOM     21  H9  4L3 d   1      45.035  -1.270  33.742  0.00  0.00     0.085 H 
ATOM     22  H10 4L3 d   1      44.623  -1.740  31.341  0.00  0.00     0.087 H 
ATOM     23  H11 4L3 d   1      44.362  -3.902  27.978  0.00  0.00     0.047 H 
ATOM     24  H12 4L3 d   1      45.600  -5.196  28.121  0.00  0.00     0.047 H 
ATOM     25  H13 4L3 d   1      45.786  -3.665  26.048  0.00  0.00     0.036 H 
ATOM     26  H14 4L3 d   1      47.277  -3.853  27.032  0.00  0.00     0.036 H 
ATOM     27  H15 4L3 d   1      45.320  -1.530  27.161  0.00  0.00     0.076 H 
ATOM     28  H26 4L3 d   1      48.100  -1.894  28.455  0.00  0.00     0.084 H 
ENDROOT
BRANCH  18  29
ATOM     29  CAU 4L3 d   1      46.999  -0.234  28.774  0.00  0.00    -0.033 A 
ATOM     30  CAV 4L3 d   1      48.209   0.495  28.858  0.00  0.00    -0.075 A 
ATOM     31  CAW 4L3 d   1      48.191   1.907  29.081  0.00  0.00    -0.082 A 
ATOM     32  H27 4L3 d   1      49.157  -0.021  28.753  0.00  0.00     0.084 H 
ATOM     33  CAX 4L3 d   1      46.970   2.565  29.207  0.00  0.00    -0.083 A 
ATOM     34  H28 4L3 d   1      49.120   2.461  29.151  0.00  0.00     0.083 H 
ATOM     35  CAY 4L3 d   1      45.783   1.835  29.115  0.00  0.00    -0.082 A 
ATOM     36  H29 4L3 d   1      46.941   3.635  29.375  0.00  0.00     0.083 H 
ATOM     37  CAZ 4L3 d   1      45.771   0.442  28.897  0.00  0.00    -0.075 A 
ATOM     38  H30 4L3 d   1      44.838   2.357  29.215  0.00  0.00     0.083 H 
ATOM     39  H31 4L3 d   1      44.834  -0.098  28.826  0.00  0.00     0.084 H 
ENDBRANCH  18  29
BRANCH  17  40
ATOM     40  NBA 4L3 d   1      47.156  -1.522  26.089  0.00  0.00    -0.330 N 
ATOM     41  CBB 4L3 d   1      46.576  -1.166  24.931  0.00  0.00     0.361 C 
ATOM     42  OBH 4L3 d   1      45.347  -1.086  24.836  0.00  0.00    -0.238 OA
ATOM     43  H16 4L3 d   1      48.150  -1.474  26.192  0.00  0.00     0.165 HD
BRANCH  41  44
ATOM     44  OBC 4L3 d   1      47.381  -0.926  23.880  0.00  0.00    -0.294 OA
BRANCH  44  45
ATOM     45  CBD 4L3 d   1      46.865  -0.950  22.512  0.00  0.00     0.061 C 
BRANCH  45  46
ATOM     46  CBF 4L3 d   1      45.986  -2.206  22.231  0.00  0.00    -0.048 C 
ATOM     47  H17 4L3 d   1      45.624  -2.176  21.193  0.00  0.00     0.031 H 
ATOM     48  H18 4L3 d   1      45.127  -2.214  22.918  0.00  0.00     0.031 H 
ATOM     49  H19 4L3 d   1      46.586  -3.115  22.384  0.00  0.00     0.031 H 
ENDBRANCH  45  46
BRANCH  45  50
ATOM     50  CBG 4L3 d   1      48.130  -0.915  21.631  0.00  0.00    -0.048 C 
ATOM     51  H20 4L3 d   1      47.839  -0.930  20.570  0.00  0.00     0.031 H 
ATOM     52  H21 4L3 d   1      48.755  -1.793  21.852  0.00  0.00     0.031 H 
ATOM     53  H22 4L3 d   1      48.699   0.003  21.842  0.00  0.00     0.031 H 
ENDBRANCH  45  50
BRANCH  45  54
ATOM     54  CBE 4L3 d   1      46.055   0.325  22.256  0.00  0.00    -0.048 C 
ATOM     55  H23 4L3 d   1      45.665   0.311  21.228  0.00  0.00     0.031 H 
ATOM     56  H24 4L3 d   1      46.703   1.204  22.391  0.00  0.00     0.031 H 
ATOM     57  H25 4L3 d   1      45.216   0.375  22.966  0.00  0.00     0.031 H 
ENDBRANCH  45  54
ENDBRANCH  44  45
ENDBRANCH  41  44
ENDBRANCH  17  40
BRANCH   5  58
ATOM     58  CAM 4L3 d   1      50.697  -2.032  32.353  0.00  0.00    -0.011 C 
ATOM     59  H5  4L3 d   1      51.642  -1.966  32.913  0.00  0.00     0.057 H 
ATOM     60  H6  4L3 d   1      50.698  -1.287  31.543  0.00  0.00     0.057 H 
ATOM     61  H7  4L3 d   1      50.595  -3.040  31.924  0.00  0.00     0.057 H 
ENDBRANCH   5  58
BRANCH   1  62
ATOM     62  CAK 4L3 d   1      46.229  -1.053  35.932  0.00  0.00    -0.050 C 
ATOM     63  H1  4L3 d   1      46.600  -0.900  36.956  0.00  0.00     0.033 H 
ATOM     64  H2  4L3 d   1      45.570  -1.933  35.908  0.00  0.00     0.033 H 
ATOM     65  H3  4L3 d   1      45.666  -0.164  35.610  0.00  0.00     0.033 H 
ENDBRANCH   1  62
TORSDOF 9
