REMARK  8 active torsions:
REMARK  status: ('A' for Active; 'I' for Inactive)
REMARK    1  A    between atoms: C10_1  and  C09_15 
REMARK    2  A    between atoms: C12_17  and  C13_2 
REMARK    3  A    between atoms: C17_4  and  C20_5 
REMARK       I    between atoms: C20_5  and  N22_23 
REMARK    4  A    between atoms: O23_24  and  C24_6 
REMARK    5  A    between atoms: C01_7  and  N11_16 
REMARK    6  A    between atoms: N11_16  and  C12_17 
REMARK    7  A    between atoms: C12_17  and  C14_18 
REMARK    8  A    between atoms: C16_19  and  O23_24 
ROOT
ATOM      1  C01 4L5 d   1      33.138 -17.589   9.871  0.00  0.00     0.144 A 
ATOM      2  C02 4L5 d   1      31.801 -17.893   9.514  0.00  0.00    -0.034 A 
ATOM      3  C03 4L5 d   1      30.887 -16.788   9.455  0.00  0.00    -0.033 A 
ATOM      4  C04 4L5 d   1      31.383 -15.456   9.734  0.00  0.00     0.151 A 
ATOM      5  N05 4L5 d   1      32.644 -15.282  10.012  0.00  0.00    -0.212 N 
ATOM      6  N06 4L5 d   1      33.502 -16.324  10.069  0.00  0.00    -0.148 NA
ATOM      7  N07 4L5 d   1      30.728 -14.254   9.804  0.00  0.00    -0.239 NA
ATOM      8  C08 4L5 d   1      31.625 -13.300  10.096  0.00  0.00     0.033 A 
ATOM      9  C09 4L5 d   1      32.877 -13.917  10.229  0.00  0.00     0.088 A 
ATOM     10  H8  4L5 d   1      31.483 -18.912   9.296  0.00  0.00     0.089 H 
ATOM     11  H9  4L5 d   1      29.839 -16.948   9.205  0.00  0.00     0.089 H 
ATOM     12  H10 4L5 d   1      31.418 -12.237  10.209  0.00  0.00     0.118 H 
ENDROOT
BRANCH   9  13
ATOM     13  C10 4L5 d   1      34.182 -13.210  10.554  0.00  0.00    -0.003 A 
ATOM     14  C15 4L5 d   1      35.403 -13.867  10.482  0.00  0.00    -0.038 A 
ATOM     15  C16 4L5 d   1      36.609 -13.198  10.712  0.00  0.00     0.084 A 
ATOM     16  H4  4L5 d   1      35.422 -14.924  10.242  0.00  0.00     0.089 H 
ATOM     17  C17 4L5 d   1      36.607 -11.838  11.036  0.00  0.00     0.065 A 
ATOM     18  C18 4L5 d   1      35.384 -11.168  11.095  0.00  0.00    -0.064 A 
ATOM     19  C19 4L5 d   1      34.189 -11.846  10.837  0.00  0.00    -0.070 A 
ATOM     20  H16 4L5 d   1      35.361 -10.113  11.343  0.00  0.00     0.085 H 
ATOM     21  H17 4L5 d   1      33.252 -11.301  10.857  0.00  0.00     0.084 H 
BRANCH  15  22
ATOM     22  O23 4L5 d   1      37.821 -13.927  10.689  0.00  0.00    -0.355 OA
BRANCH  22  23
ATOM     23  C24 4L5 d   1      38.171 -14.608   9.498  0.00  0.00     0.010 C 
ATOM     24  H5  4L5 d   1      39.133 -15.123   9.639  0.00  0.00     0.066 H 
ATOM     25  H6  4L5 d   1      38.260 -13.884   8.675  0.00  0.00     0.066 H 
ATOM     26  H7  4L5 d   1      37.392 -15.346   9.255  0.00  0.00     0.066 H 
ENDBRANCH  22  23
ENDBRANCH  15  22
BRANCH  17  27
ATOM     27  C20 4L5 d   1      37.888 -11.098  11.407  0.00  0.00     0.252 C 
ATOM     28  O21 4L5 d   1      37.844  -9.927  11.736  0.00  0.00    -0.268 OA
ATOM     29  N22 4L5 d   1      39.154 -11.746  11.443  0.00  0.00    -0.366 N 
ATOM     30  H18 4L5 d   1      39.973 -11.229  11.691  0.00  0.00     0.159 HD
ATOM     31  H19 4L5 d   1      39.224 -12.718  11.220  0.00  0.00     0.159 HD
ENDBRANCH  17  27
ENDBRANCH   9  13
BRANCH   1  32
ATOM     32  N11 4L5 d   1      34.092 -18.651   9.835  0.00  0.00    -0.370 N 
ATOM     33  H11 4L5 d   1      33.898 -19.440   9.203  0.00  0.00     0.161 HD
BRANCH  32  34
ATOM     34  C12 4L5 d   1      35.302 -18.708  10.610  0.00  0.00     0.004 C 
ATOM     35  H12 4L5 d   1      35.026 -18.961  11.644  0.00  0.00     0.071 H 
BRANCH  34  36
ATOM     36  C13 4L5 d   1      36.107 -17.434  10.642  0.00  0.00    -0.058 C 
ATOM     37  H1  4L5 d   1      37.006 -17.584  11.258  0.00  0.00     0.030 H 
ATOM     38  H2  4L5 d   1      35.498 -16.626  11.073  0.00  0.00     0.030 H 
ATOM     39  H3  4L5 d   1      36.404 -17.162   9.618  0.00  0.00     0.030 H 
ENDBRANCH  34  36
BRANCH  34  40
ATOM     40  C14 4L5 d   1      36.194 -19.801  10.048  0.00  0.00    -0.058 C 
ATOM     41  H13 4L5 d   1      35.635 -20.748  10.011  0.00  0.00     0.030 H 
ATOM     42  H14 4L5 d   1      37.077 -19.922  10.693  0.00  0.00     0.030 H 
ATOM     43  H15 4L5 d   1      36.516 -19.526   9.033  0.00  0.00     0.030 H 
ENDBRANCH  34  40
ENDBRANCH  32  34
ENDBRANCH   1  32
TORSDOF 8
