REMARK WARNING: 32 MAX_TORS EXCEEDED!!!
REMARK  48 active torsions:
REMARK  status: ('A' for Active; 'I' for Inactive)
REMARK    1  A    between atoms: C6_1  and  C8_2 
REMARK    2  A    between atoms: C1_8  and  C6_1 
REMARK    3  A    between atoms: P11_4  and  C3_3 
REMARK    4  A    between atoms: C3_3  and  N10_7 
REMARK    5  A    between atoms: C3_3  and  C1_8 
REMARK    6  A    between atoms: C1_15  and  P11_4 
REMARK    7  A    between atoms: CA_18  and  CB_14 
REMARK    8  A    between atoms: CB_14  and  CG_19 
REMARK    9  A    between atoms: CA_18  and  C1_15 
REMARK   10  A    between atoms: C_16  and  CA_18 
REMARK       I    between atoms: C_16  and  N_22 
REMARK   11  A    between atoms: CG_19  and  CD1_20 
REMARK   12  A    between atoms: CG_19  and  CD2_21 
REMARK   13  A    between atoms: N_22  and  CA_23 
REMARK   14  A    between atoms: CA_23  and  C_24 
REMARK   15  A    between atoms: CA_23  and  CB_26 
REMARK       I    between atoms: C_24  and  N_31 
REMARK   16  A    between atoms: CB_26  and  CG_27 
REMARK   17  A    between atoms: CG_27  and  CD_28 
REMARK   18  A    between atoms: CD_28  and  CE_29 
REMARK   19  A    between atoms: CE_29  and  NZ_30 
REMARK   20  A    between atoms: N_31  and  CA_32 
REMARK   21  A    between atoms: CA_32  and  C_33 
REMARK   22  A    between atoms: CA_32  and  CB_35 
REMARK       I    between atoms: C_33  and  N_41 
REMARK   23  A    between atoms: CB_35  and  CG_36 
REMARK   24  A    between atoms: N_41  and  CA_42 
REMARK   25  A    between atoms: CA_42  and  C_43 
REMARK   26  A    between atoms: CA_42  and  CB_45 
REMARK       I    between atoms: C_43  and  N_51 
REMARK   27  A    between atoms: CB_45  and  CG_46 
REMARK   28  A    between atoms: N_51  and  CA_52 
REMARK   29  A    between atoms: CA_52  and  C_53 
REMARK   30  A    between atoms: CA_52  and  CB_55 
REMARK       I    between atoms: C_53  and  N_56 
REMARK   31  A    between atoms: N_56  and  CA_57 
REMARK   32  A    between atoms: CA_57  and  C_58 
REMARK   33  A    between atoms: CA_57  and  CB_60 
REMARK       I    between atoms: C_58  and  N_67 
REMARK   34  A    between atoms: CB_60  and  CG_61 
REMARK   35  A    between atoms: N_67  and  CA_68 
REMARK   36  A    between atoms: CA_68  and  C_69 
REMARK   37  A    between atoms: CA_68  and  CB_71 
REMARK       I    between atoms: C_69  and  N_73 
REMARK   38  A    between atoms: CB_71  and  OG_72 
REMARK   39  A    between atoms: N_73  and  CA_74 
REMARK   40  A    between atoms: CA_74  and  C_75 
REMARK   41  A    between atoms: CA_74  and  CB_77 
REMARK       I    between atoms: C_75  and  N_78 
REMARK   42  A    between atoms: N_78  and  CA_79 
REMARK   43  A    between atoms: CA_79  and  C_80 
REMARK   44  A    between atoms: CA_79  and  CB_82 
REMARK   45  A    between atoms: CB_82  and  CG_83 
REMARK   46  A    between atoms: CG_83  and  CD_84 
REMARK   47  A    between atoms: CD_84  and  CE_85 
REMARK   48  A    between atoms: CE_85  and  NZ_86 
ROOT
ATOM      1  CA  HIS d   1      -0.579  26.513   5.708  0.00  0.00     0.094 C 
ATOM      2  H47 HIS d   1       0.248  27.147   6.061  0.00  0.00     0.088 H 
ENDROOT
BRANCH   1   3
ATOM      3  N   HIS d   1      -1.620  27.353   5.134  0.00  0.00    -0.346 N 
ATOM      4  C   HIS d   1      -2.021  28.494   5.681  0.00  0.00     0.241 C 
ATOM      5  O   HIS d   1      -1.612  28.906   6.766  0.00  0.00    -0.271 OA
ATOM      6  H46 HIS d   1      -2.055  27.055   4.284  0.00  0.00     0.163 HD
BRANCH   4   7
ATOM      7  CA  HIS d   1      -3.052  29.279   4.877  0.00  0.00     0.094 C 
ATOM      8  H40 HIS d   1      -3.624  28.572   4.258  0.00  0.00     0.088 H 
BRANCH   7   9
ATOM      9  N   HIS d   1      -3.980  29.964   5.765  0.00  0.00    -0.346 N 
ATOM     10  C   LYS d   1      -5.284  29.712   5.762  0.00  0.00     0.241 C 
ATOM     11  O   LYS d   1      -5.826  28.954   4.956  0.00  0.00    -0.271 OA
ATOM     12  H39 HIS d   1      -3.623  30.649   6.400  0.00  0.00     0.163 HD
BRANCH  10  13
ATOM     13  CA  LYS d   1      -6.092  30.436   6.832  0.00  0.00     0.089 C 
ATOM     14  H27 LYS d   1      -5.713  30.126   7.817  0.00  0.00     0.087 H 
BRANCH  13  15
ATOM     15  N   LYS d   1      -5.923  31.879   6.714  0.00  0.00    -0.347 N 
ATOM     16  C   4L8 d   1      -6.630  32.643   5.782  0.00  0.00     0.223 C 
ATOM     17  O   4L8 d   1      -7.464  32.146   5.054  0.00  0.00    -0.273 OA
ATOM     18  H26 LYS d   1      -5.277  32.339   7.323  0.00  0.00     0.163 HD
BRANCH  16  19
ATOM     19  CA  4L8 d   1      -6.320  34.131   5.714  0.00  0.00     0.033 C 
ATOM     20  H18 4L8 d   1      -6.877  34.559   4.867  0.00  0.00     0.055 H 
BRANCH  19  21
ATOM     21  CB  4L8 d   1      -4.788  34.315   5.464  0.00  0.00    -0.051 C 
ATOM     22  H14 4L8 d   1      -4.298  33.344   5.629  0.00  0.00     0.034 H 
ATOM     23  H15 4L8 d   1      -4.410  35.045   6.195  0.00  0.00     0.034 H 
BRANCH  21  24
ATOM     24  CG  4L8 d   1      -4.402  34.809   4.054  0.00  0.00    -0.060 C 
ATOM     25  H19 4L8 d   1      -3.304  34.797   3.983  0.00  0.00     0.038 H 
BRANCH  24  26
ATOM     26  CD1 4L8 d   1      -4.877  36.238   3.803  0.00  0.00    -0.073 C 
ATOM     27  H20 4L8 d   1      -4.582  36.550   2.790  0.00  0.00     0.028 H 
ATOM     28  H21 4L8 d   1      -4.419  36.912   4.542  0.00  0.00     0.028 H 
ATOM     29  H22 4L8 d   1      -5.972  36.282   3.896  0.00  0.00     0.028 H 
ENDBRANCH  24  26
BRANCH  24  30
ATOM     30  CD2 4L8 d   1      -4.961  33.883   2.968  0.00  0.00    -0.073 C 
ATOM     31  H23 4L8 d   1      -4.617  32.854   3.151  0.00  0.00     0.028 H 
ATOM     32  H24 4L8 d   1      -4.606  34.218   1.982  0.00  0.00     0.028 H 
ATOM     33  H25 4L8 d   1      -6.060  33.912   2.991  0.00  0.00     0.028 H 
ENDBRANCH  24  30
ENDBRANCH  21  24
ENDBRANCH  19  21
BRANCH  19  34
ATOM     34  C1  4L8 d   1      -6.720  34.912   7.003  0.00  0.00     0.020 C 
ATOM     35  H16 4L8 d   1      -6.774  34.214   7.851  0.00  0.00     0.050 H 
ATOM     36  H17 4L8 d   1      -5.965  35.684   7.211  0.00  0.00     0.050 H 
BRANCH  34  37
ATOM     37  P11 2X0 d   1      -8.149  35.608   6.795  0.00  0.00     0.138 P 
ATOM     38  O12 2X0 d   1      -7.964  36.880   6.101  0.00  0.00    -0.666 OA
ATOM     39  O13 2X0 d   1      -9.005  34.740   5.996  0.00  0.00    -0.666 OA
BRANCH  37  40
ATOM     40  C3  2X0 d   1      -8.881  35.897   8.386  0.00  0.00     0.173 C 
ATOM     41  H3  2X0 d   1      -8.778  36.969   8.610  0.00  0.00     0.100 H 
BRANCH  40  42
ATOM     42  N10 2X0 d   1     -10.134  35.616   8.397  0.00  0.00    -0.066 N 
ATOM     43  H4  2X0 d   1     -10.510  35.793   9.315  0.00  0.00     0.275 HD
ATOM     44  H5  2X0 d   1     -10.262  34.644   8.163  0.00  0.00     0.275 HD
ATOM     45  H6  2X0 d   1     -10.613  36.190   7.721  0.00  0.00     0.275 HD
ENDBRANCH  40  42
BRANCH  40  46
ATOM     46  C1  2X0 d   1      -8.223  35.205   9.351  0.00  0.00    -0.026 C 
ATOM     47  H7  2X0 d   1      -8.463  34.135   9.260  0.00  0.00     0.037 H 
ATOM     48  H8  2X0 d   1      -7.139  35.350   9.229  0.00  0.00     0.037 H 
BRANCH  46  49
ATOM     49  C6  2X0 d   1      -8.649  35.705  10.736  0.00  0.00    -0.039 C 
ATOM     50  H1  2X0 d   1      -8.116  36.638  10.970  0.00  0.00     0.040 H 
ATOM     51  H2  2X0 d   1      -9.733  35.891  10.743  0.00  0.00     0.040 H 
BRANCH  49  52
ATOM     52  C8  2X0 d   1      -8.304  34.640  11.783  0.00  0.00    -0.058 A 
ATOM     53  C17 2X0 d   1      -7.019  34.304  12.191  0.00  0.00    -0.077 A 
ATOM     54  C18 2X0 d   1      -6.872  33.299  13.159  0.00  0.00    -0.082 A 
ATOM     55  H9  2X0 d   1      -6.153  34.805  11.773  0.00  0.00     0.084 H 
ATOM     56  C19 2X0 d   1      -7.916  32.630  13.724  0.00  0.00    -0.083 A 
ATOM     57  H10 2X0 d   1      -5.869  33.039  13.476  0.00  0.00     0.083 H 
ATOM     58  C20 2X0 d   1      -9.212  32.961  13.318  0.00  0.00    -0.082 A 
ATOM     59  H11 2X0 d   1      -7.746  31.861  14.469  0.00  0.00     0.083 H 
ATOM     60  C21 2X0 d   1      -9.375  33.961  12.352  0.00  0.00    -0.077 A 
ATOM     61  H12 2X0 d   1     -10.072  32.455  13.742  0.00  0.00     0.083 H 
ATOM     62  H13 2X0 d   1     -10.379  34.217  12.034  0.00  0.00     0.084 H 
ENDBRANCH  49  52
ENDBRANCH  46  49
ENDBRANCH  40  46
ENDBRANCH  37  40
ENDBRANCH  34  37
ENDBRANCH  19  34
ENDBRANCH  16  19
ENDBRANCH  13  15
BRANCH  13  63
ATOM     63  CB  LYS d   1      -7.571  30.050   6.748  0.00  0.00    -0.038 C 
ATOM     64  H28 LYS d   1      -7.644  28.953   6.725  0.00  0.00     0.036 H 
ATOM     65  H29 LYS d   1      -7.987  30.465   5.818  0.00  0.00     0.036 H 
BRANCH  63  66
ATOM     66  CG  LYS d   1      -8.401  30.564   7.919  0.00  0.00    -0.061 C 
ATOM     67  H30 LYS d   1      -9.332  29.981   7.986  0.00  0.00     0.033 H 
ATOM     68  H31 LYS d   1      -8.643  31.624   7.752  0.00  0.00     0.033 H 
BRANCH  66  69
ATOM     69  CD  LYS d   1      -7.631  30.427   9.225  0.00  0.00    -0.043 C 
ATOM     70  H32 LYS d   1      -6.558  30.563   9.023  0.00  0.00     0.035 H 
ATOM     71  H33 LYS d   1      -7.802  29.422   9.637  0.00  0.00     0.035 H 
BRANCH  69  72
ATOM     72  CE  LYS d   1      -8.076  31.460  10.245  0.00  0.00     0.080 C 
ATOM     73  H34 LYS d   1      -7.970  32.462   9.805  0.00  0.00     0.075 H 
ATOM     74  H35 LYS d   1      -7.434  31.380  11.134  0.00  0.00     0.075 H 
BRANCH  72  75
ATOM     75  NZ  LYS d   1      -9.488  31.265  10.655  0.00  0.00    -0.079 N 
ATOM     76  H36 LYS d   1      -9.742  31.969  11.330  0.00  0.00     0.274 HD
ATOM     77  H37 LYS d   1      -9.595  30.351  11.066  0.00  0.00     0.274 HD
ATOM     78  H38 LYS d   1     -10.086  31.343   9.847  0.00  0.00     0.274 HD
ENDBRANCH  72  75
ENDBRANCH  69  72
ENDBRANCH  66  69
ENDBRANCH  63  66
ENDBRANCH  13  63
ENDBRANCH  10  13
ENDBRANCH   7   9
BRANCH   7  79
ATOM     79  CB  HIS d   1      -2.347  30.274   3.950  0.00  0.00     0.004 C 
ATOM     80  H41 HIS d   1      -1.331  29.902   3.751  0.00  0.00     0.046 H 
ATOM     81  H42 HIS d   1      -2.288  31.244   4.465  0.00  0.00     0.046 H 
BRANCH  79  82
ATOM     82  CG  HIS d   1      -3.040  30.478   2.638  0.00  0.00     0.053 A 
ATOM     83  ND1 HIS d   1      -2.572  31.349   1.678  0.00  0.00    -0.247 NA
ATOM     84  CE1 HIS d   1      -3.377  31.321   0.630  0.00  0.00     0.064 A 
ATOM     85  NE2 HIS d   1      -4.348  30.461   0.875  0.00  0.00    -0.359 N 
ATOM     86  H44 HIS d   1      -3.259  31.907  -0.280  0.00  0.00     0.143 H 
ATOM     87  CD2 HIS d   1      -4.161  29.918   2.123  0.00  0.00     0.002 A 
ATOM     88  H45 HIS d   1      -5.121  30.234   0.234  0.00  0.00     0.166 HD
ATOM     89  H43 HIS d   1      -4.795  29.177   2.607  0.00  0.00     0.114 H 
ENDBRANCH  79  82
ENDBRANCH   7  79
ENDBRANCH   4   7
ENDBRANCH   1   3
BRANCH   1  90
ATOM     90  C   HIS d   1      -0.083  25.602   4.601  0.00  0.00     0.241 C 
ATOM     91  O   HIS d   1       0.884  25.908   3.903  0.00  0.00    -0.271 OA
ATOM     92  N   ALA d   1      -0.773  24.479   4.448  0.00  0.00    -0.346 N 
ATOM     93  H53 ALA d   1      -1.418  24.210   5.163  0.00  0.00     0.163 HD
BRANCH  92  94
ATOM     94  CA  ALA d   1      -0.628  23.626   3.282  0.00  0.00     0.086 C 
ATOM     95  H54 ALA d   1      -0.056  24.161   2.510  0.00  0.00     0.086 H 
BRANCH  94  96
ATOM     96  C   ALA d   1      -2.026  23.329   2.757  0.00  0.00     0.240 C 
ATOM     97  O   ALA d   1      -2.966  24.076   3.041  0.00  0.00    -0.271 OA
ATOM     98  N   PHE d   1      -2.153  22.255   1.983  0.00  0.00    -0.346 N 
ATOM     99  H58 PHE d   1      -1.325  21.799   1.657  0.00  0.00     0.163 HD
BRANCH  98 100
ATOM    100  CA  PHE d   1      -3.454  21.712   1.589  0.00  0.00     0.093 C 
ATOM    101  H59 PHE d   1      -3.256  20.764   1.067  0.00  0.00     0.088 H 
BRANCH 100 102
ATOM    102  C   PHE d   1      -4.296  22.573   0.654  0.00  0.00     0.241 C 
ATOM    103  O   PHE d   1      -4.658  22.125  -0.436  0.00  0.00    -0.271 OA
ATOM    104  N   SER d   1      -4.598  23.795   1.093  0.00  0.00    -0.344 N 
ATOM    105  H67 SER d   1      -4.000  24.218   1.774  0.00  0.00     0.163 HD
BRANCH 104 106
ATOM    106  CA  SER d   1      -5.764  24.547   0.624  0.00  0.00     0.109 C 
ATOM    107  H68 SER d   1      -5.792  25.521   1.135  0.00  0.00     0.090 H 
BRANCH 106 108
ATOM    108  C   SER d   1      -6.991  23.732   1.025  0.00  0.00     0.243 C 
ATOM    109  O   SER d   1      -7.430  23.799   2.174  0.00  0.00    -0.271 OA
ATOM    110  N   PHE d   1      -7.527  22.981   0.063  0.00  0.00    -0.346 N 
ATOM    111  H72 PHE d   1      -7.266  23.185  -0.881  0.00  0.00     0.163 HD
BRANCH 110 112
ATOM    112  CA  PHE d   1      -8.472  21.876   0.282  0.00  0.00     0.086 C 
ATOM    113  H73 PHE d   1      -9.151  21.867  -0.583  0.00  0.00     0.086 H 
BRANCH 112 114
ATOM    114  C   PHE d   1      -9.350  21.922   1.531  0.00  0.00     0.240 C 
ATOM    115  O   PHE d   1     -10.552  22.172   1.453  0.00  0.00    -0.271 OA
ATOM    116  N   LYS d   1      -8.731  21.666   2.678  0.00  0.00    -0.345 N 
ATOM    117  H77 LYS d   1      -7.731  21.642   2.691  0.00  0.00     0.163 HD
BRANCH 116 118
ATOM    118  CA  LYS d   1      -9.455  21.418   3.919  0.00  0.00     0.096 C 
ATOM    119  H78 LYS d   1     -10.511  21.239   3.669  0.00  0.00     0.089 H 
BRANCH 118 120
ATOM    120  C   LYS d   1      -9.392  22.600   4.882  0.00  0.00     0.196 C 
ATOM    121  O   LYS d   1     -10.236  22.757   5.767  0.00  0.00    -0.646 OA
ATOM    122  OXT LYS d   1      -8.488  23.429   4.796  0.00  0.00    -0.646 OA
ENDBRANCH 118 120
BRANCH 118 123
ATOM    123  CB  LYS d   1      -8.893  20.167   4.589  0.00  0.00    -0.037 C 
ATOM    124  H79 LYS d   1      -7.872  20.393   4.929  0.00  0.00     0.036 H 
ATOM    125  H80 LYS d   1      -8.860  19.364   3.837  0.00  0.00     0.036 H 
BRANCH 123 126
ATOM    126  CG  LYS d   1      -9.678  19.663   5.775  0.00  0.00    -0.061 C 
ATOM    127  H81 LYS d   1     -10.755  19.727   5.559  0.00  0.00     0.033 H 
ATOM    128  H82 LYS d   1      -9.444  20.275   6.659  0.00  0.00     0.033 H 
BRANCH 126 129
ATOM    129  CD  LYS d   1      -9.299  18.222   6.041  0.00  0.00    -0.043 C 
ATOM    130  H83 LYS d   1      -8.338  18.199   6.576  0.00  0.00     0.035 H 
ATOM    131  H84 LYS d   1      -9.196  17.697   5.080  0.00  0.00     0.035 H 
BRANCH 129 132
ATOM    132  CE  LYS d   1     -10.343  17.513   6.878  0.00  0.00     0.080 C 
ATOM    133  H85 LYS d   1     -11.296  18.056   6.805  0.00  0.00     0.075 H 
ATOM    134  H86 LYS d   1     -10.013  17.491   7.927  0.00  0.00     0.075 H 
BRANCH 132 135
ATOM    135  NZ  LYS d   1     -10.535  16.118   6.394  0.00  0.00    -0.079 N 
ATOM    136  H87 LYS d   1     -11.232  15.659   6.960  0.00  0.00     0.274 HD
ATOM    137  H88 LYS d   1      -9.664  15.616   6.461  0.00  0.00     0.274 HD
ATOM    138  H89 LYS d   1     -10.840  16.135   5.433  0.00  0.00     0.274 HD
ENDBRANCH 132 135
ENDBRANCH 129 132
ENDBRANCH 126 129
ENDBRANCH 123 126
ENDBRANCH 118 123
ENDBRANCH 116 118
ENDBRANCH 112 114
BRANCH 112 139
ATOM    139  CB  PHE d   1      -7.692  20.557   0.305  0.00  0.00    -0.049 C 
ATOM    140  H74 PHE d   1      -8.389  19.722   0.468  0.00  0.00     0.030 H 
ATOM    141  H75 PHE d   1      -6.953  20.582   1.119  0.00  0.00     0.030 H 
ATOM    142  H76 PHE d   1      -7.175  20.420  -0.656  0.00  0.00     0.030 H 
ENDBRANCH 112 139
ENDBRANCH 110 112
ENDBRANCH 106 108
BRANCH 106 143
ATOM    143  CB  SER d   1      -5.730  24.805  -0.889  0.00  0.00     0.044 C 
ATOM    144  H69 SER d   1      -6.638  25.354  -1.179  0.00  0.00     0.077 H 
ATOM    145  H70 SER d   1      -5.701  23.840  -1.416  0.00  0.00     0.077 H 
BRANCH 143 146
ATOM    146  OG  SER d   1      -4.593  25.566  -1.258  0.00  0.00    -0.398 OA
ATOM    147  H71 SER d   1      -4.600  25.709  -2.197  0.00  0.00     0.209 HD
ENDBRANCH 143 146
ENDBRANCH 106 143
ENDBRANCH 104 106
ENDBRANCH 100 102
BRANCH 100 148
ATOM    148  CB  PHE d   1      -4.296  21.413   2.833  0.00  0.00    -0.014 C 
ATOM    149  H60 PHE d   1      -5.356  21.551   2.575  0.00  0.00     0.043 H 
ATOM    150  H61 PHE d   1      -4.014  22.127   3.621  0.00  0.00     0.043 H 
BRANCH 148 151
ATOM    151  CG  PHE d   1      -4.119  20.030   3.366  0.00  0.00    -0.056 A 
ATOM    152  CD1 PHE d   1      -3.183  19.178   2.814  0.00  0.00    -0.077 A 
ATOM    153  CE1 PHE d   1      -3.023  17.896   3.302  0.00  0.00    -0.082 A 
ATOM    154  H62 PHE d   1      -2.568  19.519   1.989  0.00  0.00     0.084 H 
ATOM    155  CZ  PHE d   1      -3.807  17.455   4.344  0.00  0.00    -0.083 A 
ATOM    156  H64 PHE d   1      -2.281  17.238   2.865  0.00  0.00     0.083 H 
ATOM    157  CE2 PHE d   1      -4.751  18.294   4.900  0.00  0.00    -0.082 A 
ATOM    158  H66 PHE d   1      -3.683  16.449   4.728  0.00  0.00     0.083 H 
ATOM    159  CD2 PHE d   1      -4.903  19.573   4.409  0.00  0.00    -0.077 A 
ATOM    160  H65 PHE d   1      -5.371  17.949   5.720  0.00  0.00     0.083 H 
ATOM    161  H63 PHE d   1      -5.647  20.229   4.846  0.00  0.00     0.084 H 
ENDBRANCH 148 151
ENDBRANCH 100 148
ENDBRANCH  98 100
ENDBRANCH  94  96
BRANCH  94 162
ATOM    162  CB  ALA d   1       0.111  22.346   3.629  0.00  0.00    -0.049 C 
ATOM    163  H55 ALA d   1       0.205  21.721   2.728  0.00  0.00     0.030 H 
ATOM    164  H56 ALA d   1      -0.450  21.796   4.399  0.00  0.00     0.030 H 
ATOM    165  H57 ALA d   1       1.113  22.593   4.011  0.00  0.00     0.030 H 
ENDBRANCH  94 162
ENDBRANCH  92  94
ENDBRANCH   1  90
BRANCH   1 166
ATOM    166  CB  HIS d   1      -1.103  25.691   6.890  0.00  0.00     0.004 C 
ATOM    167  H48 HIS d   1      -0.614  24.706   6.870  0.00  0.00     0.046 H 
ATOM    168  H49 HIS d   1      -2.189  25.564   6.768  0.00  0.00     0.046 H 
BRANCH 166 169
ATOM    169  CG  HIS d   1      -0.850  26.315   8.228  0.00  0.00     0.053 A 
ATOM    170  ND1 HIS d   1      -1.864  26.778   9.039  0.00  0.00    -0.247 NA
ATOM    171  CE1 HIS d   1      -1.347  27.267  10.151  0.00  0.00     0.064 A 
ATOM    172  NE2 HIS d   1      -0.034  27.138  10.093  0.00  0.00    -0.359 N 
ATOM    173  H51 HIS d   1      -1.908  27.703  10.976  0.00  0.00     0.143 H 
ATOM    174  CD2 HIS d   1       0.303  26.543   8.901  0.00  0.00     0.002 A 
ATOM    175  H52 HIS d   1       0.630  27.435  10.823  0.00  0.00     0.166 HD
ATOM    176  H50 HIS d   1       1.309  26.300   8.561  0.00  0.00     0.114 H 
ENDBRANCH 166 169
ENDBRANCH   1 166
TORSDOF 48
