REMARK  14 active torsions:
REMARK  status: ('A' for Active; 'I' for Inactive)
REMARK    1  A    between atoms: N_1  and  CA_2 
REMARK    2  A    between atoms: CA_2  and  C_3 
REMARK    3  A    between atoms: CA_2  and  CB_5 
REMARK       I    between atoms: C_3  and  N_6 
REMARK    4  A    between atoms: N_6  and  CA_7 
REMARK    5  A    between atoms: CA_7  and  C_8 
REMARK       I    between atoms: C_8  and  N_10 
REMARK    6  A    between atoms: N_10  and  CA_11 
REMARK    7  A    between atoms: CA_11  and  C_12 
REMARK    8  A    between atoms: CA_11  and  CB_14 
REMARK       I    between atoms: C_12  and  N_18 
REMARK    9  A    between atoms: CB_14  and  CG_15 
REMARK   10  A    between atoms: N_18  and  CA_19 
REMARK   11  A    between atoms: CA_19  and  C_20 
REMARK   12  A    between atoms: CA_19  and  CB_22 
REMARK   13  A    between atoms: CB_22  and  CG1_23 
REMARK   14  A    between atoms: CB_22  and  CG2_24 
ROOT
ATOM      1  CA  ASP d   1      54.314 112.632  71.180  0.00  0.00     0.098 C 
ATOM      2  H12 ASP d   1      55.360 112.296  71.128  0.00  0.00     0.088 H 
ENDROOT
BRANCH   1   3
ATOM      3  N   ASP d   1      53.444 111.458  71.249  0.00  0.00    -0.346 N 
ATOM      4  C   GLY d   1      53.778 110.352  71.914  0.00  0.00     0.236 C 
ATOM      5  O   GLY d   1      54.779 110.275  72.628  0.00  0.00    -0.272 OA
ATOM      6  H11 ASP d   1      52.562 111.486  70.778  0.00  0.00     0.163 HD
BRANCH   4   7
ATOM      7  CA  GLY d   1      52.848 109.173  71.744  0.00  0.00     0.069 C 
ATOM      8  H9  GLY d   1      51.966 109.495  71.171  0.00  0.00     0.078 H 
ATOM      9  H10 GLY d   1      53.375 108.380  71.192  0.00  0.00     0.078 H 
BRANCH   7  10
ATOM     10  N   GLY d   1      52.409 108.643  73.025  0.00  0.00    -0.351 N 
ATOM     11  C   ALA d   1      51.427 109.231  73.695  0.00  0.00     0.248 C 
ATOM     12  O   ALA d   1      50.903 110.280  73.325  0.00  0.00    -0.271 OA
ATOM     13  H8  GLY d   1      52.851 107.829  73.403  0.00  0.00     0.163 HD
BRANCH  11  14
ATOM     14  CA  ALA d   1      50.969 108.539  74.974  0.00  0.00     0.172 C 
ATOM     15  H4  ALA d   1      50.332 109.237  75.538  0.00  0.00     0.098 H 
BRANCH  14  16
ATOM     16  N   ALA d   1      50.186 107.353  74.656  0.00  0.00    -0.067 N 
ATOM     17  H1  ALA d   1      49.891 106.907  75.510  0.00  0.00     0.275 HD
ATOM     18  H2  ALA d   1      50.749 106.712  74.120  0.00  0.00     0.275 HD
ATOM     19  H3  ALA d   1      49.376 107.619  74.118  0.00  0.00     0.275 HD
ENDBRANCH  14  16
BRANCH  14  20
ATOM     20  CB  ALA d   1      52.162 108.170  75.842  0.00  0.00    -0.042 C 
ATOM     21  H5  ALA d   1      52.742 109.076  76.073  0.00  0.00     0.030 H 
ATOM     22  H6  ALA d   1      52.800 107.454  75.303  0.00  0.00     0.030 H 
ATOM     23  H7  ALA d   1      51.807 107.714  76.778  0.00  0.00     0.030 H 
ENDBRANCH  14  20
ENDBRANCH  11  14
ENDBRANCH   7  10
ENDBRANCH   4   7
ENDBRANCH   1   3
BRANCH   1  24
ATOM     24  C   ASP d   1      54.134 113.470  72.443  0.00  0.00     0.241 C 
ATOM     25  O   ASP d   1      53.400 114.462  72.478  0.00  0.00    -0.271 OA
ATOM     26  N   VAL d   1      54.828 113.059  73.500  0.00  0.00    -0.344 N 
ATOM     27  H15 VAL d   1      55.404 112.246  73.415  0.00  0.00     0.163 HD
BRANCH  26  28
ATOM     28  CA  VAL d   1      54.776 113.758  74.781  0.00  0.00     0.099 C 
ATOM     29  H16 VAL d   1      54.550 114.816  74.584  0.00  0.00     0.090 H 
BRANCH  28  30
ATOM     30  C   VAL d   1      56.121 113.680  75.494  0.00  0.00     0.197 C 
ATOM     31  O   VAL d   1      56.864 112.710  75.356  0.00  0.00    -0.646 OA
ATOM     32  OXT VAL d   1      56.495 114.586  76.239  0.00  0.00    -0.646 OA
ENDBRANCH  28  30
BRANCH  28  33
ATOM     33  CB  VAL d   1      53.668 113.190  75.683  0.00  0.00    -0.032 C 
ATOM     34  H17 VAL d   1      53.716 113.706  76.653  0.00  0.00     0.042 H 
BRANCH  33  35
ATOM     35  CG1 VAL d   1      52.299 113.441  75.079  0.00  0.00    -0.071 C 
ATOM     36  H18 VAL d   1      51.525 113.026  75.741  0.00  0.00     0.028 H 
ATOM     37  H19 VAL d   1      52.238 112.955  74.094  0.00  0.00     0.028 H 
ATOM     38  H20 VAL d   1      52.142 114.524  74.964  0.00  0.00     0.028 H 
ENDBRANCH  33  35
BRANCH  33  39
ATOM     39  CG2 VAL d   1      53.884 111.704  75.923  0.00  0.00    -0.071 C 
ATOM     40  H21 VAL d   1      54.881 111.544  76.360  0.00  0.00     0.028 H 
ATOM     41  H22 VAL d   1      53.812 111.164  74.967  0.00  0.00     0.028 H 
ATOM     42  H23 VAL d   1      53.116 111.329  76.615  0.00  0.00     0.028 H 
ENDBRANCH  33  39
ENDBRANCH  28  33
ENDBRANCH  26  28
ENDBRANCH   1  24
BRANCH   1  43
ATOM     43  CB  ASP d   1      54.007 113.442  69.928  0.00  0.00     0.043 C 
ATOM     44  H13 ASP d   1      52.985 113.840  70.008  0.00  0.00     0.052 H 
ATOM     45  H14 ASP d   1      54.075 112.778  69.053  0.00  0.00     0.052 H 
BRANCH  43  46
ATOM     46  CG  ASP d   1      54.962 114.596  69.734  0.00  0.00     0.175 C 
ATOM     47  OD1 ASP d   1      56.158 114.439  70.044  0.00  0.00    -0.648 OA
ATOM     48  OD2 ASP d   1      54.514 115.661  69.268  0.00  0.00    -0.648 OA
ENDBRANCH  43  46
ENDBRANCH   1  43
TORSDOF 14
