REMARK  14 active torsions:
REMARK  status: ('A' for Active; 'I' for Inactive)
REMARK    1  A    between atoms: N_1  and  CA_2 
REMARK    2  A    between atoms: CA_2  and  C_3 
REMARK    3  A    between atoms: CA_2  and  CB_5 
REMARK       I    between atoms: C_3  and  N_6 
REMARK    4  A    between atoms: N_6  and  CA_7 
REMARK    5  A    between atoms: CA_7  and  C_8 
REMARK       I    between atoms: C_8  and  N_10 
REMARK    6  A    between atoms: N_10  and  CA_11 
REMARK    7  A    between atoms: CA_11  and  C_12 
REMARK    8  A    between atoms: CA_11  and  CB_14 
REMARK       I    between atoms: C_12  and  N_18 
REMARK    9  A    between atoms: CB_14  and  CG_15 
REMARK   10  A    between atoms: N_18  and  CA_19 
REMARK   11  A    between atoms: CA_19  and  C_20 
REMARK   12  A    between atoms: CA_19  and  CB_22 
REMARK   13  A    between atoms: CB_22  and  CG1_23 
REMARK   14  A    between atoms: CB_22  and  CG2_24 
ROOT
ATOM      1  CA  ASP d   1      55.164 112.742  71.461  0.00  0.00     0.098 C 
ATOM      2  H12 ASP d   1      56.182 112.337  71.362  0.00  0.00     0.088 H 
ENDROOT
BRANCH   1   3
ATOM      3  N   ASP d   1      54.219 111.631  71.544  0.00  0.00    -0.346 N 
ATOM      4  C   GLY d   1      54.532 110.466  72.112  0.00  0.00     0.236 C 
ATOM      5  O   GLY d   1      55.578 110.282  72.737  0.00  0.00    -0.272 OA
ATOM      6  H11 ASP d   1      53.303 111.749  71.160  0.00  0.00     0.163 HD
BRANCH   4   7
ATOM      7  CA  GLY d   1      53.516 109.360  71.949  0.00  0.00     0.069 C 
ATOM      8  H9  GLY d   1      52.572 109.793  71.587  0.00  0.00     0.078 H 
ATOM      9  H10 GLY d   1      53.893 108.635  71.213  0.00  0.00     0.078 H 
BRANCH   7  10
ATOM     10  N   GLY d   1      53.267 108.671  73.205  0.00  0.00    -0.351 N 
ATOM     11  C   ALA d   1      52.393 109.157  74.077  0.00  0.00     0.248 C 
ATOM     12  O   ALA d   1      51.795 110.219  73.904  0.00  0.00    -0.271 OA
ATOM     13  H8  GLY d   1      53.758 107.825  73.413  0.00  0.00     0.163 HD
BRANCH  11  14
ATOM     14  CA  ALA d   1      52.153 108.327  75.332  0.00  0.00     0.172 C 
ATOM     15  H4  ALA d   1      51.679 108.969  76.089  0.00  0.00     0.098 H 
BRANCH  14  16
ATOM     16  N   ALA d   1      51.256 107.219  75.039  0.00  0.00    -0.067 N 
ATOM     17  H1  ALA d   1      51.105 106.678  75.876  0.00  0.00     0.275 HD
ATOM     18  H2  ALA d   1      51.667 106.632  74.330  0.00  0.00     0.275 HD
ATOM     19  H3  ALA d   1      50.374 107.579  74.708  0.00  0.00     0.275 HD
ENDBRANCH  14  16
BRANCH  14  20
ATOM     20  CB  ALA d   1      53.471 107.812  75.895  0.00  0.00    -0.042 C 
ATOM     21  H5  ALA d   1      54.135 108.662  76.110  0.00  0.00     0.030 H 
ATOM     22  H6  ALA d   1      53.950 107.150  75.159  0.00  0.00     0.030 H 
ATOM     23  H7  ALA d   1      53.280 107.252  76.823  0.00  0.00     0.030 H 
ENDBRANCH  14  20
ENDBRANCH  11  14
ENDBRANCH   7  10
ENDBRANCH   4   7
ENDBRANCH   1   3
BRANCH   1  24
ATOM     24  C   ASP d   1      55.086 113.555  72.748  0.00  0.00     0.241 C 
ATOM     25  O   ASP d   1      54.487 114.628  72.809  0.00  0.00    -0.271 OA
ATOM     26  N   VAL d   1      55.713 113.020  73.794  0.00  0.00    -0.344 N 
ATOM     27  H15 VAL d   1      56.162 112.133  73.689  0.00  0.00     0.163 HD
BRANCH  26  28
ATOM     28  CA  VAL d   1      55.763 113.692  75.089  0.00  0.00     0.099 C 
ATOM     29  H16 VAL d   1      55.642 114.772  74.921  0.00  0.00     0.090 H 
BRANCH  28  30
ATOM     30  C   VAL d   1      57.115 113.456  75.751  0.00  0.00     0.197 C 
ATOM     31  O   VAL d   1      57.912 112.641  75.291  0.00  0.00    -0.646 OA
ATOM     32  OXT VAL d   1      57.438 114.074  76.764  0.00  0.00    -0.646 OA
ENDBRANCH  28  30
BRANCH  28  33
ATOM     33  CB  VAL d   1      54.628 113.220  76.011  0.00  0.00    -0.032 C 
ATOM     34  H17 VAL d   1      54.699 113.775  76.958  0.00  0.00     0.042 H 
BRANCH  33  35
ATOM     35  CG1 VAL d   1      53.276 113.513  75.388  0.00  0.00    -0.071 C 
ATOM     36  H18 VAL d   1      52.479 113.168  76.063  0.00  0.00     0.028 H 
ATOM     37  H19 VAL d   1      53.194 112.987  74.425  0.00  0.00     0.028 H 
ATOM     38  H20 VAL d   1      53.175 114.596  75.224  0.00  0.00     0.028 H 
ENDBRANCH  33  35
BRANCH  33  39
ATOM     39  CG2 VAL d   1      54.766 111.739  76.316  0.00  0.00    -0.071 C 
ATOM     40  H21 VAL d   1      55.751 111.548  76.766  0.00  0.00     0.028 H 
ATOM     41  H22 VAL d   1      54.670 111.162  75.384  0.00  0.00     0.028 H 
ATOM     42  H23 VAL d   1      53.976 111.434  77.019  0.00  0.00     0.028 H 
ENDBRANCH  33  39
ENDBRANCH  28  33
ENDBRANCH  26  28
ENDBRANCH   1  24
BRANCH   1  43
ATOM     43  CB  ASP d   1      54.867 113.596  70.236  0.00  0.00     0.043 C 
ATOM     44  H13 ASP d   1      53.913 114.120  70.395  0.00  0.00     0.052 H 
ATOM     45  H14 ASP d   1      54.782 112.937  69.359  0.00  0.00     0.052 H 
BRANCH  43  46
ATOM     46  CG  ASP d   1      55.943 114.621  69.967  0.00  0.00     0.175 C 
ATOM     47  OD1 ASP d   1      57.121 114.342  70.264  0.00  0.00    -0.648 OA
ATOM     48  OD2 ASP d   1      55.612 115.704  69.444  0.00  0.00    -0.648 OA
ENDBRANCH  43  46
ENDBRANCH   1  43
TORSDOF 14
