REMARK  14 active torsions:
REMARK  status: ('A' for Active; 'I' for Inactive)
REMARK    1  A    between atoms: N_1  and  CA_2 
REMARK    2  A    between atoms: CA_2  and  C_3 
REMARK    3  A    between atoms: CA_2  and  CB_5 
REMARK       I    between atoms: C_3  and  N_6 
REMARK    4  A    between atoms: N_6  and  CA_7 
REMARK    5  A    between atoms: CA_7  and  C_8 
REMARK       I    between atoms: C_8  and  N_10 
REMARK    6  A    between atoms: N_10  and  CA_11 
REMARK    7  A    between atoms: CA_11  and  C_12 
REMARK    8  A    between atoms: CA_11  and  CB_14 
REMARK       I    between atoms: C_12  and  N_18 
REMARK    9  A    between atoms: CB_14  and  CG_15 
REMARK   10  A    between atoms: N_18  and  CA_19 
REMARK   11  A    between atoms: CA_19  and  C_20 
REMARK   12  A    between atoms: CA_19  and  CB_22 
REMARK       I    between atoms: C_20  and  N_25 
REMARK   13  A    between atoms: CB_22  and  CG1_23 
REMARK   14  A    between atoms: CB_22  and  CG2_24 
ROOT
ATOM      1  CA  ASP d   1      54.969 112.720  71.049  0.00  0.00     0.098 C 
ATOM      2  H12 ASP d   1      55.996 112.325  71.044  0.00  0.00     0.088 H 
ENDROOT
BRANCH   1   3
ATOM      3  N   ASP d   1      54.044 111.593  71.075  0.00  0.00    -0.346 N 
ATOM      4  C   GLY d   1      54.247 110.535  71.853  0.00  0.00     0.236 C 
ATOM      5  O   GLY d   1      55.190 110.450  72.639  0.00  0.00    -0.272 OA
ATOM      6  H11 ASP d   1      53.233 111.617  70.490  0.00  0.00     0.163 HD
BRANCH   4   7
ATOM      7  CA  GLY d   1      53.237 109.410  71.723  0.00  0.00     0.069 C 
ATOM      8  H9  GLY d   1      52.284 109.834  71.374  0.00  0.00     0.078 H 
ATOM      9  H10 GLY d   1      53.610 108.688  70.982  0.00  0.00     0.078 H 
BRANCH   7  10
ATOM     10  N   GLY d   1      53.003 108.711  72.973  0.00  0.00    -0.351 N 
ATOM     11  C   ALA d   1      52.077 109.114  73.839  0.00  0.00     0.248 C 
ATOM     12  O   ALA d   1      51.374 110.108  73.654  0.00  0.00    -0.271 OA
ATOM     13  H8  GLY d   1      53.553 107.904  73.189  0.00  0.00     0.163 HD
BRANCH  11  14
ATOM     14  CA  ALA d   1      51.917 108.271  75.103  0.00  0.00     0.172 C 
ATOM     15  H4  ALA d   1      51.408 108.881  75.864  0.00  0.00     0.098 H 
BRANCH  14  16
ATOM     16  N   ALA d   1      51.101 107.093  74.838  0.00  0.00    -0.067 N 
ATOM     17  H1  ALA d   1      51.008 106.552  75.683  0.00  0.00     0.275 HD
ATOM     18  H2  ALA d   1      51.542 106.532  74.126  0.00  0.00     0.275 HD
ATOM     19  H3  ALA d   1      50.188 107.381  74.521  0.00  0.00     0.275 HD
ENDBRANCH  14  16
BRANCH  14  20
ATOM     20  CB  ALA d   1      53.279 107.860  75.649  0.00  0.00    -0.042 C 
ATOM     21  H5  ALA d   1      53.882 108.759  75.844  0.00  0.00     0.030 H 
ATOM     22  H6  ALA d   1      53.793 107.226  74.912  0.00  0.00     0.030 H 
ATOM     23  H7  ALA d   1      53.145 107.299  76.585  0.00  0.00     0.030 H 
ENDBRANCH  14  20
ENDBRANCH  11  14
ENDBRANCH   7  10
ENDBRANCH   4   7
ENDBRANCH   1   3
BRANCH   1  24
ATOM     24  C   ASP d   1      54.801 113.605  72.280  0.00  0.00     0.241 C 
ATOM     25  O   ASP d   1      54.171 114.660  72.215  0.00  0.00    -0.271 OA
ATOM     26  N   VAL d   1      55.376 113.172  73.399  0.00  0.00    -0.346 N 
ATOM     27  H15 VAL d   1      55.916 112.331  73.372  0.00  0.00     0.163 HD
BRANCH  26  28
ATOM     28  CA  VAL d   1      55.243 113.888  74.665  0.00  0.00     0.092 C 
ATOM     29  H16 VAL d   1      55.085 114.953  74.440  0.00  0.00     0.088 H 
BRANCH  28  30
ATOM     30  C   VAL d   1      56.503 113.753  75.511  0.00  0.00     0.238 C 
ATOM     31  O   VAL d   1      56.810 114.622  76.329  0.00  0.00    -0.271 OA
ATOM     32  N   NH2 d   1      57.242 112.775  75.397  0.00  0.00    -0.368 N 
ATOM     33  H24 NH2 d   1      58.065 112.702  75.960  0.00  0.00     0.159 HD
ATOM     34  H25 NH2 d   1      57.019 112.054  74.741  0.00  0.00     0.159 HD
ENDBRANCH  28  30
BRANCH  28  35
ATOM     35  CB  VAL d   1      54.036 113.375  75.477  0.00  0.00    -0.033 C 
ATOM     36  H17 VAL d   1      54.055 113.860  76.464  0.00  0.00     0.042 H 
BRANCH  35  37
ATOM     37  CG1 VAL d   1      52.727 113.747  74.789  0.00  0.00    -0.071 C 
ATOM     38  H18 VAL d   1      51.881 113.372  75.384  0.00  0.00     0.028 H 
ATOM     39  H19 VAL d   1      52.699 113.296  73.786  0.00  0.00     0.028 H 
ATOM     40  H20 VAL d   1      52.657 114.841  74.701  0.00  0.00     0.028 H 
ENDBRANCH  35  37
BRANCH  35  41
ATOM     41  CG2 VAL d   1      54.129 111.867  75.685  0.00  0.00    -0.071 C 
ATOM     42  H21 VAL d   1      55.080 111.623  76.182  0.00  0.00     0.028 H 
ATOM     43  H22 VAL d   1      54.084 111.359  74.710  0.00  0.00     0.028 H 
ATOM     44  H23 VAL d   1      53.291 111.531  76.313  0.00  0.00     0.028 H 
ENDBRANCH  35  41
ENDBRANCH  28  35
ENDBRANCH  26  28
ENDBRANCH   1  24
BRANCH   1  45
ATOM     45  CB  ASP d   1      54.757 113.543  69.778  0.00  0.00     0.043 C 
ATOM     46  H13 ASP d   1      53.718 113.905  69.762  0.00  0.00     0.052 H 
ATOM     47  H14 ASP d   1      54.934 112.896  68.906  0.00  0.00     0.052 H 
BRANCH  45  48
ATOM     48  CG  ASP d   1      55.685 114.732  69.694  0.00  0.00     0.175 C 
ATOM     49  OD1 ASP d   1      56.799 114.657  70.253  0.00  0.00    -0.648 OA
ATOM     50  OD2 ASP d   1      55.298 115.743  69.069  0.00  0.00    -0.648 OA
ENDBRANCH  45  48
ENDBRANCH   1  45
TORSDOF 14
