REMARK WARNING: 32 MAX_TORS EXCEEDED!!!
REMARK  57 active torsions:
REMARK  status: ('A' for Active; 'I' for Inactive)
REMARK    1  A    between atoms: N_1  and  CA_2 
REMARK    2  A    between atoms: CA_2  and  C_3 
REMARK    3  A    between atoms: CA_2  and  CB_5 
REMARK       I    between atoms: C_3  and  N_12 
REMARK    4  A    between atoms: CB_5  and  CG_6 
REMARK    5  A    between atoms: CG_6  and  CD_7 
REMARK    6  A    between atoms: CD_7  and  NE_8 
REMARK       I    between atoms: NE_8  and  CZ_9 
REMARK       I    between atoms: CZ_9  and  NH1_10 
REMARK    7  A    between atoms: N_12  and  CA_13 
REMARK    8  A    between atoms: CA_13  and  C_14 
REMARK    9  A    between atoms: CA_13  and  CB_16 
REMARK       I    between atoms: C_14  and  N_21 
REMARK   10  A    between atoms: CB_16  and  CG_17 
REMARK   11  A    between atoms: CG_17  and  CD_18 
REMARK   12  A    between atoms: CD_18  and  CE_19 
REMARK   13  A    between atoms: CE_19  and  NZ_20 
REMARK   14  A    between atoms: N_21  and  CA_22 
REMARK   15  A    between atoms: CA_22  and  C_23 
REMARK   16  A    between atoms: CA_22  and  CB_25 
REMARK       I    between atoms: C_23  and  N_29 
REMARK   17  A    between atoms: CB_25  and  CG_26 
REMARK   18  A    between atoms: CG_26  and  CD1_27 
REMARK   19  A    between atoms: CG_26  and  CD2_28 
REMARK   20  A    between atoms: CA_30  and  C_31 
REMARK       I    between atoms: C_31  and  N_36 
REMARK   21  A    between atoms: N_36  and  CA_37 
REMARK   22  A    between atoms: CA_37  and  C_38 
REMARK   23  A    between atoms: CA_37  and  CB_40 
REMARK       I    between atoms: C_38  and  N_45 
REMARK   24  A    between atoms: CB_40  and  CG_41 
REMARK   25  A    between atoms: CG_41  and  CD_42 
REMARK   26  A    between atoms: N_45  and  CA_46 
REMARK   27  A    between atoms: CA_46  and  C_47 
REMARK   28  A    between atoms: CA_46  and  CB_49 
REMARK       I    between atoms: C_47  and  N_53 
REMARK   29  A    between atoms: CB_49  and  CG1_50 
REMARK   30  A    between atoms: CB_49  and  CG2_51 
REMARK   31  A    between atoms: CG1_50  and  CD1_52 
REMARK   32  A    between atoms: CA_54  and  C_55 
REMARK       I    between atoms: C_55  and  N_60 
REMARK   33  A    between atoms: N_60  and  CA_61 
REMARK   34  A    between atoms: CA_61  and  C_62 
REMARK   35  A    between atoms: CA_61  and  CB_64 
REMARK       I    between atoms: C_62  and  N_69 
REMARK   36  A    between atoms: CB_64  and  CG_65 
REMARK   37  A    between atoms: CG_65  and  CD_66 
REMARK   38  A    between atoms: CD_66  and  CE_67 
REMARK   39  A    between atoms: CE_67  and  NZ_68 
REMARK   40  A    between atoms: N_69  and  CA_70 
REMARK   41  A    between atoms: CA_70  and  C_71 
REMARK   42  A    between atoms: CA_70  and  CB_73 
REMARK       I    between atoms: C_71  and  N_77 
REMARK   43  A    between atoms: CB_73  and  CG_74 
REMARK       I    between atoms: CG_74  and  ND2_76 
REMARK   44  A    between atoms: N_77  and  CA_78 
REMARK   45  A    between atoms: CA_78  and  C_79 
REMARK   46  A    between atoms: CA_78  and  CB_81 
REMARK       I    between atoms: C_79  and  N_86 
REMARK   47  A    between atoms: CB_81  and  CG_82 
REMARK   48  A    between atoms: CG_82  and  CD_83 
REMARK   49  A    between atoms: CD_83  and  CE_84 
REMARK   50  A    between atoms: CE_84  and  NZ_85 
REMARK   51  A    between atoms: N_86  and  CA_87 
REMARK   52  A    between atoms: CA_87  and  C_88 
REMARK   53  A    between atoms: CA_87  and  CB_90 
REMARK       I    between atoms: C_88  and  N_95 
REMARK   54  A    between atoms: CB_90  and  CG_91 
REMARK   55  A    between atoms: CG_91  and  CD_92 
REMARK   56  A    between atoms: CD_92  and  CE_93 
REMARK   57  A    between atoms: CE_93  and  NZ_94 
ROOT
ATOM      1  CA  ILE d   1     -27.588  -5.691 -43.361  0.00  0.00     0.092 C 
ATOM      2  H54 ILE d   1     -26.588  -5.827 -42.924  0.00  0.00     0.088 H 
ENDROOT
BRANCH   1   3
ATOM      3  N   ILE d   1     -27.494  -5.730 -44.816  0.00  0.00    -0.346 N 
ATOM      4  C   GLU d   1     -26.793  -6.676 -45.434  0.00  0.00     0.241 C 
ATOM      5  O   GLU d   1     -26.042  -7.454 -44.831  0.00  0.00    -0.271 OA
ATOM      6  H53 ILE d   1     -27.965  -5.034 -45.358  0.00  0.00     0.163 HD
BRANCH   4   7
ATOM      7  CA  GLU d   1     -26.938  -6.749 -46.951  0.00  0.00     0.090 C 
ATOM      8  H48 GLU d   1     -27.376  -5.806 -47.311  0.00  0.00     0.087 H 
BRANCH   7   9
ATOM      9  N   GLU d   1     -25.624  -6.916 -47.583  0.00  0.00    -0.346 N 
ATOM     10  C   PRO d   1     -24.777  -5.903 -47.758  0.00  0.00     0.241 C 
ATOM     11  O   PRO d   1     -25.068  -4.723 -47.557  0.00  0.00    -0.271 OA
ATOM     12  H47 GLU d   1     -25.354  -7.827 -47.895  0.00  0.00     0.163 HD
BRANCH  10  13
ATOM     13  CA  PRO d   1     -23.385  -6.272 -48.259  0.00  0.00     0.091 C 
ATOM     14  N   PRO d   1     -22.694  -5.131 -48.862  0.00  0.00    -0.337 N 
ATOM     15  C   LEU d   1     -23.020  -4.724 -50.101  0.00  0.00     0.243 C 
ATOM     16  CD  PRO d   1     -21.628  -4.604 -47.991  0.00  0.00    -0.001 C 
ATOM     17  O   LEU d   1     -23.872  -5.299 -50.785  0.00  0.00    -0.271 OA
ATOM     18  CG  PRO d   1     -21.773  -5.394 -46.726  0.00  0.00    -0.048 C 
ATOM     19  H45 PRO d   1     -21.773  -3.530 -47.801  0.00  0.00     0.064 H 
ATOM     20  H46 PRO d   1     -20.638  -4.766 -48.442  0.00  0.00     0.064 H 
ATOM     21  CB  PRO d   1     -22.477  -6.656 -47.085  0.00  0.00    -0.036 C 
ATOM     22  H43 PRO d   1     -20.782  -5.620 -46.305  0.00  0.00     0.035 H 
ATOM     23  H44 PRO d   1     -22.363  -4.827 -45.991  0.00  0.00     0.035 H 
ATOM     24  H41 PRO d   1     -21.756  -7.430 -47.388  0.00  0.00     0.036 H 
ATOM     25  H42 PRO d   1     -23.073  -7.023 -46.237  0.00  0.00     0.036 H 
ATOM     26  H40 PRO d   1     -23.467  -7.099 -48.979  0.00  0.00     0.087 H 
BRANCH  15  27
ATOM     27  CA  LEU d   1     -22.301  -3.491 -50.645  0.00  0.00     0.090 C 
ATOM     28  H30 LEU d   1     -21.323  -3.409 -50.148  0.00  0.00     0.087 H 
BRANCH  27  29
ATOM     29  N   LEU d   1     -22.074  -3.600 -52.087  0.00  0.00    -0.346 N 
ATOM     30  C   LYS d   1     -21.135  -4.404 -52.597  0.00  0.00     0.241 C 
ATOM     31  O   LYS d   1     -20.351  -5.055 -51.905  0.00  0.00    -0.271 OA
ATOM     32  H29 LEU d   1     -22.638  -3.057 -52.709  0.00  0.00     0.163 HD
BRANCH  30  33
ATOM     33  CA  LYS d   1     -21.059  -4.465 -54.118  0.00  0.00     0.089 C 
ATOM     34  H17 LYS d   1     -21.528  -3.544 -54.496  0.00  0.00     0.087 H 
BRANCH  33  35
ATOM     35  N   LYS d   1     -19.690  -4.508 -54.629  0.00  0.00    -0.346 N 
ATOM     36  C   ARG d   1     -19.048  -3.424 -55.042  0.00  0.00     0.248 C 
ATOM     37  O   ARG d   1     -19.402  -2.282 -54.746  0.00  0.00    -0.271 OA
ATOM     38  H16 LYS d   1     -19.219  -5.389 -54.669  0.00  0.00     0.163 HD
BRANCH  36  39
ATOM     39  CA  ARG d   1     -17.803  -3.696 -55.907  0.00  0.00     0.176 C 
ATOM     40  H4  ARG d   1     -17.864  -4.738 -56.255  0.00  0.00     0.099 H 
BRANCH  39  41
ATOM     41  N   ARG d   1     -17.789  -2.808 -57.117  0.00  0.00    -0.067 N 
ATOM     42  H1  ARG d   1     -16.967  -3.003 -57.667  0.00  0.00     0.275 HD
ATOM     43  H2  ARG d   1     -17.777  -1.843 -56.826  0.00  0.00     0.275 HD
ATOM     44  H3  ARG d   1     -18.613  -2.982 -57.671  0.00  0.00     0.275 HD
ENDBRANCH  39  41
BRANCH  39  45
ATOM     45  CB  ARG d   1     -16.485  -3.549 -55.102  0.00  0.00    -0.029 C 
ATOM     46  H5  ARG d   1     -15.833  -2.850 -55.646  0.00  0.00     0.036 H 
ATOM     47  H6  ARG d   1     -16.005  -4.538 -55.055  0.00  0.00     0.036 H 
BRANCH  45  48
ATOM     48  CG  ARG d   1     -16.637  -3.037 -53.683  0.00  0.00    -0.047 C 
ATOM     49  H7  ARG d   1     -17.438  -3.607 -53.190  0.00  0.00     0.035 H 
ATOM     50  H8  ARG d   1     -16.916  -1.974 -53.724  0.00  0.00     0.035 H 
BRANCH  48  51
ATOM     51  CD  ARG d   1     -15.367  -3.172 -52.853  0.00  0.00     0.009 C 
ATOM     52  H9  ARG d   1     -15.591  -2.876 -51.818  0.00  0.00     0.064 H 
ATOM     53  H10 ARG d   1     -14.602  -2.500 -53.269  0.00  0.00     0.064 H 
BRANCH  51  54
ATOM     54  NE  ARG d   1     -14.835  -4.536 -52.844  0.00  0.00    -0.227 N 
ATOM     55  CZ  ARG d   1     -13.601  -4.902 -53.193  0.00  0.00     0.665 C 
ATOM     56  NH1 ARG d   1     -12.695  -4.020 -53.604  0.00  0.00    -0.235 N 
ATOM     57  NH2 ARG d   1     -13.272  -6.185 -53.127  0.00  0.00    -0.235 N 
ATOM     58  H12 ARG d   1     -11.751  -4.336 -53.866  0.00  0.00     0.174 HD
ATOM     59  H13 ARG d   1     -12.938  -3.021 -53.660  0.00  0.00     0.174 HD
ATOM     60  H14 ARG d   1     -13.964  -6.879 -52.810  0.00  0.00     0.174 HD
ATOM     61  H15 ARG d   1     -12.324  -6.488 -53.392  0.00  0.00     0.174 HD
ATOM     62  H11 ARG d   1     -15.474  -5.284 -52.539  0.00  0.00     0.177 HD
ENDBRANCH  51  54
ENDBRANCH  48  51
ENDBRANCH  45  48
ENDBRANCH  39  45
ENDBRANCH  36  39
ENDBRANCH  33  35
BRANCH  33  63
ATOM     63  CB  LYS d   1     -21.823  -5.652 -54.706  0.00  0.00    -0.038 C 
ATOM     64  H18 LYS d   1     -22.816  -5.725 -54.237  0.00  0.00     0.036 H 
ATOM     65  H19 LYS d   1     -21.263  -6.581 -54.525  0.00  0.00     0.036 H 
BRANCH  63  66
ATOM     66  CG  LYS d   1     -21.975  -5.428 -56.194  0.00  0.00    -0.061 C 
ATOM     67  H20 LYS d   1     -21.006  -5.093 -56.594  0.00  0.00     0.033 H 
ATOM     68  H21 LYS d   1     -22.728  -4.641 -56.350  0.00  0.00     0.033 H 
BRANCH  66  69
ATOM     69  CD  LYS d   1     -22.403  -6.647 -56.954  0.00  0.00    -0.043 C 
ATOM     70  H22 LYS d   1     -23.186  -7.172 -56.388  0.00  0.00     0.035 H 
ATOM     71  H23 LYS d   1     -21.539  -7.314 -57.089  0.00  0.00     0.035 H 
BRANCH  69  72
ATOM     72  CE  LYS d   1     -22.942  -6.253 -58.300  0.00  0.00     0.080 C 
ATOM     73  H24 LYS d   1     -22.223  -5.567 -58.772  0.00  0.00     0.075 H 
ATOM     74  H25 LYS d   1     -23.900  -5.734 -58.149  0.00  0.00     0.075 H 
BRANCH  72  75
ATOM     75  NZ  LYS d   1     -23.171  -7.394 -59.222  0.00  0.00    -0.079 N 
ATOM     76  H26 LYS d   1     -23.531  -7.051 -60.099  0.00  0.00     0.274 HD
ATOM     77  H27 LYS d   1     -23.837  -8.029 -58.811  0.00  0.00     0.274 HD
ATOM     78  H28 LYS d   1     -22.301  -7.877 -59.382  0.00  0.00     0.274 HD
ENDBRANCH  72  75
ENDBRANCH  69  72
ENDBRANCH  66  69
ENDBRANCH  63  66
ENDBRANCH  33  63
ENDBRANCH  30  33
ENDBRANCH  27  29
BRANCH  27  79
ATOM     79  CB  LEU d   1     -23.127  -2.239 -50.314  0.00  0.00    -0.035 C 
ATOM     80  H31 LEU d   1     -23.501  -2.345 -49.285  0.00  0.00     0.037 H 
ATOM     81  H32 LEU d   1     -23.977  -2.203 -51.011  0.00  0.00     0.037 H 
BRANCH  79  82
ATOM     82  CG  LEU d   1     -22.388  -0.902 -50.408  0.00  0.00    -0.059 C 
ATOM     83  H33 LEU d   1     -21.832  -0.885 -51.357  0.00  0.00     0.038 H 
BRANCH  82  84
ATOM     84  CD1 LEU d   1     -23.376   0.252 -50.416  0.00  0.00    -0.073 C 
ATOM     85  H34 LEU d   1     -22.828   1.203 -50.484  0.00  0.00     0.028 H 
ATOM     86  H35 LEU d   1     -23.967   0.235 -49.489  0.00  0.00     0.028 H 
ATOM     87  H36 LEU d   1     -24.048   0.153 -51.281  0.00  0.00     0.028 H 
ENDBRANCH  82  84
BRANCH  82  88
ATOM     88  CD2 LEU d   1     -21.386  -0.744 -49.272  0.00  0.00    -0.073 C 
ATOM     89  H37 LEU d   1     -20.681  -1.589 -49.285  0.00  0.00     0.028 H 
ATOM     90  H38 LEU d   1     -21.921  -0.727 -48.311  0.00  0.00     0.028 H 
ATOM     91  H39 LEU d   1     -20.832   0.198 -49.400  0.00  0.00     0.028 H 
ENDBRANCH  82  88
ENDBRANCH  79  82
ENDBRANCH  27  79
ENDBRANCH  15  27
ENDBRANCH  10  13
ENDBRANCH   7   9
BRANCH   7  92
ATOM     92  CB  GLU d   1     -27.896  -7.901 -47.308  0.00  0.00    -0.029 C 
ATOM     93  H49 GLU d   1     -28.767  -7.848 -46.639  0.00  0.00     0.037 H 
ATOM     94  H50 GLU d   1     -27.369  -8.853 -47.149  0.00  0.00     0.037 H 
BRANCH  92  95
ATOM     95  CG  GLU d   1     -28.401  -7.860 -48.772  0.00  0.00     0.018 C 
ATOM     96  H51 GLU d   1     -28.450  -8.888 -49.159  0.00  0.00     0.049 H 
ATOM     97  H52 GLU d   1     -27.692  -7.274 -49.376  0.00  0.00     0.049 H 
BRANCH  95  98
ATOM     98  CD  GLU d   1     -29.782  -7.226 -48.883  0.00  0.00     0.172 C 
ATOM     99  OE1 GLU d   1     -29.859  -6.179 -49.544  0.00  0.00    -0.648 OA
ATOM    100  OE2 GLU d   1     -30.783  -7.747 -48.307  0.00  0.00    -0.648 OA
ENDBRANCH  95  98
ENDBRANCH  92  95
ENDBRANCH   7  92
ENDBRANCH   4   7
ENDBRANCH   1   3
BRANCH   1 101
ATOM    101  C   ILE d   1     -28.494  -6.850 -42.962  0.00  0.00     0.243 C 
ATOM    102  O   ILE d   1     -29.627  -6.916 -43.433  0.00  0.00    -0.271 OA
ATOM    103  N   PRO d   1     -28.000  -7.766 -42.106  0.00  0.00    -0.337 N 
ATOM    104  CA  PRO d   1     -28.827  -8.906 -41.700  0.00  0.00     0.091 C 
ATOM    105  CD  PRO d   1     -26.667  -7.800 -41.476  0.00  0.00    -0.001 C 
ATOM    106  CB  PRO d   1     -27.956  -9.624 -40.659  0.00  0.00    -0.036 C 
ATOM    107  H64 PRO d   1     -29.031  -9.563 -42.558  0.00  0.00     0.087 H 
ATOM    108  CG  PRO d   1     -26.560  -9.204 -40.974  0.00  0.00    -0.048 C 
ATOM    109  H65 PRO d   1     -28.062 -10.715 -40.751  0.00  0.00     0.036 H 
ATOM    110  H66 PRO d   1     -28.234  -9.313 -39.641  0.00  0.00     0.036 H 
ATOM    111  H67 PRO d   1     -26.128  -9.856 -41.747  0.00  0.00     0.035 H 
ATOM    112  H68 PRO d   1     -25.934  -9.242 -40.070  0.00  0.00     0.035 H 
ATOM    113  H69 PRO d   1     -26.604  -7.079 -40.647  0.00  0.00     0.064 H 
ATOM    114  H70 PRO d   1     -25.878  -7.583 -42.211  0.00  0.00     0.064 H 
BRANCH 104 115
ATOM    115  C   PRO d   1     -30.152  -8.452 -41.089  0.00  0.00     0.241 C 
ATOM    116  O   PRO d   1     -30.164  -7.627 -40.175  0.00  0.00    -0.271 OA
ATOM    117  N   LYS d   1     -31.251  -8.983 -41.617  0.00  0.00    -0.346 N 
ATOM    118  H71 LYS d   1     -31.155  -9.711 -42.296  0.00  0.00     0.163 HD
BRANCH 117 119
ATOM    119  CA  LYS d   1     -32.599  -8.542 -41.242  0.00  0.00     0.089 C 
ATOM    120  H72 LYS d   1     -32.624  -7.444 -41.305  0.00  0.00     0.087 H 
BRANCH 119 121
ATOM    121  C   LYS d   1     -32.953  -8.926 -39.811  0.00  0.00     0.241 C 
ATOM    122  O   LYS d   1     -33.589  -8.154 -39.101  0.00  0.00    -0.271 OA
ATOM    123  N   ASN d   1     -32.492 -10.094 -39.375  0.00  0.00    -0.346 N 
ATOM    124  H84 ASN d   1     -31.984 -10.682 -40.004  0.00  0.00     0.163 HD
BRANCH 123 125
ATOM    125  CA  ASN d   1     -32.708 -10.542 -37.999  0.00  0.00     0.097 C 
ATOM    126  H85 ASN d   1     -33.766 -10.359 -37.761  0.00  0.00     0.088 H 
BRANCH 125 127
ATOM    127  C   ASN d   1     -31.873  -9.789 -36.954  0.00  0.00     0.241 C 
ATOM    128  O   ASN d   1     -32.071  -9.977 -35.756  0.00  0.00    -0.271 OA
ATOM    129  N   LYS d   1     -30.940  -8.950 -37.404  0.00  0.00    -0.346 N 
ATOM    130  H90 LYS d   1     -30.783  -8.889 -38.390  0.00  0.00     0.163 HD
BRANCH 129 131
ATOM    131  CA  LYS d   1     -30.135  -8.114 -36.509  0.00  0.00     0.089 C 
ATOM    132  H91 LYS d   1     -30.268  -8.491 -35.484  0.00  0.00     0.087 H 
BRANCH 131 133
ATOM    133  C   LYS d   1     -30.566  -6.639 -36.530  0.00  0.00     0.241 C 
ATOM    134  O   LYS d   1     -30.237  -5.885 -35.615  0.00  0.00    -0.271 OA
ATOM    135  N   LYS d   1     -31.337  -6.261 -37.555  0.00  0.00    -0.346 N 
ATOM    136 3H10 LYS d   1     -31.681  -6.974 -38.166  0.00  0.00     0.163 HD
BRANCH 135 137
ATOM    137  CA  LYS d   1     -31.711  -4.884 -37.844  0.00  0.00     0.089 C 
ATOM    138 4H10 LYS d   1     -30.908  -4.202 -37.527  0.00  0.00     0.087 H 
BRANCH 137 139
ATOM    139  C   LYS d   1     -33.018  -4.510 -37.105  0.00  0.00     0.238 C 
ATOM    140  O   LYS d   1     -33.326  -4.994 -35.991  0.00  0.00    -0.271 OA
ATOM    141  N   NH2 d   1     -33.798  -3.648 -37.742  0.00  0.00    -0.368 N 
ATOM    142 6H11 NH2 d   1     -34.661  -3.356 -37.330  0.00  0.00     0.159 HD
ATOM    143 7H11 NH2 d   1     -33.523  -3.290 -38.634  0.00  0.00     0.159 HD
ENDBRANCH 137 139
BRANCH 137 144
ATOM    144  CB  LYS d   1     -31.909  -4.792 -39.381  0.00  0.00    -0.038 C 
ATOM    145 5H10 LYS d   1     -32.762  -5.444 -39.621  0.00  0.00     0.036 H 
ATOM    146 6H10 LYS d   1     -30.995  -5.203 -39.834  0.00  0.00     0.036 H 
BRANCH 144 147
ATOM    147  CG  LYS d   1     -32.176  -3.460 -40.087  0.00  0.00    -0.061 C 
ATOM    148 7H10 LYS d   1     -31.384  -2.748 -39.813  0.00  0.00     0.033 H 
ATOM    149 8H10 LYS d   1     -33.150  -3.071 -39.754  0.00  0.00     0.033 H 
BRANCH 147 150
ATOM    150  CD  LYS d   1     -32.199  -3.612 -41.611  0.00  0.00    -0.043 C 
ATOM    151 9H10 LYS d   1     -31.282  -4.136 -41.920  0.00  0.00     0.035 H 
ATOM    152 0H11 LYS d   1     -32.216  -2.607 -42.059  0.00  0.00     0.035 H 
BRANCH 150 153
ATOM    153  CE  LYS d   1     -33.398  -4.392 -42.139  0.00  0.00     0.080 C 
ATOM    154 1H11 LYS d   1     -34.301  -4.069 -41.600  0.00  0.00     0.075 H 
ATOM    155 2H11 LYS d   1     -33.232  -5.465 -41.965  0.00  0.00     0.075 H 
BRANCH 153 156
ATOM    156  NZ  LYS d   1     -33.596  -4.163 -43.598  0.00  0.00    -0.079 N 
ATOM    157 3H11 LYS d   1     -34.394  -4.691 -43.916  0.00  0.00     0.274 HD
ATOM    158 4H11 LYS d   1     -32.774  -4.462 -44.100  0.00  0.00     0.274 HD
ATOM    159 5H11 LYS d   1     -33.754  -3.182 -43.766  0.00  0.00     0.274 HD
ENDBRANCH 153 156
ENDBRANCH 150 153
ENDBRANCH 147 150
ENDBRANCH 144 147
ENDBRANCH 137 144
ENDBRANCH 135 137
ENDBRANCH 131 133
BRANCH 131 160
ATOM    160  CB  LYS d   1     -28.653  -8.227 -36.877  0.00  0.00    -0.038 C 
ATOM    161  H92 LYS d   1     -28.072  -7.610 -36.176  0.00  0.00     0.036 H 
ATOM    162  H93 LYS d   1     -28.518  -7.846 -37.900  0.00  0.00     0.036 H 
BRANCH 160 163
ATOM    163  CG  LYS d   1     -28.120  -9.656 -36.819  0.00  0.00    -0.061 C 
ATOM    164  H94 LYS d   1     -27.166  -9.697 -37.365  0.00  0.00     0.033 H 
ATOM    165  H95 LYS d   1     -28.849 -10.323 -37.303  0.00  0.00     0.033 H 
BRANCH 163 166
ATOM    166  CD  LYS d   1     -27.889 -10.139 -35.407  0.00  0.00    -0.043 C 
ATOM    167  H96 LYS d   1     -28.846 -10.152 -34.864  0.00  0.00     0.035 H 
ATOM    168  H97 LYS d   1     -27.188  -9.460 -34.899  0.00  0.00     0.035 H 
BRANCH 166 169
ATOM    169  CE  LYS d   1     -27.305 -11.540 -35.433  0.00  0.00     0.080 C 
ATOM    170  H98 LYS d   1     -26.534 -11.589 -36.215  0.00  0.00     0.075 H 
ATOM    171  H99 LYS d   1     -28.108 -12.255 -35.665  0.00  0.00     0.075 H 
BRANCH 169 172
ATOM    172  NZ  LYS d   1     -26.693 -11.911 -34.133  0.00  0.00    -0.079 N 
ATOM    173 0H10 LYS d   1     -26.318 -12.845 -34.192  0.00  0.00     0.274 HD
ATOM    174 1H10 LYS d   1     -27.394 -11.876 -33.409  0.00  0.00     0.274 HD
ATOM    175 2H10 LYS d   1     -25.951 -11.265 -33.914  0.00  0.00     0.274 HD
ENDBRANCH 169 172
ENDBRANCH 166 169
ENDBRANCH 163 166
ENDBRANCH 160 163
ENDBRANCH 131 160
ENDBRANCH 129 131
ENDBRANCH 125 127
BRANCH 125 176
ATOM    176  CB  ASN d   1     -32.454 -12.047 -37.889  0.00  0.00     0.036 C 
ATOM    177  H86 ASN d   1     -32.600 -12.354 -36.843  0.00  0.00     0.051 H 
ATOM    178  H87 ASN d   1     -31.416 -12.253 -38.191  0.00  0.00     0.051 H 
BRANCH 176 179
ATOM    179  CG  ASN d   1     -33.391 -12.861 -38.773  0.00  0.00     0.217 C 
ATOM    180  OD1 ASN d   1     -34.434 -12.373 -39.208  0.00  0.00    -0.274 OA
ATOM    181  ND2 ASN d   1     -33.016 -14.102 -39.048  0.00  0.00    -0.370 N 
ATOM    182  H88 ASN d   1     -33.592 -14.682 -39.624  0.00  0.00     0.159 HD
ATOM    183  H89 ASN d   1     -32.157 -14.458 -38.680  0.00  0.00     0.159 HD
ENDBRANCH 176 179
ENDBRANCH 125 176
ENDBRANCH 123 125
ENDBRANCH 119 121
BRANCH 119 184
ATOM    184  CB  LYS d   1     -33.617  -9.094 -42.239  0.00  0.00    -0.038 C 
ATOM    185  H73 LYS d   1     -34.627  -8.803 -41.915  0.00  0.00     0.036 H 
ATOM    186  H74 LYS d   1     -33.539 -10.191 -42.257  0.00  0.00     0.036 H 
BRANCH 184 187
ATOM    187  CG  LYS d   1     -33.375  -8.555 -43.658  0.00  0.00    -0.061 C 
ATOM    188  H75 LYS d   1     -32.644  -7.735 -43.608  0.00  0.00     0.033 H 
ATOM    189  H76 LYS d   1     -34.325  -8.175 -44.062  0.00  0.00     0.033 H 
BRANCH 187 190
ATOM    190  CD  LYS d   1     -32.840  -9.639 -44.588  0.00  0.00    -0.043 C 
ATOM    191  H77 LYS d   1     -33.663 -10.322 -44.844  0.00  0.00     0.035 H 
ATOM    192  H78 LYS d   1     -32.050 -10.196 -44.063  0.00  0.00     0.035 H 
BRANCH 190 193
ATOM    193  CE  LYS d   1     -32.259  -9.066 -45.881  0.00  0.00     0.080 C 
ATOM    194  H79 LYS d   1     -31.305  -9.573 -46.090  0.00  0.00     0.075 H 
ATOM    195  H80 LYS d   1     -32.079  -7.990 -45.736  0.00  0.00     0.075 H 
BRANCH 193 196
ATOM    196  NZ  LYS d   1     -33.155  -9.241 -47.060  0.00  0.00    -0.079 N 
ATOM    197  H81 LYS d   1     -32.717  -8.844 -47.877  0.00  0.00     0.274 HD
ATOM    198  H82 LYS d   1     -34.031  -8.774 -46.888  0.00  0.00     0.274 HD
ATOM    199  H83 LYS d   1     -33.322 -10.223 -47.212  0.00  0.00     0.274 HD
ENDBRANCH 193 196
ENDBRANCH 190 193
ENDBRANCH 187 190
ENDBRANCH 184 187
ENDBRANCH 119 184
ENDBRANCH 117 119
ENDBRANCH 104 115
ENDBRANCH   1 101
BRANCH   1 200
ATOM    200  CB  ILE d   1     -28.177  -4.365 -42.847  0.00  0.00    -0.030 C 
ATOM    201  H55 ILE d   1     -29.122  -4.168 -43.375  0.00  0.00     0.043 H 
BRANCH 200 202
ATOM    202  CG1 ILE d   1     -27.205  -3.210 -43.113  0.00  0.00    -0.063 C 
ATOM    203  H56 ILE d   1     -26.705  -3.392 -44.076  0.00  0.00     0.033 H 
ATOM    204  H57 ILE d   1     -26.456  -3.195 -42.308  0.00  0.00     0.033 H 
BRANCH 202 205
ATOM    205  CD1 ILE d   1     -27.871  -1.852 -43.171  0.00  0.00    -0.076 C 
ATOM    206  H61 ILE d   1     -27.112  -1.079 -43.364  0.00  0.00     0.027 H 
ATOM    207  H62 ILE d   1     -28.368  -1.646 -42.212  0.00  0.00     0.027 H 
ATOM    208  H63 ILE d   1     -28.617  -1.844 -43.979  0.00  0.00     0.027 H 
ENDBRANCH 202 205
ENDBRANCH 200 202
BRANCH 200 209
ATOM    209  CG2 ILE d   1     -28.452  -4.452 -41.353  0.00  0.00    -0.071 C 
ATOM    210  H58 ILE d   1     -29.149  -5.280 -41.156  0.00  0.00     0.028 H 
ATOM    211  H59 ILE d   1     -28.897  -3.507 -41.006  0.00  0.00     0.028 H 
ATOM    212  H60 ILE d   1     -27.509  -4.632 -40.816  0.00  0.00     0.028 H 
ENDBRANCH 200 209
ENDBRANCH   1 200
TORSDOF 57
