REMARK WARNING: 32 MAX_TORS EXCEEDED!!!
REMARK  44 active torsions:
REMARK  status: ('A' for Active; 'I' for Inactive)
REMARK    1  A    between atoms: N_1  and  CA_2 
REMARK    2  A    between atoms: CA_2  and  C_3 
REMARK       I    between atoms: C_3  and  N_5 
REMARK    3  A    between atoms: N_5  and  CA_6 
REMARK    4  A    between atoms: CA_6  and  C_7 
REMARK    5  A    between atoms: CA_6  and  CB_9 
REMARK       I    between atoms: C_7  and  N_16 
REMARK    6  A    between atoms: CB_9  and  CG_10 
REMARK    7  A    between atoms: CG_10  and  CD_11 
REMARK    8  A    between atoms: CD_11  and  NE_12 
REMARK       I    between atoms: NE_12  and  CZ_13 
REMARK       I    between atoms: CZ_13  and  NH1_14 
REMARK       I    between atoms: CZ_13  and  NH2_15 
REMARK    9  A    between atoms: N_16  and  CA_17 
REMARK   10  A    between atoms: CA_17  and  C_18 
REMARK   11  A    between atoms: CA_17  and  CB_20 
REMARK       I    between atoms: C_18  and  N_27 
REMARK   12  A    between atoms: CB_20  and  CG_21 
REMARK   13  A    between atoms: CG_21  and  CD_22 
REMARK   14  A    between atoms: CD_22  and  NE_23 
REMARK       I    between atoms: NE_23  and  CZ_24 
REMARK       I    between atoms: CZ_24  and  NH1_25 
REMARK   15  A    between atoms: N_27  and  CA_28 
REMARK   16  A    between atoms: CA_28  and  C_29 
REMARK   17  A    between atoms: CA_28  and  CB_31 
REMARK       I    between atoms: C_29  and  N_35 
REMARK   18  A    between atoms: CB_31  and  CG_32 
REMARK   19  A    between atoms: CG_32  and  CD1_33 
REMARK   20  A    between atoms: CG_32  and  CD2_34 
REMARK   21  A    between atoms: CA_36  and  C_37 
REMARK       I    between atoms: C_37  and  N_42 
REMARK   22  A    between atoms: CA_43  and  C_44 
REMARK       I    between atoms: C_44  and  N_49 
REMARK   23  A    between atoms: N_49  and  CA_50 
REMARK   24  A    between atoms: CA_50  and  C_51 
REMARK   25  A    between atoms: CA_50  and  CB_53 
REMARK       I    between atoms: C_51  and  N_56 
REMARK   26  A    between atoms: CB_53  and  OG1_54 
REMARK   27  A    between atoms: CB_53  and  CG2_55 
REMARK   28  A    between atoms: CA_57  and  C_58 
REMARK       I    between atoms: C_58  and  N_63 
REMARK   29  A    between atoms: N_63  and  CA_64 
REMARK   30  A    between atoms: CA_64  and  C_65 
REMARK   31  A    between atoms: CA_64  and  CB_67 
REMARK       I    between atoms: C_65  and  N_69 
REMARK   32  A    between atoms: CB_67  and  OG_68 
REMARK   33  A    between atoms: N_69  and  CA_70 
REMARK   34  A    between atoms: CA_70  and  C_71 
REMARK   35  A    between atoms: CA_70  and  CB_73 
REMARK       I    between atoms: C_71  and  N_78 
REMARK   36  A    between atoms: CB_73  and  CG_74 
REMARK   37  A    between atoms: CG_74  and  CD_75 
REMARK   38  A    between atoms: CD_75  and  CE_76 
REMARK   39  A    between atoms: CE_76  and  NZ_77 
REMARK   40  A    between atoms: CA_79  and  C_80 
REMARK       I    between atoms: C_80  and  N_85 
REMARK   41  A    between atoms: N_85  and  CA_86 
REMARK   42  A    between atoms: CA_86  and  C_87 
REMARK   43  A    between atoms: CA_86  and  CB_89 
REMARK   44  A    between atoms: CB_89  and  OG_90 
ROOT
ATOM      1  C   PRO d   1     -22.223  19.005   3.074  0.00  0.00     0.243 C 
ATOM      2  O   PRO d   1     -23.306  19.589   3.119  0.00  0.00    -0.271 OA
ATOM      3  N   PRO d   1     -21.327  19.058   4.065  0.00  0.00    -0.337 N 
ATOM      4  CA  PRO d   1     -21.545  19.914   5.238  0.00  0.00     0.091 C 
ATOM      5  CB  PRO d   1     -20.327  19.615   6.124  0.00  0.00    -0.036 C 
ATOM      6  CG  PRO d   1     -19.295  19.065   5.192  0.00  0.00    -0.048 C 
ATOM      7  CD  PRO d   1     -20.063  18.306   4.154  0.00  0.00    -0.001 C 
ATOM      8  H50 PRO d   1     -22.476  19.626   5.748  0.00  0.00     0.087 H 
ATOM      9  H51 PRO d   1     -20.583  18.875   6.897  0.00  0.00     0.036 H 
ATOM     10  H52 PRO d   1     -19.963  20.535   6.604  0.00  0.00     0.036 H 
ATOM     11  H53 PRO d   1     -18.608  18.395   5.730  0.00  0.00     0.035 H 
ATOM     12  H54 PRO d   1     -18.722  19.881   4.727  0.00  0.00     0.035 H 
ATOM     13  H55 PRO d   1     -19.533  18.307   3.190  0.00  0.00     0.064 H 
ATOM     14  H56 PRO d   1     -20.241  17.269   4.473  0.00  0.00     0.064 H 
ENDROOT
BRANCH   1  15
ATOM     15  CA  PRO d   1     -21.887  18.157   1.853  0.00  0.00     0.092 C 
ATOM     16  N   PRO d   1     -23.141  17.842   1.171  0.00  0.00    -0.337 N 
ATOM     17  C   LEU d   1     -23.949  16.920   1.715  0.00  0.00     0.243 C 
ATOM     18  CD  PRO d   1     -23.293  18.603  -0.081  0.00  0.00    -0.001 C 
ATOM     19  O   LEU d   1     -23.592  16.190   2.645  0.00  0.00    -0.271 OA
ATOM     20  CG  PRO d   1     -22.184  19.619   0.003  0.00  0.00    -0.048 C 
ATOM     21  H48 PRO d   1     -24.276  19.094  -0.128  0.00  0.00     0.064 H 
ATOM     22  H49 PRO d   1     -23.166  17.951  -0.958  0.00  0.00     0.064 H 
ATOM     23  CB  PRO d   1     -21.106  18.950   0.808  0.00  0.00    -0.036 C 
ATOM     24  H46 PRO d   1     -21.815  19.873  -1.002  0.00  0.00     0.035 H 
ATOM     25  H47 PRO d   1     -22.533  20.532   0.507  0.00  0.00     0.035 H 
ATOM     26  H44 PRO d   1     -20.501  18.282   0.178  0.00  0.00     0.036 H 
ATOM     27  H45 PRO d   1     -20.452  19.694   1.286  0.00  0.00     0.036 H 
ATOM     28  H43 PRO d   1     -21.341  17.251   2.155  0.00  0.00     0.087 H 
BRANCH  17  29
ATOM     29  CA  LEU d   1     -25.334  16.763   1.101  0.00  0.00     0.090 C 
ATOM     30  H33 LEU d   1     -25.294  17.086   0.050  0.00  0.00     0.087 H 
BRANCH  29  31
ATOM     31  N   LEU d   1     -25.760  15.371   1.142  0.00  0.00    -0.346 N 
ATOM     32  C   ARG d   1     -25.388  14.470   0.239  0.00  0.00     0.241 C 
ATOM     33  O   ARG d   1     -24.678  14.727  -0.732  0.00  0.00    -0.271 OA
ATOM     34  H32 LEU d   1     -26.361  15.079   1.886  0.00  0.00     0.163 HD
BRANCH  32  35
ATOM     35  CA  ARG d   1     -25.919  13.065   0.488  0.00  0.00     0.089 C 
ATOM     36  H20 ARG d   1     -26.853  13.172   1.059  0.00  0.00     0.087 H 
BRANCH  35  37
ATOM     37  N   ARG d   1     -26.241  12.319  -0.718  0.00  0.00    -0.346 N 
ATOM     38  C   ARG d   1     -27.507  12.179  -1.083  0.00  0.00     0.241 C 
ATOM     39  O   ARG d   1     -28.429  12.749  -0.503  0.00  0.00    -0.271 OA
ATOM     40  H19 ARG d   1     -25.511  11.914  -1.269  0.00  0.00     0.163 HD
BRANCH  38  41
ATOM     41  CA  ARG d   1     -27.791  11.287  -2.271  0.00  0.00     0.089 C 
ATOM     42  H7  ARG d   1     -26.912  10.660  -2.483  0.00  0.00     0.087 H 
BRANCH  41  43
ATOM     43  N   ARG d   1     -28.917  10.440  -1.907  0.00  0.00    -0.346 N 
ATOM     44  C   GLY d   1     -28.745   9.381  -1.124  0.00  0.00     0.243 C 
ATOM     45  O   GLY d   1     -27.652   9.069  -0.655  0.00  0.00    -0.272 OA
ATOM     46  H6  ARG d   1     -29.831  10.658  -2.250  0.00  0.00     0.163 HD
BRANCH  44  47
ATOM     47  CA  GLY d   1     -29.973   8.544  -0.835  0.00  0.00     0.152 C 
ATOM     48  H4  GLY d   1     -30.779   8.846  -1.520  0.00  0.00     0.090 H 
ATOM     49  H5  GLY d   1     -29.729   7.484  -1.000  0.00  0.00     0.090 H 
BRANCH  47  50
ATOM     50  N   GLY d   1     -30.429   8.714   0.532  0.00  0.00    -0.071 N 
ATOM     51  H1  GLY d   1     -31.245   8.143   0.687  0.00  0.00     0.274 HD
ATOM     52  H2  GLY d   1     -30.660   9.682   0.691  0.00  0.00     0.274 HD
ATOM     53  H3  GLY d   1     -29.698   8.434   1.167  0.00  0.00     0.274 HD
ENDBRANCH  47  50
ENDBRANCH  44  47
ENDBRANCH  41  43
BRANCH  41  54
ATOM     54  CB  ARG d   1     -28.108  12.126  -3.505  0.00  0.00    -0.036 C 
ATOM     55  H8  ARG d   1     -28.797  12.929  -3.204  0.00  0.00     0.036 H 
ATOM     56  H9  ARG d   1     -28.603  11.476  -4.242  0.00  0.00     0.036 H 
BRANCH  54  57
ATOM     57  CG  ARG d   1     -26.911  12.760  -4.169  0.00  0.00    -0.048 C 
ATOM     58  H10 ARG d   1     -26.132  11.999  -4.323  0.00  0.00     0.035 H 
ATOM     59  H11 ARG d   1     -26.518  13.562  -3.527  0.00  0.00     0.035 H 
BRANCH  57  60
ATOM     60  CD  ARG d   1     -27.322  13.341  -5.509  0.00  0.00     0.009 C 
ATOM     61  H12 ARG d   1     -27.985  14.201  -5.333  0.00  0.00     0.064 H 
ATOM     62  H13 ARG d   1     -27.864  12.570  -6.077  0.00  0.00     0.064 H 
BRANCH  60  63
ATOM     63  NE  ARG d   1     -26.179  13.785  -6.295  0.00  0.00    -0.227 N 
ATOM     64  CZ  ARG d   1     -25.493  12.998  -7.114  0.00  0.00     0.665 C 
ATOM     65  NH1 ARG d   1     -25.845  11.729  -7.276  0.00  0.00    -0.235 N 
ATOM     66  NH2 ARG d   1     -24.465  13.489  -7.783  0.00  0.00    -0.235 N 
ATOM     67  H15 ARG d   1     -25.308  11.123  -7.913  0.00  0.00     0.174 HD
ATOM     68  H16 ARG d   1     -26.655  11.350  -6.765  0.00  0.00     0.174 HD
ATOM     69  H17 ARG d   1     -24.192  14.474  -7.657  0.00  0.00     0.174 HD
ATOM     70  H18 ARG d   1     -23.937  12.887  -8.430  0.00  0.00     0.174 HD
ATOM     71  H14 ARG d   1     -25.886  14.769  -6.210  0.00  0.00     0.177 HD
ENDBRANCH  60  63
ENDBRANCH  57  60
ENDBRANCH  54  57
ENDBRANCH  41  54
ENDBRANCH  38  41
ENDBRANCH  35  37
BRANCH  35  72
ATOM     72  CB  ARG d   1     -24.934  12.271   1.346  0.00  0.00    -0.036 C 
ATOM     73  H21 ARG d   1     -24.701  12.855   2.249  0.00  0.00     0.036 H 
ATOM     74  H22 ARG d   1     -24.013  12.107   0.767  0.00  0.00     0.036 H 
BRANCH  72  75
ATOM     75  CG  ARG d   1     -25.495  10.917   1.769  0.00  0.00    -0.048 C 
ATOM     76  H23 ARG d   1     -24.750  10.383   2.378  0.00  0.00     0.035 H 
ATOM     77  H24 ARG d   1     -25.733  10.321   0.875  0.00  0.00     0.035 H 
BRANCH  75  78
ATOM     78  CD  ARG d   1     -26.765  11.138   2.590  0.00  0.00     0.009 C 
ATOM     79  H25 ARG d   1     -27.497  11.663   1.959  0.00  0.00     0.064 H 
ATOM     80  H26 ARG d   1     -26.511  11.765   3.457  0.00  0.00     0.064 H 
BRANCH  78  81
ATOM     81  NE  ARG d   1     -27.380   9.905   3.079  0.00  0.00    -0.227 N 
ATOM     82  CZ  ARG d   1     -28.604   9.837   3.595  0.00  0.00     0.665 C 
ATOM     83  NH1 ARG d   1     -29.349  10.931   3.673  0.00  0.00    -0.235 N 
ATOM     84  NH2 ARG d   1     -29.085   8.675   4.020  0.00  0.00    -0.235 N 
ATOM     85  H28 ARG d   1     -30.297  10.881   4.072  0.00  0.00     0.174 HD
ATOM     86  H29 ARG d   1     -28.980  11.831   3.334  0.00  0.00     0.174 HD
ATOM     87  H30 ARG d   1     -28.506   7.825   3.959  0.00  0.00     0.174 HD
ATOM     88  H31 ARG d   1     -30.037   8.623   4.410  0.00  0.00     0.174 HD
ATOM     89  H27 ARG d   1     -26.831   9.035   3.020  0.00  0.00     0.177 HD
ENDBRANCH  78  81
ENDBRANCH  75  78
ENDBRANCH  72  75
ENDBRANCH  35  72
ENDBRANCH  32  35
ENDBRANCH  29  31
BRANCH  29  90
ATOM     90  CB  LEU d   1     -26.330  17.653   1.854  0.00  0.00    -0.035 C 
ATOM     91  H34 LEU d   1     -25.783  18.567   2.129  0.00  0.00     0.037 H 
ATOM     92  H35 LEU d   1     -26.609  17.105   2.766  0.00  0.00     0.037 H 
BRANCH  90  93
ATOM     93  CG  LEU d   1     -27.641  18.111   1.207  0.00  0.00    -0.059 C 
ATOM     94  H36 LEU d   1     -28.176  17.227   0.831  0.00  0.00     0.038 H 
BRANCH  93  95
ATOM     95  CD1 LEU d   1     -28.513  18.820   2.219  0.00  0.00    -0.073 C 
ATOM     96  H37 LEU d   1     -29.448  19.141   1.736  0.00  0.00     0.028 H 
ATOM     97  H38 LEU d   1     -27.981  19.700   2.609  0.00  0.00     0.028 H 
ATOM     98  H39 LEU d   1     -28.744  18.135   3.048  0.00  0.00     0.028 H 
ENDBRANCH  93  95
BRANCH  93  99
ATOM     99  CD2 LEU d   1     -27.361  19.051   0.045  0.00  0.00    -0.073 C 
ATOM    100  H40 LEU d   1     -26.727  18.541  -0.695  0.00  0.00     0.028 H 
ATOM    101  H41 LEU d   1     -26.843  19.948   0.415  0.00  0.00     0.028 H 
ATOM    102  H42 LEU d   1     -28.311  19.344  -0.426  0.00  0.00     0.028 H 
ENDBRANCH  93  99
ENDBRANCH  90  93
ENDBRANCH  29  90
ENDBRANCH  17  29
ENDBRANCH   1  15
BRANCH   4 103
ATOM    103  C   PRO d   1     -21.615  21.408   4.896  0.00  0.00     0.241 C 
ATOM    104  O   PRO d   1     -20.907  21.861   3.989  0.00  0.00    -0.271 OA
ATOM    105  N   THR d   1     -22.475  22.152   5.593  0.00  0.00    -0.344 N 
ATOM    106  H57 THR d   1     -23.121  21.703   6.211  0.00  0.00     0.163 HD
BRANCH 105 107
ATOM    107  CA  THR d   1     -22.495  23.608   5.474  0.00  0.00     0.114 C 
ATOM    108  H58 THR d   1     -22.332  23.884   4.422  0.00  0.00     0.091 H 
BRANCH 107 109
ATOM    109  C   THR d   1     -21.334  24.140   6.321  0.00  0.00     0.245 C 
ATOM    110  O   THR d   1     -21.229  23.811   7.505  0.00  0.00    -0.271 OA
ATOM    111  N   PRO d   1     -20.452  24.956   5.714  0.00  0.00    -0.337 N 
ATOM    112  CA  PRO d   1     -19.151  25.314   6.307  0.00  0.00     0.091 C 
ATOM    113  CD  PRO d   1     -20.578  25.455   4.335  0.00  0.00    -0.001 C 
ATOM    114  CB  PRO d   1     -18.401  25.973   5.135  0.00  0.00    -0.036 C 
ATOM    115  H64 PRO d   1     -18.642  24.390   6.619  0.00  0.00     0.087 H 
ATOM    116  CG  PRO d   1     -19.159  25.604   3.909  0.00  0.00    -0.048 C 
ATOM    117  H65 PRO d   1     -17.371  25.592   5.077  0.00  0.00     0.036 H 
ATOM    118  H66 PRO d   1     -18.382  27.066   5.259  0.00  0.00     0.036 H 
ATOM    119  H67 PRO d   1     -18.782  24.656   3.497  0.00  0.00     0.035 H 
ATOM    120  H68 PRO d   1     -19.069  26.396   3.151  0.00  0.00     0.035 H 
ATOM    121  H69 PRO d   1     -21.103  26.421   4.309  0.00  0.00     0.064 H 
ATOM    122  H70 PRO d   1     -21.109  24.732   3.699  0.00  0.00     0.064 H 
BRANCH 112 123
ATOM    123  C   PRO d   1     -19.145  26.273   7.507  0.00  0.00     0.241 C 
ATOM    124  O   PRO d   1     -19.947  26.150   8.433  0.00  0.00    -0.271 OA
ATOM    125  N   SER d   1     -18.203  27.216   7.472  0.00  0.00    -0.344 N 
ATOM    126  H71 SER d   1     -17.603  27.256   6.673  0.00  0.00     0.163 HD
BRANCH 125 127
ATOM    127  CA  SER d   1     -18.000  28.196   8.540  0.00  0.00     0.109 C 
ATOM    128  H72 SER d   1     -18.307  27.709   9.477  0.00  0.00     0.090 H 
BRANCH 127 129
ATOM    129  C   SER d   1     -18.765  29.523   8.457  0.00  0.00     0.243 C 
ATOM    130  O   SER d   1     -19.658  29.778   9.268  0.00  0.00    -0.271 OA
ATOM    131  N   LYS d   1     -18.443  30.343   7.457  0.00  0.00    -0.346 N 
ATOM    132  H76 LYS d   1     -17.818  30.021   6.745  0.00  0.00     0.163 HD
BRANCH 131 133
ATOM    133  CA  LYS d   1     -18.980  31.702   7.373  0.00  0.00     0.089 C 
ATOM    134  H77 LYS d   1     -20.010  31.689   7.760  0.00  0.00     0.087 H 
BRANCH 133 135
ATOM    135  C   LYS d   1     -19.028  32.217   5.926  0.00  0.00     0.243 C 
ATOM    136  O   LYS d   1     -18.164  31.886   5.117  0.00  0.00    -0.271 OA
ATOM    137  N   PRO d   1     -20.064  33.018   5.603  0.00  0.00    -0.337 N 
ATOM    138  CA  PRO d   1     -20.545  33.306   4.249  0.00  0.00     0.091 C 
ATOM    139  CD  PRO d   1     -21.187  33.181   6.541  0.00  0.00    -0.001 C 
ATOM    140  CB  PRO d   1     -21.482  34.496   4.489  0.00  0.00    -0.036 C 
ATOM    141  H89 PRO d   1     -21.101  32.433   3.877  0.00  0.00     0.087 H 
ATOM    142  CG  PRO d   1     -21.955  34.339   5.935  0.00  0.00    -0.048 C 
ATOM    143  H90 PRO d   1     -22.336  34.462   3.797  0.00  0.00     0.036 H 
ATOM    144  H91 PRO d   1     -20.942  35.446   4.359  0.00  0.00     0.036 H 
ATOM    145  H92 PRO d   1     -23.034  34.127   5.957  0.00  0.00     0.035 H 
ATOM    146  H93 PRO d   1     -21.752  35.261   6.499  0.00  0.00     0.035 H 
ATOM    147  H94 PRO d   1     -20.828  33.427   7.551  0.00  0.00     0.064 H 
ATOM    148  H95 PRO d   1     -21.805  32.272   6.582  0.00  0.00     0.064 H 
BRANCH 138 149
ATOM    149  C   PRO d   1     -19.540  33.707   3.176  0.00  0.00     0.241 C 
ATOM    150  O   PRO d   1     -19.508  33.040   2.143  0.00  0.00    -0.271 OA
ATOM    151  N   SER d   1     -18.753  34.755   3.403  0.00  0.00    -0.343 N 
ATOM    152  H96 SER d   1     -18.743  35.172   4.312  0.00  0.00     0.163 HD
BRANCH 151 153
ATOM    153  CA  SER d   1     -17.902  35.309   2.350  0.00  0.00     0.116 C 
ATOM    154  H97 SER d   1     -18.031  34.688   1.451  0.00  0.00     0.093 H 
BRANCH 153 155
ATOM    155  C   SER d   1     -16.424  35.292   2.727  0.00  0.00     0.198 C 
ATOM    156  O   SER d   1     -15.565  35.102   1.869  0.00  0.00    -0.646 OA
ATOM    157  OXT SER d   1     -16.077  35.468   3.893  0.00  0.00    -0.646 OA
ENDBRANCH 153 155
BRANCH 153 158
ATOM    158  CB  SER d   1     -18.330  36.741   2.014  0.00  0.00     0.045 C 
ATOM    159  H98 SER d   1     -17.944  37.421   2.788  0.00  0.00     0.077 H 
ATOM    160  H99 SER d   1     -19.429  36.792   1.996  0.00  0.00     0.077 H 
BRANCH 158 161
ATOM    161  OG  SER d   1     -17.828  37.147   0.750  0.00  0.00    -0.398 OA
ATOM    162 0H10 SER d   1     -18.109  38.036   0.570  0.00  0.00     0.209 HD
ENDBRANCH 158 161
ENDBRANCH 153 158
ENDBRANCH 151 153
ENDBRANCH 138 149
ENDBRANCH 133 135
BRANCH 133 163
ATOM    163  CB  LYS d   1     -18.136  32.631   8.266  0.00  0.00    -0.038 C 
ATOM    164  H78 LYS d   1     -17.099  32.266   8.242  0.00  0.00     0.036 H 
ATOM    165  H79 LYS d   1     -18.527  32.555   9.291  0.00  0.00     0.036 H 
BRANCH 163 166
ATOM    166  CG  LYS d   1     -18.116  34.102   7.888  0.00  0.00    -0.061 C 
ATOM    167  H80 LYS d   1     -19.150  34.455   7.763  0.00  0.00     0.033 H 
ATOM    168  H81 LYS d   1     -17.570  34.222   6.941  0.00  0.00     0.033 H 
BRANCH 166 169
ATOM    169  CD  LYS d   1     -17.430  34.936   8.969  0.00  0.00    -0.043 C 
ATOM    170  H82 LYS d   1     -16.352  34.715   8.963  0.00  0.00     0.035 H 
ATOM    171  H83 LYS d   1     -17.853  34.671   9.949  0.00  0.00     0.035 H 
BRANCH 169 172
ATOM    172  CE  LYS d   1     -17.634  36.426   8.725  0.00  0.00     0.080 C 
ATOM    173  H84 LYS d   1     -18.636  36.576   8.297  0.00  0.00     0.075 H 
ATOM    174  H85 LYS d   1     -16.874  36.770   8.008  0.00  0.00     0.075 H 
BRANCH 172 175
ATOM    175  NZ  LYS d   1     -17.521  37.242   9.962  0.00  0.00    -0.079 N 
ATOM    176  H86 LYS d   1     -17.665  38.214   9.738  0.00  0.00     0.274 HD
ATOM    177  H87 LYS d   1     -16.603  37.122  10.361  0.00  0.00     0.274 HD
ATOM    178  H88 LYS d   1     -18.218  36.944  10.626  0.00  0.00     0.274 HD
ENDBRANCH 172 175
ENDBRANCH 169 172
ENDBRANCH 166 169
ENDBRANCH 163 166
ENDBRANCH 133 163
ENDBRANCH 131 133
ENDBRANCH 127 129
BRANCH 127 179
ATOM    179  CB  SER d   1     -16.512  28.525   8.622  0.00  0.00     0.044 C 
ATOM    180  H73 SER d   1     -15.928  27.607   8.457  0.00  0.00     0.077 H 
ATOM    181  H74 SER d   1     -16.285  28.930   9.619  0.00  0.00     0.077 H 
BRANCH 179 182
ATOM    182  OG  SER d   1     -16.163  29.483   7.638  0.00  0.00    -0.398 OA
ATOM    183  H75 SER d   1     -15.235  29.677   7.702  0.00  0.00     0.209 HD
ENDBRANCH 179 182
ENDBRANCH 127 179
ENDBRANCH 125 127
ENDBRANCH 112 123
ENDBRANCH 107 109
BRANCH 107 184
ATOM    184  CB  THR d   1     -23.841  24.216   5.929  0.00  0.00     0.060 C 
ATOM    185  H59 THR d   1     -23.886  24.204   7.028  0.00  0.00     0.086 H 
BRANCH 184 186
ATOM    186  OG1 THR d   1     -24.927  23.440   5.403  0.00  0.00    -0.393 OA
ATOM    187  H60 THR d   1     -25.751  23.818   5.686  0.00  0.00     0.210 HD
ENDBRANCH 184 186
BRANCH 184 188
ATOM    188  CG2 THR d   1     -23.971  25.656   5.439  0.00  0.00    -0.050 C 
ATOM    189  H61 THR d   1     -24.934  26.071   5.772  0.00  0.00     0.031 H 
ATOM    190  H62 THR d   1     -23.924  25.675   4.340  0.00  0.00     0.031 H 
ATOM    191  H63 THR d   1     -23.149  26.259   5.852  0.00  0.00     0.031 H 
ENDBRANCH 184 188
ENDBRANCH 107 184
ENDBRANCH 105 107
ENDBRANCH   4 103
TORSDOF 44
