REMARK WARNING: 32 MAX_TORS EXCEEDED!!!
REMARK  62 active torsions:
REMARK  status: ('A' for Active; 'I' for Inactive)
REMARK    1  A    between atoms: C_1  and  CH3_3 
REMARK       I    between atoms: C_1  and  N_4 
REMARK    2  A    between atoms: N_4  and  CA_5 
REMARK    3  A    between atoms: CA_5  and  C_6 
REMARK    4  A    between atoms: CA_5  and  CB_8 
REMARK       I    between atoms: C_6  and  N_12 
REMARK    5  A    between atoms: CB_8  and  CG1_9 
REMARK    6  A    between atoms: CB_8  and  CG2_10 
REMARK    7  A    between atoms: CG1_9  and  CD1_11 
REMARK    8  A    between atoms: N_12  and  CA_13 
REMARK    9  A    between atoms: CA_13  and  C_14 
REMARK       I    between atoms: C_14  and  N_16 
REMARK   10  A    between atoms: N_16  and  CA_17 
REMARK   11  A    between atoms: CA_17  and  C_18 
REMARK   12  A    between atoms: CA_17  and  CB_20 
REMARK       I    between atoms: C_18  and  N_27 
REMARK   13  A    between atoms: CB_20  and  CG_21 
REMARK   14  A    between atoms: CG_21  and  CD_22 
REMARK   15  A    between atoms: CD_22  and  NE_23 
REMARK       I    between atoms: NE_23  and  CZ_24 
REMARK       I    between atoms: CZ_24  and  NH1_25 
REMARK       I    between atoms: CZ_24  and  NH2_26 
REMARK   16  A    between atoms: N_27  and  CA_28 
REMARK   17  A    between atoms: CA_28  and  C_29 
REMARK   18  A    between atoms: CA_28  and  CB_31 
REMARK       I    between atoms: C_29  and  N_38 
REMARK   19  A    between atoms: CB_31  and  CG_32 
REMARK   20  A    between atoms: CG_32  and  CD_33 
REMARK   21  A    between atoms: CD_33  and  NE_34 
REMARK       I    between atoms: NE_34  and  CZ_35 
REMARK       I    between atoms: CZ_35  and  NH1_36 
REMARK   22  A    between atoms: N_38  and  CA_39 
REMARK   23  A    between atoms: CA_39  and  C_40 
REMARK   24  A    between atoms: CA_39  and  CB_42 
REMARK       I    between atoms: C_40  and  N_46 
REMARK   25  A    between atoms: CB_42  and  CG_43 
REMARK   26  A    between atoms: CG_43  and  CD1_44 
REMARK   27  A    between atoms: CG_43  and  CD2_45 
REMARK   28  A    between atoms: CA_47  and  C_48 
REMARK       I    between atoms: C_48  and  N_53 
REMARK   29  A    between atoms: CA_54  and  C_55 
REMARK       I    between atoms: C_55  and  N_60 
REMARK   30  A    between atoms: N_60  and  CA_61 
REMARK   31  A    between atoms: CA_61  and  C_62 
REMARK   32  A    between atoms: CA_61  and  CB_64 
REMARK       I    between atoms: C_62  and  N_67 
REMARK   33  A    between atoms: CB_64  and  OG1_65 
REMARK   34  A    between atoms: CB_64  and  CG2_66 
REMARK   35  A    between atoms: CA_68  and  C_69 
REMARK       I    between atoms: C_69  and  N_74 
REMARK   36  A    between atoms: N_74  and  CA_75 
REMARK   37  A    between atoms: CA_75  and  C_76 
REMARK   38  A    between atoms: CA_75  and  CB_78 
REMARK       I    between atoms: C_76  and  N_80 
REMARK   39  A    between atoms: CB_78  and  OG_79 
REMARK   40  A    between atoms: N_80  and  CA_81 
REMARK   41  A    between atoms: CA_81  and  C_82 
REMARK   42  A    between atoms: CA_81  and  CB_84 
REMARK       I    between atoms: C_82  and  N_89 
REMARK   43  A    between atoms: CB_84  and  CG_85 
REMARK   44  A    between atoms: CG_85  and  CD_86 
REMARK   45  A    between atoms: CD_86  and  CE_87 
REMARK   46  A    between atoms: CE_87  and  NZ_88 
REMARK   47  A    between atoms: CA_90  and  C_91 
REMARK       I    between atoms: C_91  and  N_96 
REMARK   48  A    between atoms: N_96  and  CA_97 
REMARK   49  A    between atoms: CA_97  and  C_98 
REMARK   50  A    between atoms: CA_97  and  CB_100 
REMARK       I    between atoms: C_98  and  N_102 
REMARK   51  A    between atoms: CB_100  and  OG_101 
REMARK   52  A    between atoms: N_102  and  CA_103 
REMARK   53  A    between atoms: CA_103  and  C_104 
REMARK   54  A    between atoms: CA_103  and  CB_106 
REMARK       I    between atoms: C_104  and  N_109 
REMARK   55  A    between atoms: CB_106  and  OG1_107 
REMARK   56  A    between atoms: CB_106  and  CG2_108 
REMARK   57  A    between atoms: N_109  and  CA_110 
REMARK   58  A    between atoms: CA_110  and  C_111 
REMARK   59  A    between atoms: CA_110  and  CB_113 
REMARK       I    between atoms: C_111  and  N_117 
REMARK   60  A    between atoms: CB_113  and  CG_114 
REMARK   61  A    between atoms: CG_114  and  CD1_115 
REMARK   62  A    between atoms: CG_114  and  CD2_116 
ROOT
ATOM      1  C   PRO d   1       9.124  19.346  18.432  0.00  0.00     0.243 C 
ATOM      2  O   PRO d   1       8.397  18.766  19.227  0.00  0.00    -0.271 OA
ATOM      3  N   PRO d   1       8.684  20.305  17.602  0.00  0.00    -0.337 N 
ATOM      4  CA  PRO d   1       7.237  20.523  17.470  0.00  0.00     0.091 C 
ATOM      5  CB  PRO d   1       7.110  21.610  16.389  0.00  0.00    -0.036 C 
ATOM      6  CG  PRO d   1       8.450  21.837  15.850  0.00  0.00    -0.048 C 
ATOM      7  CD  PRO d   1       9.479  21.203  16.762  0.00  0.00    -0.001 C 
ATOM      8  H62 PRO d   1       6.815  20.876  18.423  0.00  0.00     0.087 H 
ATOM      9  H63 PRO d   1       6.719  22.538  16.831  0.00  0.00     0.036 H 
ATOM     10  H64 PRO d   1       6.434  21.271  15.590  0.00  0.00     0.036 H 
ATOM     11  H65 PRO d   1       8.639  22.919  15.781  0.00  0.00     0.035 H 
ATOM     12  H66 PRO d   1       8.523  21.388  14.848  0.00  0.00     0.035 H 
ATOM     13  H67 PRO d   1      10.225  20.641  16.182  0.00  0.00     0.064 H 
ATOM     14  H68 PRO d   1       9.987  21.965  17.372  0.00  0.00     0.064 H 
ENDROOT
BRANCH   4  15
ATOM     15  C   PRO d   1       6.512  19.248  17.045  0.00  0.00     0.241 C 
ATOM     16  O   PRO d   1       7.007  18.467  16.241  0.00  0.00    -0.271 OA
ATOM     17  N   THR d   1       5.338  19.049  17.626  0.00  0.00    -0.344 N 
ATOM     18  H69 THR d   1       4.997  19.733  18.271  0.00  0.00     0.163 HD
BRANCH  17  19
ATOM     19  CA  THR d   1       4.525  17.868  17.359  0.00  0.00     0.114 C 
ATOM     20  H70 THR d   1       5.163  16.974  17.421  0.00  0.00     0.091 H 
BRANCH  19  21
ATOM     21  C   THR d   1       3.931  17.959  15.966  0.00  0.00     0.245 C 
ATOM     22  O   THR d   1       3.383  18.999  15.592  0.00  0.00    -0.271 OA
ATOM     23  N   PRO d   1       4.028  16.877  15.184  0.00  0.00    -0.337 N 
ATOM     24  CA  PRO d   1       3.394  16.910  13.868  0.00  0.00     0.091 C 
ATOM     25  CD  PRO d   1       4.788  15.628  15.387  0.00  0.00    -0.001 C 
ATOM     26  CB  PRO d   1       3.697  15.521  13.294  0.00  0.00    -0.036 C 
ATOM     27  H76 PRO d   1       3.834  17.697  13.237  0.00  0.00     0.087 H 
ATOM     28  CG  PRO d   1       4.994  15.153  13.974  0.00  0.00    -0.048 C 
ATOM     29  H77 PRO d   1       3.820  15.562  12.202  0.00  0.00     0.036 H 
ATOM     30  H78 PRO d   1       2.901  14.806  13.547  0.00  0.00     0.036 H 
ATOM     31  H79 PRO d   1       5.845  15.668  13.505  0.00  0.00     0.035 H 
ATOM     32  H80 PRO d   1       5.161  14.066  13.944  0.00  0.00     0.035 H 
ATOM     33  H81 PRO d   1       4.209  14.899  15.973  0.00  0.00     0.064 H 
ATOM     34  H82 PRO d   1       5.748  15.821  15.887  0.00  0.00     0.064 H 
BRANCH  24  35
ATOM     35  C   PRO d   1       1.896  17.152  14.007  0.00  0.00     0.241 C 
ATOM     36  O   PRO d   1       1.281  16.727  14.985  0.00  0.00    -0.271 OA
ATOM     37  N   SER d   1       1.331  17.873  13.056  0.00  0.00    -0.344 N 
ATOM     38  H83 SER d   1       1.875  18.189  12.279  0.00  0.00     0.163 HD
BRANCH  37  39
ATOM     39  CA  SER d   1      -0.096  18.212  13.138  0.00  0.00     0.109 C 
ATOM     40  H84 SER d   1      -0.458  17.916  14.134  0.00  0.00     0.090 H 
BRANCH  39  41
ATOM     41  C   SER d   1      -0.945  17.475  12.091  0.00  0.00     0.243 C 
ATOM     42  O   SER d   1      -2.184  17.400  12.224  0.00  0.00    -0.271 OA
ATOM     43  N   LYS d   1      -0.302  16.947  11.051  0.00  0.00    -0.346 N 
ATOM     44  H88 LYS d   1       0.686  17.079  10.967  0.00  0.00     0.163 HD
BRANCH  43  45
ATOM     45  CA  LYS d   1      -1.012  16.177  10.027  0.00  0.00     0.089 C 
ATOM     46  H89 LYS d   1      -1.972  16.671   9.819  0.00  0.00     0.087 H 
BRANCH  45  47
ATOM     47  C   LYS d   1      -1.274  14.764  10.521  0.00  0.00     0.243 C 
ATOM     48  O   LYS d   1      -0.448  14.222  11.255  0.00  0.00    -0.271 OA
ATOM     49  N   PRO d   1      -2.388  14.147  10.086  0.00  0.00    -0.337 N 
ATOM     50  CA  PRO d   1      -2.624  12.733  10.421  0.00  0.00     0.091 C 
ATOM     51  CD  PRO d   1      -3.506  14.721   9.309  0.00  0.00    -0.001 C 
ATOM     52  CB  PRO d   1      -3.894  12.392   9.634  0.00  0.00    -0.036 C 
ATOM     53 1H10 PRO d   1      -2.786  12.609  11.502  0.00  0.00     0.087 H 
ATOM     54  CG  PRO d   1      -4.608  13.719   9.478  0.00  0.00    -0.048 C 
ATOM     55 2H10 PRO d   1      -4.518  11.678  10.192  0.00  0.00     0.036 H 
ATOM     56 3H10 PRO d   1      -3.641  11.968   8.651  0.00  0.00     0.036 H 
ATOM     57 4H10 PRO d   1      -5.206  13.946  10.373  0.00  0.00     0.035 H 
ATOM     58 5H10 PRO d   1      -5.262  13.707   8.593  0.00  0.00     0.035 H 
ATOM     59 6H10 PRO d   1      -3.233  14.828   8.249  0.00  0.00     0.064 H 
ATOM     60 7H10 PRO d   1      -3.802  15.701   9.712  0.00  0.00     0.064 H 
BRANCH  50  61
ATOM     61  C   PRO d   1      -1.447  11.848   9.978  0.00  0.00     0.241 C 
ATOM     62  O   PRO d   1      -0.818  12.095   8.945  0.00  0.00    -0.271 OA
ATOM     63  N   SER d   1      -1.158  10.823  10.764  0.00  0.00    -0.344 N 
ATOM     64 8H10 SER d   1      -1.682  10.674  11.603  0.00  0.00     0.163 HD
BRANCH  63  65
ATOM     65  CA  SER d   1      -0.073   9.906  10.409  0.00  0.00     0.109 C 
ATOM     66 9H10 SER d   1       0.852  10.491  10.300  0.00  0.00     0.090 H 
BRANCH  65  67
ATOM     67  C   SER d   1      -0.338   9.173   9.096  0.00  0.00     0.243 C 
ATOM     68  O   SER d   1      -1.445   8.702   8.870  0.00  0.00    -0.271 OA
ATOM     69  N   THR d   1       0.685   9.013   8.257  0.00  0.00    -0.344 N 
ATOM     70 3H11 THR d   1       1.581   9.397   8.479  0.00  0.00     0.163 HD
BRANCH  69  71
ATOM     71  CA  THR d   1       0.493   8.278   7.019  0.00  0.00     0.113 C 
ATOM     72 4H11 THR d   1      -0.462   8.604   6.582  0.00  0.00     0.091 H 
BRANCH  71  73
ATOM     73  C   THR d   1       0.418   6.763   7.259  0.00  0.00     0.243 C 
ATOM     74  O   THR d   1       0.115   6.004   6.340  0.00  0.00    -0.271 OA
ATOM     75  N   LEU d   1       0.669   6.325   8.494  0.00  0.00    -0.346 N 
ATOM     76 0H12 LEU d   1       0.961   6.972   9.198  0.00  0.00     0.163 HD
BRANCH  75  77
ATOM     77  CA  LEU d   1       0.522   4.908   8.830  0.00  0.00     0.089 C 
ATOM     78 1H12 LEU d   1       1.121   4.322   8.117  0.00  0.00     0.087 H 
BRANCH  77  79
ATOM     79  C   LEU d   1      -0.928   4.456   8.734  0.00  0.00     0.238 C 
ATOM     80  O   LEU d   1      -1.212   3.326   8.320  0.00  0.00    -0.271 OA
ATOM     81  N   NH2 d   1      -1.837   5.336   9.144  0.00  0.00    -0.368 N 
ATOM     82 1H13 NH2 d   1      -2.809   5.104   9.108  0.00  0.00     0.159 HD
ATOM     83 2H13 NH2 d   1      -1.548   6.230   9.488  0.00  0.00     0.159 HD
ENDBRANCH  77  79
BRANCH  77  84
ATOM     84  CB  LEU d   1       1.026   4.630  10.235  0.00  0.00    -0.035 C 
ATOM     85 2H12 LEU d   1       0.361   5.141  10.947  0.00  0.00     0.037 H 
ATOM     86 3H12 LEU d   1       2.043   5.040  10.324  0.00  0.00     0.037 H 
BRANCH  84  87
ATOM     87  CG  LEU d   1       1.074   3.137  10.607  0.00  0.00    -0.059 C 
ATOM     88 4H12 LEU d   1       0.077   2.696  10.461  0.00  0.00     0.038 H 
BRANCH  87  89
ATOM     89  CD1 LEU d   1       2.065   2.402   9.715  0.00  0.00    -0.073 C 
ATOM     90 5H12 LEU d   1       2.088   1.338   9.992  0.00  0.00     0.028 H 
ATOM     91 6H12 LEU d   1       3.067   2.837   9.844  0.00  0.00     0.028 H 
ATOM     92 7H12 LEU d   1       1.755   2.500   8.664  0.00  0.00     0.028 H 
ENDBRANCH  87  89
BRANCH  87  93
ATOM     93  CD2 LEU d   1       1.451   3.022  12.054  0.00  0.00    -0.073 C 
ATOM     94 8H12 LEU d   1       0.716   3.563  12.668  0.00  0.00     0.028 H 
ATOM     95 9H12 LEU d   1       2.449   3.457  12.209  0.00  0.00     0.028 H 
ATOM     96 0H13 LEU d   1       1.464   1.962  12.346  0.00  0.00     0.028 H 
ENDBRANCH  87  93
ENDBRANCH  84  87
ENDBRANCH  77  84
ENDBRANCH  75  77
ENDBRANCH  71  73
BRANCH  71  97
ATOM     97  CB  THR d   1       1.610   8.572   6.006  0.00  0.00     0.060 C 
ATOM     98 5H11 THR d   1       1.394   8.039   5.068  0.00  0.00     0.086 H 
BRANCH  97  99
ATOM     99  OG1 THR d   1       2.848   8.106   6.542  0.00  0.00    -0.393 OA
ATOM    100 6H11 THR d   1       2.792   7.171   6.699  0.00  0.00     0.210 HD
ENDBRANCH  97  99
BRANCH  97 101
ATOM    101  CG2 THR d   1       1.709  10.065   5.713  0.00  0.00    -0.050 C 
ATOM    102 7H11 THR d   1       2.515  10.243   4.986  0.00  0.00     0.031 H 
ATOM    103 8H11 THR d   1       1.928  10.608   6.644  0.00  0.00     0.031 H 
ATOM    104 9H11 THR d   1       0.755  10.421   5.297  0.00  0.00     0.031 H 
ENDBRANCH  97 101
ENDBRANCH  71  97
ENDBRANCH  69  71
ENDBRANCH  65  67
BRANCH  65 105
ATOM    105  CB  SER d   1       0.116   8.882  11.522  0.00  0.00     0.044 C 
ATOM    106 0H11 SER d   1      -0.848   8.401  11.743  0.00  0.00     0.077 H 
ATOM    107 1H11 SER d   1       0.488   9.389  12.425  0.00  0.00     0.077 H 
BRANCH 105 108
ATOM    108  OG  SER d   1       1.046   7.903  11.118  0.00  0.00    -0.398 OA
ATOM    109 2H11 SER d   1       1.879   8.318  10.928  0.00  0.00     0.209 HD
ENDBRANCH 105 108
ENDBRANCH  65 105
ENDBRANCH  63  65
ENDBRANCH  50  61
ENDBRANCH  45  47
BRANCH  45 110
ATOM    110  CB  LYS d   1      -0.200  16.097   8.727  0.00  0.00    -0.038 C 
ATOM    111  H90 LYS d   1      -0.755  15.461   8.022  0.00  0.00     0.036 H 
ATOM    112  H91 LYS d   1       0.766  15.627   8.962  0.00  0.00     0.036 H 
BRANCH 110 113
ATOM    113  CG  LYS d   1       0.082  17.418   8.038  0.00  0.00    -0.061 C 
ATOM    114  H92 LYS d   1       0.797  17.995   8.642  0.00  0.00     0.033 H 
ATOM    115  H93 LYS d   1      -0.857  17.983   7.942  0.00  0.00     0.033 H 
BRANCH 113 116
ATOM    116  CD  LYS d   1       0.671  17.185   6.651  0.00  0.00    -0.043 C 
ATOM    117  H94 LYS d   1      -0.108  16.759   6.001  0.00  0.00     0.035 H 
ATOM    118  H95 LYS d   1       1.507  16.475   6.735  0.00  0.00     0.035 H 
BRANCH 116 119
ATOM    119  CE  LYS d   1       1.184  18.476   6.023  0.00  0.00     0.080 C 
ATOM    120  H96 LYS d   1       1.989  18.882   6.653  0.00  0.00     0.075 H 
ATOM    121  H97 LYS d   1       0.357  19.200   5.973  0.00  0.00     0.075 H 
BRANCH 119 122
ATOM    122  NZ  LYS d   1       1.716  18.254   4.642  0.00  0.00    -0.079 N 
ATOM    123  H98 LYS d   1       2.044  19.129   4.264  0.00  0.00     0.274 HD
ATOM    124  H99 LYS d   1       0.983  17.887   4.055  0.00  0.00     0.274 HD
ATOM    125 0H10 LYS d   1       2.479  17.596   4.678  0.00  0.00     0.274 HD
ENDBRANCH 119 122
ENDBRANCH 116 119
ENDBRANCH 113 116
ENDBRANCH 110 113
ENDBRANCH  45 110
ENDBRANCH  43  45
ENDBRANCH  39  41
BRANCH  39 126
ATOM    126  CB  SER d   1      -0.271  19.724  12.989  0.00  0.00     0.044 C 
ATOM    127  H85 SER d   1       0.386  20.239  13.705  0.00  0.00     0.077 H 
ATOM    128  H86 SER d   1      -1.318  19.991  13.194  0.00  0.00     0.077 H 
BRANCH 126 129
ATOM    129  OG  SER d   1       0.063  20.120  11.683  0.00  0.00    -0.398 OA
ATOM    130  H87 SER d   1      -0.049  21.060  11.600  0.00  0.00     0.209 HD
ENDBRANCH 126 129
ENDBRANCH  39 126
ENDBRANCH  37  39
ENDBRANCH  24  35
ENDBRANCH  19  21
BRANCH  19 131
ATOM    131  CB  THR d   1       3.405  17.749  18.384  0.00  0.00     0.060 C 
ATOM    132  H71 THR d   1       2.739  18.618  18.279  0.00  0.00     0.086 H 
BRANCH 131 133
ATOM    133  OG1 THR d   1       3.960  17.753  19.702  0.00  0.00    -0.393 OA
ATOM    134  H72 THR d   1       3.260  17.679  20.340  0.00  0.00     0.210 HD
ENDBRANCH 131 133
BRANCH 131 135
ATOM    135  CG2 THR d   1       2.582  16.478  18.155  0.00  0.00    -0.050 C 
ATOM    136  H73 THR d   1       1.782  16.418  18.908  0.00  0.00     0.031 H 
ATOM    137  H74 THR d   1       3.235  15.597  18.243  0.00  0.00     0.031 H 
ATOM    138  H75 THR d   1       2.137  16.505  17.149  0.00  0.00     0.031 H 
ENDBRANCH 131 135
ENDBRANCH  19 131
ENDBRANCH  17  19
ENDBRANCH   4  15
BRANCH   1 139
ATOM    139  CA  PRO d   1      10.605  19.023  18.424  0.00  0.00     0.092 C 
ATOM    140  N   PRO d   1      11.003  18.318  19.651  0.00  0.00    -0.337 N 
ATOM    141  C   LEU d   1      10.925  18.985  20.805  0.00  0.00     0.243 C 
ATOM    142  CD  PRO d   1      11.294  16.890  19.419  0.00  0.00    -0.001 C 
ATOM    143  O   LEU d   1      10.727  20.201  20.852  0.00  0.00    -0.271 OA
ATOM    144  CG  PRO d   1      10.911  16.696  17.989  0.00  0.00    -0.048 C 
ATOM    145  H60 PRO d   1      10.690  16.251  20.080  0.00  0.00     0.064 H 
ATOM    146  H61 PRO d   1      12.361  16.674  19.575  0.00  0.00     0.064 H 
ATOM    147  CB  PRO d   1      10.952  18.030  17.319  0.00  0.00    -0.036 C 
ATOM    148  H58 PRO d   1      11.620  16.011  17.502  0.00  0.00     0.035 H 
ATOM    149  H59 PRO d   1       9.896  16.278  17.927  0.00  0.00     0.035 H 
ATOM    150  H56 PRO d   1      11.955  18.232  16.916  0.00  0.00     0.036 H 
ATOM    151  H57 PRO d   1      10.213  18.079  16.506  0.00  0.00     0.036 H 
ATOM    152  H55 PRO d   1      11.178  19.954  18.305  0.00  0.00     0.087 H 
BRANCH 141 153
ATOM    153  CA  LEU d   1      11.016  18.172  22.086  0.00  0.00     0.090 C 
ATOM    154  H45 LEU d   1      11.633  17.283  21.889  0.00  0.00     0.087 H 
BRANCH 153 155
ATOM    155  N   LEU d   1      11.620  18.913  23.176  0.00  0.00    -0.346 N 
ATOM    156  C   ARG d   1      12.920  19.186  23.150  0.00  0.00     0.241 C 
ATOM    157  O   ARG d   1      13.638  18.782  22.256  0.00  0.00    -0.271 OA
ATOM    158  H44 LEU d   1      11.059  19.218  23.946  0.00  0.00     0.163 HD
BRANCH 156 159
ATOM    159  CA  ARG d   1      13.458  20.035  24.282  0.00  0.00     0.089 C 
ATOM    160  H32 ARG d   1      13.073  19.631  25.230  0.00  0.00     0.087 H 
BRANCH 159 161
ATOM    161  N   ARG d   1      14.912  20.009  24.328  0.00  0.00    -0.346 N 
ATOM    162  C   ARG d   1      15.549  20.048  25.478  0.00  0.00     0.241 C 
ATOM    163  O   ARG d   1      14.985  20.200  26.561  0.00  0.00    -0.271 OA
ATOM    164  H31 ARG d   1      15.433  19.961  23.476  0.00  0.00     0.163 HD
BRANCH 162 165
ATOM    165  CA  ARG d   1      17.058  19.892  25.399  0.00  0.00     0.089 C 
ATOM    166  H19 ARG d   1      17.413  20.329  24.454  0.00  0.00     0.087 H 
BRANCH 165 167
ATOM    167  N   ARG d   1      17.678  20.603  26.503  0.00  0.00    -0.346 N 
ATOM    168  C   GLY d   1      18.156  21.844  26.374  0.00  0.00     0.236 C 
ATOM    169  O   GLY d   1      18.215  22.444  25.295  0.00  0.00    -0.272 OA
ATOM    170  H18 ARG d   1      17.750  20.148  27.391  0.00  0.00     0.163 HD
BRANCH 168 171
ATOM    171  CA  GLY d   1      18.678  22.488  27.638  0.00  0.00     0.069 C 
ATOM    172  H16 GLY d   1      17.826  22.747  28.284  0.00  0.00     0.078 H 
ATOM    173  H17 GLY d   1      19.330  21.772  28.160  0.00  0.00     0.078 H 
BRANCH 171 174
ATOM    174  N   GLY d   1      19.440  23.700  27.353  0.00  0.00    -0.351 N 
ATOM    175  C   ILE d   1      20.768  23.674  27.303  0.00  0.00     0.241 C 
ATOM    176  O   ILE d   1      21.424  22.663  27.517  0.00  0.00    -0.271 OA
ATOM    177  H15 GLY d   1      18.957  24.561  27.193  0.00  0.00     0.163 HD
BRANCH 175 178
ATOM    178  CA  ILE d   1      21.480  24.980  26.964  0.00  0.00     0.092 C 
ATOM    179  H5  ILE d   1      20.732  25.776  26.834  0.00  0.00     0.088 H 
BRANCH 178 180
ATOM    180  N   ILE d   1      22.383  25.362  28.047  0.00  0.00    -0.348 N 
ATOM    181  C   ACE d   1      22.199  26.411  28.838  0.00  0.00     0.214 C 
ATOM    182  O   ACE d   1      21.348  27.266  28.620  0.00  0.00    -0.274 OA
ATOM    183  H4  ILE d   1      23.193  24.796  28.202  0.00  0.00     0.163 HD
BRANCH 181 184
ATOM    184  CH3 ACE d   1      23.258  26.589  29.881  0.00  0.00    -0.003 C 
ATOM    185  H1  ACE d   1      23.907  25.701  29.900  0.00  0.00     0.040 H 
ATOM    186  H2  ACE d   1      22.785  26.719  30.866  0.00  0.00     0.040 H 
ATOM    187  H3  ACE d   1      23.861  27.478  29.644  0.00  0.00     0.040 H 
ENDBRANCH 181 184
ENDBRANCH 178 180
BRANCH 178 188
ATOM    188  CB  ILE d   1      22.238  24.788  25.646  0.00  0.00    -0.030 C 
ATOM    189  H6  ILE d   1      22.952  23.962  25.779  0.00  0.00     0.043 H 
BRANCH 188 190
ATOM    190  CG1 ILE d   1      23.038  26.047  25.285  0.00  0.00    -0.063 C 
ATOM    191  H7  ILE d   1      23.751  26.254  26.096  0.00  0.00     0.033 H 
ATOM    192  H8  ILE d   1      22.339  26.891  25.186  0.00  0.00     0.033 H 
BRANCH 190 193
ATOM    193  CD1 ILE d   1      23.816  25.903  23.977  0.00  0.00    -0.076 C 
ATOM    194  H12 ILE d   1      24.366  26.833  23.773  0.00  0.00     0.027 H 
ATOM    195  H13 ILE d   1      23.115  25.704  23.153  0.00  0.00     0.027 H 
ATOM    196  H14 ILE d   1      24.527  25.068  24.063  0.00  0.00     0.027 H 
ENDBRANCH 190 193
ENDBRANCH 188 190
BRANCH 188 197
ATOM    197  CG2 ILE d   1      21.276  24.402  24.541  0.00  0.00    -0.071 C 
ATOM    198  H9  ILE d   1      20.723  23.498  24.836  0.00  0.00     0.028 H 
ATOM    199  H10 ILE d   1      21.839  24.202  23.618  0.00  0.00     0.028 H 
ATOM    200  H11 ILE d   1      20.567  25.225  24.367  0.00  0.00     0.028 H 
ENDBRANCH 188 197
ENDBRANCH 178 188
ENDBRANCH 175 178
ENDBRANCH 171 174
ENDBRANCH 168 171
ENDBRANCH 165 167
BRANCH 165 201
ATOM    201  CB  ARG d   1      17.432  18.409  25.422  0.00  0.00    -0.036 C 
ATOM    202  H20 ARG d   1      16.845  17.884  24.654  0.00  0.00     0.036 H 
ATOM    203  H21 ARG d   1      17.190  17.998  26.413  0.00  0.00     0.036 H 
BRANCH 201 204
ATOM    204  CG  ARG d   1      18.937  18.181  25.142  0.00  0.00    -0.048 C 
ATOM    205  H22 ARG d   1      19.520  18.798  25.841  0.00  0.00     0.035 H 
ATOM    206  H23 ARG d   1      19.152  18.494  24.110  0.00  0.00     0.035 H 
BRANCH 204 207
ATOM    207  CD  ARG d   1      19.374  16.692  25.310  0.00  0.00     0.009 C 
ATOM    208  H24 ARG d   1      19.508  16.481  26.381  0.00  0.00     0.064 H 
ATOM    209  H25 ARG d   1      20.329  16.542  24.785  0.00  0.00     0.064 H 
BRANCH 207 210
ATOM    210  NE  ARG d   1      18.383  15.757  24.765  0.00  0.00    -0.227 N 
ATOM    211  CZ  ARG d   1      18.272  15.444  23.478  0.00  0.00     0.665 C 
ATOM    212  NH1 ARG d   1      19.110  15.976  22.589  0.00  0.00    -0.235 N 
ATOM    213  NH2 ARG d   1      17.302  14.629  23.070  0.00  0.00    -0.235 N 
ATOM    214  H27 ARG d   1      19.024  15.734  21.591  0.00  0.00     0.174 HD
ATOM    215  H28 ARG d   1      19.843  16.629  22.899  0.00  0.00     0.174 HD
ATOM    216  H29 ARG d   1      16.653  14.217  23.756  0.00  0.00     0.174 HD
ATOM    217  H30 ARG d   1      17.200  14.411  22.069  0.00  0.00     0.174 HD
ATOM    218  H26 ARG d   1      17.729  15.313  25.425  0.00  0.00     0.177 HD
ENDBRANCH 207 210
ENDBRANCH 204 207
ENDBRANCH 201 204
ENDBRANCH 165 201
ENDBRANCH 162 165
ENDBRANCH 159 161
BRANCH 159 219
ATOM    219  CB  ARG d   1      12.977  21.485  24.133  0.00  0.00    -0.036 C 
ATOM    220  H33 ARG d   1      13.481  22.095  24.897  0.00  0.00     0.036 H 
ATOM    221  H34 ARG d   1      11.891  21.507  24.304  0.00  0.00     0.036 H 
BRANCH 219 222
ATOM    222  CG  ARG d   1      13.257  22.102  22.771  0.00  0.00    -0.048 C 
ATOM    223  H35 ARG d   1      12.740  21.521  21.993  0.00  0.00     0.035 H 
ATOM    224  H36 ARG d   1      14.340  22.089  22.579  0.00  0.00     0.035 H 
BRANCH 222 225
ATOM    225  CD  ARG d   1      12.755  23.541  22.747  0.00  0.00     0.009 C 
ATOM    226  H37 ARG d   1      13.196  24.071  23.604  0.00  0.00     0.064 H 
ATOM    227  H38 ARG d   1      11.660  23.523  22.850  0.00  0.00     0.064 H 
BRANCH 225 228
ATOM    228  NE  ARG d   1      13.085  24.287  21.532  0.00  0.00    -0.227 N 
ATOM    229  CZ  ARG d   1      12.281  24.395  20.474  0.00  0.00     0.665 C 
ATOM    230  NH1 ARG d   1      11.111  23.761  20.437  0.00  0.00    -0.235 N 
ATOM    231  NH2 ARG d   1      12.645  25.135  19.440  0.00  0.00    -0.235 N 
ATOM    232  H40 ARG d   1      10.501  23.854  19.613  0.00  0.00     0.174 HD
ATOM    233  H41 ARG d   1      10.816  23.177  21.233  0.00  0.00     0.174 HD
ATOM    234  H42 ARG d   1      13.547  25.631  19.454  0.00  0.00     0.174 HD
ATOM    235  H43 ARG d   1      12.026  25.215  18.621  0.00  0.00     0.174 HD
ATOM    236  H39 ARG d   1      13.999  24.760  21.492  0.00  0.00     0.177 HD
ENDBRANCH 225 228
ENDBRANCH 222 225
ENDBRANCH 219 222
ENDBRANCH 159 219
ENDBRANCH 156 159
ENDBRANCH 153 155
BRANCH 153 237
ATOM    237  CB  LEU d   1       9.606  17.721  22.495  0.00  0.00    -0.035 C 
ATOM    238  H46 LEU d   1       9.064  17.431  21.583  0.00  0.00     0.037 H 
ATOM    239  H47 LEU d   1       9.099  18.576  22.967  0.00  0.00     0.037 H 
BRANCH 237 240
ATOM    240  CG  LEU d   1       9.553  16.542  23.471  0.00  0.00    -0.059 C 
ATOM    241  H48 LEU d   1      10.172  16.788  24.346  0.00  0.00     0.038 H 
BRANCH 240 242
ATOM    242  CD1 LEU d   1       8.116  16.327  23.939  0.00  0.00    -0.073 C 
ATOM    243  H49 LEU d   1       8.082  15.480  24.640  0.00  0.00     0.028 H 
ATOM    244  H50 LEU d   1       7.476  16.111  23.071  0.00  0.00     0.028 H 
ATOM    245  H51 LEU d   1       7.755  17.235  24.444  0.00  0.00     0.028 H 
ENDBRANCH 240 242
BRANCH 240 246
ATOM    246  CD2 LEU d   1      10.108  15.270  22.839  0.00  0.00    -0.073 C 
ATOM    247  H52 LEU d   1      11.143  15.446  22.509  0.00  0.00     0.028 H 
ATOM    248  H53 LEU d   1       9.489  14.991  21.973  0.00  0.00     0.028 H 
ATOM    249  H54 LEU d   1      10.092  14.456  23.579  0.00  0.00     0.028 H 
ENDBRANCH 240 246
ENDBRANCH 237 240
ENDBRANCH 153 237
ENDBRANCH 141 153
ENDBRANCH   1 139
TORSDOF 62
