REMARK WARNING: 32 MAX_TORS EXCEEDED!!!
REMARK  35 active torsions:
REMARK  status: ('A' for Active; 'I' for Inactive)
REMARK    1  A    between atoms: N_1  and  CA_2 
REMARK    2  A    between atoms: CA_2  and  C_3 
REMARK    3  A    between atoms: CA_2  and  CB_5 
REMARK       I    between atoms: C_3  and  N_6 
REMARK    4  A    between atoms: N_6  and  CA_7 
REMARK    5  A    between atoms: CA_7  and  C_8 
REMARK       I    between atoms: C_8  and  N_10 
REMARK    6  A    between atoms: CA_11  and  C_12 
REMARK       I    between atoms: C_12  and  N_17 
REMARK    7  A    between atoms: N_17  and  CA_18 
REMARK    8  A    between atoms: CA_18  and  C_19 
REMARK    9  A    between atoms: CA_18  and  CB_21 
REMARK       I    between atoms: C_19  and  N_22 
REMARK   10  A    between atoms: N_22  and  CA_23 
REMARK   11  A    between atoms: CA_23  and  C_24 
REMARK   12  A    between atoms: CA_23  and  CB_26 
REMARK       I    between atoms: C_24  and  N_31 
REMARK   13  A    between atoms: CB_26  and  CG_27 
REMARK   14  A    between atoms: CG_27  and  CD_28 
REMARK   15  A    between atoms: N_31  and  CA_32 
REMARK   16  A    between atoms: CA_32  and  C_33 
REMARK   17  A    between atoms: CA_32  and  CB_35 
REMARK       I    between atoms: C_33  and  N_39 
REMARK   18  A    between atoms: CB_35  and  CG_36 
REMARK       I    between atoms: CG_36  and  ND2_38 
REMARK   19  A    between atoms: N_39  and  CA_40 
REMARK   20  A    between atoms: CA_40  and  C_41 
REMARK   21  A    between atoms: CA_40  and  CB_43 
REMARK       I    between atoms: C_41  and  N_48 
REMARK   22  A    between atoms: CB_43  and  CG_44 
REMARK   23  A    between atoms: CG_44  and  CD_45 
REMARK   24  A    between atoms: N_48  and  CA_49 
REMARK   25  A    between atoms: CA_49  and  C_50 
REMARK   26  A    between atoms: CA_49  and  CB_52 
REMARK       I    between atoms: C_50  and  N_60 
REMARK   27  A    between atoms: CB_52  and  CG_53 
REMARK   28  A    between atoms: CZ_58  and  OH_59 
REMARK   29  A    between atoms: N_60  and  CA_61 
REMARK   30  A    between atoms: CA_61  and  C_62 
REMARK   31  A    between atoms: CA_61  and  CB_64 
REMARK   32  A    between atoms: CB_64  and  CG_65 
REMARK   33  A    between atoms: CG_65  and  CD_66 
REMARK   34  A    between atoms: CD_66  and  CE_67 
REMARK   35  A    between atoms: CE_67  and  NZ_68 
ROOT
ATOM      1  CA  ASN d   1      11.981  94.497  25.415  0.00  0.00     0.097 C 
ATOM      2  H30 ASN d   1      11.325  95.376  25.325  0.00  0.00     0.088 H 
ENDROOT
BRANCH   1   3
ATOM      3  N   ASN d   1      13.199  94.884  26.080  0.00  0.00    -0.346 N 
ATOM      4  C   GLU d   1      13.804  96.019  25.779  0.00  0.00     0.241 C 
ATOM      5  O   GLU d   1      13.291  96.883  25.086  0.00  0.00    -0.271 OA
ATOM      6  H29 ASN d   1      13.591  94.286  26.779  0.00  0.00     0.163 HD
BRANCH   4   7
ATOM      7  CA  GLU d   1      15.165  96.232  26.371  0.00  0.00     0.090 C 
ATOM      8  H24 GLU d   1      15.679  95.265  26.472  0.00  0.00     0.087 H 
BRANCH   7   9
ATOM      9  N   GLU d   1      15.918  97.077  25.459  0.00  0.00    -0.346 N 
ATOM     10  C   GLU d   1      16.249  96.645  24.248  0.00  0.00     0.240 C 
ATOM     11  O   GLU d   1      16.103  95.466  23.903  0.00  0.00    -0.271 OA
ATOM     12  H23 GLU d   1      16.190  97.995  25.747  0.00  0.00     0.163 HD
BRANCH  10  13
ATOM     13  CA  GLU d   1      16.858  97.680  23.296  0.00  0.00     0.086 C 
ATOM     14  H19 GLU d   1      17.427  98.408  23.892  0.00  0.00     0.086 H 
BRANCH  13  15
ATOM     15  N   GLU d   1      17.770  97.049  22.350  0.00  0.00    -0.346 N 
ATOM     16  C   PRO d   1      18.797  97.700  21.811  0.00  0.00     0.241 C 
ATOM     17  O   PRO d   1      19.006  98.889  22.007  0.00  0.00    -0.271 OA
ATOM     18  H18 GLU d   1      17.618  96.093  22.098  0.00  0.00     0.163 HD
BRANCH  16  19
ATOM     19  CA  PRO d   1      19.746  96.901  20.898  0.00  0.00     0.091 C 
ATOM     20  N   PRO d   1      20.482  97.725  19.921  0.00  0.00    -0.337 N 
ATOM     21  C   GLY d   1      19.919  98.258  18.819  0.00  0.00     0.238 C 
ATOM     22  CD  PRO d   1      21.901  97.841  20.277  0.00  0.00    -0.001 C 
ATOM     23  O   GLY d   1      18.721  98.097  18.542  0.00  0.00    -0.272 OA
ATOM     24  CG  PRO d   1      21.966  97.194  21.639  0.00  0.00    -0.048 C 
ATOM     25  H16 PRO d   1      22.211  98.895  20.326  0.00  0.00     0.064 H 
ATOM     26  H17 PRO d   1      22.535  97.305  19.555  0.00  0.00     0.064 H 
ATOM     27  CB  PRO d   1      20.869  96.255  21.726  0.00  0.00    -0.036 C 
ATOM     28  H14 PRO d   1      22.923  96.666  21.759  0.00  0.00     0.035 H 
ATOM     29  H15 PRO d   1      21.869  97.959  22.423  0.00  0.00     0.035 H 
ATOM     30  H12 PRO d   1      21.155  95.282  21.301  0.00  0.00     0.036 H 
ATOM     31  H13 PRO d   1      20.554  96.120  22.771  0.00  0.00     0.036 H 
ATOM     32  H11 PRO d   1      19.160  96.133  20.373  0.00  0.00     0.087 H 
BRANCH  21  33
ATOM     33  CA  GLY d   1      20.818  99.089  17.902  0.00  0.00     0.069 C 
ATOM     34  H9  GLY d   1      20.962 100.082  18.353  0.00  0.00     0.078 H 
ATOM     35  H10 GLY d   1      21.791  98.584  17.808  0.00  0.00     0.078 H 
BRANCH  33  36
ATOM     36  N   GLY d   1      20.247  99.258  16.569  0.00  0.00    -0.351 N 
ATOM     37  C   HIS d   1      20.861  98.827  15.463  0.00  0.00     0.248 C 
ATOM     38  O   HIS d   1      22.020  98.385  15.465  0.00  0.00    -0.271 OA
ATOM     39  H8  GLY d   1      19.362  99.714  16.480  0.00  0.00     0.163 HD
BRANCH  37  40
ATOM     40  CA  HIS d   1      20.049  98.915  14.150  0.00  0.00     0.172 C 
ATOM     41  H4  HIS d   1      19.040  99.273  14.402  0.00  0.00     0.098 H 
BRANCH  40  42
ATOM     42  N   HIS d   1      20.633  99.859  13.196  0.00  0.00    -0.067 N 
ATOM     43  H1  HIS d   1      20.071  99.882  12.359  0.00  0.00     0.275 HD
ATOM     44  H2  HIS d   1      21.569  99.566  12.964  0.00  0.00     0.275 HD
ATOM     45  H3  HIS d   1      20.660 100.779  13.607  0.00  0.00     0.275 HD
ENDBRANCH  40  42
BRANCH  40  46
ATOM     46  CB  HIS d   1      19.918  97.522  13.508  0.00  0.00    -0.042 C 
ATOM     47  H5  HIS d   1      19.478  96.823  14.235  0.00  0.00     0.030 H 
ATOM     48  H6  HIS d   1      20.913  97.161  13.208  0.00  0.00     0.030 H 
ATOM     49  H7  HIS d   1      19.269  97.586  12.622  0.00  0.00     0.030 H 
ENDBRANCH  40  46
ENDBRANCH  37  40
ENDBRANCH  33  36
ENDBRANCH  21  33
ENDBRANCH  16  19
ENDBRANCH  13  15
BRANCH  13  50
ATOM     50  CB  GLU d   1      15.755  98.418  22.555  0.00  0.00    -0.049 C 
ATOM     51  H20 GLU d   1      15.076  98.888  23.282  0.00  0.00     0.030 H 
ATOM     52  H21 GLU d   1      15.191  97.707  21.933  0.00  0.00     0.030 H 
ATOM     53  H22 GLU d   1      16.199  99.193  21.914  0.00  0.00     0.030 H 
ENDBRANCH  13  50
ENDBRANCH  10  13
ENDBRANCH   7   9
BRANCH   7  54
ATOM     54  CB  GLU d   1      15.029  96.858  27.746  0.00  0.00    -0.029 C 
ATOM     55  H25 GLU d   1      14.046  96.581  28.154  0.00  0.00     0.037 H 
ATOM     56  H26 GLU d   1      15.085  97.951  27.633  0.00  0.00     0.037 H 
BRANCH  54  57
ATOM     57  CG  GLU d   1      16.081  96.434  28.731  0.00  0.00     0.018 C 
ATOM     58  H27 GLU d   1      17.069  96.720  28.342  0.00  0.00     0.049 H 
ATOM     59  H28 GLU d   1      16.037  95.341  28.851  0.00  0.00     0.049 H 
BRANCH  57  60
ATOM     60  CD  GLU d   1      15.878  97.090  30.095  0.00  0.00     0.172 C 
ATOM     61  OE1 GLU d   1      15.071  98.054  30.173  0.00  0.00    -0.648 OA
ATOM     62  OE2 GLU d   1      16.521  96.650  31.084  0.00  0.00    -0.648 OA
ENDBRANCH  57  60
ENDBRANCH  54  57
ENDBRANCH   7  54
ENDBRANCH   4   7
ENDBRANCH   1   3
BRANCH   1  63
ATOM     63  C   ASN d   1      11.266  93.438  26.222  0.00  0.00     0.241 C 
ATOM     64  O   ASN d   1      11.799  92.361  26.417  0.00  0.00    -0.271 OA
ATOM     65  N   GLU d   1      10.061  93.753  26.691  0.00  0.00    -0.346 N 
ATOM     66  H35 GLU d   1       9.647  94.621  26.416  0.00  0.00     0.163 HD
BRANCH  65  67
ATOM     67  CA  GLU d   1       9.325  92.878  27.591  0.00  0.00     0.090 C 
ATOM     68  H36 GLU d   1      10.038  92.176  28.048  0.00  0.00     0.087 H 
BRANCH  67  69
ATOM     69  C   GLU d   1       8.288  92.057  26.813  0.00  0.00     0.241 C 
ATOM     70  O   GLU d   1       7.803  92.492  25.773  0.00  0.00    -0.271 OA
ATOM     71  N   TYR d   1       7.985  90.857  27.306  0.00  0.00    -0.346 N 
ATOM     72  H41 TYR d   1       8.420  90.575  28.161  0.00  0.00     0.163 HD
BRANCH  71  73
ATOM     73  CA  TYR d   1       7.050  89.925  26.666  0.00  0.00     0.093 C 
ATOM     74  H42 TYR d   1       6.408  90.488  25.973  0.00  0.00     0.088 H 
BRANCH  73  75
ATOM     75  C   TYR d   1       6.143  89.231  27.716  0.00  0.00     0.241 C 
ATOM     76  O   TYR d   1       6.655  88.631  28.670  0.00  0.00    -0.271 OA
ATOM     77  N   LYS d   1       4.812  89.268  27.560  0.00  0.00    -0.345 N 
ATOM     78  H50 LYS d   1       4.252  88.949  28.325  0.00  0.00     0.163 HD
BRANCH  77  79
ATOM     79  CA  LYS d   1       4.110  89.736  26.365  0.00  0.00     0.096 C 
ATOM     80  H51 LYS d   1       4.767  89.587  25.496  0.00  0.00     0.089 H 
BRANCH  79  81
ATOM     81  C   LYS d   1       3.779  91.225  26.471  0.00  0.00     0.196 C 
ATOM     82  O   LYS d   1       3.798  91.949  25.472  0.00  0.00    -0.646 OA
ATOM     83  OXT LYS d   1       3.487  91.731  27.558  0.00  0.00    -0.646 OA
ENDBRANCH  79  81
BRANCH  79  84
ATOM     84  CB  LYS d   1       2.815  88.918  26.149  0.00  0.00    -0.037 C 
ATOM     85  H52 LYS d   1       2.440  89.139  25.139  0.00  0.00     0.036 H 
ATOM     86  H53 LYS d   1       2.078  89.250  26.895  0.00  0.00     0.036 H 
BRANCH  84  87
ATOM     87  CG  LYS d   1       2.959  87.392  26.275  0.00  0.00    -0.061 C 
ATOM     88  H54 LYS d   1       3.858  87.167  26.867  0.00  0.00     0.033 H 
ATOM     89  H55 LYS d   1       3.066  86.961  25.269  0.00  0.00     0.033 H 
BRANCH  87  90
ATOM     90  CD  LYS d   1       1.741  86.756  26.961  0.00  0.00    -0.043 C 
ATOM     91  H56 LYS d   1       0.865  87.398  26.789  0.00  0.00     0.035 H 
ATOM     92  H57 LYS d   1       1.940  86.689  28.041  0.00  0.00     0.035 H 
BRANCH  90  93
ATOM     93  CE  LYS d   1       1.429  85.344  26.429  0.00  0.00     0.080 C 
ATOM     94  H58 LYS d   1       0.492  85.003  26.894  0.00  0.00     0.075 H 
ATOM     95  H59 LYS d   1       2.251  84.677  26.728  0.00  0.00     0.075 H 
BRANCH  93  96
ATOM     96  NZ  LYS d   1       1.271  85.251  24.936  0.00  0.00    -0.079 N 
ATOM     97  H60 LYS d   1       1.070  84.297  24.678  0.00  0.00     0.274 HD
ATOM     98  H61 LYS d   1       2.124  85.547  24.489  0.00  0.00     0.274 HD
ATOM     99  H62 LYS d   1       0.513  85.846  24.641  0.00  0.00     0.274 HD
ENDBRANCH  93  96
ENDBRANCH  90  93
ENDBRANCH  87  90
ENDBRANCH  84  87
ENDBRANCH  79  84
ENDBRANCH  77  79
ENDBRANCH  73  75
BRANCH  73 100
ATOM    100  CB  TYR d   1       7.855  88.897  25.869  0.00  0.00    -0.014 C 
ATOM    101  H43 TYR d   1       8.609  88.462  26.542  0.00  0.00     0.043 H 
ATOM    102  H44 TYR d   1       8.359  89.426  25.047  0.00  0.00     0.043 H 
BRANCH 100 103
ATOM    103  CG  TYR d   1       7.059  87.766  25.273  0.00  0.00    -0.056 A 
ATOM    104  CD1 TYR d   1       7.087  86.493  25.851  0.00  0.00    -0.074 A 
ATOM    105  CE1 TYR d   1       6.359  85.428  25.304  0.00  0.00    -0.051 A 
ATOM    106  H45 TYR d   1       7.684  86.327  26.740  0.00  0.00     0.084 H 
ATOM    107  CZ  TYR d   1       5.589  85.632  24.162  0.00  0.00     0.065 A 
ATOM    108  H47 TYR d   1       6.395  84.449  25.768  0.00  0.00     0.087 H 
ATOM    109  CE2 TYR d   1       5.551  86.898  23.573  0.00  0.00    -0.051 A 
ATOM    110  CD2 TYR d   1       6.288  87.953  24.131  0.00  0.00    -0.074 A 
ATOM    111  H48 TYR d   1       4.952  87.065  22.685  0.00  0.00     0.087 H 
ATOM    112  H46 TYR d   1       6.256  88.931  23.664  0.00  0.00     0.084 H 
BRANCH 107 113
ATOM    113  OH  TYR d   1       4.863  84.578  23.618  0.00  0.00    -0.361 OA
ATOM    114  H49 TYR d   1       5.002  83.796  24.140  0.00  0.00     0.217 HD
ENDBRANCH 107 113
ENDBRANCH 100 103
ENDBRANCH  73 100
ENDBRANCH  71  73
ENDBRANCH  67  69
BRANCH  67 115
ATOM    115  CB  GLU d   1       8.678  93.704  28.726  0.00  0.00    -0.029 C 
ATOM    116  H37 GLU d   1       8.079  94.509  28.276  0.00  0.00     0.037 H 
ATOM    117  H38 GLU d   1       9.478  94.142  29.341  0.00  0.00     0.037 H 
BRANCH 115 118
ATOM    118  CG  GLU d   1       7.769  92.866  29.632  0.00  0.00     0.018 C 
ATOM    119  H39 GLU d   1       8.261  91.900  29.820  0.00  0.00     0.049 H 
ATOM    120  H40 GLU d   1       6.817  92.696  29.107  0.00  0.00     0.049 H 
BRANCH 118 121
ATOM    121  CD  GLU d   1       7.468  93.516  30.968  0.00  0.00     0.172 C 
ATOM    122  OE1 GLU d   1       8.125  94.528  31.289  0.00  0.00    -0.648 OA
ATOM    123  OE2 GLU d   1       6.597  92.989  31.710  0.00  0.00    -0.648 OA
ENDBRANCH 118 121
ENDBRANCH 115 118
ENDBRANCH  67 115
ENDBRANCH  65  67
ENDBRANCH   1  63
BRANCH   1 124
ATOM    124  CB  ASN d   1      12.313  93.985  24.023  0.00  0.00     0.036 C 
ATOM    125  H31 ASN d   1      12.808  93.007  24.117  0.00  0.00     0.051 H 
ATOM    126  H32 ASN d   1      12.998  94.698  23.541  0.00  0.00     0.051 H 
BRANCH 124 127
ATOM    127  CG  ASN d   1      11.100  93.826  23.155  0.00  0.00     0.217 C 
ATOM    128  OD1 ASN d   1      10.379  92.821  23.235  0.00  0.00    -0.274 OA
ATOM    129  ND2 ASN d   1      10.883  94.799  22.281  0.00  0.00    -0.370 N 
ATOM    130  H33 ASN d   1      10.092  94.756  21.671  0.00  0.00     0.159 HD
ATOM    131  H34 ASN d   1      11.511  95.576  22.232  0.00  0.00     0.159 HD
ENDBRANCH 124 127
ENDBRANCH   1 124
TORSDOF 35
