REMARK  3 active torsions:
REMARK  status: ('A' for Active; 'I' for Inactive)
REMARK    1  A    between atoms: C01_1  and  C02_2 
REMARK    2  A    between atoms: C02_2  and  O01_3 
REMARK    3  A    between atoms: O01_3  and  C03_4 
ROOT
ATOM      1  C02 4LE d   1       1.417  94.484  20.664  0.00  0.00     0.207 C 
ATOM      2 CL1  4LE d   1       1.852  92.830  20.892  0.00  0.00    -0.086 Cl
ATOM      3  H1  4LE d   1       0.686  94.842  21.404  0.00  0.00     0.123 H 
ENDROOT
BRANCH   1   4
ATOM      4  C01 4LE d   1       0.923  94.532  19.271  0.00  0.00     0.427 C 
ATOM      5  F01 4LE d   1       1.472  93.507  18.635  0.00  0.00    -0.167 F 
ATOM      6  F02 4LE d   1      -0.399  94.442  19.266  0.00  0.00    -0.167 F 
ATOM      7  F03 4LE d   1       1.373  95.649  18.717  0.00  0.00    -0.167 F 
ENDBRANCH   1   4
BRANCH   1   8
ATOM      8  O01 4LE d   1       2.582  95.234  20.654  0.00  0.00    -0.302 OA
BRANCH   8   9
ATOM      9  C03 4LE d   1       3.698  94.416  20.452  0.00  0.00     0.307 C 
ATOM     10  F04 4LE d   1       3.614  93.855  19.242  0.00  0.00    -0.184 F 
ATOM     11  F05 4LE d   1       4.801  95.153  20.522  0.00  0.00    -0.184 F 
ATOM     12  H2  4LE d   1       3.728  93.632  21.223  0.00  0.00     0.194 H 
ENDBRANCH   8   9
ENDBRANCH   1   8
TORSDOF 3
