REMARK  8 active torsions:
REMARK  status: ('A' for Active; 'I' for Inactive)
REMARK    1  A    between atoms: N1_1  and  C6_6 
REMARK    2  A    between atoms: C2_2  and  C16_9 
REMARK    3  A    between atoms: C4_4  and  C35_15 
REMARK    4  A    between atoms: C5_5  and  C36_16 
REMARK    5  A    between atoms: C6_6  and  C7_7 
REMARK    6  A    between atoms: C7_7  and  C10_8 
REMARK    7  A    between atoms: C50_27  and  N54_29 
REMARK    8  A    between atoms: N54_29  and  C55_30 
ROOT
ATOM      1  N1  880 d   1      22.200  11.015  30.757  0.00  0.00    -0.331 N 
ATOM      2  C2  880 d   1      22.278  12.386  30.719  0.00  0.00     0.111 A 
ATOM      3  N3  880 d   1      21.450  12.946  31.558  0.00  0.00    -0.232 NA
ATOM      4  C4  880 d   1      20.801  11.911  32.200  0.00  0.00     0.098 A 
ATOM      5  C5  880 d   1      21.236  10.686  31.715  0.00  0.00     0.095 A 
ENDROOT
BRANCH   5   6
ATOM      6  C36 880 d   1      20.753   9.318  32.023  0.00  0.00     0.106 A 
ATOM      7  C47 880 d   1      19.460   9.073  32.467  0.00  0.00    -0.035 A 
ATOM      8  C48 880 d   1      19.153   7.767  32.792  0.00  0.00     0.023 A 
ATOM      9  H22 880 d   1      18.728   9.868  32.554  0.00  0.00     0.089 H 
ATOM     10  N49 880 d   1      20.012   6.747  32.645  0.00  0.00    -0.075 NA
ATOM     11  H23 880 d   1      18.166   7.554  33.187  0.00  0.00     0.115 H 
ATOM     12  C50 880 d   1      21.205   7.073  32.120  0.00  0.00     0.723 A 
ATOM     13  N51 880 d   1      21.636   8.323  31.833  0.00  0.00    -0.061 NA
BRANCH  12  14
ATOM     14  N54 880 d   1      22.003   6.043  31.783  0.00  0.00    -0.218 N 
ATOM     15  H24 880 d   1      21.642   5.104  32.006  0.00  0.00     0.178 HD
BRANCH  14  16
ATOM     16  C55 880 d   1      23.316   6.085  31.141  0.00  0.00     0.026 C 
ATOM     17  C56 880 d   1      24.136   4.851  31.501  0.00  0.00    -0.046 C 
ATOM     18  C57 880 d   1      25.495   4.878  30.809  0.00  0.00    -0.063 C 
ATOM     19  H26 880 d   1      23.589   3.951  31.185  0.00  0.00     0.036 H 
ATOM     20  H27 880 d   1      24.287   4.825  32.590  0.00  0.00     0.036 H 
ATOM     21  C58 880 d   1      25.343   4.995  29.296  0.00  0.00    -0.065 C 
ATOM     22  H28 880 d   1      26.036   3.949  31.044  0.00  0.00     0.033 H 
ATOM     23  H29 880 d   1      26.069   5.740  31.179  0.00  0.00     0.033 H 
ATOM     24  C59 880 d   1      24.496   6.211  28.918  0.00  0.00    -0.063 C 
ATOM     25  H30 880 d   1      24.857   4.086  28.913  0.00  0.00     0.033 H 
ATOM     26  H31 880 d   1      26.340   5.097  28.842  0.00  0.00     0.033 H 
ATOM     27  C60 880 d   1      23.145   6.192  29.631  0.00  0.00    -0.046 C 
ATOM     28  H32 880 d   1      24.327   6.206  27.831  0.00  0.00     0.033 H 
ATOM     29  H33 880 d   1      25.037   7.126  29.201  0.00  0.00     0.033 H 
ATOM     30  H34 880 d   1      22.604   7.120  29.397  0.00  0.00     0.036 H 
ATOM     31  H35 880 d   1      22.564   5.329  29.274  0.00  0.00     0.036 H 
ATOM     32  H25 880 d   1      23.853   6.976  31.498  0.00  0.00     0.073 H 
ENDBRANCH  14  16
ENDBRANCH  12  14
ENDBRANCH   5   6
BRANCH   1  33
ATOM     33  C6  880 d   1      22.960  10.103  29.894  0.00  0.00     0.001 C 
ATOM     34  H1  880 d   1      23.096  10.584  28.914  0.00  0.00     0.065 H 
ATOM     35  H2  880 d   1      22.379   9.177  29.770  0.00  0.00     0.065 H 
BRANCH  33  36
ATOM     36  C7  880 d   1      24.334   9.740  30.448  0.00  0.00    -0.053 C 
ATOM     37  H3  880 d   1      25.072   9.892  29.646  0.00  0.00     0.034 H 
ATOM     38  H4  880 d   1      24.314   8.677  30.730  0.00  0.00     0.034 H 
BRANCH  36  39
ATOM     39  C10 880 d   1      24.786  10.523  31.642  0.00  0.00    -0.075 C 
ATOM     40  H5  880 d   1      25.783  10.177  31.951  0.00  0.00     0.027 H 
ATOM     41  H6  880 d   1      24.074  10.376  32.468  0.00  0.00     0.027 H 
ATOM     42  H7  880 d   1      24.832  11.591  31.384  0.00  0.00     0.027 H 
ENDBRANCH  36  39
ENDBRANCH  33  36
ENDBRANCH   1  33
BRANCH   4  43
ATOM     43  C35 880 d   1      19.710  12.276  33.127  0.00  0.00    -0.003 A 
ATOM     44  C37 880 d   1      19.646  11.729  34.406  0.00  0.00    -0.048 A 
ATOM     45  C38 880 d   1      18.662  12.145  35.284  0.00  0.00     0.056 A 
ATOM     46  H19 880 d   1      20.366  10.979  34.713  0.00  0.00     0.087 H 
ATOM     47  C39 880 d   1      17.716  13.086  34.891  0.00  0.00     0.055 A 
ATOM     48 CL45 880 d   1      18.669  11.518  36.894  0.00  0.00    -0.083 Cl
ATOM     49  C40 880 d   1      17.771  13.623  33.615  0.00  0.00    -0.059 A 
ATOM     50 CL46 880 d   1      16.479  13.623  35.983  0.00  0.00    -0.083 Cl
ATOM     51  C41 880 d   1      18.766  13.226  32.742  0.00  0.00    -0.069 A 
ATOM     52  H20 880 d   1      17.034  14.354  33.302  0.00  0.00     0.086 H 
ATOM     53  H21 880 d   1      18.813  13.658  31.749  0.00  0.00     0.085 H 
ENDBRANCH   4  43
BRANCH   2  54
ATOM     54  C16 880 d   1      23.205  13.211  29.862  0.00  0.00     0.007 C 
ATOM     55  C17 880 d   1      22.389  13.922  28.779  0.00  0.00    -0.033 C 
ATOM     56  C18 880 d   1      23.290  14.737  27.872  0.00  0.00     0.082 C 
ATOM     57  H9  880 d   1      21.660  14.591  29.259  0.00  0.00     0.036 H 
ATOM     58  H10 880 d   1      21.857  13.171  28.177  0.00  0.00     0.036 H 
ATOM     59  N19 880 d   1      24.062  15.732  28.667  0.00  0.00    -0.075 N 
ATOM     60  H11 880 d   1      22.674  15.265  27.129  0.00  0.00     0.075 H 
ATOM     61  H12 880 d   1      23.990  14.063  27.356  0.00  0.00     0.075 H 
ATOM     62  C20 880 d   1      24.868  15.090  29.745  0.00  0.00     0.082 C 
ATOM     63  H13 880 d   1      23.417  16.382  29.088  0.00  0.00     0.277 HD
ATOM     64  H14 880 d   1      24.684  16.229  28.049  0.00  0.00     0.277 HD
ATOM     65  C21 880 d   1      23.978  14.267  30.657  0.00  0.00    -0.033 C 
ATOM     66  H15 880 d   1      25.368  15.871  30.336  0.00  0.00     0.075 H 
ATOM     67  H16 880 d   1      25.624  14.434  29.289  0.00  0.00     0.075 H 
ATOM     68  H17 880 d   1      24.602  13.764  31.411  0.00  0.00     0.036 H 
ATOM     69  H18 880 d   1      23.262  14.934  31.159  0.00  0.00     0.036 H 
ATOM     70  H8  880 d   1      23.929  12.534  29.385  0.00  0.00     0.052 H 
ENDBRANCH   2  54
TORSDOF 8
