REMARK  3 active torsions:
REMARK  status: ('A' for Active; 'I' for Inactive)
REMARK    1  A    between atoms: C1_1  and  C2_2 
REMARK    2  A    between atoms: C1_1  and  P_9 
REMARK       I    between atoms: C2_2  and  N3_3 
REMARK    3  A    between atoms: N3_3  and  O3_4 
ROOT
ATOM      1  C1  PAH d   1     -15.925 -18.784  24.891  0.00  0.00     0.114 C 
ATOM      2  H1  PAH d   1     -15.841 -18.940  25.977  0.00  0.00     0.068 H 
ATOM      3  H2  PAH d   1     -15.615 -17.758  24.643  0.00  0.00     0.068 H 
ENDROOT
BRANCH   1   4
ATOM      4  C2  PAH d   1     -17.365 -18.989  24.465  0.00  0.00     0.253 C 
ATOM      5  N3  PAH d   1     -18.045 -18.001  23.708  0.00  0.00    -0.237 N 
ATOM      6  H3  PAH d   1     -17.583 -17.155  23.443  0.00  0.00     0.197 HD
ATOM      7  O2  PAH d   1     -17.955 -20.005  24.775  0.00  0.00    -0.271 OA
BRANCH   5   8
ATOM      8  O3  PAH d   1     -19.348 -18.228  23.347  0.00  0.00    -0.287 OA
ATOM      9  H4  PAH d   1     -19.877 -18.340  24.128  0.00  0.00     0.244 HD
ENDBRANCH   5   8
ENDBRANCH   1   4
BRANCH   1  10
ATOM     10  P   PAH d   1     -14.842 -19.964  24.029  0.00  0.00     0.268 P 
ATOM     11  O1P PAH d   1     -14.348 -19.330  22.749  0.00  0.00    -0.639 OA
ATOM     12  O2P PAH d   1     -15.613 -21.222  23.703  0.00  0.00    -0.639 OA
ATOM     13  O3P PAH d   1     -13.660 -20.319  24.893  0.00  0.00    -0.639 OA
ENDBRANCH   1  10
TORSDOF 3
