REMARK  19 active torsions:
REMARK  status: ('A' for Active; 'I' for Inactive)
REMARK    1  A    between atoms: O1_11  and  C1_1 
REMARK    2  A    between atoms: C2_2  and  O2_7 
REMARK    3  A    between atoms: C3_3  and  O3_8 
REMARK    4  A    between atoms: C4_4  and  O4_12 
REMARK    5  A    between atoms: C5_5  and  C6_6 
REMARK    6  A    between atoms: C6_6  and  O6_10 
REMARK    7  A    between atoms: C40_16  and  O1_11 
REMARK    8  A    between atoms: C10_13  and  O10_19 
REMARK    9  A    between atoms: C20_14  and  O20_20 
REMARK   10  A    between atoms: C30_15  and  O30_21 
REMARK   11  A    between atoms: C50_17  and  C60_18 
REMARK   12  A    between atoms: C60_18  and  O60_23 
REMARK   13  A    between atoms: O10_19  and  C11_24 
REMARK   14  A    between atoms: C11_24  and  C21_25 
REMARK   15  A    between atoms: C21_25  and  C31_26 
REMARK   16  A    between atoms: C31_26  and  C41_27 
REMARK   17  A    between atoms: C41_27  and  C51_28 
REMARK   18  A    between atoms: C51_28  and  C61_29 
REMARK   19  A    between atoms: C61_29  and  C12_30 
ROOT
ATOM      1  C10 MA4 d   1       6.598  -0.073  -3.133  0.00  0.00     0.158 C 
ATOM      2  C20 MA4 d   1       7.361  -0.306  -1.873  0.00  0.00     0.110 C 
ATOM      3  C30 MA4 d   1       8.207   0.960  -1.669  0.00  0.00     0.092 C 
ATOM      4  C40 MA4 d   1       9.066   1.317  -2.867  0.00  0.00     0.096 C 
ATOM      5  C50 MA4 d   1       8.230   1.393  -4.117  0.00  0.00     0.089 C 
ATOM      6  O50 MA4 d   1       7.457   0.179  -4.233  0.00  0.00    -0.348 OA
ATOM      7  H12 MA4 d   1       5.956   0.811  -3.003  0.00  0.00     0.133 H 
ATOM      8  H13 MA4 d   1       8.022  -1.177  -1.993  0.00  0.00     0.094 H 
ATOM      9  H14 MA4 d   1       7.515   1.794  -1.483  0.00  0.00     0.091 H 
ATOM     10  H15 MA4 d   1       9.854   0.559  -2.990  0.00  0.00     0.091 H 
ATOM     11  H16 MA4 d   1       7.548   2.249  -4.009  0.00  0.00     0.090 H 
ENDROOT
BRANCH   1  12
ATOM     12  O10 MA4 d   1       5.758  -1.229  -3.320  0.00  0.00    -0.359 OA
BRANCH  12  13
ATOM     13  C11 MA4 d   1       4.704  -0.977  -4.259  0.00  0.00     0.023 C 
ATOM     14  H22 MA4 d   1       4.489  -1.901  -4.815  0.00  0.00     0.074 H 
ATOM     15  H23 MA4 d   1       5.027  -0.193  -4.960  0.00  0.00     0.074 H 
BRANCH  13  16
ATOM     16  C21 MA4 d   1       3.446  -0.521  -3.552  0.00  0.00    -0.045 C 
ATOM     17  H24 MA4 d   1       3.662   0.368  -2.942  0.00  0.00     0.036 H 
ATOM     18  H25 MA4 d   1       3.069  -1.327  -2.905  0.00  0.00     0.036 H 
BRANCH  16  19
ATOM     19  C31 MA4 d   1       2.411  -0.182  -4.606  0.00  0.00    -0.063 C 
ATOM     20  H26 MA4 d   1       2.171  -1.091  -5.177  0.00  0.00     0.033 H 
ATOM     21  H27 MA4 d   1       2.826   0.578  -5.284  0.00  0.00     0.033 H 
BRANCH  19  22
ATOM     22  C41 MA4 d   1       1.142   0.357  -3.981  0.00  0.00    -0.065 C 
ATOM     23  H28 MA4 d   1       1.401   1.052  -3.168  0.00  0.00     0.033 H 
ATOM     24  H29 MA4 d   1       0.551  -0.477  -3.576  0.00  0.00     0.033 H 
BRANCH  22  25
ATOM     25  C51 MA4 d   1       0.318   1.098  -5.043  0.00  0.00    -0.065 C 
ATOM     26  H30 MA4 d   1       0.979   1.747  -5.636  0.00  0.00     0.033 H 
ATOM     27  H31 MA4 d   1      -0.452   1.710  -4.551  0.00  0.00     0.033 H 
BRANCH  25  28
ATOM     28  C61 MA4 d   1      -0.343   0.087  -5.949  0.00  0.00    -0.062 C 
ATOM     29  H32 MA4 d   1      -0.638  -0.768  -5.323  0.00  0.00     0.033 H 
ATOM     30  H33 MA4 d   1       0.412  -0.238  -6.680  0.00  0.00     0.033 H 
BRANCH  28  31
ATOM     31  C12 MA4 d   1      -1.575   0.518  -6.734  0.00  0.00    -0.054 C 
ATOM     32  C22 MA4 d   1      -1.588  -0.466  -7.913  0.00  0.00    -0.062 C 
ATOM     33  C32 MA4 d   1      -2.316  -0.056  -9.165  0.00  0.00    -0.065 C 
ATOM     34  H35 MA4 d   1      -2.050  -1.399  -7.556  0.00  0.00     0.033 H 
ATOM     35  H36 MA4 d   1      -0.541  -0.658  -8.191  0.00  0.00     0.033 H 
ATOM     36  C42 MA4 d   1      -3.100   1.205  -8.968  0.00  0.00    -0.065 C 
ATOM     37  H37 MA4 d   1      -3.006  -0.862  -9.455  0.00  0.00     0.033 H 
ATOM     38  H38 MA4 d   1      -1.581   0.104  -9.967  0.00  0.00     0.033 H 
ATOM     39  C52 MA4 d   1      -2.198   2.300  -8.466  0.00  0.00    -0.065 C 
ATOM     40  H39 MA4 d   1      -3.899   1.026  -8.233  0.00  0.00     0.033 H 
ATOM     41  H40 MA4 d   1      -3.545   1.511  -9.927  0.00  0.00     0.033 H 
ATOM     42  C62 MA4 d   1      -1.666   2.018  -7.084  0.00  0.00    -0.062 C 
ATOM     43  H41 MA4 d   1      -2.766   3.242  -8.441  0.00  0.00     0.033 H 
ATOM     44  H42 MA4 d   1      -1.349   2.403  -9.157  0.00  0.00     0.033 H 
ATOM     45  H43 MA4 d   1      -0.658   2.452  -7.008  0.00  0.00     0.033 H 
ATOM     46  H44 MA4 d   1      -2.330   2.503  -6.353  0.00  0.00     0.033 H 
ATOM     47  H34 MA4 d   1      -2.460   0.311  -6.114  0.00  0.00     0.040 H 
ENDBRANCH  28  31
ENDBRANCH  25  28
ENDBRANCH  22  25
ENDBRANCH  19  22
ENDBRANCH  16  19
ENDBRANCH  13  16
ENDBRANCH  12  13
ENDBRANCH   1  12
BRANCH   2  48
ATOM     48  O20 MA4 d   1       6.498  -0.548  -0.792  0.00  0.00    -0.388 OA
ATOM     49  H19 MA4 d   1       5.907   0.189  -0.689  0.00  0.00     0.210 HD
ENDBRANCH   2  48
BRANCH   3  50
ATOM     50  O30 MA4 d   1       9.068   0.823  -0.545  0.00  0.00    -0.390 OA
ATOM     51  H20 MA4 d   1       9.522   1.643  -0.394  0.00  0.00     0.210 HD
ENDBRANCH   3  50
BRANCH   5  52
ATOM     52  C60 MA4 d   1       8.992   1.568  -5.414  0.00  0.00     0.043 C 
ATOM     53  H17 MA4 d   1       9.505   2.541  -5.419  0.00  0.00     0.078 H 
ATOM     54  H18 MA4 d   1       8.299   1.515  -6.266  0.00  0.00     0.078 H 
BRANCH  52  55
ATOM     55  O60 MA4 d   1       9.953   0.508  -5.499  0.00  0.00    -0.398 OA
ATOM     56  H21 MA4 d   1      10.447   0.594  -6.306  0.00  0.00     0.209 HD
ENDBRANCH  52  55
ENDBRANCH   5  52
BRANCH   4  57
ATOM     57  O1  MA4 d   1       9.657   2.616  -2.668  0.00  0.00    -0.348 OA
BRANCH  57  58
ATOM     58  C1  MA4 d   1      11.126   2.682  -2.760  0.00  0.00     0.159 C 
ATOM     59  C2  MA4 d   1      11.645   3.321  -1.501  0.00  0.00     0.110 C 
ATOM     60  C3  MA4 d   1      11.237   4.791  -1.395  0.00  0.00     0.092 C 
ATOM     61  H2  MA4 d   1      12.742   3.246  -1.502  0.00  0.00     0.094 H 
ATOM     62  C4  MA4 d   1      11.592   5.523  -2.673  0.00  0.00     0.090 C 
ATOM     63  H3  MA4 d   1      10.143   4.833  -1.286  0.00  0.00     0.091 H 
ATOM     64  C5  MA4 d   1      11.046   4.820  -3.914  0.00  0.00     0.089 C 
ATOM     65  H4  MA4 d   1      12.683   5.633  -2.763  0.00  0.00     0.091 H 
ATOM     66  O5  MA4 d   1      11.466   3.449  -3.927  0.00  0.00    -0.348 OA
ATOM     67  H5  MA4 d   1       9.949   4.842  -3.835  0.00  0.00     0.090 H 
ATOM     68  H1  MA4 d   1      11.545   1.669  -2.854  0.00  0.00     0.133 H 
BRANCH  59  69
ATOM     69  O2  MA4 d   1      11.131   2.687  -0.350  0.00  0.00    -0.388 OA
ATOM     70  H8  MA4 d   1      10.186   2.780  -0.334  0.00  0.00     0.210 HD
ENDBRANCH  59  69
BRANCH  60  71
ATOM     71  O3  MA4 d   1      11.808   5.387  -0.213  0.00  0.00    -0.390 OA
ATOM     72  H9  MA4 d   1      11.550   4.884   0.550  0.00  0.00     0.210 HD
ENDBRANCH  60  71
BRANCH  62  73
ATOM     73  O4  MA4 d   1      10.955   6.796  -2.537  0.00  0.00    -0.390 OA
ATOM     74  H11 MA4 d   1      11.292   7.237  -1.766  0.00  0.00     0.210 HD
ENDBRANCH  62  73
BRANCH  64  75
ATOM     75  C6  MA4 d   1      11.410   5.457  -5.249  0.00  0.00     0.043 C 
ATOM     76  H6  MA4 d   1      10.912   6.434  -5.338  0.00  0.00     0.078 H 
ATOM     77  H7  MA4 d   1      11.083   4.802  -6.070  0.00  0.00     0.078 H 
BRANCH  75  78
ATOM     78  O6  MA4 d   1      12.839   5.637  -5.317  0.00  0.00    -0.398 OA
ATOM     79  H10 MA4 d   1      13.268   4.793  -5.239  0.00  0.00     0.209 HD
ENDBRANCH  75  78
ENDBRANCH  64  75
ENDBRANCH  57  58
ENDBRANCH   4  57
TORSDOF 19
