REMARK  3 active torsions:
REMARK  status: ('A' for Active; 'I' for Inactive)
REMARK    1  A    between atoms: CAC_2  and  OAH_8 
REMARK    2  A    between atoms: CAE_4  and  PAI_12 
REMARK    3  A    between atoms: NAB_5  and  OAF_6 
ROOT
ATOM      1  CAA 4NG d   1      76.496 111.788 -93.681  0.00  0.00     0.263 C 
ATOM      2  CAC 4NG d   1      76.126 113.446 -92.140  0.00  0.00     0.131 C 
ATOM      3  CAD 4NG d   1      74.885 113.284 -92.989  0.00  0.00     0.001 C 
ATOM      4  CAE 4NG d   1      75.112 111.952 -93.676  0.00  0.00     0.138 C 
ATOM      5  NAB 4NG d   1      77.124 112.603 -92.834  0.00  0.00    -0.198 N 
ATOM      6  OAG 4NG d   1      77.078 110.972 -94.395  0.00  0.00    -0.270 OA
ATOM      7  H1  4NG d   1      75.960 113.115 -91.104  0.00  0.00     0.121 H 
ATOM      8  H2  4NG d   1      74.800 114.098 -93.724  0.00  0.00     0.041 H 
ATOM      9  H3  4NG d   1      73.980 113.257 -92.365  0.00  0.00     0.041 H 
ATOM     10  H4  4NG d   1      74.706 111.955 -94.698  0.00  0.00     0.076 H 
ENDROOT
BRANCH   4  11
ATOM     11  PAI 4NG d   1      74.344 110.621 -92.694  0.00  0.00     0.273 P 
ATOM     12  OAJ 4NG d   1      75.132 110.621 -91.280  0.00  0.00    -0.639 OA
ATOM     13  OAK 4NG d   1      74.777 109.244 -93.426  0.00  0.00    -0.639 OA
ATOM     14  OAL 4NG d   1      72.879 110.771 -92.548  0.00  0.00    -0.639 OA
ENDBRANCH   4  11
BRANCH   5  15
ATOM     15  OAF 4NG d   1      78.529 112.655 -92.631  0.00  0.00    -0.282 OA
ATOM     16  H5  4NG d   1      78.953 112.017 -93.193  0.00  0.00     0.245 HD
ENDBRANCH   5  15
BRANCH   2  17
ATOM     17  OAH 4NG d   1      76.550 114.811 -92.171  0.00  0.00    -0.374 OA
ATOM     18  H6  4NG d   1      76.632 115.095 -93.074  0.00  0.00     0.212 HD
ENDBRANCH   2  17
TORSDOF 3
