REMARK WARNING: 32 MAX_TORS EXCEEDED!!!
REMARK  59 active torsions:
REMARK  status: ('A' for Active; 'I' for Inactive)
REMARK    1  A    between atoms: N_1  and  CA_2 
REMARK    2  A    between atoms: CA_2  and  C_3 
REMARK    3  A    between atoms: CA_2  and  CB_5 
REMARK       I    between atoms: C_3  and  N_7 
REMARK    4  A    between atoms: CB_5  and  OG_6 
REMARK    5  A    between atoms: N_7  and  CA_8 
REMARK    6  A    between atoms: CA_8  and  C_9 
REMARK    7  A    between atoms: CA_8  and  CB_11 
REMARK       I    between atoms: C_9  and  N_16 
REMARK    8  A    between atoms: CB_11  and  CG_12 
REMARK    9  A    between atoms: CG_12  and  CD_13 
REMARK       I    between atoms: CD_13  and  NE2_15 
REMARK   10  A    between atoms: N_16  and  CA_17 
REMARK   11  A    between atoms: CA_17  and  C_18 
REMARK       I    between atoms: C_18  and  N_20 
REMARK   12  A    between atoms: N_20  and  CA_21 
REMARK   13  A    between atoms: CA_21  and  C_22 
REMARK   14  A    between atoms: CA_21  and  CB_24 
REMARK       I    between atoms: C_22  and  N_27 
REMARK   15  A    between atoms: CB_24  and  OG1_25 
REMARK   16  A    between atoms: CB_24  and  CG2_26 
REMARK   17  A    between atoms: N_27  and  CA_28 
REMARK   18  A    between atoms: CA_28  and  C_29 
REMARK   19  A    between atoms: CA_28  and  CB_31 
REMARK       I    between atoms: C_29  and  N_36 
REMARK   20  A    between atoms: CB_31  and  CG_32 
REMARK   21  A    between atoms: CG_32  and  CD_33 
REMARK   22  A    between atoms: CD_33  and  CE_34 
REMARK   23  A    between atoms: CE_34  and  NZ_35 
REMARK   24  A    between atoms: N_36  and  CA_37 
REMARK   25  A    between atoms: CA_37  and  C_38 
REMARK   26  A    between atoms: CA_37  and  CB_40 
REMARK       I    between atoms: C_38  and  N_47 
REMARK   27  A    between atoms: CB_40  and  CG_41 
REMARK   28  A    between atoms: CG_41  and  CD_42 
REMARK   29  A    between atoms: CD_42  and  NE_43 
REMARK       I    between atoms: NE_43  and  CZ_44 
REMARK       I    between atoms: CZ_44  and  NH1_45 
REMARK   30  A    between atoms: N_47  and  CA_48 
REMARK   31  A    between atoms: CA_48  and  C_49 
REMARK   32  A    between atoms: CA_48  and  CB_51 
REMARK       I    between atoms: C_49  and  N_53 
REMARK   33  A    between atoms: CB_51  and  OG_52 
REMARK   34  A    between atoms: N_53  and  CA_54 
REMARK   35  A    between atoms: CA_54  and  C_55 
REMARK   36  A    between atoms: CA_54  and  CB_57 
REMARK       I    between atoms: C_55  and  N_65 
REMARK   37  A    between atoms: CB_57  and  CG_58 
REMARK   38  A    between atoms: CZ_63  and  OH_64 
REMARK   39  A    between atoms: N_65  and  CA_66 
REMARK   40  A    between atoms: CA_66  and  C_67 
REMARK   41  A    between atoms: CA_66  and  CB_69 
REMARK       I    between atoms: C_67  and  N_74 
REMARK   42  A    between atoms: CB_69  and  CG_70 
REMARK   43  A    between atoms: CG_70  and  CD_71 
REMARK   44  A    between atoms: N_74  and  CA_75 
REMARK   45  A    between atoms: CA_75  and  C_76 
REMARK   46  A    between atoms: CA_75  and  CB_78 
REMARK       I    between atoms: C_76  and  N_83 
REMARK   47  A    between atoms: CB_78  and  CG_79 
REMARK   48  A    between atoms: CG_79  and  CD_80 
REMARK       I    between atoms: CD_80  and  NE2_82 
REMARK   49  A    between atoms: N_83  and  CA_84 
REMARK   50  A    between atoms: CA_84  and  C_85 
REMARK   51  A    between atoms: CA_84  and  CB_87 
REMARK       I    between atoms: C_85  and  N_91 
REMARK   52  A    between atoms: CB_87  and  CG_88 
REMARK   53  A    between atoms: CG_88  and  SD_89 
REMARK   54  A    between atoms: SD_89  and  CE_90 
REMARK   55  A    between atoms: N_91  and  CA_92 
REMARK   56  A    between atoms: CA_92  and  C_93 
REMARK   57  A    between atoms: CA_92  and  CB_95 
REMARK   58  A    between atoms: CB_95  and  CG_96 
REMARK   59  A    between atoms: CG_96  and  CD_97 
ROOT
ATOM      1  N   SER d   1      32.048   5.358  -3.714  0.00  0.00    -0.344 N 
ATOM      2  H52 SER d   1      31.619   4.495  -3.446  0.00  0.00     0.163 HD
ATOM      3  C   ARG d   1      32.685   5.439  -4.877  0.00  0.00     0.241 C 
ATOM      4  O   ARG d   1      33.189   6.484  -5.292  0.00  0.00    -0.271 OA
ENDROOT
BRANCH   3   5
ATOM      5  CA  ARG d   1      32.765   4.159  -5.701  0.00  0.00     0.089 C 
ATOM      6  H40 ARG d   1      32.237   3.361  -5.158  0.00  0.00     0.087 H 
BRANCH   5   7
ATOM      7  N   ARG d   1      32.115   4.338  -6.998  0.00  0.00    -0.346 N 
ATOM      8  C   LYS d   1      31.189   3.492  -7.440  0.00  0.00     0.241 C 
ATOM      9  O   LYS d   1      30.853   2.489  -6.817  0.00  0.00    -0.271 OA
ATOM     10  H39 ARG d   1      32.374   5.118  -7.568  0.00  0.00     0.163 HD
BRANCH   8  11
ATOM     11  CA  LYS d   1      30.546   3.814  -8.788  0.00  0.00     0.089 C 
ATOM     12  H27 LYS d   1      31.160   4.569  -9.301  0.00  0.00     0.087 H 
BRANCH  11  13
ATOM     13  N   LYS d   1      30.494   2.614  -9.618  0.00  0.00    -0.346 N 
ATOM     14  C   THR d   1      31.594   2.081 -10.139  0.00  0.00     0.243 C 
ATOM     15  O   THR d   1      32.696   2.623 -10.065  0.00  0.00    -0.271 OA
ATOM     16  H26 LYS d   1      29.610   2.183  -9.799  0.00  0.00     0.163 HD
BRANCH  14  17
ATOM     17  CA  THR d   1      31.427   0.733 -10.839  0.00  0.00     0.113 C 
ATOM     18  H20 THR d   1      30.374   0.428 -10.749  0.00  0.00     0.091 H 
BRANCH  17  19
ATOM     19  N   THR d   1      31.751   0.787 -12.263  0.00  0.00    -0.344 N 
ATOM     20  C   GLY d   1      30.813   0.733 -13.206  0.00  0.00     0.236 C 
ATOM     21  O   GLY d   1      29.608   0.724 -12.955  0.00  0.00    -0.272 OA
ATOM     22  H19 THR d   1      32.709   0.867 -12.538  0.00  0.00     0.163 HD
BRANCH  20  23
ATOM     23  CA  GLY d   1      31.313   0.694 -14.640  0.00  0.00     0.069 C 
ATOM     24  H17 GLY d   1      31.880   1.617 -14.831  0.00  0.00     0.078 H 
ATOM     25  H18 GLY d   1      31.979  -0.175 -14.748  0.00  0.00     0.078 H 
BRANCH  23  26
ATOM     26  N   GLY d   1      30.266   0.590 -15.642  0.00  0.00    -0.351 N 
ATOM     27  C   GLN d   1      29.507  -0.496 -15.756  0.00  0.00     0.240 C 
ATOM     28  O   GLN d   1      29.605  -1.458 -14.998  0.00  0.00    -0.271 OA
ATOM     29  H16 GLY d   1      30.112   1.357 -16.264  0.00  0.00     0.163 HD
BRANCH  27  30
ATOM     30  CA  GLN d   1      28.492  -0.513 -16.900  0.00  0.00     0.090 C 
ATOM     31  H9  GLN d   1      28.965  -0.079 -17.793  0.00  0.00     0.087 H 
BRANCH  30  32
ATOM     32  N   GLN d   1      28.109  -1.887 -17.193  0.00  0.00    -0.346 N 
ATOM     33  C   SER d   1      27.607  -2.242 -18.371  0.00  0.00     0.251 C 
ATOM     34  O   SER d   1      27.452  -1.453 -19.304  0.00  0.00    -0.271 OA
ATOM     35  H8  GLN d   1      28.227  -2.584 -16.486  0.00  0.00     0.163 HD
BRANCH  33  36
ATOM     36  CA  SER d   1      27.231  -3.709 -18.519  0.00  0.00     0.195 C 
ATOM     37  H4  SER d   1      26.435  -3.938 -17.795  0.00  0.00     0.102 H 
BRANCH  36  38
ATOM     38  N   SER d   1      26.724  -3.982 -19.856  0.00  0.00    -0.064 N 
ATOM     39  H1  SER d   1      26.482  -4.958 -19.931  0.00  0.00     0.275 HD
ATOM     40  H2  SER d   1      27.433  -3.759 -20.536  0.00  0.00     0.275 HD
ATOM     41  H3  SER d   1      25.906  -3.419 -20.027  0.00  0.00     0.275 HD
ENDBRANCH  36  38
BRANCH  36  42
ATOM     42  CB  SER d   1      28.439  -4.596 -18.207  0.00  0.00     0.051 C 
ATOM     43  H5  SER d   1      28.114  -5.646 -18.173  0.00  0.00     0.077 H 
ATOM     44  H6  SER d   1      28.853  -4.308 -17.229  0.00  0.00     0.077 H 
BRANCH  42  45
ATOM     45  OG  SER d   1      29.446  -4.455 -19.195  0.00  0.00    -0.398 OA
ATOM     46  H7  SER d   1      29.733  -3.550 -19.226  0.00  0.00     0.209 HD
ENDBRANCH  42  45
ENDBRANCH  36  42
ENDBRANCH  33  36
ENDBRANCH  30  32
BRANCH  30  47
ATOM     47  CB  GLN d   1      27.253   0.317 -16.556  0.00  0.00    -0.030 C 
ATOM     48  H10 GLN d   1      26.943   0.061 -15.532  0.00  0.00     0.037 H 
ATOM     49  H11 GLN d   1      26.453   0.046 -17.260  0.00  0.00     0.037 H 
BRANCH  47  50
ATOM     50  CG  GLN d   1      27.456   1.819 -16.627  0.00  0.00     0.011 C 
ATOM     51  H12 GLN d   1      27.880   2.071 -17.610  0.00  0.00     0.047 H 
ATOM     52  H13 GLN d   1      28.160   2.118 -15.836  0.00  0.00     0.047 H 
BRANCH  50  53
ATOM     53  CD  GLN d   1      26.164   2.589 -16.443  0.00  0.00     0.215 C 
ATOM     54  OE1 GLN d   1      25.077   2.071 -16.700  0.00  0.00    -0.274 OA
ATOM     55  NE2 GLN d   1      26.276   3.833 -15.994  0.00  0.00    -0.370 N 
ATOM     56  H14 GLN d   1      25.457   4.389 -15.853  0.00  0.00     0.159 HD
ATOM     57  H15 GLN d   1      27.179   4.214 -15.797  0.00  0.00     0.159 HD
ENDBRANCH  50  53
ENDBRANCH  47  50
ENDBRANCH  30  47
ENDBRANCH  27  30
ENDBRANCH  23  26
ENDBRANCH  20  23
ENDBRANCH  17  19
BRANCH  17  58
ATOM     58  CB  THR d   1      32.301  -0.302 -10.104  0.00  0.00     0.060 C 
ATOM     59  H21 THR d   1      33.360  -0.046 -10.252  0.00  0.00     0.086 H 
BRANCH  58  60
ATOM     60  OG1 THR d   1      32.052  -1.609 -10.633  0.00  0.00    -0.393 OA
ATOM     61  H22 THR d   1      32.593  -2.243 -10.177  0.00  0.00     0.210 HD
ENDBRANCH  58  60
BRANCH  58  62
ATOM     62  CG2 THR d   1      31.990  -0.300  -8.606  0.00  0.00    -0.050 C 
ATOM     63  H23 THR d   1      32.623  -1.044  -8.099  0.00  0.00     0.031 H 
ATOM     64  H24 THR d   1      30.931  -0.553  -8.451  0.00  0.00     0.031 H 
ATOM     65  H25 THR d   1      32.193   0.698  -8.191  0.00  0.00     0.031 H 
ENDBRANCH  58  62
ENDBRANCH  17  58
ENDBRANCH  14  17
ENDBRANCH  11  13
BRANCH  11  66
ATOM     66  CB  LYS d   1      29.142   4.390  -8.575  0.00  0.00    -0.038 C 
ATOM     67  H28 LYS d   1      29.228   5.272  -7.923  0.00  0.00     0.036 H 
ATOM     68  H29 LYS d   1      28.528   3.624  -8.078  0.00  0.00     0.036 H 
BRANCH  66  69
ATOM     69  CG  LYS d   1      28.433   4.811  -9.851  0.00  0.00    -0.061 C 
ATOM     70  H30 LYS d   1      27.363   4.947  -9.637  0.00  0.00     0.033 H 
ATOM     71  H31 LYS d   1      28.558   4.021 -10.606  0.00  0.00     0.033 H 
BRANCH  69  72
ATOM     72  CD  LYS d   1      28.995   6.109 -10.398  0.00  0.00    -0.043 C 
ATOM     73  H32 LYS d   1      30.027   5.940 -10.740  0.00  0.00     0.035 H 
ATOM     74  H33 LYS d   1      28.992   6.868  -9.602  0.00  0.00     0.035 H 
BRANCH  72  75
ATOM     75  CE  LYS d   1      28.158   6.606 -11.563  0.00  0.00     0.080 C 
ATOM     76  H34 LYS d   1      27.106   6.668 -11.246  0.00  0.00     0.075 H 
ATOM     77  H35 LYS d   1      28.249   5.894 -12.397  0.00  0.00     0.075 H 
BRANCH  75  78
ATOM     78  NZ  LYS d   1      28.602   7.948 -12.024  0.00  0.00    -0.079 N 
ATOM     79  H36 LYS d   1      28.026   8.246 -12.796  0.00  0.00     0.274 HD
ATOM     80  H37 LYS d   1      29.564   7.900 -12.322  0.00  0.00     0.274 HD
ATOM     81  H38 LYS d   1      28.517   8.608 -11.267  0.00  0.00     0.274 HD
ENDBRANCH  75  78
ENDBRANCH  72  75
ENDBRANCH  69  72
ENDBRANCH  66  69
ENDBRANCH  11  66
ENDBRANCH   8  11
ENDBRANCH   5   7
BRANCH   5  82
ATOM     82  CB  ARG d   1      34.229   3.741  -5.873  0.00  0.00    -0.036 C 
ATOM     83  H41 ARG d   1      34.721   3.805  -4.891  0.00  0.00     0.036 H 
ATOM     84  H42 ARG d   1      34.707   4.446  -6.569  0.00  0.00     0.036 H 
BRANCH  82  85
ATOM     85  CG  ARG d   1      34.430   2.330  -6.414  0.00  0.00    -0.048 C 
ATOM     86  H43 ARG d   1      33.866   2.222  -7.352  0.00  0.00     0.035 H 
ATOM     87  H44 ARG d   1      34.055   1.606  -5.676  0.00  0.00     0.035 H 
BRANCH  85  88
ATOM     88  CD  ARG d   1      35.906   2.045  -6.685  0.00  0.00     0.009 C 
ATOM     89  H45 ARG d   1      35.994   1.068  -7.182  0.00  0.00     0.064 H 
ATOM     90  H46 ARG d   1      36.445   2.019  -5.726  0.00  0.00     0.064 H 
BRANCH  88  91
ATOM     91  NE  ARG d   1      36.512   3.065  -7.539  0.00  0.00    -0.227 N 
ATOM     92  CZ  ARG d   1      37.591   3.776  -7.219  0.00  0.00     0.665 C 
ATOM     93  NH1 ARG d   1      38.200   3.584  -6.059  0.00  0.00    -0.235 N 
ATOM     94  NH2 ARG d   1      38.065   4.682  -8.065  0.00  0.00    -0.235 N 
ATOM     95  H48 ARG d   1      39.034   4.138  -5.818  0.00  0.00     0.174 HD
ATOM     96  H49 ARG d   1      37.839   2.881  -5.398  0.00  0.00     0.174 HD
ATOM     97  H50 ARG d   1      37.597   4.837  -8.969  0.00  0.00     0.174 HD
ATOM     98  H51 ARG d   1      38.901   5.230  -7.817  0.00  0.00     0.174 HD
ATOM     99  H47 ARG d   1      36.073   3.246  -8.453  0.00  0.00     0.177 HD
ENDBRANCH  88  91
ENDBRANCH  85  88
ENDBRANCH  82  85
ENDBRANCH   5  82
ENDBRANCH   3   5
BRANCH   1 100
ATOM    100  CA  SER d   1      31.966   6.507  -2.823  0.00  0.00     0.109 C 
ATOM    101  H53 SER d   1      31.614   7.372  -3.404  0.00  0.00     0.090 H 
BRANCH 100 102
ATOM    102  C   SER d   1      33.343   6.832  -2.254  0.00  0.00     0.243 C 
ATOM    103  O   SER d   1      34.281   6.042  -2.377  0.00  0.00    -0.271 OA
ATOM    104  N   TYR d   1      33.454   7.996  -1.626  0.00  0.00    -0.346 N 
ATOM    105  H57 TYR d   1      32.645   8.575  -1.524  0.00  0.00     0.163 HD
BRANCH 104 106
ATOM    106  CA  TYR d   1      34.726   8.450  -1.083  0.00  0.00     0.093 C 
ATOM    107  H58 TYR d   1      35.428   8.566  -1.922  0.00  0.00     0.088 H 
BRANCH 106 108
ATOM    108  C   TYR d   1      35.331   7.448  -0.098  0.00  0.00     0.241 C 
ATOM    109  O   TYR d   1      36.537   7.202  -0.114  0.00  0.00    -0.271 OA
ATOM    110  N   GLU d   1      34.490   6.868   0.752  0.00  0.00    -0.346 N 
ATOM    111  H66 GLU d   1      33.519   7.102   0.716  0.00  0.00     0.163 HD
BRANCH 110 112
ATOM    112  CA  GLU d   1      34.953   5.897   1.737  0.00  0.00     0.090 C 
ATOM    113  H67 GLU d   1      35.847   6.307   2.230  0.00  0.00     0.087 H 
BRANCH 112 114
ATOM    114  C   GLU d   1      35.340   4.581   1.065  0.00  0.00     0.241 C 
ATOM    115  O   GLU d   1      36.195   3.846   1.563  0.00  0.00    -0.271 OA
ATOM    116  N   GLN d   1      34.714   4.292  -0.071  0.00  0.00    -0.346 N 
ATOM    117  H72 GLN d   1      33.996   4.904  -0.404  0.00  0.00     0.163 HD
BRANCH 116 118
ATOM    118  CA  GLN d   1      35.052   3.101  -0.842  0.00  0.00     0.090 C 
ATOM    119  H73 GLN d   1      35.131   2.253  -0.145  0.00  0.00     0.087 H 
BRANCH 118 120
ATOM    120  C   GLN d   1      36.400   3.267  -1.548  0.00  0.00     0.241 C 
ATOM    121  O   GLN d   1      37.059   2.281  -1.874  0.00  0.00    -0.271 OA
ATOM    122  N   MET d   1      36.808   4.514  -1.780  0.00  0.00    -0.346 N 
ATOM    123  H80 MET d   1      36.213   5.279  -1.532  0.00  0.00     0.163 HD
BRANCH 122 124
ATOM    124  CA  MET d   1      38.110   4.787  -2.391  0.00  0.00     0.090 C 
ATOM    125  H81 MET d   1      38.241   4.093  -3.234  0.00  0.00     0.087 H 
BRANCH 124 126
ATOM    126  C   MET d   1      39.239   4.570  -1.406  0.00  0.00     0.241 C 
ATOM    127  O   MET d   1      40.247   3.937  -1.727  0.00  0.00    -0.271 OA
ATOM    128  N   GLU d   1      39.069   5.124  -0.211  0.00  0.00    -0.345 N 
ATOM    129  H89 GLU d   1      38.230   5.639  -0.033  0.00  0.00     0.163 HD
BRANCH 128 130
ATOM    130  CA  GLU d   1      40.061   5.009   0.851  0.00  0.00     0.097 C 
ATOM    131  H90 GLU d   1      41.051   4.885   0.389  0.00  0.00     0.089 H 
BRANCH 130 132
ATOM    132  C   GLU d   1      39.782   3.792   1.725  0.00  0.00     0.196 C 
ATOM    133  O   GLU d   1      40.625   2.905   1.860  0.00  0.00    -0.646 OA
ATOM    134  OXT GLU d   1      38.708   3.671   2.314  0.00  0.00    -0.646 OA
ENDBRANCH 130 132
BRANCH 130 135
ATOM    135  CB  GLU d   1      40.078   6.282   1.701  0.00  0.00    -0.028 C 
ATOM    136  H91 GLU d   1      40.223   5.993   2.752  0.00  0.00     0.037 H 
ATOM    137  H92 GLU d   1      39.106   6.785   1.589  0.00  0.00     0.037 H 
BRANCH 135 138
ATOM    138  CG  GLU d   1      41.172   7.268   1.322  0.00  0.00     0.018 C 
ATOM    139  H93 GLU d   1      41.285   7.264   0.228  0.00  0.00     0.049 H 
ATOM    140  H94 GLU d   1      42.114   6.945   1.789  0.00  0.00     0.049 H 
BRANCH 138 141
ATOM    141  CD  GLU d   1      40.867   8.682   1.773  0.00  0.00     0.172 C 
ATOM    142  OE1 GLU d   1      39.893   8.866   2.534  0.00  0.00    -0.648 OA
ATOM    143  OE2 GLU d   1      41.599   9.608   1.365  0.00  0.00    -0.648 OA
ENDBRANCH 138 141
ENDBRANCH 135 138
ENDBRANCH 130 135
ENDBRANCH 128 130
ENDBRANCH 124 126
BRANCH 124 144
ATOM    144  CB  MET d   1      38.203   6.221  -2.922  0.00  0.00    -0.030 C 
ATOM    145  H82 MET d   1      37.717   6.900  -2.205  0.00  0.00     0.037 H 
ATOM    146  H83 MET d   1      37.684   6.278  -3.890  0.00  0.00     0.037 H 
BRANCH 144 147
ATOM    147  CG  MET d   1      39.660   6.656  -3.111  0.00  0.00    -0.021 C 
ATOM    148  H84 MET d   1      40.123   5.965  -3.831  0.00  0.00     0.049 H 
ATOM    149  H85 MET d   1      40.164   6.563  -2.138  0.00  0.00     0.049 H 
BRANCH 147 150
ATOM    150  SD  MET d   1      39.935   8.323  -3.706  0.00  0.00    -0.173 SA
BRANCH 150 151
ATOM    151  CE  MET d   1      39.388   9.278  -2.311  0.00  0.00    -0.035 C 
ATOM    152  H86 MET d   1      39.500  10.349  -2.534  0.00  0.00     0.041 H 
ATOM    153  H87 MET d   1      39.995   9.021  -1.430  0.00  0.00     0.041 H 
ATOM    154  H88 MET d   1      38.331   9.055  -2.106  0.00  0.00     0.041 H 
ENDBRANCH 150 151
ENDBRANCH 147 150
ENDBRANCH 144 147
ENDBRANCH 124 144
ENDBRANCH 122 124
ENDBRANCH 118 120
BRANCH 118 155
ATOM    155  CB  GLN d   1      33.952   2.785  -1.859  0.00  0.00    -0.030 C 
ATOM    156  H74 GLN d   1      34.310   1.976  -2.513  0.00  0.00     0.037 H 
ATOM    157  H75 GLN d   1      33.769   3.688  -2.460  0.00  0.00     0.037 H 
BRANCH 155 158
ATOM    158  CG  GLN d   1      32.630   2.348  -1.241  0.00  0.00     0.011 C 
ATOM    159  H76 GLN d   1      32.281   3.139  -0.561  0.00  0.00     0.047 H 
ATOM    160  H77 GLN d   1      32.797   1.422  -0.671  0.00  0.00     0.047 H 
BRANCH 158 161
ATOM    161  CD  GLN d   1      31.552   2.090  -2.282  0.00  0.00     0.215 C 
ATOM    162  OE1 GLN d   1      31.197   2.977  -3.060  0.00  0.00    -0.274 OA
ATOM    163  NE2 GLN d   1      31.019   0.872  -2.294  0.00  0.00    -0.370 N 
ATOM    164  H78 GLN d   1      30.306   0.645  -2.957  0.00  0.00     0.159 HD
ATOM    165  H79 GLN d   1      31.331   0.183  -1.640  0.00  0.00     0.159 HD
ENDBRANCH 158 161
ENDBRANCH 155 158
ENDBRANCH 118 155
ENDBRANCH 116 118
ENDBRANCH 112 114
BRANCH 112 166
ATOM    166  CB  GLU d   1      33.880   5.664   2.805  0.00  0.00    -0.029 C 
ATOM    167  H68 GLU d   1      34.239   4.887   3.496  0.00  0.00     0.037 H 
ATOM    168  H69 GLU d   1      32.962   5.317   2.307  0.00  0.00     0.037 H 
BRANCH 166 169
ATOM    169  CG  GLU d   1      33.548   6.912   3.613  0.00  0.00     0.018 C 
ATOM    170  H70 GLU d   1      33.205   7.696   2.922  0.00  0.00     0.049 H 
ATOM    171  H71 GLU d   1      34.460   7.250   4.126  0.00  0.00     0.049 H 
BRANCH 169 172
ATOM    172  CD  GLU d   1      32.468   6.677   4.652  0.00  0.00     0.172 C 
ATOM    173  OE1 GLU d   1      31.992   7.667   5.246  0.00  0.00    -0.648 OA
ATOM    174  OE2 GLU d   1      32.098   5.506   4.881  0.00  0.00    -0.648 OA
ENDBRANCH 169 172
ENDBRANCH 166 169
ENDBRANCH 112 166
ENDBRANCH 110 112
ENDBRANCH 106 108
BRANCH 106 175
ATOM    175  CB  TYR d   1      34.559   9.807  -0.404  0.00  0.00    -0.014 C 
ATOM    176  H59 TYR d   1      33.767   9.727   0.355  0.00  0.00     0.043 H 
ATOM    177  H60 TYR d   1      34.267  10.548  -1.163  0.00  0.00     0.043 H 
BRANCH 175 178
ATOM    178  CG  TYR d   1      35.823  10.273   0.264  0.00  0.00    -0.056 A 
ATOM    179  CD1 TYR d   1      36.869  10.788  -0.484  0.00  0.00    -0.074 A 
ATOM    180  CE1 TYR d   1      38.033  11.206   0.116  0.00  0.00    -0.051 A 
ATOM    181  H61 TYR d   1      36.768  10.863  -1.561  0.00  0.00     0.084 H 
ATOM    182  CZ  TYR d   1      38.166  11.113   1.482  0.00  0.00     0.065 A 
ATOM    183  H63 TYR d   1      38.842  11.607  -0.484  0.00  0.00     0.087 H 
ATOM    184  CE2 TYR d   1      37.143  10.602   2.251  0.00  0.00    -0.051 A 
ATOM    185  CD2 TYR d   1      35.980  10.184   1.641  0.00  0.00    -0.074 A 
ATOM    186  H64 TYR d   1      37.252  10.529   3.327  0.00  0.00     0.087 H 
ATOM    187  H62 TYR d   1      35.176   9.780   2.245  0.00  0.00     0.084 H 
BRANCH 182 188
ATOM    188  OH  TYR d   1      39.329  11.534   2.079  0.00  0.00    -0.361 OA
ATOM    189  H65 TYR d   1      39.729  10.806   2.540  0.00  0.00     0.217 HD
ENDBRANCH 182 188
ENDBRANCH 175 178
ENDBRANCH 106 175
ENDBRANCH 104 106
ENDBRANCH 100 102
BRANCH 100 190
ATOM    190  CB  SER d   1      30.974   6.251  -1.687  0.00  0.00     0.044 C 
ATOM    191  H54 SER d   1      30.021   5.902  -2.112  0.00  0.00     0.077 H 
ATOM    192  H55 SER d   1      30.808   7.188  -1.136  0.00  0.00     0.077 H 
BRANCH 190 193
ATOM    193  OG  SER d   1      31.471   5.270  -0.795  0.00  0.00    -0.398 OA
ATOM    194  H56 SER d   1      31.613   4.458  -1.267  0.00  0.00     0.209 HD
ENDBRANCH 190 193
ENDBRANCH 100 190
ENDBRANCH   1 100
TORSDOF 59
