REMARK  7 active torsions:
REMARK  status: ('A' for Active; 'I' for Inactive)
REMARK    1  A    between atoms: C4_2  and  C5_1 
REMARK    2  A    between atoms: C5_1  and  C6_4 
REMARK    3  A    between atoms: C3_5  and  C4_2 
REMARK    4  A    between atoms: C6_4  and  C7_6 
REMARK    5  A    between atoms: C2_7  and  C3_5 
REMARK    6  A    between atoms: C7_6  and  N_8 
REMARK    7  A    between atoms: C2_7  and  C1_9 
ROOT
ATOM      1  C5  011 d   1      -1.307   3.997  10.353  0.00  0.00    -0.064 C 
ATOM      2  H1  011 d   1      -1.806   4.320  11.278  0.00  0.00     0.033 H 
ATOM      3  H2  011 d   1      -1.870   4.369   9.484  0.00  0.00     0.033 H 
ENDROOT
BRANCH   1   4
ATOM      4  C4  011 d   1      -1.308   2.481  10.312  0.00  0.00    -0.065 C 
ATOM      5  H3  011 d   1      -0.574   2.114  11.045  0.00  0.00     0.033 H 
ATOM      6  H4  011 d   1      -1.009   2.162   9.303  0.00  0.00     0.033 H 
BRANCH   4   7
ATOM      7  C3  011 d   1      -2.654   1.859  10.631  0.00  0.00    -0.056 C 
ATOM      8  H7  011 d   1      -3.421   2.340  10.007  0.00  0.00     0.033 H 
ATOM      9  H8  011 d   1      -2.881   2.036  11.693  0.00  0.00     0.033 H 
BRANCH   7  10
ATOM     10  C2  011 d   1      -2.682   0.363  10.370  0.00  0.00     0.016 C 
ATOM     11  H11 011 d   1      -1.861  -0.101  10.937  0.00  0.00     0.049 H 
ATOM     12  H12 011 d   1      -2.523   0.199   9.294  0.00  0.00     0.049 H 
BRANCH  10  13
ATOM     13  C1  011 d   1      -3.962  -0.311  10.763  0.00  0.00     0.172 C 
ATOM     14  O   011 d   1      -5.047   0.233  10.712  0.00  0.00    -0.648 OA
ATOM     15  OXT 011 d   1      -3.786  -1.539  11.173  0.00  0.00    -0.648 OA
ENDBRANCH  10  13
ENDBRANCH   7  10
ENDBRANCH   4   7
ENDBRANCH   1   4
BRANCH   1  16
ATOM     16  C6  011 d   1       0.086   4.605  10.320  0.00  0.00    -0.043 C 
ATOM     17  H5  011 d   1       0.661   4.205  11.168  0.00  0.00     0.035 H 
ATOM     18  H6  011 d   1      -0.008   5.696  10.422  0.00  0.00     0.035 H 
BRANCH  16  19
ATOM     19  C7  011 d   1       0.846   4.306   9.041  0.00  0.00     0.080 C 
ATOM     20  H9  011 d   1       0.305   4.756   8.195  0.00  0.00     0.075 H 
ATOM     21  H10 011 d   1       0.895   3.215   8.906  0.00  0.00     0.075 H 
BRANCH  19  22
ATOM     22  N   011 d   1       2.214   4.841   9.064  0.00  0.00    -0.079 N 
ATOM     23  H13 011 d   1       2.677   4.618   8.197  0.00  0.00     0.274 HD
ATOM     24  H14 011 d   1       2.723   4.430   9.831  0.00  0.00     0.274 HD
ATOM     25  H15 011 d   1       2.182   5.842   9.180  0.00  0.00     0.274 HD
ENDBRANCH  19  22
ENDBRANCH  16  19
ENDBRANCH   1  16
TORSDOF 7
