REMARK  21 active torsions:
REMARK  status: ('A' for Active; 'I' for Inactive)
REMARK    1  A    between atoms: CBH_1  and  CAO_2 
REMARK    2  A    between atoms: CBH_1  and  O1_35 
REMARK    3  A    between atoms: CAO_2  and  OAD_3 
REMARK    4  A    between atoms: O12_38  and  CBD_4 
REMARK    5  A    between atoms: CBC_6  and  CAN_7 
REMARK    6  A    between atoms: CAN_7  and  OAC_8 
REMARK    7  A    between atoms: CBG_9  and  OAU_10 
REMARK    8  A    between atoms: OAU_10  and  P1_12 
REMARK    9  A    between atoms: P1_12  and  OBA_14 
REMARK   10  A    between atoms: OBA_14  and  CBO_15 
REMARK   11  A    between atoms: CBM_16  and  O14_17 
REMARK   12  A    between atoms: CBL_18  and  O10_19 
REMARK   13  A    between atoms: C8_22  and  OAH_23 
REMARK   14  A    between atoms: C2_25  and  O2_24 
REMARK   15  A    between atoms: C3_26  and  O3_27 
REMARK   16  A    between atoms: C4_28  and  O4_29 
REMARK   17  A    between atoms: C5_30  and  C6_31 
REMARK   18  A    between atoms: C6_31  and  O6_32 
REMARK   19  A    between atoms: O1_35  and  C1_34 
REMARK   20  A    between atoms: C_36  and  O12_38 
REMARK   21  A    between atoms: C_36  and  C11_39 
ROOT
ATOM      1  CBH AGW d   1     -14.069 -27.731  24.331  0.00  0.00     0.218 C 
ATOM      2  CBD AGW d   1     -14.728 -26.663  23.542  0.00  0.00     0.131 C 
ATOM      3  OAR AGW d   1     -12.902 -27.962  23.587  0.00  0.00    -0.341 OA
ATOM      4  CBC AGW d   1     -13.123 -27.637  22.247  0.00  0.00     0.090 C 
ATOM      5  CBG AGW d   1     -14.412 -26.888  22.195  0.00  0.00     0.108 C 
ATOM      6  H4  AGW d   1     -15.813 -26.630  23.720  0.00  0.00     0.097 H 
ATOM      7  H5  AGW d   1     -13.242 -28.571  21.678  0.00  0.00     0.090 H 
ATOM      8  H9  AGW d   1     -14.307 -25.951  21.628  0.00  0.00     0.092 H 
ENDROOT
BRANCH   1   9
ATOM      9  CAO AGW d   1     -14.984 -28.943  24.423  0.00  0.00     0.071 C 
ATOM     10  H1  AGW d   1     -14.399 -29.769  24.854  0.00  0.00     0.082 H 
ATOM     11  H2  AGW d   1     -15.292 -29.206  23.400  0.00  0.00     0.082 H 
BRANCH   9  12
ATOM     12  OAD AGW d   1     -16.153 -28.799  25.197  0.00  0.00    -0.395 OA
ATOM     13  H3  AGW d   1     -16.686 -28.100  24.836  0.00  0.00     0.209 HD
ENDBRANCH   9  12
ENDBRANCH   1   9
BRANCH   1  14
ATOM     14  O1  AGW d   1     -13.808 -27.250  25.650  0.00  0.00    -0.318 OA
BRANCH  14  15
ATOM     15  C1  AGW d   1     -13.027 -27.980  26.613  0.00  0.00     0.162 C 
ATOM     16  C2  AGW d   1     -13.476 -27.551  28.000  0.00  0.00     0.110 C 
ATOM     17  C3  AGW d   1     -12.772 -26.372  28.543  0.00  0.00     0.092 C 
ATOM     18  H20 AGW d   1     -13.216 -28.385  28.669  0.00  0.00     0.094 H 
ATOM     19  C4  AGW d   1     -12.021 -25.592  27.597  0.00  0.00     0.090 C 
ATOM     20  H21 AGW d   1     -12.008 -26.802  29.207  0.00  0.00     0.091 H 
ATOM     21  C5  AGW d   1     -11.092 -26.399  26.725  0.00  0.00     0.089 C 
ATOM     22  H23 AGW d   1     -12.780 -25.221  26.893  0.00  0.00     0.091 H 
ATOM     23  O5  AGW d   1     -11.653 -27.739  26.368  0.00  0.00    -0.348 OA
ATOM     24  H25 AGW d   1     -10.969 -25.831  25.791  0.00  0.00     0.090 H 
ATOM     25  H29 AGW d   1     -13.217 -29.058  26.500  0.00  0.00     0.133 H 
BRANCH  16  26
ATOM     26  O2  AGW d   1     -14.901 -27.408  28.070  0.00  0.00    -0.388 OA
ATOM     27  H19 AGW d   1     -15.163 -27.298  28.977  0.00  0.00     0.210 HD
ENDBRANCH  16  26
BRANCH  17  28
ATOM     28  O3  AGW d   1     -13.591 -25.546  29.412  0.00  0.00    -0.390 OA
ATOM     29  H22 AGW d   1     -13.078 -24.810  29.724  0.00  0.00     0.210 HD
ENDBRANCH  17  28
BRANCH  19  30
ATOM     30  O4  AGW d   1     -11.456 -24.378  28.170  0.00  0.00    -0.390 OA
ATOM     31  H24 AGW d   1     -10.870 -24.608  28.881  0.00  0.00     0.210 HD
ENDBRANCH  19  30
BRANCH  21  32
ATOM     32  C6  AGW d   1      -9.712 -26.601  27.314  0.00  0.00     0.043 C 
ATOM     33  H26 AGW d   1      -9.280 -27.495  26.840  0.00  0.00     0.078 H 
ATOM     34  H27 AGW d   1      -9.838 -26.782  28.392  0.00  0.00     0.078 H 
BRANCH  32  35
ATOM     35  O6  AGW d   1      -8.777 -25.555  27.170  0.00  0.00    -0.398 OA
ATOM     36  H28 AGW d   1      -9.114 -24.771  27.587  0.00  0.00     0.209 HD
ENDBRANCH  32  35
ENDBRANCH  21  32
ENDBRANCH  14  15
ENDBRANCH   1  14
BRANCH   2  37
ATOM     37  O12 AGW d   1     -14.086 -25.435  23.867  0.00  0.00    -0.314 OA
BRANCH  37  38
ATOM     38  C   AGW d   1     -14.753 -24.407  24.711  0.00  0.00     0.226 C 
ATOM     39  O11 AGW d   1     -15.639 -24.970  25.772  0.00  0.00    -0.163 OA
BRANCH  38  40
ATOM     40  C11 AGW d   1     -13.830 -23.127  25.054  0.00  0.00     0.025 A 
ATOM     41  C12 AGW d   1     -14.278 -22.157  25.948  0.00  0.00    -0.068 A 
ATOM     42  C13 AGW d   1     -13.461 -21.058  26.221  0.00  0.00    -0.082 A 
ATOM     43  H30 AGW d   1     -15.247 -22.254  26.425  0.00  0.00     0.085 H 
ATOM     44  C14 AGW d   1     -12.216 -20.939  25.600  0.00  0.00    -0.083 A 
ATOM     45  H31 AGW d   1     -13.794 -20.296  26.916  0.00  0.00     0.083 H 
ATOM     46  C15 AGW d   1     -11.778 -21.899  24.682  0.00  0.00    -0.082 A 
ATOM     47  H32 AGW d   1     -11.581 -20.092  25.832  0.00  0.00     0.083 H 
ATOM     48  C16 AGW d   1     -12.600 -23.000  24.400  0.00  0.00    -0.068 A 
ATOM     49  H33 AGW d   1     -10.816 -21.794  24.195  0.00  0.00     0.083 H 
ATOM     50  H34 AGW d   1     -12.284 -23.747  23.681  0.00  0.00     0.085 H 
ENDBRANCH  38  40
ENDBRANCH  37  38
ENDBRANCH   2  37
BRANCH   5  51
ATOM     51  OAU AGW d   1     -15.453 -27.682  21.663  0.00  0.00    -0.279 OA
BRANCH  51  52
ATOM     52  P1  AGW d   1     -16.465 -27.114  20.616  0.00  0.00     0.409 P 
ATOM     53  O15 AGW d   1     -16.844 -25.689  20.943  0.00  0.00    -0.624 OA
ATOM     54  OAL AGW d   1     -17.648 -28.064  20.633  0.00  0.00    -0.624 OA
BRANCH  52  55
ATOM     55  OBA AGW d   1     -15.737 -27.090  19.196  0.00  0.00    -0.277 OA
BRANCH  55  56
ATOM     56  CBO AGW d   1     -15.612 -28.228  18.330  0.00  0.00     0.125 C 
ATOM     57  CBM AGW d   1     -14.215 -28.553  18.164  0.00  0.00     0.092 C 
ATOM     58  CBL AGW d   1     -13.887 -29.421  17.079  0.00  0.00     0.083 C 
ATOM     59  H11 AGW d   1     -13.713 -27.599  17.947  0.00  0.00     0.091 H 
ATOM     60  CBN AGW d   1     -14.587 -29.005  15.789  0.00  0.00     0.049 C 
ATOM     61  H13 AGW d   1     -12.797 -29.420  16.930  0.00  0.00     0.090 H 
ATOM     62  OAX AGW d   1     -15.976 -28.759  15.975  0.00  0.00    -0.356 OA
ATOM     63  H15 AGW d   1     -14.468 -29.809  15.048  0.00  0.00     0.078 H 
ATOM     64  H16 AGW d   1     -14.114 -28.086  15.412  0.00  0.00     0.078 H 
ATOM     65  C8  AGW d   1     -16.234 -27.825  17.005  0.00  0.00     0.156 C 
ATOM     66  H17 AGW d   1     -15.758 -26.878  16.710  0.00  0.00     0.133 H 
ATOM     67  H10 AGW d   1     -16.144 -29.093  18.752  0.00  0.00     0.096 H 
BRANCH  57  68
ATOM     68  O14 AGW d   1     -13.623 -29.075  19.440  0.00  0.00    -0.390 OA
ATOM     69  H12 AGW d   1     -12.706 -29.280  19.302  0.00  0.00     0.210 HD
ENDBRANCH  57  68
BRANCH  58  70
ATOM     70  O10 AGW d   1     -14.362 -30.778  17.382  0.00  0.00    -0.391 OA
ATOM     71  H14 AGW d   1     -14.145 -31.357  16.661  0.00  0.00     0.210 HD
ENDBRANCH  58  70
BRANCH  65  72
ATOM     72  OAH AGW d   1     -17.578 -27.585  17.101  0.00  0.00    -0.369 OA
ATOM     73  H18 AGW d   1     -17.896 -27.235  16.277  0.00  0.00     0.212 HD
ENDBRANCH  65  72
ENDBRANCH  55  56
ENDBRANCH  52  55
ENDBRANCH  51  52
ENDBRANCH   5  51
BRANCH   4  74
ATOM     74  CAN AGW d   1     -11.982 -26.892  21.635  0.00  0.00     0.043 C 
ATOM     75  H6  AGW d   1     -12.015 -27.097  20.555  0.00  0.00     0.078 H 
ATOM     76  H7  AGW d   1     -11.062 -27.319  22.061  0.00  0.00     0.078 H 
BRANCH  74  77
ATOM     77  OAC AGW d   1     -11.881 -25.485  21.778  0.00  0.00    -0.398 OA
ATOM     78  H8  AGW d   1     -11.101 -25.177  21.330  0.00  0.00     0.209 HD
ENDBRANCH  74  77
ENDBRANCH   4  74
TORSDOF 21
