REMARK  7 active torsions:
REMARK  status: ('A' for Active; 'I' for Inactive)
REMARK    1  A    between atoms: C5_1  and  C6_2 
REMARK    2  A    between atoms: C5_1  and  C13_9 
REMARK    3  A    between atoms: C13_9  and  O21_16 
REMARK    4  A    between atoms: C14_10  and  C44_25 
REMARK    5  A    between atoms: C15_11  and  C28_17 
REMARK    6  A    between atoms: N18_13  and  C19_14 
REMARK    7  A    between atoms: C28_17  and  C37_18 
ROOT
ATOM      1  C13 4NJ d   1      19.084  -0.416  25.954  0.00  0.00     0.170 A 
ATOM      2  C14 4NJ d   1      18.515   0.857  26.465  0.00  0.00     0.022 A 
ATOM      3  C15 4NJ d   1      19.051   2.063  25.873  0.00  0.00     0.026 A 
ATOM      4  C16 4NJ d   1      19.962   1.430  24.920  0.00  0.00     0.253 A 
ATOM      5  N18 4NJ d   1      20.007   0.092  24.893  0.00  0.00    -0.316 N 
ATOM      6  O20 4NJ d   1      20.636   2.066  24.081  0.00  0.00    -0.268 OA
ENDROOT
BRANCH   1   7
ATOM      7  C5  4NJ d   1      18.048  -1.394  25.490  0.00  0.00     0.010 C 
ATOM      8  H1  4NJ d   1      18.558  -2.254  25.032  0.00  0.00     0.048 H 
ATOM      9  H2  4NJ d   1      17.470  -1.733  26.363  0.00  0.00     0.048 H 
BRANCH   7  10
ATOM     10  C6  4NJ d   1      17.094  -0.807  24.480  0.00  0.00    -0.053 A 
ATOM     11  C7  4NJ d   1      17.443  -0.760  23.128  0.00  0.00    -0.075 A 
ATOM     12  C8  4NJ d   1      16.601  -0.233  22.186  0.00  0.00    -0.061 A 
ATOM     13  H3  4NJ d   1      18.405  -1.151  22.817  0.00  0.00     0.084 H 
ATOM     14  C9  4NJ d   1      15.359   0.268  22.589  0.00  0.00     0.034 A 
ATOM     15  H4  4NJ d   1      16.893  -0.204  21.142  0.00  0.00     0.086 H 
ATOM     16  C10 4NJ d   1      14.971   0.227  23.932  0.00  0.00    -0.061 A 
ATOM     17 CL1  4NJ d   1      14.269   0.857  21.336  0.00  0.00    -0.084 Cl
ATOM     18  C11 4NJ d   1      15.851  -0.328  24.862  0.00  0.00    -0.075 A 
ATOM     19  H5  4NJ d   1      14.009   0.617  24.243  0.00  0.00     0.086 H 
ATOM     20  H6  4NJ d   1      15.556  -0.386  25.904  0.00  0.00     0.084 H 
ENDBRANCH   7  10
ENDBRANCH   1   7
BRANCH   1  21
ATOM     21  O21 4NJ d   1      19.821  -0.924  27.066  0.00  0.00    -0.366 OA
ATOM     22  H10 4NJ d   1      20.358  -0.231  27.432  0.00  0.00     0.213 HD
ENDBRANCH   1  21
BRANCH   2  23
ATOM     23  C44 4NJ d   1      17.544   1.086  27.586  0.00  0.00     0.004 A 
ATOM     24  C45 4NJ d   1      17.583   0.357  28.865  0.00  0.00     0.003 A 
ATOM     25  C46 4NJ d   1      16.444   0.931  29.558  0.00  0.00     0.044 A 
ATOM     26  C59 4NJ d   1      18.341  -0.679  29.436  0.00  0.00    -0.068 A 
ATOM     27  N49 4NJ d   1      15.848   1.824  28.794  0.00  0.00    -0.364 N 
ATOM     28  C56 4NJ d   1      16.193   0.497  30.834  0.00  0.00    -0.035 A 
ATOM     29  C48 4NJ d   1      16.469   1.932  27.570  0.00  0.00    -0.011 A 
ATOM     30  H18 4NJ d   1      15.023   2.372  29.077  0.00  0.00     0.165 HD
ATOM     31  H17 4NJ d   1      16.162   2.571  26.744  0.00  0.00     0.112 H 
ATOM     32  C57 4NJ d   1      16.950  -0.480  31.396  0.00  0.00     0.036 A 
ATOM     33  H19 4NJ d   1      15.381   0.939  31.401  0.00  0.00     0.089 H 
ATOM     34  C58 4NJ d   1      18.020  -1.064  30.733  0.00  0.00    -0.061 A 
ATOM     35 CL3  4NJ d   1      16.516  -0.904  33.094  0.00  0.00    -0.084 Cl
ATOM     36  H20 4NJ d   1      18.610  -1.826  31.230  0.00  0.00     0.086 H 
ATOM     37  H21 4NJ d   1      19.144  -1.159  28.888  0.00  0.00     0.085 H 
ENDBRANCH   2  23
BRANCH   5  38
ATOM     38  C19 4NJ d   1      20.842  -0.822  24.087  0.00  0.00    -0.013 C 
ATOM     39  H7  4NJ d   1      21.439  -0.238  23.372  0.00  0.00     0.056 H 
ATOM     40  H8  4NJ d   1      20.195  -1.522  23.538  0.00  0.00     0.056 H 
ATOM     41  H9  4NJ d   1      21.514  -1.386  24.751  0.00  0.00     0.056 H 
ENDBRANCH   5  38
BRANCH   3  42
ATOM     42  C28 4NJ d   1      18.780   3.521  26.100  0.00  0.00    -0.011 C 
ATOM     43  H11 4NJ d   1      19.713   4.090  25.974  0.00  0.00     0.047 H 
ATOM     44  H12 4NJ d   1      18.397   3.667  27.121  0.00  0.00     0.047 H 
BRANCH  42  45
ATOM     45  C37 4NJ d   1      17.766   4.007  25.115  0.00  0.00    -0.054 A 
ATOM     46  C38 4NJ d   1      17.137   5.171  25.426  0.00  0.00    -0.075 A 
ATOM     47  C39 4NJ d   1      16.243   5.771  24.583  0.00  0.00    -0.061 A 
ATOM     48  H13 4NJ d   1      17.352   5.642  26.378  0.00  0.00     0.084 H 
ATOM     49  C40 4NJ d   1      15.900   5.169  23.450  0.00  0.00     0.034 A 
ATOM     50  H14 4NJ d   1      15.816   6.734  24.838  0.00  0.00     0.086 H 
ATOM     51  C41 4NJ d   1      16.468   3.953  23.134  0.00  0.00    -0.061 A 
ATOM     52 CL2  4NJ d   1      14.654   5.993  22.440  0.00  0.00    -0.084 Cl
ATOM     53  C42 4NJ d   1      17.402   3.386  23.943  0.00  0.00    -0.075 A 
ATOM     54  H15 4NJ d   1      16.165   3.442  22.227  0.00  0.00     0.086 H 
ATOM     55  H16 4NJ d   1      17.860   2.444  23.664  0.00  0.00     0.084 H 
ENDBRANCH  42  45
ENDBRANCH   3  42
TORSDOF 7
