REMARK  5 active torsions:
REMARK  status: ('A' for Active; 'I' for Inactive)
REMARK    1  A    between atoms: C1_14  and  C24_1 
REMARK    2  A    between atoms: C16_6  and  C17_7 
REMARK    3  A    between atoms: N_29  and  C16_6 
REMARK    4  A    between atoms: C6_20  and  C4_17 
REMARK    5  A    between atoms: C8_23  and  C7_22 
ROOT
ATOM      1  C23 4NY d   1      64.404  20.059  25.722  0.00  0.00     0.100 C 
ATOM      2  C6  4NY d   1      64.182  21.287  25.575  0.00  0.00     0.055 C 
ATOM      3  N1  4NY d   1      64.662  18.935  25.839  0.00  0.00    -0.191 NA
ATOM      4  C7  4NY d   1      63.501  21.826  24.533  0.00  0.00    -0.050 C 
ATOM      5  H12 4NY d   1      63.276  22.890  24.578  0.00  0.00     0.087 H 
ENDROOT
BRANCH   2   6
ATOM      6  C4  4NY d   1      64.628  22.131  26.737  0.00  0.00    -0.015 A 
ATOM      7  C3  4NY d   1      64.501  21.505  27.990  0.00  0.00    -0.071 A 
ATOM      8  C2  4NY d   1      64.827  22.164  29.166  0.00  0.00    -0.066 A 
ATOM      9  H9  4NY d   1      64.140  20.484  28.038  0.00  0.00     0.084 H 
ATOM     10  C1  4NY d   1      65.284  23.473  29.097  0.00  0.00     0.040 A 
ATOM     11  H8  4NY d   1      64.727  21.665  30.123  0.00  0.00     0.085 H 
ATOM     12  C   4NY d   1      65.406  24.127  27.852  0.00  0.00    -0.066 A 
ATOM     13  C5  4NY d   1      65.065  23.460  26.664  0.00  0.00    -0.071 A 
ATOM     14  H11 4NY d   1      65.765  25.149  27.813  0.00  0.00     0.085 H 
ATOM     15  H10 4NY d   1      65.139  23.965  25.707  0.00  0.00     0.084 H 
BRANCH  10  16
ATOM     16  C24 4NY d   1      65.630  24.145  30.389  0.00  0.00     0.209 C 
ATOM     17  O   4NY d   1      65.988  25.310  30.395  0.00  0.00    -0.644 OA
ATOM     18  O1  4NY d   1      65.526  23.472  31.536  0.00  0.00    -0.644 OA
ENDBRANCH  10  16
ENDBRANCH   2   6
BRANCH   4  19
ATOM     19  C8  4NY d   1      63.032  21.070  23.319  0.00  0.00    -0.007 A 
ATOM     20  C15 4NY d   1      62.845  21.674  21.974  0.00  0.00     0.003 A 
ATOM     21  C14 4NY d   1      62.948  22.951  21.417  0.00  0.00    -0.068 A 
ATOM     22  C10 4NY d   1      62.454  20.506  21.157  0.00  0.00     0.047 A 
ATOM     23  C13 4NY d   1      62.696  23.104  20.049  0.00  0.00    -0.061 A 
ATOM     24  H2  4NY d   1      63.217  23.803  22.030  0.00  0.00     0.085 H 
ATOM     25  C12 4NY d   1      62.312  22.011  19.260  0.00  0.00     0.036 A 
ATOM     26  H13 4NY d   1      62.799  24.082  19.593  0.00  0.00     0.086 H 
ATOM     27 CL   4NY d   1      62.015  22.212  17.506  0.00  0.00    -0.084 Cl
ATOM     28  C11 4NY d   1      62.201  20.730  19.799  0.00  0.00    -0.035 A 
ATOM     29  H14 4NY d   1      61.916  19.901  19.161  0.00  0.00     0.089 H 
ATOM     30  N   4NY d   1      62.413  19.407  21.959  0.00  0.00    -0.351 N 
ATOM     31  C9  4NY d   1      62.743  19.703  23.252  0.00  0.00    -0.009 A 
ATOM     32  H15 4NY d   1      62.775  18.999  24.083  0.00  0.00     0.113 H 
BRANCH  30  33
ATOM     33  C16 4NY d   1      62.054  18.081  21.466  0.00  0.00     0.023 C 
ATOM     34  H3  4NY d   1      62.773  17.774  20.693  0.00  0.00     0.072 H 
ATOM     35  H4  4NY d   1      62.082  17.363  22.299  0.00  0.00     0.072 H 
BRANCH  33  36
ATOM     36  C17 4NY d   1      60.656  18.105  20.871  0.00  0.00    -0.040 A 
ATOM     37  C22 4NY d   1      60.424  17.452  19.661  0.00  0.00    -0.072 A 
ATOM     38  C21 4NY d   1      59.154  17.436  19.089  0.00  0.00    -0.045 A 
ATOM     39  H1  4NY d   1      61.243  16.950  19.159  0.00  0.00     0.084 H 
ATOM     40  C20 4NY d   1      58.099  18.095  19.734  0.00  0.00     0.116 A 
ATOM     41  H7  4NY d   1      58.983  16.918  18.152  0.00  0.00     0.088 H 
ATOM     42  C19 4NY d   1      58.331  18.751  20.946  0.00  0.00    -0.045 A 
ATOM     43  F   4NY d   1      56.867  18.086  19.190  0.00  0.00    -0.206 F 
ATOM     44  C18 4NY d   1      59.600  18.754  21.514  0.00  0.00    -0.072 A 
ATOM     45  H6  4NY d   1      57.516  19.261  21.447  0.00  0.00     0.088 H 
ATOM     46  H5  4NY d   1      59.770  19.261  22.457  0.00  0.00     0.084 H 
ENDBRANCH  33  36
ENDBRANCH  30  33
ENDBRANCH   4  19
TORSDOF 5
