REMARK  6 active torsions:
REMARK  status: ('A' for Active; 'I' for Inactive)
REMARK    1  A    between atoms: N_30  and  C1_1 
REMARK    2  A    between atoms: C1_1  and  C_31 
REMARK       I    between atoms: C_31  and  N1_5 
REMARK    3  A    between atoms: S_28  and  C8_9 
REMARK    4  A    between atoms: C9_10  and  C10_11 
REMARK    5  A    between atoms: C11_14  and  S_28 
REMARK    6  A    between atoms: C15_18  and  C17_20 
ROOT
ATOM      1  C2  4O0 d   1      -7.885   2.896 -38.782  0.00  0.00     0.087 A 
ATOM      2  C3  4O0 d   1      -6.640   2.845 -38.017  0.00  0.00     0.165 A 
ATOM      3  C4  4O0 d   1      -6.140   1.496 -37.713  0.00  0.00     0.074 A 
ATOM      4  C5  4O0 d   1      -6.820   0.341 -38.103  0.00  0.00    -0.058 A 
ATOM      5  C6  4O0 d   1      -8.010   0.397 -38.798  0.00  0.00    -0.068 A 
ATOM      6  C7  4O0 d   1      -8.519   1.632 -39.164  0.00  0.00     0.013 A 
ATOM      7  C8  4O0 d   1      -9.691   2.127 -39.873  0.00  0.00     0.040 A 
ATOM      8  C9  4O0 d   1      -9.691   3.591 -39.900  0.00  0.00     0.026 A 
ATOM      9  F1  4O0 d   1      -5.973   3.939 -37.615  0.00  0.00    -0.202 F 
ATOM     10 CL   4O0 d   1      -4.671   1.383 -36.766  0.00  0.00    -0.081 Cl
ATOM     11  N   4O0 d   1      -8.588   3.976 -39.213  0.00  0.00    -0.337 N 
ATOM     12  H3  4O0 d   1      -6.401  -0.627 -37.853  0.00  0.00     0.086 H 
ATOM     13  H4  4O0 d   1      -8.540  -0.513 -39.054  0.00  0.00     0.085 H 
ENDROOT
BRANCH  11  14
ATOM     14  C1  4O0 d   1      -8.212   5.336 -38.930  0.00  0.00     0.074 C 
ATOM     15  H1  4O0 d   1      -7.716   5.360 -37.949  0.00  0.00     0.079 H 
ATOM     16  H2  4O0 d   1      -9.126   5.947 -38.894  0.00  0.00     0.079 H 
BRANCH  14  17
ATOM     17  C   4O0 d   1      -7.288   5.934 -39.937  0.00  0.00     0.242 C 
ATOM     18  N1  4O0 d   1      -6.817   7.139 -39.604  0.00  0.00    -0.315 N 
ATOM     19  C18 4O0 d   1      -7.101   7.879 -38.371  0.00  0.00     0.014 A 
ATOM     20  C21 4O0 d   1      -5.969   7.876 -40.476  0.00  0.00     0.044 A 
ATOM     21  C19 4O0 d   1      -6.247   9.149 -38.499  0.00  0.00     0.006 A 
ATOM     22  H11 4O0 d   1      -6.805   7.295 -37.487  0.00  0.00     0.066 H 
ATOM     23  H12 4O0 d   1      -8.170   8.131 -38.303  0.00  0.00     0.066 H 
ATOM     24  C20 4O0 d   1      -5.634   9.149 -39.857  0.00  0.00    -0.021 A 
ATOM     25  C27 4O0 d   1      -5.552   9.766 -37.301  0.00  0.00    -0.051 A 
ATOM     26  C26 4O0 d   1      -6.791  10.455 -37.913  0.00  0.00    -0.051 A 
ATOM     27  C25 4O0 d   1      -4.838  10.084 -40.500  0.00  0.00    -0.074 A 
ATOM     28  C24 4O0 d   1      -4.383   9.785 -41.794  0.00  0.00    -0.082 A 
ATOM     29  H16 4O0 d   1      -4.575  11.018 -40.018  0.00  0.00     0.084 H 
ATOM     30  C23 4O0 d   1      -4.713   8.581 -42.417  0.00  0.00    -0.081 A 
ATOM     31  H15 4O0 d   1      -3.764  10.503 -42.319  0.00  0.00     0.083 H 
ATOM     32  C22 4O0 d   1      -5.521   7.615 -41.770  0.00  0.00    -0.056 A 
ATOM     33  H14 4O0 d   1      -4.343   8.381 -43.416  0.00  0.00     0.083 H 
ATOM     34  H13 4O0 d   1      -5.786   6.691 -42.271  0.00  0.00     0.086 H 
ATOM     35  H17 4O0 d   1      -4.557  10.220 -37.416  0.00  0.00     0.034 H 
ATOM     36  H18 4O0 d   1      -5.622   9.283 -36.315  0.00  0.00     0.034 H 
ATOM     37  H19 4O0 d   1      -7.746  10.460 -37.367  0.00  0.00     0.034 H 
ATOM     38  H20 4O0 d   1      -6.681  11.398 -38.468  0.00  0.00     0.034 H 
ATOM     39  O   4O0 d   1      -7.038   5.375 -40.965  0.00  0.00    -0.271 OA
ENDBRANCH  14  17
ENDBRANCH  11  14
BRANCH   8  40
ATOM     40  C10 4O0 d   1     -10.738   4.470 -40.551  0.00  0.00    -0.036 C 
ATOM     41  H5  4O0 d   1     -11.502   3.838 -41.027  0.00  0.00     0.035 H 
ATOM     42  H6  4O0 d   1     -10.261   5.106 -41.312  0.00  0.00     0.035 H 
ATOM     43  H7  4O0 d   1     -11.211   5.104 -39.787  0.00  0.00     0.035 H 
ENDBRANCH   8  40
BRANCH   7  44
ATOM     44  S   4O0 d   1     -10.889   1.105 -40.591  0.00  0.00    -0.085 SA
BRANCH  44  45
ATOM     45  C11 4O0 d   1     -10.315   0.815 -42.162  0.00  0.00     0.045 A 
ATOM     46  C12 4O0 d   1      -9.123   1.298 -42.660  0.00  0.00    -0.063 A 
ATOM     47  C13 4O0 d   1      -8.734   1.013 -43.970  0.00  0.00    -0.081 A 
ATOM     48  H8  4O0 d   1      -8.483   1.904 -42.029  0.00  0.00     0.085 H 
ATOM     49  C14 4O0 d   1      -9.534   0.251 -44.828  0.00  0.00    -0.063 A 
ATOM     50  H9  4O0 d   1      -7.786   1.393 -44.333  0.00  0.00     0.083 H 
ATOM     51  C15 4O0 d   1     -10.735  -0.276 -44.385  0.00  0.00     0.080 A 
ATOM     52  H10 4O0 d   1      -9.211   0.072 -45.847  0.00  0.00     0.085 H 
ATOM     53  C16 4O0 d   1     -11.175   0.005 -43.024  0.00  0.00     0.150 A 
ATOM     54  F   4O0 d   1     -12.307  -0.468 -42.514  0.00  0.00    -0.203 F 
BRANCH  51  55
ATOM     55  C17 4O0 d   1     -11.580  -1.072 -45.298  0.00  0.00     0.212 C 
ATOM     56  O1  4O0 d   1     -12.822  -1.357 -44.940  0.00  0.00    -0.644 OA
ATOM     57  O2  4O0 d   1     -11.152  -1.420 -46.384  0.00  0.00    -0.644 OA
ENDBRANCH  51  55
ENDBRANCH  44  45
ENDBRANCH   7  44
TORSDOF 6
