REMARK  5 active torsions:
REMARK  status: ('A' for Active; 'I' for Inactive)
REMARK    1  A    between atoms: C1_1  and  C2_2 
REMARK    2  A    between atoms: N_29  and  C1_1 
REMARK    3  A    between atoms: C2_2  and  C3_3 
REMARK    4  A    between atoms: C16_20  and  C17_13 
REMARK    5  A    between atoms: C16_20  and  N2_21 
ROOT
ATOM      1  C4  4O2 d   1      34.479  58.179 -10.149  0.00  0.00     0.251 A 
ATOM      2  C5  4O2 d   1      34.613  56.855 -10.734  0.00  0.00     0.098 A 
ATOM      3  C6  4O2 d   1      33.907  55.831  -9.844  0.00  0.00    -0.011 C 
ATOM      4  C7  4O2 d   1      36.723  55.589 -11.011  0.00  0.00     0.039 C 
ATOM      5  C8  4O2 d   1      35.945  54.361 -10.600  0.00  0.00     0.037 A 
ATOM      6  C10 4O2 d   1      34.163  53.174  -9.775  0.00  0.00    -0.001 A 
ATOM      7  C11 4O2 d   1      33.001  52.676  -9.253  0.00  0.00    -0.070 A 
ATOM      8  C13 4O2 d   1      33.894  50.441  -9.485  0.00  0.00    -0.081 A 
ATOM      9  C14 4O2 d   1      35.087  50.928 -10.006  0.00  0.00    -0.056 A 
ATOM     10  N2  4O2 d   1      36.276  53.033 -10.673  0.00  0.00    -0.343 N 
ATOM     11  N1  4O2 d   1      36.058  56.809 -10.568  0.00  0.00    -0.314 N 
ATOM     12  C   4O2 d   1      36.554  57.962 -10.068  0.00  0.00     0.328 A 
ATOM     13  O   4O2 d   1      37.804  58.182  -9.872  0.00  0.00    -0.247 OA
ATOM     14  C15 4O2 d   1      35.274  52.293 -10.181  0.00  0.00     0.045 A 
ATOM     15  C12 4O2 d   1      32.876  51.301  -9.111  0.00  0.00    -0.082 A 
ATOM     16  C9  4O2 d   1      34.598  54.527 -10.039  0.00  0.00    -0.019 A 
ATOM     17  O3  4O2 d   1      33.310  58.723 -10.072  0.00  0.00    -0.271 OA
ATOM     18  N   4O2 d   1      35.581  58.882  -9.786  0.00  0.00    -0.268 N 
ATOM     19  H5  4O2 d   1      34.276  56.776 -11.778  0.00  0.00     0.088 H 
ATOM     20  H6  4O2 d   1      32.850  55.744 -10.135  0.00  0.00     0.044 H 
ATOM     21  H7  4O2 d   1      33.973  56.139  -8.790  0.00  0.00     0.044 H 
ATOM     22  H8  4O2 d   1      36.812  55.607 -12.107  0.00  0.00     0.074 H 
ATOM     23  H9  4O2 d   1      37.726  55.544 -10.562  0.00  0.00     0.074 H 
ATOM     24  H10 4O2 d   1      32.197  53.340  -8.957  0.00  0.00     0.084 H 
ATOM     25  H11 4O2 d   1      33.759  49.372  -9.370  0.00  0.00     0.083 H 
ATOM     26  H12 4O2 d   1      35.877  50.237 -10.278  0.00  0.00     0.087 H 
ATOM     27  H19 4O2 d   1      31.961  50.892  -8.698  0.00  0.00     0.083 H 
ENDROOT
BRANCH  10  28
ATOM     28  C16 4O2 d   1      37.549  52.463 -11.103  0.00  0.00     0.024 C 
ATOM     29  H17 4O2 d   1      38.336  53.205 -10.902  0.00  0.00     0.072 H 
ATOM     30  H18 4O2 d   1      37.734  51.560 -10.503  0.00  0.00     0.072 H 
BRANCH  28  31
ATOM     31  C17 4O2 d   1      37.637  52.080 -12.548  0.00  0.00    -0.040 A 
ATOM     32  C18 4O2 d   1      38.278  52.907 -13.457  0.00  0.00    -0.072 A 
ATOM     33  C19 4O2 d   1      38.349  52.542 -14.795  0.00  0.00    -0.045 A 
ATOM     34  H15 4O2 d   1      38.723  53.837 -13.124  0.00  0.00     0.084 H 
ATOM     35  C20 4O2 d   1      37.792  51.339 -15.208  0.00  0.00     0.116 A 
ATOM     36  H13 4O2 d   1      38.836  53.192 -15.513  0.00  0.00     0.088 H 
ATOM     37  C21 4O2 d   1      37.180  50.499 -14.289  0.00  0.00    -0.045 A 
ATOM     38  F   4O2 d   1      37.866  50.946 -16.498  0.00  0.00    -0.206 F 
ATOM     39  C22 4O2 d   1      37.116  50.865 -12.964  0.00  0.00    -0.072 A 
ATOM     40  H14 4O2 d   1      36.753  49.557 -14.614  0.00  0.00     0.088 H 
ATOM     41  H16 4O2 d   1      36.656  50.200 -12.242  0.00  0.00     0.084 H 
ENDBRANCH  28  31
ENDBRANCH  10  28
BRANCH  18  42
ATOM     42  C1  4O2 d   1      35.707  60.241  -9.249  0.00  0.00     0.016 C 
ATOM     43  H1  4O2 d   1      35.282  60.267  -8.235  0.00  0.00     0.066 H 
ATOM     44  H2  4O2 d   1      36.772  60.514  -9.208  0.00  0.00     0.066 H 
BRANCH  42  45
ATOM     45  C2  4O2 d   1      34.966  61.250 -10.127  0.00  0.00     0.031 C 
ATOM     46  H3  4O2 d   1      34.557  62.042  -9.483  0.00  0.00     0.051 H 
ATOM     47  H4  4O2 d   1      34.142  60.732 -10.639  0.00  0.00     0.051 H 
BRANCH  45  48
ATOM     48  C3  4O2 d   1      35.855  61.886 -11.168  0.00  0.00     0.174 C 
ATOM     49  O2  4O2 d   1      37.057  61.725 -11.103  0.00  0.00    -0.648 OA
ATOM     50  O1  4O2 d   1      35.373  62.642 -12.163  0.00  0.00    -0.648 OA
ENDBRANCH  45  48
ENDBRANCH  42  45
ENDBRANCH  18  42
TORSDOF 5
