REMARK  2 active torsions:
REMARK  status: ('A' for Active; 'I' for Inactive)
REMARK    1  A    between atoms: N_18  and  C6_19 
REMARK    2  A    between atoms: C6_19  and  C5_20 
ROOT
ATOM      1  C15 4O3 d   1       6.028  65.584  24.212  0.00  0.00     0.039 C 
ATOM      2  C17 4O3 d   1       6.586  67.985  26.733  0.00  0.00     0.249 A 
ATOM      3  O1  4O3 d   1       7.722  67.939  23.616  0.00  0.00    -0.247 OA
ATOM      4  C16 4O3 d   1       7.189  67.757  24.758  0.00  0.00     0.326 A 
ATOM      5  N2  4O3 d   1       7.333  68.600  25.809  0.00  0.00    -0.277 N 
ATOM      6  O   4O3 d   1       6.424  68.491  27.898  0.00  0.00    -0.271 OA
ATOM      7  C18 4O3 d   1       5.859  66.762  26.403  0.00  0.00     0.098 A 
ATOM      8  C19 4O3 d   1       6.099  65.628  27.372  0.00  0.00    -0.011 C 
ATOM      9  C13 4O3 d   1       6.083  64.391  26.552  0.00  0.00    -0.019 A 
ATOM     10  C8  4O3 d   1       6.105  63.010  27.018  0.00  0.00    -0.001 A 
ATOM     11  C9  4O3 d   1       6.126  62.439  28.284  0.00  0.00    -0.070 A 
ATOM     12  C10 4O3 d   1       6.121  61.053  28.374  0.00  0.00    -0.082 A 
ATOM     13  C11 4O3 d   1       6.123  60.249  27.232  0.00  0.00    -0.081 A 
ATOM     14  C12 4O3 d   1       6.114  60.805  25.952  0.00  0.00    -0.056 A 
ATOM     15  C7  4O3 d   1       6.097  62.202  25.792  0.00  0.00     0.045 A 
ATOM     16  N1  4O3 d   1       6.429  66.711  25.030  0.00  0.00    -0.314 N 
ATOM     17  C14 4O3 d   1       6.067  64.345  25.096  0.00  0.00     0.037 A 
ATOM     18  N   4O3 d   1       6.065  63.048  24.731  0.00  0.00    -0.343 N 
ATOM     19  H1  4O3 d   1       6.723  65.466  23.368  0.00  0.00     0.074 H 
ATOM     20  H2  4O3 d   1       5.009  65.741  23.829  0.00  0.00     0.074 H 
ATOM     21  H3  4O3 d   1       7.855  69.450  25.876  0.00  0.00     0.173 HD
ATOM     22  H4  4O3 d   1       4.771  66.923  26.366  0.00  0.00     0.088 H 
ATOM     23  H5  4O3 d   1       5.303  65.596  28.130  0.00  0.00     0.044 H 
ATOM     24  H6  4O3 d   1       7.074  65.747  27.868  0.00  0.00     0.044 H 
ATOM     25  H7  4O3 d   1       6.146  63.056  29.175  0.00  0.00     0.084 H 
ATOM     26  H8  4O3 d   1       6.115  60.585  29.352  0.00  0.00     0.083 H 
ATOM     27  H9  4O3 d   1       6.132  59.171  27.342  0.00  0.00     0.083 H 
ATOM     28  H10 4O3 d   1       6.120  60.160  25.081  0.00  0.00     0.087 H 
ENDROOT
BRANCH  18  29
ATOM     29  C6  4O3 d   1       6.087  62.580  23.341  0.00  0.00     0.024 C 
ATOM     30  H11 4O3 d   1       6.623  61.620  23.303  0.00  0.00     0.072 H 
ATOM     31  H12 4O3 d   1       6.621  63.323  22.730  0.00  0.00     0.072 H 
BRANCH  29  32
ATOM     32  C5  4O3 d   1       4.734  62.386  22.771  0.00  0.00    -0.040 A 
ATOM     33  C2  4O3 d   1       4.076  61.177  22.970  0.00  0.00    -0.072 A 
ATOM     34  C1  4O3 d   1       2.817  60.994  22.427  0.00  0.00    -0.045 A 
ATOM     35  H13 4O3 d   1       4.545  60.386  23.545  0.00  0.00     0.084 H 
ATOM     36  C   4O3 d   1       2.234  62.026  21.700  0.00  0.00     0.116 A 
ATOM     37  H14 4O3 d   1       2.291  60.057  22.567  0.00  0.00     0.088 H 
ATOM     38  C3  4O3 d   1       2.896  63.222  21.507  0.00  0.00    -0.045 A 
ATOM     39  F   4O3 d   1       1.017  61.851  21.165  0.00  0.00    -0.206 F 
ATOM     40  C4  4O3 d   1       4.155  63.415  22.047  0.00  0.00    -0.072 A 
ATOM     41  H16 4O3 d   1       2.428  64.012  20.931  0.00  0.00     0.088 H 
ATOM     42  H15 4O3 d   1       4.678  64.354  21.906  0.00  0.00     0.084 H 
ENDBRANCH  29  32
ENDBRANCH  18  29
TORSDOF 2
