REMARK  5 active torsions:
REMARK  status: ('A' for Active; 'I' for Inactive)
REMARK    1  A    between atoms: CAT_2  and  CAS_5 
REMARK    2  A    between atoms: CAR_10  and  CAP_11 
REMARK    3  A    between atoms: CAP_11  and  NAN_12 
REMARK    4  A    between atoms: NAN_12  and  OAA_13 
REMARK    5  A    between atoms: NAO_14  and  CAQ_15 
ROOT
ATOM      1  CAP 4OB d   1      33.901 100.907   6.892  0.00  0.00     0.165 C 
ATOM      2  NAO 4OB d   1      34.468 100.483   5.764  0.00  0.00    -0.339 N 
ATOM      3  H6  4OB d   1      34.865 101.198   5.138  0.00  0.00     0.167 HD
ENDROOT
BRANCH   1   4
ATOM      4  CAR 4OB d   1      33.273 100.090   7.822  0.00  0.00     0.013 A 
ATOM      5  CAM 4OB d   1      32.112  99.372   7.555  0.00  0.00    -0.055 A 
ATOM      6  CAS 4OB d   1      31.544  98.601   8.566  0.00  0.00     0.048 A 
ATOM      7  H1  4OB d   1      31.655  99.412   6.573  0.00  0.00     0.086 H 
ATOM      8  CAL 4OB d   1      32.113  98.560   9.818  0.00  0.00    -0.068 A 
ATOM      9  CAH 4OB d   1      33.254  99.288  10.089  0.00  0.00    -0.081 A 
ATOM     10  H2  4OB d   1      31.663  97.953  10.595  0.00  0.00     0.084 H 
ATOM     11  CAK 4OB d   1      33.823 100.056   9.091  0.00  0.00    -0.069 A 
ATOM     12  H3  4OB d   1      33.700  99.257  11.076  0.00  0.00     0.083 H 
ATOM     13  H4  4OB d   1      34.711 100.639   9.305  0.00  0.00     0.085 H 
BRANCH   6  14
ATOM     14  CAT 4OB d   1      30.417  97.844   8.405  0.00  0.00     0.417 C 
ATOM     15  FAB 4OB d   1      30.710  96.597   8.660  0.00  0.00    -0.166 F 
ATOM     16  FAC 4OB d   1      29.895  97.943   7.208  0.00  0.00    -0.166 F 
ATOM     17  FAD 4OB d   1      29.528  98.218   9.280  0.00  0.00    -0.166 F 
ENDBRANCH   6  14
ENDBRANCH   1   4
BRANCH   1  18
ATOM     18  NAN 4OB d   1      34.010 102.185   7.195  0.00  0.00    -0.117 NA
BRANCH  18  19
ATOM     19  OAA 4OB d   1      35.343 102.738   6.910  0.00  0.00    -0.264 OA
ATOM     20  H5  4OB d   1      35.532 102.646   5.983  0.00  0.00     0.247 HD
ENDBRANCH  18  19
ENDBRANCH   1  18
BRANCH   2  21
ATOM     21  CAQ 4OB d   1      34.564  99.232   5.383  0.00  0.00     0.033 A 
ATOM     22  CAI 4OB d   1      33.871  98.841   4.257  0.00  0.00    -0.057 A 
ATOM     23  CAF 4OB d   1      33.988  97.552   3.783  0.00  0.00    -0.081 A 
ATOM     24  H7  4OB d   1      33.232  99.550   3.743  0.00  0.00     0.086 H 
ATOM     25  CAE 4OB d   1      34.822  96.664   4.430  0.00  0.00    -0.083 A 
ATOM     26  H8  4OB d   1      33.429  97.239   2.909  0.00  0.00     0.083 H 
ATOM     27  CAG 4OB d   1      35.535  97.064   5.542  0.00  0.00    -0.081 A 
ATOM     28  H9  4OB d   1      34.918  95.648   4.064  0.00  0.00     0.083 H 
ATOM     29  CAJ 4OB d   1      35.419  98.357   6.016  0.00  0.00    -0.057 A 
ATOM     30  H10 4OB d   1      36.189  96.361   6.046  0.00  0.00     0.083 H 
ATOM     31  H11 4OB d   1      35.995  98.679   6.876  0.00  0.00     0.086 H 
ENDBRANCH   2  21
TORSDOF 5
