REMARK  5 active torsions:
REMARK  status: ('A' for Active; 'I' for Inactive)
REMARK    1  A    between atoms: CAV_2  and  CAU_5 
REMARK    2  A    between atoms: CAT_11  and  CAP_12 
REMARK    3  A    between atoms: CAP_12  and  NAO_13 
REMARK    4  A    between atoms: NAO_13  and  OAA_14 
REMARK    5  A    between atoms: NAN_15  and  CAS_16 
ROOT
ATOM      1  CAP 4OD d   1      35.134 100.552   7.612  0.00  0.00     0.165 C 
ATOM      2  NAN 4OD d   1      35.596 100.297   6.398  0.00  0.00    -0.339 N 
ATOM      3  H5  4OD d   1      36.001 101.091   5.881  0.00  0.00     0.167 HD
ENDROOT
BRANCH   1   4
ATOM      4  CAT 4OD d   1      34.534  99.640   8.458  0.00  0.00     0.013 A 
ATOM      5  CAM 4OD d   1      33.490  98.808   8.092  0.00  0.00    -0.052 A 
ATOM      6  CAU 4OD d   1      32.932  97.951   9.034  0.00  0.00     0.087 A 
ATOM      7  H1  4OD d   1      33.110  98.825   7.077  0.00  0.00     0.086 H 
ATOM      8  CAR 4OD d   1      33.435  97.946  10.319  0.00  0.00     0.131 A 
ATOM      9  FAB 4OD d   1      32.974  97.227  11.128  0.00  0.00    -0.205 F 
ATOM     10  CAJ 4OD d   1      34.452  98.787  10.692  0.00  0.00    -0.044 A 
ATOM     11  CAK 4OD d   1      34.994  99.636   9.756  0.00  0.00    -0.066 A 
ATOM     12  H2  4OD d   1      34.823  98.782  11.710  0.00  0.00     0.088 H 
ATOM     13  H3  4OD d   1      35.793 100.310  10.043  0.00  0.00     0.085 H 
BRANCH   6  14
ATOM     14  CAV 4OD d   1      31.897  97.086   8.707  0.00  0.00     0.420 C 
ATOM     15  FAC 4OD d   1      32.414  95.906   8.519  0.00  0.00    -0.166 F 
ATOM     16  FAD 4OD d   1      31.249  97.453   7.629  0.00  0.00    -0.166 F 
ATOM     17  FAE 4OD d   1      31.038  96.989   9.700  0.00  0.00    -0.166 F 
ENDBRANCH   6  14
ENDBRANCH   1   4
BRANCH   1  18
ATOM     18  NAO 4OD d   1      35.316 101.765   8.080  0.00  0.00    -0.117 NA
BRANCH  18  19
ATOM     19  OAA 4OD d   1      36.559 102.355   7.663  0.00  0.00    -0.264 OA
ATOM     20  H4  4OD d   1      36.581 102.407   6.715  0.00  0.00     0.247 HD
ENDBRANCH  18  19
ENDBRANCH   1  18
BRANCH   2  21
ATOM     21  CAS 4OD d   1      35.591  99.138   5.787  0.00  0.00     0.035 A 
ATOM     22  CAL 4OD d   1      36.470  98.176   6.220  0.00  0.00    -0.040 A 
ATOM     23  CAQ 4OD d   1      36.523  96.978   5.555  0.00  0.00     0.013 A 
ATOM     24  H6  4OD d   1      37.112  98.361   7.074  0.00  0.00     0.089 H 
ATOM     25 BRF  4OD d   1      37.636  95.757   6.173  0.00  0.00    -0.051 Br
ATOM     26  CAH 4OD d   1      35.739  96.734   4.448  0.00  0.00    -0.066 A 
ATOM     27  CAG 4OD d   1      34.879  97.716   3.993  0.00  0.00    -0.080 A 
ATOM     28  H7  4OD d   1      35.796  95.779   3.938  0.00  0.00     0.085 H 
ATOM     29  CAI 4OD d   1      34.816  98.926   4.658  0.00  0.00    -0.057 A 
ATOM     30  H8  4OD d   1      34.259  97.538   3.122  0.00  0.00     0.083 H 
ATOM     31  H9  4OD d   1      34.160  99.710   4.296  0.00  0.00     0.086 H 
ENDBRANCH   2  21
TORSDOF 5
