REMARK  3 active torsions:
REMARK  status: ('A' for Active; 'I' for Inactive)
REMARK    1  A    between atoms: CAW_2  and  CAU_5 
REMARK    2  A    between atoms: CAS_11  and  CAT_12 
REMARK    3  A    between atoms: CAV_16  and  CAR_17 
ROOT
ATOM      1  CAT 4OE d   1      34.876 100.060   7.880  0.00  0.00     0.022 A 
ATOM      2  CAL 4OE d   1      34.893 101.363   8.108  0.00  0.00     0.035 A 
ATOM      3  NAN 4OE d   1      35.441 101.928   7.029  0.00  0.00    -0.186 NA
ATOM      4  NAO 4OE d   1      35.745 101.071   6.205  0.00  0.00    -0.277 N 
ATOM      5  CAV 4OE d   1      35.412  99.880   6.689  0.00  0.00     0.072 A 
ATOM      6  H4  4OE d   1      34.532 101.874   8.999  0.00  0.00     0.118 H 
ATOM      7  H5  4OE d   1      36.185 101.246   5.290  0.00  0.00     0.189 HD
ENDROOT
BRANCH   1   8
ATOM      8  CAS 4OE d   1      34.414  99.143   8.726  0.00  0.00    -0.021 A 
ATOM      9  CAM 4OE d   1      33.378  98.281   8.379  0.00  0.00    -0.054 A 
ATOM     10  CAU 4OE d   1      32.916  97.340   9.300  0.00  0.00     0.087 A 
ATOM     11  H1  4OE d   1      32.930  98.341   7.394  0.00  0.00     0.086 H 
ATOM     12  CAQ 4OE d   1      33.499  97.270  10.554  0.00  0.00     0.131 A 
ATOM     13  FAB 4OE d   1      33.061  96.384  11.409  0.00  0.00    -0.205 F 
ATOM     14  CAH 4OE d   1      34.528  98.129  10.906  0.00  0.00    -0.044 A 
ATOM     15  CAK 4OE d   1      34.982  99.065   9.990  0.00  0.00    -0.069 A 
ATOM     16  H2  4OE d   1      34.975  98.069  11.892  0.00  0.00     0.088 H 
ATOM     17  H3  4OE d   1      35.785  99.740  10.262  0.00  0.00     0.085 H 
BRANCH  10  18
ATOM     18  CAW 4OE d   1      31.885  96.440   9.022  0.00  0.00     0.420 C 
ATOM     19  FAC 4OE d   1      31.267  96.731   7.915  0.00  0.00    -0.166 F 
ATOM     20  FAD 4OE d   1      32.378  95.271   8.933  0.00  0.00    -0.166 F 
ATOM     21  FAE 4OE d   1      31.028  96.453   9.997  0.00  0.00    -0.166 F 
ENDBRANCH  10  18
ENDBRANCH   1   8
BRANCH   5  22
ATOM     22  CAR 4OE d   1      35.606  98.732   6.052  0.00  0.00    -0.007 A 
ATOM     23  CAI 4OE d   1      36.688  97.932   6.389  0.00  0.00    -0.068 A 
ATOM     24  CAF 4OE d   1      36.903  96.735   5.719  0.00  0.00    -0.045 A 
ATOM     25  H6  4OE d   1      37.366  98.242   7.176  0.00  0.00     0.085 H 
ATOM     26  CAP 4OE d   1      36.038  96.344   4.708  0.00  0.00     0.116 A 
ATOM     27  H7  4OE d   1      37.745  96.107   5.986  0.00  0.00     0.088 H 
ATOM     28  FAA 4OE d   1      36.246  95.213   4.078  0.00  0.00    -0.206 F 
ATOM     29  CAG 4OE d   1      34.958  97.146   4.365  0.00  0.00    -0.045 A 
ATOM     30  CAJ 4OE d   1      34.743  98.343   5.035  0.00  0.00    -0.068 A 
ATOM     31  H8  4OE d   1      34.283  96.838   3.575  0.00  0.00     0.088 H 
ATOM     32  H9  4OE d   1      33.903  98.973   4.765  0.00  0.00     0.085 H 
ENDBRANCH   5  22
TORSDOF 3
