REMARK  20 active torsions:
REMARK  status: ('A' for Active; 'I' for Inactive)
REMARK    1  A    between atoms: N_1  and  CA_2 
REMARK    2  A    between atoms: CA_15  and  CB_18 
REMARK    3  A    between atoms: CA_20  and  CB_23 
REMARK    4  A    between atoms: CB_23  and  CG_24 
REMARK    5  A    between atoms: CZ_29  and  OH_30 
REMARK    6  A    between atoms: CA_32  and  CB_35 
REMARK    7  A    between atoms: CB_35  and  OG_36 
REMARK    8  A    between atoms: CA_38  and  CB_41 
REMARK    9  A    between atoms: CB_41  and  CG_42 
REMARK   10  A    between atoms: CG_42  and  CD_43 
REMARK   11  A    between atoms: CD_43  and  NE_44 
REMARK       I    between atoms: NE_44  and  CZ_45 
REMARK       I    between atoms: CZ_45  and  NH1_46 
REMARK   12  A    between atoms: CZ_45  and  NH2_47 
REMARK   13  A    between atoms: CA_49  and  CB_52 
REMARK   14  A    between atoms: CB_52  and  CG_53 
REMARK   15  A    between atoms: CZ_58  and  OH_59 
REMARK   16  A    between atoms: CA_61  and  CB_64 
REMARK   17  A    between atoms: CB_64  and  CG1_65 
REMARK   18  A    between atoms: CB_64  and  CG2_66 
REMARK   19  A    between atoms: CG1_65  and  CD1_67 
REMARK   20  A    between atoms: CA_73  and  C_74 
ROOT
ATOM      1  CA  CYS d   1       8.757 -26.333 -27.107  0.00  0.00     0.184 C 
ATOM      2  C   CYS d   1       9.165 -27.548 -27.937  0.00  0.00     0.252 C 
ATOM      3  O   CYS d   1       9.308 -27.445 -29.164  0.00  0.00    -0.271 OA
ATOM      4  CB  CYS d   1       7.718 -25.518 -27.887  0.00  0.00     0.021 C 
ATOM      5  SG  CYS d   1       6.591 -24.549 -26.861  0.00  0.00    -0.095 SA
ATOM      6  N   CYS d   1       2.437 -24.565 -26.160  0.00  0.00    -0.344 N 
ATOM      7  CA  CYS d   1       3.038 -24.985 -27.428  0.00  0.00     0.105 C 
ATOM      8  CB  CYS d   1       4.008 -26.160 -27.221  0.00  0.00     0.015 C 
ATOM      9  SG  CYS d   1       5.315 -25.901 -25.989  0.00  0.00    -0.095 SA
ATOM     10  H4  CYS d   1       8.283 -26.696 -26.183  0.00  0.00     0.100 H 
ATOM     11  H5  CYS d   1       7.118 -26.216 -28.490  0.00  0.00     0.054 H 
ATOM     12  H6  CYS d   1       8.255 -24.826 -28.553  0.00  0.00     0.054 H 
ATOM     13  H69 CYS d   1       2.087 -25.265 -25.537  0.00  0.00     0.163 HD
ATOM     14  H70 CYS d   1       3.598 -24.136 -27.846  0.00  0.00     0.090 H 
ATOM     15  H71 CYS d   1       4.492 -26.372 -28.186  0.00  0.00     0.054 H 
ATOM     16  H72 CYS d   1       3.417 -27.033 -26.907  0.00  0.00     0.054 H 
ATOM     17  N   PRO d   1       9.343 -28.707 -27.271  0.00  0.00    -0.337 N 
ATOM     18  CA  PRO d   1       9.575 -29.985 -27.948  0.00  0.00     0.091 C 
ATOM     19  C   PRO d   1       8.482 -30.299 -28.942  0.00  0.00     0.241 C 
ATOM     20  O   PRO d   1       7.348 -29.842 -28.777  0.00  0.00    -0.271 OA
ATOM     21  CB  PRO d   1       9.556 -30.998 -26.801  0.00  0.00    -0.036 C 
ATOM     22  CG  PRO d   1       9.989 -30.222 -25.616  0.00  0.00    -0.048 C 
ATOM     23  CD  PRO d   1       9.423 -28.847 -25.805  0.00  0.00    -0.001 C 
ATOM     24  H7  PRO d   1      10.548 -29.985 -28.461  0.00  0.00     0.087 H 
ATOM     25  H8  PRO d   1      10.253 -31.825 -27.001  0.00  0.00     0.036 H 
ATOM     26  H9  PRO d   1       8.543 -31.400 -26.654  0.00  0.00     0.036 H 
ATOM     27  H10 PRO d   1      11.087 -30.181 -25.564  0.00  0.00     0.035 H 
ATOM     28  H11 PRO d   1       9.595 -30.676 -24.695  0.00  0.00     0.035 H 
ATOM     29  H12 PRO d   1       8.426 -28.766 -25.347  0.00  0.00     0.064 H 
ATOM     30  H13 PRO d   1      10.088 -28.085 -25.373  0.00  0.00     0.064 H 
ATOM     31  N   ALA d   1       8.811 -31.082 -29.963  0.00  0.00    -0.346 N 
ATOM     32  CA  ALA d   1       7.864 -31.357 -31.039  0.00  0.00     0.086 C 
ATOM     33  C   ALA d   1       6.631 -32.123 -30.551  0.00  0.00     0.240 C 
ATOM     34  O   ALA d   1       5.561 -32.012 -31.156  0.00  0.00    -0.271 OA
ATOM     35  H14 ALA d   1       9.723 -31.490 -29.995  0.00  0.00     0.163 HD
ATOM     36  H15 ALA d   1       7.521 -30.390 -31.436  0.00  0.00     0.086 H 
ATOM     37  N   TYR d   1       6.793 -32.899 -29.476  0.00  0.00    -0.346 N 
ATOM     38  CA  TYR d   1       5.711 -33.732 -28.926  0.00  0.00     0.093 C 
ATOM     39  C   TYR d   1       5.147 -33.219 -27.583  0.00  0.00     0.241 C 
ATOM     40  O   TYR d   1       4.501 -33.970 -26.851  0.00  0.00    -0.271 OA
ATOM     41  N   TYR d   1       1.559 -29.373 -24.043  0.00  0.00    -0.346 N 
ATOM     42  CA  TYR d   1       1.356 -28.150 -23.282  0.00  0.00     0.093 C 
ATOM     43  C   TYR d   1       0.548 -27.174 -24.105  0.00  0.00     0.241 C 
ATOM     44  O   TYR d   1       0.818 -26.984 -25.307  0.00  0.00    -0.271 OA
ATOM     45  H19 TYR d   1       7.686 -32.915 -29.026  0.00  0.00     0.163 HD
ATOM     46  H20 TYR d   1       4.889 -33.728 -29.657  0.00  0.00     0.088 H 
ATOM     47  H46 TYR d   1       2.364 -29.438 -24.633  0.00  0.00     0.163 HD
ATOM     48  H47 TYR d   1       0.813 -28.382 -22.354  0.00  0.00     0.088 H 
ATOM     49  N   SER d   1       5.378 -31.950 -27.262  0.00  0.00    -0.344 N 
ATOM     50  CA  SER d   1       4.739 -31.325 -26.099  0.00  0.00     0.109 C 
ATOM     51  C   SER d   1       3.224 -31.525 -26.132  0.00  0.00     0.243 C 
ATOM     52  O   SER d   1       2.621 -31.604 -27.206  0.00  0.00    -0.271 OA
ATOM     53  H28 SER d   1       6.002 -31.409 -27.826  0.00  0.00     0.163 HD
ATOM     54  H29 SER d   1       5.139 -31.793 -25.188  0.00  0.00     0.090 H 
ATOM     55  N   ARG d   1       2.614 -31.621 -24.952  0.00  0.00    -0.346 N 
ATOM     56  CA  ARG d   1       1.151 -31.611 -24.841  0.00  0.00     0.089 C 
ATOM     57  C   ARG d   1       0.726 -30.410 -23.993  0.00  0.00     0.241 C 
ATOM     58  O   ARG d   1      -0.314 -30.420 -23.330  0.00  0.00    -0.271 OA
ATOM     59  H33 ARG d   1       3.166 -31.702 -24.122  0.00  0.00     0.163 HD
ATOM     60  H34 ARG d   1       0.721 -31.490 -25.846  0.00  0.00     0.087 H 
ATOM     61  N   ILE d   1      -0.455 -26.572 -23.459  0.00  0.00    -0.346 N 
ATOM     62  CA  ILE d   1      -1.235 -25.479 -24.052  0.00  0.00     0.092 C 
ATOM     63  C   ILE d   1      -0.358 -24.407 -24.699  0.00  0.00     0.241 C 
ATOM     64  O   ILE d   1      -0.668 -23.921 -25.791  0.00  0.00    -0.271 OA
ATOM     65  H55 ILE d   1      -0.683 -26.878 -22.535  0.00  0.00     0.163 HD
ATOM     66  H56 ILE d   1      -1.882 -25.913 -24.829  0.00  0.00     0.088 H 
ATOM     67  N   GLY d   1       0.720 -24.029 -24.014  0.00  0.00    -0.351 N 
ATOM     68  CA  GLY d   1       1.612 -22.976 -24.504  0.00  0.00     0.069 C 
ATOM     69  C   GLY d   1       2.339 -23.284 -25.806  0.00  0.00     0.236 C 
ATOM     70  O   GLY d   1       2.823 -22.366 -26.468  0.00  0.00    -0.272 OA
ATOM     71  H66 GLY d   1       0.925 -24.476 -23.143  0.00  0.00     0.163 HD
ATOM     72  H67 GLY d   1       2.370 -22.787 -23.730  0.00  0.00     0.078 H 
ATOM     73  H68 GLY d   1       1.011 -22.068 -24.659  0.00  0.00     0.078 H 
ENDROOT
BRANCH  56  74
ATOM     74  CB  ARG d   1       0.657 -32.947 -24.274  0.00  0.00    -0.036 C 
ATOM     75  H35 ARG d   1      -0.390 -32.834 -23.956  0.00  0.00     0.036 H 
ATOM     76  H36 ARG d   1       1.277 -33.217 -23.406  0.00  0.00     0.036 H 
BRANCH  74  77
ATOM     77  CG  ARG d   1       0.742 -34.062 -25.308  0.00  0.00    -0.048 C 
ATOM     78  H37 ARG d   1       1.797 -34.193 -25.591  0.00  0.00     0.035 H 
ATOM     79  H38 ARG d   1       0.160 -33.761 -26.192  0.00  0.00     0.035 H 
BRANCH  77  80
ATOM     80  CD  ARG d   1       0.207 -35.400 -24.813  0.00  0.00     0.009 C 
ATOM     81  H39 ARG d   1      -0.821 -35.266 -24.444  0.00  0.00     0.064 H 
ATOM     82  H40 ARG d   1       0.845 -35.766 -23.995  0.00  0.00     0.064 H 
BRANCH  80  83
ATOM     83  NE  ARG d   1       0.206 -36.377 -25.899  0.00  0.00    -0.227 N 
ATOM     84  CZ  ARG d   1      -0.245 -37.622 -25.809  0.00  0.00     0.665 C 
ATOM     85  NH1 ARG d   1      -0.750 -38.091 -24.669  0.00  0.00    -0.235 N 
ATOM     86  H42 ARG d   1      -1.095 -39.060 -24.619  0.00  0.00     0.174 HD
ATOM     87  H43 ARG d   1      -0.795 -37.484 -23.838  0.00  0.00     0.174 HD
ATOM     88  H41 ARG d   1       0.586 -36.075 -26.808  0.00  0.00     0.177 HD
BRANCH  84  89
ATOM     89  NH2 ARG d   1      -0.203 -38.406 -26.879  0.00  0.00    -0.235 N 
ATOM     90  H44 ARG d   1       0.186 -38.050 -27.764  0.00  0.00     0.174 HD
ATOM     91  H45 ARG d   1      -0.560 -39.371 -26.825  0.00  0.00     0.174 HD
ENDBRANCH  84  89
ENDBRANCH  80  83
ENDBRANCH  77  80
ENDBRANCH  74  77
ENDBRANCH  56  74
BRANCH  50  92
ATOM     92  CB  SER d   1       5.039 -29.823 -26.059  0.00  0.00     0.044 C 
ATOM     93  H30 SER d   1       4.578 -29.343 -26.935  0.00  0.00     0.077 H 
ATOM     94  H31 SER d   1       6.129 -29.675 -26.091  0.00  0.00     0.077 H 
BRANCH  92  95
ATOM     95  OG  SER d   1       4.527 -29.220 -24.880  0.00  0.00    -0.398 OA
ATOM     96  H32 SER d   1       4.925 -29.627 -24.119  0.00  0.00     0.209 HD
ENDBRANCH  92  95
ENDBRANCH  50  92
BRANCH  42  97
ATOM     97  CB  TYR d   1       2.710 -27.538 -22.937  0.00  0.00    -0.014 C 
ATOM     98  H48 TYR d   1       3.257 -27.380 -23.878  0.00  0.00     0.043 H 
ATOM     99  H49 TYR d   1       3.256 -28.260 -22.312  0.00  0.00     0.043 H 
BRANCH  97 100
ATOM    100  CG  TYR d   1       2.675 -26.207 -22.189  0.00  0.00    -0.056 A 
ATOM    101  CD1 TYR d   1       1.857 -26.018 -21.078  0.00  0.00    -0.074 A 
ATOM    102  CE1 TYR d   1       1.843 -24.809 -20.402  0.00  0.00    -0.051 A 
ATOM    103  H50 TYR d   1       1.222 -26.828 -20.737  0.00  0.00     0.084 H 
ATOM    104  CZ  TYR d   1       2.666 -23.772 -20.824  0.00  0.00     0.065 A 
ATOM    105  H52 TYR d   1       1.192 -24.672 -19.546  0.00  0.00     0.087 H 
ATOM    106  CE2 TYR d   1       3.497 -23.944 -21.911  0.00  0.00    -0.051 A 
ATOM    107  CD2 TYR d   1       3.494 -25.149 -22.588  0.00  0.00    -0.074 A 
ATOM    108  H53 TYR d   1       4.148 -23.139 -22.232  0.00  0.00     0.087 H 
ATOM    109  H51 TYR d   1       4.142 -25.275 -23.448  0.00  0.00     0.084 H 
BRANCH 104 110
ATOM    110  OH  TYR d   1       2.673 -22.560 -20.175  0.00  0.00    -0.361 OA
ATOM    111  H54 TYR d   1       2.057 -22.585 -19.452  0.00  0.00     0.217 HD
ENDBRANCH 104 110
ENDBRANCH  97 100
ENDBRANCH  42  97
BRANCH  38 112
ATOM    112  CB  TYR d   1       6.188 -35.179 -28.742  0.00  0.00    -0.014 C 
ATOM    113  H21 TYR d   1       5.337 -35.764 -28.364  0.00  0.00     0.043 H 
ATOM    114  H22 TYR d   1       6.991 -35.172 -27.991  0.00  0.00     0.043 H 
BRANCH 112 115
ATOM    115  CG  TYR d   1       6.721 -35.888 -29.979  0.00  0.00    -0.056 A 
ATOM    116  CD1 TYR d   1       6.363 -35.487 -31.271  0.00  0.00    -0.074 A 
ATOM    117  CE1 TYR d   1       6.841 -36.154 -32.387  0.00  0.00    -0.051 A 
ATOM    118  H23 TYR d   1       5.700 -34.639 -31.401  0.00  0.00     0.084 H 
ATOM    119  CZ  TYR d   1       7.665 -37.256 -32.228  0.00  0.00     0.065 A 
ATOM    120  H25 TYR d   1       6.571 -35.815 -33.381  0.00  0.00     0.087 H 
ATOM    121  CE2 TYR d   1       8.018 -37.687 -30.959  0.00  0.00    -0.051 A 
ATOM    122  CD2 TYR d   1       7.539 -37.009 -29.846  0.00  0.00    -0.074 A 
ATOM    123  H26 TYR d   1       8.664 -38.548 -30.836  0.00  0.00     0.087 H 
ATOM    124  H24 TYR d   1       7.806 -37.358 -28.855  0.00  0.00     0.084 H 
BRANCH 119 125
ATOM    125  OH  TYR d   1       8.132 -37.931 -33.337  0.00  0.00    -0.361 OA
ATOM    126  H27 TYR d   1       7.802 -37.513 -34.123  0.00  0.00     0.217 HD
ENDBRANCH 119 125
ENDBRANCH 112 115
ENDBRANCH  38 112
BRANCH  62 127
ATOM    127  CB  ILE d   1      -2.126 -24.788 -22.994  0.00  0.00    -0.030 C 
ATOM    128  H57 ILE d   1      -1.579 -24.748 -22.041  0.00  0.00     0.043 H 
BRANCH 127 129
ATOM    129  CG1 ILE d   1      -3.401 -25.587 -22.810  0.00  0.00    -0.063 C 
ATOM    130  H58 ILE d   1      -3.128 -26.637 -22.629  0.00  0.00     0.033 H 
ATOM    131  H59 ILE d   1      -3.990 -25.516 -23.736  0.00  0.00     0.033 H 
BRANCH 129 132
ATOM    132  CD1 ILE d   1      -4.261 -25.116 -21.663  0.00  0.00    -0.076 C 
ATOM    133  H63 ILE d   1      -5.162 -25.744 -21.598  0.00  0.00     0.027 H 
ATOM    134  H64 ILE d   1      -4.556 -24.070 -21.831  0.00  0.00     0.027 H 
ATOM    135  H65 ILE d   1      -3.693 -25.191 -20.724  0.00  0.00     0.027 H 
ENDBRANCH 129 132
ENDBRANCH 127 129
BRANCH 127 136
ATOM    136  CG2 ILE d   1      -2.497 -23.365 -23.414  0.00  0.00    -0.071 C 
ATOM    137  H60 ILE d   1      -1.580 -22.773 -23.551  0.00  0.00     0.028 H 
ATOM    138  H61 ILE d   1      -3.119 -22.903 -22.633  0.00  0.00     0.028 H 
ATOM    139  H62 ILE d   1      -3.058 -23.396 -24.359  0.00  0.00     0.028 H 
ENDBRANCH 127 136
ENDBRANCH  62 127
BRANCH  32 140
ATOM    140  CB  ALA d   1       8.543 -32.118 -32.173  0.00  0.00    -0.049 C 
ATOM    141  H16 ALA d   1       7.813 -32.314 -32.972  0.00  0.00     0.030 H 
ATOM    142  H17 ALA d   1       8.934 -33.072 -31.791  0.00  0.00     0.030 H 
ATOM    143  H18 ALA d   1       9.372 -31.516 -32.574  0.00  0.00     0.030 H 
ENDBRANCH  32 140
BRANCH   7 144
ATOM    144  C   CYS d   1       1.953 -25.392 -28.415  0.00  0.00     0.197 C 
ATOM    145  O   CYS d   1       2.051 -25.095 -29.606  0.00  0.00    -0.646 OA
ATOM    146  OXT CYS d   1       0.967 -26.022 -28.032  0.00  0.00    -0.646 OA
ENDBRANCH   7 144
BRANCH   1 147
ATOM    147  N   CYS d   1       9.932 -25.495 -26.711  0.00  0.00    -0.066 N 
ATOM    148  H1  CYS d   1       9.615 -24.708 -26.167  0.00  0.00     0.275 HD
ATOM    149  H2  CYS d   1      10.403 -25.164 -27.538  0.00  0.00     0.275 HD
ATOM    150  H3  CYS d   1      10.570 -26.049 -26.161  0.00  0.00     0.275 HD
ENDBRANCH   1 147
TORSDOF 20
