REMARK  16 active torsions:
REMARK  status: ('A' for Active; 'I' for Inactive)
REMARK    1  A    between atoms: N_1  and  CA_2 
REMARK    2  A    between atoms: CA_15  and  CB_18 
REMARK    3  A    between atoms: CA_20  and  CB_23 
REMARK    4  A    between atoms: CB_23  and  CG_24 
REMARK    5  A    between atoms: CZ_29  and  OH_30 
REMARK    6  A    between atoms: CA_32  and  CB_35 
REMARK    7  A    between atoms: CB_35  and  OG_36 
REMARK    8  A    between atoms: CA_38  and  CB_41 
REMARK    9  A    between atoms: CA_43  and  CB_46 
REMARK   10  A    between atoms: CB_46  and  CG_47 
REMARK   11  A    between atoms: CZ_52  and  OH_53 
REMARK   12  A    between atoms: CA_55  and  CB_58 
REMARK   13  A    between atoms: CB_58  and  CG1_59 
REMARK   14  A    between atoms: CB_58  and  CG2_60 
REMARK   15  A    between atoms: CG1_59  and  CD1_61 
REMARK   16  A    between atoms: CA_67  and  C_68 
ROOT
ATOM      1  CA  CYS d   1       8.772 -26.086 -27.402  0.00  0.00     0.184 C 
ATOM      2  C   CYS d   1       9.149 -27.401 -28.082  0.00  0.00     0.252 C 
ATOM      3  O   CYS d   1       9.342 -27.431 -29.299  0.00  0.00    -0.271 OA
ATOM      4  CB  CYS d   1       7.458 -25.568 -27.983  0.00  0.00     0.021 C 
ATOM      5  SG  CYS d   1       6.574 -24.430 -26.891  0.00  0.00    -0.095 SA
ATOM      6  N   CYS d   1       2.275 -24.109 -26.410  0.00  0.00    -0.344 N 
ATOM      7  CA  CYS d   1       3.144 -24.548 -27.508  0.00  0.00     0.105 C 
ATOM      8  CB  CYS d   1       3.880 -25.843 -27.141  0.00  0.00     0.015 C 
ATOM      9  SG  CYS d   1       5.228 -25.637 -25.953  0.00  0.00    -0.095 SA
ATOM     10  H4  CYS d   1       8.635 -26.273 -26.327  0.00  0.00     0.100 H 
ATOM     11  H5  CYS d   1       6.806 -26.430 -28.187  0.00  0.00     0.054 H 
ATOM     12  H6  CYS d   1       7.678 -25.044 -28.925  0.00  0.00     0.054 H 
ATOM     13  H61 CYS d   1       1.619 -24.757 -26.024  0.00  0.00     0.163 HD
ATOM     14  H62 CYS d   1       3.895 -23.762 -27.679  0.00  0.00     0.090 H 
ATOM     15  H63 CYS d   1       4.299 -26.272 -28.063  0.00  0.00     0.054 H 
ATOM     16  H64 CYS d   1       3.148 -26.543 -26.711  0.00  0.00     0.054 H 
ATOM     17  N   PRO d   1       9.252 -28.496 -27.301  0.00  0.00    -0.337 N 
ATOM     18  CA  PRO d   1       9.491 -29.800 -27.920  0.00  0.00     0.091 C 
ATOM     19  C   PRO d   1       8.384 -30.165 -28.898  0.00  0.00     0.241 C 
ATOM     20  O   PRO d   1       7.224 -29.818 -28.673  0.00  0.00    -0.271 OA
ATOM     21  CB  PRO d   1       9.507 -30.767 -26.731  0.00  0.00    -0.036 C 
ATOM     22  CG  PRO d   1       9.872 -29.924 -25.566  0.00  0.00    -0.048 C 
ATOM     23  CD  PRO d   1       9.286 -28.571 -25.830  0.00  0.00    -0.001 C 
ATOM     24  H7  PRO d   1      10.457 -29.810 -28.445  0.00  0.00     0.087 H 
ATOM     25  H8  PRO d   1      10.254 -31.560 -26.886  0.00  0.00     0.036 H 
ATOM     26  H9  PRO d   1       8.515 -31.221 -26.586  0.00  0.00     0.036 H 
ATOM     27  H10 PRO d   1      10.966 -29.854 -25.473  0.00  0.00     0.035 H 
ATOM     28  H11 PRO d   1       9.452 -30.348 -24.642  0.00  0.00     0.035 H 
ATOM     29  H12 PRO d   1       8.273 -28.491 -25.408  0.00  0.00     0.064 H 
ATOM     30  H13 PRO d   1       9.922 -27.778 -25.410  0.00  0.00     0.064 H 
ATOM     31  N   ALA d   1       8.742 -30.851 -29.979  0.00  0.00    -0.346 N 
ATOM     32  CA  ALA d   1       7.783 -31.159 -31.036  0.00  0.00     0.086 C 
ATOM     33  C   ALA d   1       6.575 -31.955 -30.522  0.00  0.00     0.240 C 
ATOM     34  O   ALA d   1       5.494 -31.871 -31.100  0.00  0.00    -0.271 OA
ATOM     35  N   ALA d   1       2.629 -31.326 -25.270  0.00  0.00    -0.346 N 
ATOM     36  CA  ALA d   1       1.242 -31.244 -24.825  0.00  0.00     0.086 C 
ATOM     37  C   ALA d   1       1.009 -29.943 -24.091  0.00  0.00     0.240 C 
ATOM     38  O   ALA d   1      -0.062 -29.742 -23.607  0.00  0.00    -0.271 OA
ATOM     39  H14 ALA d   1       9.688 -31.163 -30.070  0.00  0.00     0.163 HD
ATOM     40  H15 ALA d   1       7.405 -30.203 -31.429  0.00  0.00     0.086 H 
ATOM     41  H33 ALA d   1       3.276 -31.501 -24.528  0.00  0.00     0.163 HD
ATOM     42  H34 ALA d   1       0.603 -31.265 -25.720  0.00  0.00     0.086 H 
ATOM     43  N   TYR d   1       6.764 -32.712 -29.440  0.00  0.00    -0.346 N 
ATOM     44  CA  TYR d   1       5.698 -33.532 -28.859  0.00  0.00     0.093 C 
ATOM     45  C   TYR d   1       5.189 -32.972 -27.527  0.00  0.00     0.241 C 
ATOM     46  O   TYR d   1       4.659 -33.700 -26.677  0.00  0.00    -0.271 OA
ATOM     47  N   TYR d   1       1.840 -28.748 -23.811  0.00  0.00    -0.346 N 
ATOM     48  CA  TYR d   1       1.544 -27.465 -23.182  0.00  0.00     0.093 C 
ATOM     49  C   TYR d   1       0.615 -26.637 -24.063  0.00  0.00     0.241 C 
ATOM     50  O   TYR d   1       0.830 -26.522 -25.286  0.00  0.00    -0.271 OA
ATOM     51  H19 TYR d   1       7.667 -32.720 -29.010  0.00  0.00     0.163 HD
ATOM     52  H20 TYR d   1       4.850 -33.522 -29.559  0.00  0.00     0.088 H 
ATOM     53  H38 TYR d   1       2.789 -28.839 -24.112  0.00  0.00     0.163 HD
ATOM     54  H39 TYR d   1       1.045 -27.640 -22.217  0.00  0.00     0.088 H 
ATOM     55  N   SER d   1       5.326 -31.660 -27.363  0.00  0.00    -0.344 N 
ATOM     56  CA  SER d   1       4.674 -30.978 -26.271  0.00  0.00     0.109 C 
ATOM     57  C   SER d   1       3.168 -31.223 -26.380  0.00  0.00     0.243 C 
ATOM     58  O   SER d   1       2.566 -31.118 -27.445  0.00  0.00    -0.271 OA
ATOM     59  H28 SER d   1       5.888 -31.139 -28.005  0.00  0.00     0.163 HD
ATOM     60  H29 SER d   1       5.043 -31.387 -25.319  0.00  0.00     0.090 H 
ATOM     61  N   ILE d   1      -0.424 -26.077 -23.438  0.00  0.00    -0.346 N 
ATOM     62  CA  ILE d   1      -1.322 -25.100 -24.087  0.00  0.00     0.092 C 
ATOM     63  C   ILE d   1      -0.514 -24.040 -24.843  0.00  0.00     0.241 C 
ATOM     64  O   ILE d   1      -0.862 -23.655 -25.964  0.00  0.00    -0.271 OA
ATOM     65  H47 ILE d   1      -0.602 -26.331 -22.487  0.00  0.00     0.163 HD
ATOM     66  H48 ILE d   1      -1.973 -25.639 -24.791  0.00  0.00     0.088 H 
ATOM     67  N   GLY d   1       0.567 -23.577 -24.222  0.00  0.00    -0.351 N 
ATOM     68  CA  GLY d   1       1.378 -22.504 -24.782  0.00  0.00     0.069 C 
ATOM     69  C   GLY d   1       2.332 -22.870 -25.908  0.00  0.00     0.236 C 
ATOM     70  O   GLY d   1       3.136 -22.030 -26.302  0.00  0.00    -0.272 OA
ATOM     71  H58 GLY d   1       0.831 -23.977 -23.345  0.00  0.00     0.163 HD
ATOM     72  H59 GLY d   1       1.979 -22.081 -23.963  0.00  0.00     0.078 H 
ATOM     73  H60 GLY d   1       0.691 -21.736 -25.167  0.00  0.00     0.078 H 
ENDROOT
BRANCH  44  74
ATOM     74  CB  TYR d   1       6.181 -34.982 -28.734  0.00  0.00    -0.014 C 
ATOM     75  H21 TYR d   1       5.338 -35.604 -28.398  0.00  0.00     0.043 H 
ATOM     76  H22 TYR d   1       6.986 -35.020 -27.985  0.00  0.00     0.043 H 
BRANCH  74  77
ATOM     77  CG  TYR d   1       6.712 -35.550 -30.047  0.00  0.00    -0.056 A 
ATOM     78  CD1 TYR d   1       6.297 -35.034 -31.285  0.00  0.00    -0.074 A 
ATOM     79  CE1 TYR d   1       6.778 -35.539 -32.480  0.00  0.00    -0.051 A 
ATOM     80  H23 TYR d   1       5.582 -34.220 -31.305  0.00  0.00     0.084 H 
ATOM     81  CZ  TYR d   1       7.671 -36.582 -32.464  0.00  0.00     0.065 A 
ATOM     82  H25 TYR d   1       6.452 -35.114 -33.422  0.00  0.00     0.087 H 
ATOM     83  CE2 TYR d   1       8.084 -37.131 -31.263  0.00  0.00    -0.051 A 
ATOM     84  CD2 TYR d   1       7.612 -36.612 -30.061  0.00  0.00    -0.074 A 
ATOM     85  H26 TYR d   1       8.775 -37.966 -31.258  0.00  0.00     0.087 H 
ATOM     86  H24 TYR d   1       7.949 -37.040 -29.124  0.00  0.00     0.084 H 
BRANCH  81  87
ATOM     87  OH  TYR d   1       8.136 -37.075 -33.661  0.00  0.00    -0.361 OA
ATOM     88  H27 TYR d   1       7.751 -36.583 -34.376  0.00  0.00     0.217 HD
ENDBRANCH  81  87
ENDBRANCH  74  77
ENDBRANCH  44  74
BRANCH  32  89
ATOM     89  CB  ALA d   1       8.468 -31.896 -32.180  0.00  0.00    -0.049 C 
ATOM     90  H16 ALA d   1       7.731 -32.119 -32.966  0.00  0.00     0.030 H 
ATOM     91  H17 ALA d   1       8.900 -32.836 -31.805  0.00  0.00     0.030 H 
ATOM     92  H18 ALA d   1       9.268 -31.265 -32.596  0.00  0.00     0.030 H 
ENDBRANCH  32  89
BRANCH  56  93
ATOM     93  CB  SER d   1       4.961 -29.481 -26.307  0.00  0.00     0.044 C 
ATOM     94  H30 SER d   1       4.533 -29.056 -27.227  0.00  0.00     0.077 H 
ATOM     95  H31 SER d   1       6.050 -29.325 -26.303  0.00  0.00     0.077 H 
BRANCH  93  96
ATOM     96  OG  SER d   1       4.395 -28.820 -25.185  0.00  0.00    -0.398 OA
ATOM     97  H32 SER d   1       4.764 -29.180 -24.387  0.00  0.00     0.209 HD
ENDBRANCH  93  96
ENDBRANCH  56  93
BRANCH  36  98
ATOM     98  CB  ALA d   1       0.815 -32.386 -23.918  0.00  0.00    -0.049 C 
ATOM     99  H35 ALA d   1      -0.238 -32.251 -23.629  0.00  0.00     0.030 H 
ATOM    100  H36 ALA d   1       1.445 -32.393 -23.016  0.00  0.00     0.030 H 
ATOM    101  H37 ALA d   1       0.928 -33.341 -24.452  0.00  0.00     0.030 H 
ENDBRANCH  36  98
BRANCH   1 102
ATOM    102  N   CYS d   1       9.851 -25.065 -27.574  0.00  0.00    -0.066 N 
ATOM    103  H1  CYS d   1       9.579 -24.209 -27.117  0.00  0.00     0.275 HD
ATOM    104  H2  CYS d   1       9.995 -24.891 -28.556  0.00  0.00     0.275 HD
ATOM    105  H3  CYS d   1      10.706 -25.407 -27.164  0.00  0.00     0.275 HD
ENDBRANCH   1 102
BRANCH  48 106
ATOM    106  CB  TYR d   1       2.865 -26.756 -22.936  0.00  0.00    -0.014 C 
ATOM    107  H40 TYR d   1       3.319 -26.533 -23.913  0.00  0.00     0.043 H 
ATOM    108  H41 TYR d   1       3.519 -27.439 -22.375  0.00  0.00     0.043 H 
BRANCH 106 109
ATOM    109  CG  TYR d   1       2.765 -25.477 -22.169  0.00  0.00    -0.056 A 
ATOM    110  CD1 TYR d   1       1.883 -25.339 -21.095  0.00  0.00    -0.074 A 
ATOM    111  CE1 TYR d   1       1.811 -24.157 -20.388  0.00  0.00    -0.051 A 
ATOM    112  H42 TYR d   1       1.247 -26.171 -20.814  0.00  0.00     0.084 H 
ATOM    113  CZ  TYR d   1       2.629 -23.103 -20.745  0.00  0.00     0.065 A 
ATOM    114  H44 TYR d   1       1.119 -24.056 -19.560  0.00  0.00     0.087 H 
ATOM    115  CE2 TYR d   1       3.515 -23.225 -21.790  0.00  0.00    -0.051 A 
ATOM    116  CD2 TYR d   1       3.581 -24.405 -22.489  0.00  0.00    -0.074 A 
ATOM    117  H45 TYR d   1       4.157 -22.395 -22.060  0.00  0.00     0.087 H 
ATOM    118  H43 TYR d   1       4.286 -24.499 -23.307  0.00  0.00     0.084 H 
BRANCH 113 119
ATOM    119  OH  TYR d   1       2.581 -21.917 -20.058  0.00  0.00    -0.361 OA
ATOM    120  H46 TYR d   1       3.432 -21.739 -19.675  0.00  0.00     0.217 HD
ENDBRANCH 113 119
ENDBRANCH 106 109
ENDBRANCH  48 106
BRANCH  62 121
ATOM    121  CB  ILE d   1      -2.201 -24.333 -23.059  0.00  0.00    -0.030 C 
ATOM    122  H49 ILE d   1      -1.525 -23.802 -22.372  0.00  0.00     0.043 H 
BRANCH 121 123
ATOM    123  CG1 ILE d   1      -3.077 -25.270 -22.235  0.00  0.00    -0.063 C 
ATOM    124  H50 ILE d   1      -3.558 -24.683 -21.439  0.00  0.00     0.033 H 
ATOM    125  H51 ILE d   1      -2.432 -26.039 -21.785  0.00  0.00     0.033 H 
BRANCH 123 126
ATOM    126  CD1 ILE d   1      -4.150 -25.959 -23.026  0.00  0.00    -0.076 C 
ATOM    127  H55 ILE d   1      -4.733 -26.613 -22.361  0.00  0.00     0.027 H 
ATOM    128  H56 ILE d   1      -3.689 -26.563 -23.821  0.00  0.00     0.027 H 
ATOM    129  H57 ILE d   1      -4.814 -25.206 -23.476  0.00  0.00     0.027 H 
ENDBRANCH 123 126
ENDBRANCH 121 123
BRANCH 121 130
ATOM    130  CG2 ILE d   1      -3.095 -23.301 -23.749  0.00  0.00    -0.071 C 
ATOM    131  H52 ILE d   1      -2.473 -22.619 -24.347  0.00  0.00     0.028 H 
ATOM    132  H53 ILE d   1      -3.644 -22.726 -22.989  0.00  0.00     0.028 H 
ATOM    133  H54 ILE d   1      -3.810 -23.817 -24.407  0.00  0.00     0.028 H 
ENDBRANCH 121 130
ENDBRANCH  62 121
BRANCH   7 134
ATOM    134  C   CYS d   1       2.361 -24.745 -28.804  0.00  0.00     0.197 C 
ATOM    135  O   CYS d   1       1.208 -25.174 -28.780  0.00  0.00    -0.646 OA
ATOM    136  OXT CYS d   1       2.872 -24.478 -29.891  0.00  0.00    -0.646 OA
ENDBRANCH   7 134
TORSDOF 16
