REMARK  4 active torsions:
REMARK  status: ('A' for Active; 'I' for Inactive)
REMARK    1  A    between atoms: C13_2  and  C8_4 
REMARK    2  A    between atoms: C7_9  and  N1_10 
REMARK    3  A    between atoms: N1_10  and  S1_11 
REMARK    4  A    between atoms: S1_11  and  C4_14 
ROOT
ATOM      1  N1  SFQ d   1      -7.023  26.984  11.480  0.00  0.00    -0.280 N 
ATOM      2  H5  SFQ d   1      -6.952  26.103  11.012  0.00  0.00     0.179 HD
ENDROOT
BRANCH   1   3
ATOM      3  C7  SFQ d   1      -7.005  28.174  10.613  0.00  0.00     0.059 A 
ATOM      4  C8  SFQ d   1      -5.963  28.491   9.729  0.00  0.00     0.068 A 
ATOM      5  C9  SFQ d   1      -6.050  29.651   8.940  0.00  0.00    -0.064 A 
ATOM      6  C10 SFQ d   1      -7.150  30.500   9.017  0.00  0.00    -0.082 A 
ATOM      7  H1  SFQ d   1      -5.243  29.889   8.257  0.00  0.00     0.085 H 
ATOM      8  C11 SFQ d   1      -8.165  30.186   9.886  0.00  0.00    -0.081 A 
ATOM      9  H2  SFQ d   1      -7.204  31.392   8.403  0.00  0.00     0.083 H 
ATOM     10  C12 SFQ d   1      -8.091  29.037  10.659  0.00  0.00    -0.056 A 
ATOM     11  H3  SFQ d   1      -9.027  30.838   9.968  0.00  0.00     0.083 H 
ATOM     12  H4  SFQ d   1      -8.914  28.804  11.325  0.00  0.00     0.087 H 
BRANCH   4  13
ATOM     13  C13 SFQ d   1      -4.740  27.640   9.556  0.00  0.00     0.211 C 
ATOM     14  O3  SFQ d   1      -4.047  27.834   8.558  0.00  0.00    -0.644 OA
ATOM     15  O4  SFQ d   1      -4.538  26.768  10.446  0.00  0.00    -0.644 OA
ENDBRANCH   4  13
ENDBRANCH   1   3
BRANCH   1  16
ATOM     16  S1  SFQ d   1      -7.146  26.918  13.126  0.00  0.00     0.263 S 
ATOM     17  O1  SFQ d   1      -6.544  25.711  13.581  0.00  0.00    -0.200 OA
ATOM     18  O2  SFQ d   1      -8.472  27.176  13.564  0.00  0.00    -0.200 OA
BRANCH  16  19
ATOM     19  C4  SFQ d   1      -6.170  28.211  13.799  0.00  0.00     0.080 A 
ATOM     20  C2  SFQ d   1      -4.849  28.047  14.193  0.00  0.00    -0.059 A 
ATOM     21  C1  SFQ d   1      -4.053  29.074  14.712  0.00  0.00    -0.066 A 
ATOM     22  H6  SFQ d   1      -4.407  27.062  14.092  0.00  0.00     0.086 H 
ATOM     23  C3  SFQ d   1      -4.613  30.320  14.839  0.00  0.00     0.006 A 
ATOM     24  H7  SFQ d   1      -3.026  28.891  15.005  0.00  0.00     0.085 H 
ATOM     25  I1  SFQ d   1      -3.477  31.816  15.579  0.00  0.00    -0.045 I 
ATOM     26  C6  SFQ d   1      -5.917  30.576  14.466  0.00  0.00    -0.066 A 
ATOM     27  C5  SFQ d   1      -6.673  29.517  13.947  0.00  0.00    -0.059 A 
ATOM     28  H8  SFQ d   1      -6.343  31.567  14.572  0.00  0.00     0.085 H 
ATOM     29  H9  SFQ d   1      -7.695  29.713  13.645  0.00  0.00     0.086 H 
ENDBRANCH  16  19
ENDBRANCH   1  16
TORSDOF 4
