REMARK  3 active torsions:
REMARK  status: ('A' for Active; 'I' for Inactive)
REMARK    1  A    between atoms: C13_1  and  C19_6 
REMARK       I    between atoms: C19_6  and  N26_26 
REMARK    2  A    between atoms: C14_24  and  C20_7 
REMARK       I    between atoms: C20_7  and  N27_27 
REMARK    3  A    between atoms: C12_13  and  C11_12 
ROOT
ATOM      1  C13 4OK d   1      -1.059  44.695   5.490  0.00  0.00     0.033 A 
ATOM      2  C16 4OK d   1      -4.017  44.887   1.945  0.00  0.00     0.059 A 
ATOM      3  C15 4OK d   1      -3.320  44.189   3.961  0.00  0.00     0.043 A 
ATOM      4  C12 4OK d   1      -2.878  46.595   0.007  0.00  0.00    -0.024 A 
ATOM      5  C2  4OK d   1      -2.087  43.887   5.988  0.00  0.00    -0.066 A 
ATOM      6  C3  4OK d   1      -3.223  43.625   5.235  0.00  0.00    -0.055 A 
ATOM      7  C5  4OK d   1      -2.173  46.240   1.156  0.00  0.00    -0.059 A 
ATOM      8  C6  4OK d   1      -1.174  45.257   4.223  0.00  0.00    -0.055 A 
ATOM      9  C7  4OK d   1      -4.182  46.111  -0.156  0.00  0.00    -0.055 A 
ATOM     10  C9  4OK d   1      -2.729  45.422   2.131  0.00  0.00     0.005 A 
ATOM     11  C10 4OK d   1      -2.293  44.998   3.439  0.00  0.00     0.004 A 
ATOM     12  C14 4OK d   1      -4.752  45.248   0.792  0.00  0.00     0.060 A 
ATOM     13  N25 4OK d   1      -4.357  44.128   3.048  0.00  0.00    -0.354 N 
ATOM     14  H10 4OK d   1      -1.994  43.458   6.979  0.00  0.00     0.085 H 
ATOM     15  H11 4OK d   1      -4.016  42.998   5.626  0.00  0.00     0.087 H 
ATOM     16  H13 4OK d   1      -1.164  46.612   1.292  0.00  0.00     0.086 H 
ATOM     17  H14 4OK d   1      -0.388  45.900   3.845  0.00  0.00     0.086 H 
ATOM     18  H15 4OK d   1      -4.758  46.407  -1.025  0.00  0.00     0.086 H 
ATOM     19  H17 4OK d   1      -5.236  43.604   3.170  0.00  0.00     0.166 HD
ENDROOT
BRANCH   1  20
ATOM     20  C19 4OK d   1       0.229  44.914   6.221  0.00  0.00     0.254 C 
ATOM     21  N26 4OK d   1       0.213  45.624   7.367  0.00  0.00    -0.344 N 
ATOM     22  C21 4OK d   1      -0.925  46.376   7.911  0.00  0.00     0.018 C 
ATOM     23  C22 4OK d   1       1.355  45.598   8.290  0.00  0.00     0.018 C 
ATOM     24  C23 4OK d   1      -1.298  45.812   9.253  0.00  0.00     0.034 C 
ATOM     25  H1  4OK d   1      -0.646  47.434   8.022  0.00  0.00     0.067 H 
ATOM     26  H2  4OK d   1      -1.782  46.292   7.226  0.00  0.00     0.067 H 
ATOM     27  O30 4OK d   1      -0.188  45.834  10.152  0.00  0.00    -0.388 OA
ATOM     28  H5  4OK d   1      -1.634  44.773   9.124  0.00  0.00     0.076 H 
ATOM     29  H6  4OK d   1      -2.116  46.412   9.679  0.00  0.00     0.076 H 
ATOM     30  C24 4OK d   1       0.901  45.065   9.624  0.00  0.00     0.034 C 
ATOM     31  H7  4OK d   1       1.743  45.105  10.331  0.00  0.00     0.076 H 
ATOM     32  H8  4OK d   1       0.575  44.022   9.500  0.00  0.00     0.076 H 
ATOM     33  H3  4OK d   1       2.143  44.947   7.883  0.00  0.00     0.067 H 
ATOM     34  H4  4OK d   1       1.750  46.617   8.416  0.00  0.00     0.067 H 
ATOM     35  O28 4OK d   1       1.253  44.397   5.804  0.00  0.00    -0.267 OA
ENDBRANCH   1  20
BRANCH  12  36
ATOM     36  C20 4OK d   1      -6.144  44.727   0.577  0.00  0.00     0.251 C 
ATOM     37  N27 4OK d   1      -6.706  44.864  -0.651  0.00  0.00    -0.366 N 
ATOM     38  H18 4OK d   1      -7.632  44.525  -0.818  0.00  0.00     0.159 HD
ATOM     39  H19 4OK d   1      -6.194  45.304  -1.389  0.00  0.00     0.159 HD
ATOM     40  O29 4OK d   1      -6.733  44.168   1.504  0.00  0.00    -0.268 OA
ENDBRANCH  12  36
BRANCH   4  41
ATOM     41  C11 4OK d   1      -2.239  47.445  -1.023  0.00  0.00    -0.024 A 
ATOM     42  C1  4OK d   1      -2.608  47.369  -2.363  0.00  0.00    -0.070 A 
ATOM     43  C4  4OK d   1      -2.039  48.198  -3.310  0.00  0.00    -0.059 A 
ATOM     44  H9  4OK d   1      -3.356  46.646  -2.669  0.00  0.00     0.084 H 
ATOM     45  C17 4OK d   1      -1.077  49.120  -2.929  0.00  0.00     0.055 A 
ATOM     46  H12 4OK d   1      -2.344  48.128  -4.348  0.00  0.00     0.086 H 
ATOM     47  C18 4OK d   1      -0.673  49.182  -1.602  0.00  0.00     0.056 A 
ATOM     48 CL1  4OK d   1      -0.465  50.245  -4.100  0.00  0.00    -0.083 Cl
ATOM     49  C8  4OK d   1      -1.252  48.358  -0.657  0.00  0.00    -0.050 A 
ATOM     50 CL2  4OK d   1       0.582  50.269  -1.102  0.00  0.00    -0.083 Cl
ATOM     51  H16 4OK d   1      -0.936  48.422   0.378  0.00  0.00     0.087 H 
ENDBRANCH   4  41
TORSDOF 3
