REMARK  5 active torsions:
REMARK  status: ('A' for Active; 'I' for Inactive)
REMARK    1  A    between atoms: N1_2  and  C1_1 
REMARK       I    between atoms: C17_22  and  N3_8 
REMARK    2  A    between atoms: C20_24  and  N4_10 
REMARK    3  A    between atoms: C14_19  and  C30_32 
REMARK    4  A    between atoms: C19_23  and  C17_22 
REMARK    5  A    between atoms: C23_27  and  C29_31 
ROOT
ATOM      1  N1  SUV d   1      -9.182  -0.881 -54.761  0.00  0.00    -0.344 N 
ATOM      2  O2  SUV d   1      -7.773   3.002 -55.076  0.00  0.00    -0.267 OA
ATOM      3  N3  SUV d   1      -9.087   1.618 -53.907  0.00  0.00    -0.342 N 
ATOM      4  C11 SUV d   1      -9.657  -0.718 -53.382  0.00  0.00     0.013 C 
ATOM      5  C12 SUV d   1      -9.321   0.627 -52.853  0.00  0.00     0.013 C 
ATOM      6  C14 SUV d   1     -10.246   2.003 -54.739  0.00  0.00     0.013 C 
ATOM      7  C15 SUV d   1     -10.960   0.795 -55.329  0.00  0.00    -0.031 C 
ATOM      8  C16 SUV d   1      -9.996  -0.281 -55.825  0.00  0.00     0.000 C 
ATOM      9  C17 SUV d   1      -7.893   2.178 -54.188  0.00  0.00     0.256 C 
ATOM     10  H4  SUV d   1      -9.184  -1.482 -52.747  0.00  0.00     0.066 H 
ATOM     11  H5  SUV d   1     -10.749  -0.849 -53.361  0.00  0.00     0.066 H 
ATOM     12  H6  SUV d   1     -10.155   0.974 -52.225  0.00  0.00     0.066 H 
ATOM     13  H7  SUV d   1      -8.410   0.545 -52.241  0.00  0.00     0.066 H 
ATOM     14  H8  SUV d   1      -9.853   2.588 -55.584  0.00  0.00     0.072 H 
ATOM     15  H9  SUV d   1     -11.577   1.131 -56.175  0.00  0.00     0.038 H 
ATOM     16  H10 SUV d   1     -11.607   0.357 -54.555  0.00  0.00     0.038 H 
ATOM     17  H11 SUV d   1     -10.583  -1.078 -56.305  0.00  0.00     0.064 H 
ATOM     18  H12 SUV d   1      -9.320   0.173 -56.565  0.00  0.00     0.064 H 
ENDROOT
BRANCH   6  19
ATOM     19  C30 SUV d   1     -11.208   2.902 -53.983  0.00  0.00    -0.057 C 
ATOM     20  H21 SUV d   1     -12.054   3.165 -54.635  0.00  0.00     0.030 H 
ATOM     21  H22 SUV d   1     -10.686   3.819 -53.672  0.00  0.00     0.030 H 
ATOM     22  H23 SUV d   1     -11.582   2.374 -53.093  0.00  0.00     0.030 H 
ENDBRANCH   6  19
BRANCH   9  23
ATOM     23  C19 SUV d   1      -6.695   1.763 -53.380  0.00  0.00     0.063 A 
ATOM     24  C20 SUV d   1      -6.508   2.075 -52.025  0.00  0.00     0.094 A 
ATOM     25  C21 SUV d   1      -5.344   1.676 -51.379  0.00  0.00    -0.052 A 
ATOM     26  C22 SUV d   1      -4.378   0.972 -52.073  0.00  0.00    -0.075 A 
ATOM     27  H13 SUV d   1      -5.194   1.917 -50.333  0.00  0.00     0.087 H 
ATOM     28  C23 SUV d   1      -4.538   0.646 -53.410  0.00  0.00    -0.061 A 
ATOM     29  H14 SUV d   1      -3.474   0.668 -51.559  0.00  0.00     0.084 H 
ATOM     30  C24 SUV d   1      -5.701   1.047 -54.048  0.00  0.00    -0.060 A 
ATOM     31  H15 SUV d   1      -5.842   0.798 -55.093  0.00  0.00     0.086 H 
BRANCH  24  32
ATOM     32  N4  SUV d   1      -7.489   2.786 -51.270  0.00  0.00    -0.151 N 
ATOM     33  N5  SUV d   1      -7.964   2.338 -50.104  0.00  0.00    -0.161 NA
ATOM     34  C27 SUV d   1      -8.843   3.254 -49.720  0.00  0.00     0.042 A 
ATOM     35  C28 SUV d   1      -8.867   4.295 -50.740  0.00  0.00     0.042 A 
ATOM     36  H16 SUV d   1      -9.438   3.232 -48.809  0.00  0.00     0.119 H 
ATOM     37  N6  SUV d   1      -8.002   3.951 -51.684  0.00  0.00    -0.161 NA
ATOM     38  H17 SUV d   1      -9.484   5.192 -50.729  0.00  0.00     0.119 H 
ENDBRANCH  24  32
BRANCH  28  39
ATOM     39  C29 SUV d   1      -3.475  -0.127 -54.153  0.00  0.00    -0.051 C 
ATOM     40  H18 SUV d   1      -2.639  -0.347 -53.473  0.00  0.00     0.033 H 
ATOM     41  H19 SUV d   1      -3.110   0.472 -55.000  0.00  0.00     0.033 H 
ATOM     42  H20 SUV d   1      -3.901  -1.069 -54.527  0.00  0.00     0.033 H 
ENDBRANCH  28  39
ENDBRANCH   9  23
BRANCH   1  43
ATOM     43  C1  SUV d   1      -8.067  -1.538 -55.027  0.00  0.00     0.250 A 
ATOM     44  O1  SUV d   1      -7.428  -2.060 -53.948  0.00  0.00    -0.276 OA
ATOM     45  C8  SUV d   1      -6.326  -2.677 -54.492  0.00  0.00     0.108 A 
ATOM     46  C3  SUV d   1      -6.362  -2.494 -55.853  0.00  0.00     0.096 A 
ATOM     47  C7  SUV d   1      -5.320  -3.366 -53.850  0.00  0.00    -0.046 A 
ATOM     48  N2  SUV d   1      -7.501  -1.752 -56.177  0.00  0.00    -0.206 NA
ATOM     49  C4  SUV d   1      -5.347  -3.015 -56.646  0.00  0.00    -0.031 A 
ATOM     50  C5  SUV d   1      -4.328  -3.705 -56.009  0.00  0.00     0.036 A 
ATOM     51  H1  SUV d   1      -5.352  -2.887 -57.722  0.00  0.00     0.089 H 
ATOM     52 CL1  SUV d   1      -3.028  -4.353 -56.970  0.00  0.00    -0.084 Cl
ATOM     53  C6  SUV d   1      -4.301  -3.889 -54.631  0.00  0.00    -0.059 A 
ATOM     54  H2  SUV d   1      -3.488  -4.438 -54.170  0.00  0.00     0.086 H 
ATOM     55  H3  SUV d   1      -5.325  -3.494 -52.774  0.00  0.00     0.087 H 
ENDBRANCH   1  43
TORSDOF 5
