REMARK  6 active torsions:
REMARK  status: ('A' for Active; 'I' for Inactive)
REMARK    1  A    between atoms: C1_1  and  C2_2 
REMARK    2  A    between atoms: C8_8  and  C1_1 
REMARK    3  A    between atoms: C5_5  and  C7_7 
REMARK    4  A    between atoms: C12_10  and  C11_9 
REMARK       I    between atoms: C11_9  and  N12_11 
REMARK    5  A    between atoms: C26_17  and  C25_16 
REMARK    6  A    between atoms: C28_19  and  C30_21 
ROOT
ATOM      1  C8  4OT d   1      -9.692   0.378 -53.498  0.00  0.00     0.022 C 
ATOM      2  C11 4OT d   1      -8.512   1.823 -55.118  0.00  0.00     0.274 C 
ATOM      3  N12 4OT d   1      -9.655   1.334 -54.611  0.00  0.00    -0.342 N 
ATOM      4  C13 4OT d   1     -11.015   1.730 -54.993  0.00  0.00    -0.002 C 
ATOM      5  C14 4OT d   1     -11.785   1.628 -53.679  0.00  0.00    -0.048 C 
ATOM      6  O23 4OT d   1      -8.508   2.571 -56.089  0.00  0.00    -0.266 OA
ATOM      7  C24 4OT d   1     -10.865   0.899 -52.667  0.00  0.00    -0.044 C 
ATOM      8  H3  4OT d   1      -8.761   0.423 -52.914  0.00  0.00     0.073 H 
ATOM      9  H4  4OT d   1     -11.429   1.045 -55.748  0.00  0.00     0.064 H 
ATOM     10  H5  4OT d   1     -11.033   2.759 -55.382  0.00  0.00     0.064 H 
ATOM     11  H6  4OT d   1     -12.711   1.054 -53.828  0.00  0.00     0.035 H 
ATOM     12  H7  4OT d   1     -12.032   2.633 -53.308  0.00  0.00     0.035 H 
ATOM     13  H8  4OT d   1     -10.511   1.597 -51.895  0.00  0.00     0.036 H 
ATOM     14  H9  4OT d   1     -11.400   0.065 -52.190  0.00  0.00     0.036 H 
ENDROOT
BRANCH   1  15
ATOM     15  C1  4OT d   1      -9.883  -1.056 -53.995  0.00  0.00     0.017 C 
ATOM     16  H1  4OT d   1      -9.729  -1.748 -53.154  0.00  0.00     0.048 H 
ATOM     17  H2  4OT d   1     -10.909  -1.166 -54.377  0.00  0.00     0.048 H 
BRANCH  15  18
ATOM     18  C2  4OT d   1      -8.927  -1.398 -55.079  0.00  0.00     0.171 A 
ATOM     19  N3  4OT d   1      -8.950  -1.159 -56.339  0.00  0.00    -0.126 NA
ATOM     20  N4  4OT d   1      -7.785  -1.729 -56.871  0.00  0.00    -0.121 NA
ATOM     21  C5  4OT d   1      -7.157  -2.265 -55.881  0.00  0.00     0.202 A 
ATOM     22  O6  4OT d   1      -7.818  -2.100 -54.700  0.00  0.00    -0.273 OA
BRANCH  21  23
ATOM     23  C7  4OT d   1      -5.882  -2.982 -55.883  0.00  0.00     0.019 A 
ATOM     24  C44 4OT d   1      -5.168  -3.157 -57.063  0.00  0.00    -0.069 A 
ATOM     25  C45 4OT d   1      -3.954  -3.822 -57.056  0.00  0.00    -0.082 A 
ATOM     26  H17 4OT d   1      -5.565  -2.770 -57.995  0.00  0.00     0.085 H 
ATOM     27  C46 4OT d   1      -3.442  -4.321 -55.877  0.00  0.00    -0.083 A 
ATOM     28  H18 4OT d   1      -3.404  -3.951 -57.981  0.00  0.00     0.083 H 
ATOM     29  C47 4OT d   1      -4.143  -4.157 -54.701  0.00  0.00    -0.082 A 
ATOM     30  H19 4OT d   1      -2.491  -4.841 -55.875  0.00  0.00     0.083 H 
ATOM     31  C48 4OT d   1      -5.357  -3.493 -54.700  0.00  0.00    -0.069 A 
ATOM     32  H20 4OT d   1      -3.742  -4.550 -53.774  0.00  0.00     0.083 H 
ATOM     33  H21 4OT d   1      -5.903  -3.370 -53.772  0.00  0.00     0.085 H 
ENDBRANCH  21  23
ENDBRANCH  15  18
ENDBRANCH   1  15
BRANCH   2  34
ATOM     34  C12 4OT d   1      -7.198   1.456 -54.509  0.00  0.00     0.143 A 
ATOM     35  N27 4OT d   1      -6.263   0.669 -55.156  0.00  0.00    -0.239 NA
ATOM     36  C26 4OT d   1      -5.178   0.553 -54.443  0.00  0.00     0.072 A 
ATOM     37  S29 4OT d   1      -5.217   1.394 -52.920  0.00  0.00    -0.072 SA
ATOM     38  C28 4OT d   1      -6.826   1.945 -53.280  0.00  0.00     0.054 A 
BRANCH  36  39
ATOM     39  C25 4OT d   1      -3.983  -0.227 -54.884  0.00  0.00    -0.029 C 
ATOM     40  H10 4OT d   1      -4.179  -0.672 -55.871  0.00  0.00     0.036 H 
ATOM     41  H11 4OT d   1      -3.777  -1.026 -54.156  0.00  0.00     0.036 H 
ATOM     42  H12 4OT d   1      -3.112   0.442 -54.950  0.00  0.00     0.036 H 
ENDBRANCH  36  39
BRANCH  38  43
ATOM     43  C30 4OT d   1      -7.538   2.793 -52.301  0.00  0.00     0.022 A 
ATOM     44  C34 4OT d   1      -8.116   3.988 -52.731  0.00  0.00    -0.069 A 
ATOM     45  C35 4OT d   1      -8.790   4.809 -51.845  0.00  0.00    -0.082 A 
ATOM     46  H13 4OT d   1      -8.036   4.277 -53.773  0.00  0.00     0.085 H 
ATOM     47  C36 4OT d   1      -8.902   4.456 -50.519  0.00  0.00    -0.080 A 
ATOM     48  H14 4OT d   1      -9.232   5.734 -52.196  0.00  0.00     0.083 H 
ATOM     49  C37 4OT d   1      -8.341   3.278 -50.061  0.00  0.00    -0.045 A 
ATOM     50  H15 4OT d   1      -9.432   5.104 -49.831  0.00  0.00     0.083 H 
ATOM     51  C38 4OT d   1      -7.677   2.477 -50.958  0.00  0.00     0.128 A 
ATOM     52  H16 4OT d   1      -8.423   2.993 -49.018  0.00  0.00     0.088 H 
ATOM     53  F39 4OT d   1      -7.138   1.324 -50.502  0.00  0.00    -0.205 F 
ENDBRANCH  38  43
ENDBRANCH   2  34
TORSDOF 6
