REMARK  8 active torsions:
REMARK  status: ('A' for Active; 'I' for Inactive)
REMARK    1  A    between atoms: N_18  and  C1_1 
REMARK    2  A    between atoms: C1_1  and  C_19 
REMARK       I    between atoms: N3_29  and  C13_6 
REMARK       I    between atoms: C13_6  and  N4_32 
REMARK    3  A    between atoms: C14_7  and  C15_8 
REMARK    4  A    between atoms: C14_7  and  C16_9 
REMARK    5  A    between atoms: C14_7  and  C17_10 
REMARK    6  A    between atoms: N4_32  and  C14_7 
REMARK    7  A    between atoms: N2_27  and  C8_20 
REMARK    8  A    between atoms: N2_27  and  C9_28 
ROOT
ATOM      1  N2  4OR d   1      12.071  45.804  42.011  0.00  0.00    -0.368 N 
ATOM      2  H25 4OR d   1      12.408  46.692  41.612  0.00  0.00     0.161 HD
ENDROOT
BRANCH   1   3
ATOM      3  C8  4OR d   1      11.612  45.851  43.295  0.00  0.00     0.137 C 
ATOM      4  C18 4OR d   1      11.607  47.204  43.907  0.00  0.00     0.038 A 
ATOM      5  C19 4OR d   1      11.113  48.291  43.182  0.00  0.00    -0.046 A 
ATOM      6  C23 4OR d   1      12.029  47.393  45.242  0.00  0.00     0.049 A 
ATOM      7  C20 4OR d   1      11.048  49.537  43.769  0.00  0.00     0.035 A 
ATOM      8  H17 4OR d   1      10.781  48.155  42.159  0.00  0.00     0.087 H 
ATOM      9  C21 4OR d   1      11.470  49.746  45.065  0.00  0.00    -0.060 A 
ATOM     10 CL   4OR d   1      10.385  50.869  42.856  0.00  0.00    -0.084 Cl
ATOM     11  C22 4OR d   1      11.972  48.676  45.794  0.00  0.00    -0.054 A 
ATOM     12  H18 4OR d   1      11.411  50.733  45.509  0.00  0.00     0.086 H 
ATOM     13  H19 4OR d   1      12.325  48.838  46.806  0.00  0.00     0.087 H 
ATOM     14  N   4OR d   1      12.387  46.277  46.062  0.00  0.00    -0.344 N 
ATOM     15  C2  4OR d   1      11.340  45.320  46.294  0.00  0.00     0.064 A 
ATOM     16  C3  4OR d   1      10.848  45.104  47.584  0.00  0.00    -0.052 A 
ATOM     17  C7  4OR d   1      10.718  44.680  45.203  0.00  0.00     0.089 A 
ATOM     18  C4  4OR d   1       9.738  44.307  47.794  0.00  0.00    -0.043 A 
ATOM     19  H3  4OR d   1      11.343  45.567  48.430  0.00  0.00     0.087 H 
ATOM     20  C5  4OR d   1       9.130  43.734  46.704  0.00  0.00     0.118 A 
ATOM     21  H24 4OR d   1       9.357  44.139  48.795  0.00  0.00     0.088 H 
ATOM     22  C6  4OR d   1       9.581  43.894  45.418  0.00  0.00    -0.016 A 
ATOM     23  F   4OR d   1       8.038  42.941  46.909  0.00  0.00    -0.206 F 
ATOM     24  H23 4OR d   1       9.068  43.422  44.588  0.00  0.00     0.091 H 
ATOM     25  N1  4OR d   1      11.213  44.728  43.886  0.00  0.00    -0.228 NA
BRANCH  14  26
ATOM     26  C1  4OR d   1      13.403  46.481  47.104  0.00  0.00    -0.003 C 
ATOM     27  H1  4OR d   1      12.890  46.666  48.059  0.00  0.00     0.064 H 
ATOM     28  H2  4OR d   1      14.006  47.361  46.835  0.00  0.00     0.064 H 
BRANCH  26  29
ATOM     29  C   4OR d   1      14.333  45.300  47.282  0.00  0.00    -0.061 C 
ATOM     30  H20 4OR d   1      15.063  45.524  48.074  0.00  0.00     0.029 H 
ATOM     31  H21 4OR d   1      14.864  45.106  46.339  0.00  0.00     0.029 H 
ATOM     32  H22 4OR d   1      13.748  44.412  47.563  0.00  0.00     0.029 H 
ENDBRANCH  26  29
ENDBRANCH  14  26
ENDBRANCH   1   3
BRANCH   1  33
ATOM     33  C9  4OR d   1      12.137  44.631  41.137  0.00  0.00     0.028 C 
ATOM     34  C12 4OR d   1      13.124  43.560  41.605  0.00  0.00     0.018 C 
ATOM     35  N3  4OR d   1      14.360  43.927  40.925  0.00  0.00    -0.332 N 
ATOM     36  H6  4OR d   1      12.790  42.556  41.302  0.00  0.00     0.067 H 
ATOM     37  H7  4OR d   1      13.251  43.590  42.697  0.00  0.00     0.067 H 
ATOM     38  C11 4OR d   1      14.105  44.773  39.749  0.00  0.00     0.001 C 
ATOM     39  C13 4OR d   1      15.601  43.564  41.355  0.00  0.00     0.319 C 
ATOM     40  C10 4OR d   1      12.590  44.957  39.751  0.00  0.00    -0.030 C 
ATOM     41  H4  4OR d   1      14.437  44.273  38.827  0.00  0.00     0.064 H 
ATOM     42  H5  4OR d   1      14.617  45.742  39.845  0.00  0.00     0.064 H 
ATOM     43  H27 4OR d   1      12.121  44.276  39.026  0.00  0.00     0.038 H 
ATOM     44  H28 4OR d   1      12.331  45.996  39.499  0.00  0.00     0.038 H 
ATOM     45  O   4OR d   1      15.763  42.937  42.397  0.00  0.00    -0.247 OA
ATOM     46  N4  4OR d   1      16.715  43.943  40.551  0.00  0.00    -0.335 N 
ATOM     47  H29 4OR d   1      16.503  44.444  39.712  0.00  0.00     0.165 HD
ATOM     48  H26 4OR d   1      11.127  44.196  41.096  0.00  0.00     0.075 H 
BRANCH  46  49
ATOM     49  C14 4OR d   1      18.149  43.683  40.810  0.00  0.00     0.023 C 
BRANCH  49  50
ATOM     50  C15 4OR d   1      18.537  44.262  42.163  0.00  0.00    -0.054 C 
ATOM     51  H8  4OR d   1      19.603  44.068  42.353  0.00  0.00     0.030 H 
ATOM     52  H9  4OR d   1      17.932  43.790  42.951  0.00  0.00     0.030 H 
ATOM     53  H10 4OR d   1      18.357  45.347  42.163  0.00  0.00     0.030 H 
ENDBRANCH  49  50
BRANCH  49  54
ATOM     54  C16 4OR d   1      18.978  44.330  39.712  0.00  0.00    -0.054 C 
ATOM     55  H11 4OR d   1      18.691  43.906  38.738  0.00  0.00     0.030 H 
ATOM     56  H12 4OR d   1      20.045  44.137  39.896  0.00  0.00     0.030 H 
ATOM     57  H13 4OR d   1      18.797  45.415  39.707  0.00  0.00     0.030 H 
ENDBRANCH  49  54
BRANCH  49  58
ATOM     58  C17 4OR d   1      18.394  42.186  40.803  0.00  0.00    -0.054 C 
ATOM     59  H14 4OR d   1      17.796  41.713  41.596  0.00  0.00     0.030 H 
ATOM     60  H15 4OR d   1      19.461  41.988  40.981  0.00  0.00     0.030 H 
ATOM     61  H16 4OR d   1      18.102  41.771  39.827  0.00  0.00     0.030 H 
ENDBRANCH  49  58
ENDBRANCH  46  49
ENDBRANCH   1  33
TORSDOF 8
