REMARK  8 active torsions:
REMARK  status: ('A' for Active; 'I' for Inactive)
REMARK       I    between atoms: C20_2  and  N1_3 
REMARK    1  A    between atoms: C20_2  and  C19_4 
REMARK    2  A    between atoms: C1_10  and  C2_11 
REMARK    3  A    between atoms: C14_13  and  O1_14 
REMARK    4  A    between atoms: O1_14  and  C15_15 
REMARK    5  A    between atoms: C15_15  and  C16_16 
REMARK    6  A    between atoms: C5_20  and  N_23 
REMARK    7  A    between atoms: N_23  and  C6_24 
REMARK       I    between atoms: N_23  and  C7_25 
REMARK    8  A    between atoms: C7_25  and  C8_27 
ROOT
ATOM      1  C2  4P3 d   1      -8.979  27.871   6.186  0.00  0.00    -0.021 A 
ATOM      2  C17 4P3 d   1      -8.310  27.544   5.014  0.00  0.00    -0.038 A 
ATOM      3  C14 4P3 d   1      -7.537  26.370   4.975  0.00  0.00     0.096 A 
ATOM      4  C5  4P3 d   1      -7.497  25.512   6.147  0.00  0.00     0.070 A 
ATOM      5  C4  4P3 d   1      -8.191  25.882   7.278  0.00  0.00    -0.053 A 
ATOM      6  C3  4P3 d   1      -8.919  27.050   7.298  0.00  0.00    -0.070 A 
ATOM      7  H6  4P3 d   1      -8.383  28.184   4.142  0.00  0.00     0.089 H 
ATOM      8  H9  4P3 d   1      -8.164  25.249   8.158  0.00  0.00     0.087 H 
ATOM      9  H10 4P3 d   1      -9.453  27.331   8.198  0.00  0.00     0.084 H 
ENDROOT
BRANCH   4  10
ATOM     10  N   4P3 d   1      -6.743  24.371   6.125  0.00  0.00    -0.316 N 
ATOM     11  C7  4P3 d   1      -7.354  23.256   6.414  0.00  0.00     0.262 C 
ATOM     12  O   4P3 d   1      -8.564  23.203   6.392  0.00  0.00    -0.267 OA
BRANCH  10  13
ATOM     13  C6  4P3 d   1      -5.287  24.456   5.862  0.00  0.00    -0.011 C 
ATOM     14  H11 4P3 d   1      -5.014  25.499   5.643  0.00  0.00     0.057 H 
ATOM     15  H12 4P3 d   1      -5.032  23.822   5.000  0.00  0.00     0.057 H 
ATOM     16  H13 4P3 d   1      -4.734  24.111   6.748  0.00  0.00     0.057 H 
ENDBRANCH  10  13
BRANCH  11  17
ATOM     17  C8  4P3 d   1      -6.431  22.117   6.724  0.00  0.00     0.092 A 
ATOM     18  C13 4P3 d   1      -5.910  21.837   8.083  0.00  0.00     0.052 A 
ATOM     19 CL1  4P3 d   1      -6.361  22.762   9.538  0.00  0.00    -0.083 Cl
ATOM     20  C12 4P3 d   1      -5.037  20.796   8.299  0.00  0.00    -0.061 A 
ATOM     21  C11 4P3 d   1      -4.616  20.039   7.233  0.00  0.00    -0.078 A 
ATOM     22  H14 4P3 d   1      -4.685  20.575   9.300  0.00  0.00     0.086 H 
ATOM     23  C10 4P3 d   1      -5.049  20.260   5.917  0.00  0.00    -0.044 A 
ATOM     24  H15 4P3 d   1      -3.916  19.232   7.417  0.00  0.00     0.083 H 
ATOM     25  C9  4P3 d   1      -5.930  21.277   5.603  0.00  0.00     0.133 A 
ATOM     26  H16 4P3 d   1      -4.683  19.616   5.126  0.00  0.00     0.088 H 
ATOM     27  F   4P3 d   1      -6.325  21.467   4.311  0.00  0.00    -0.205 F 
ENDBRANCH  11  17
ENDBRANCH   4  10
BRANCH   3  28
ATOM     28  O1  4P3 d   1      -6.828  25.910   3.925  0.00  0.00    -0.340 OA
BRANCH  28  29
ATOM     29  C15 4P3 d   1      -6.723  26.559   2.684  0.00  0.00     0.116 C 
ATOM     30  H7  4P3 d   1      -6.106  27.466   2.772  0.00  0.00     0.088 H 
ATOM     31  H8  4P3 d   1      -7.719  26.828   2.302  0.00  0.00     0.088 H 
BRANCH  29  32
ATOM     32  C16 4P3 d   1      -6.053  25.540   1.766  0.00  0.00     0.408 C 
ATOM     33  F3  4P3 d   1      -6.487  25.921   0.602  0.00  0.00    -0.169 F 
ATOM     34  F2  4P3 d   1      -4.727  25.614   1.745  0.00  0.00    -0.169 F 
ATOM     35  F1  4P3 d   1      -6.420  24.297   2.126  0.00  0.00    -0.169 F 
ENDBRANCH  29  32
ENDBRANCH  28  29
ENDBRANCH   3  28
BRANCH   1  36
ATOM     36  C1  4P3 d   1      -9.772  29.099   6.291  0.00  0.00    -0.003 A 
ATOM     37  C   4P3 d   1     -11.240  29.070   6.441  0.00  0.00     0.045 A 
ATOM     38  C22 4P3 d   1     -11.938  30.251   6.523  0.00  0.00    -0.060 A 
ATOM     39 CL   4P3 d   1     -12.086  27.499   6.494  0.00  0.00    -0.083 Cl
ATOM     40  C21 4P3 d   1     -11.225  31.451   6.498  0.00  0.00    -0.066 A 
ATOM     41  H4  4P3 d   1     -13.019  30.251   6.605  0.00  0.00     0.086 H 
ATOM     42  C19 4P3 d   1      -9.825  31.477   6.401  0.00  0.00     0.032 A 
ATOM     43  H3  4P3 d   1     -11.767  32.388   6.555  0.00  0.00     0.085 H 
ATOM     44  C18 4P3 d   1      -9.117  30.294   6.279  0.00  0.00    -0.055 A 
ATOM     45  H5  4P3 d   1      -8.038  30.318   6.174  0.00  0.00     0.086 H 
BRANCH  42  46
ATOM     46  C20 4P3 d   1      -9.047  32.746   6.353  0.00  0.00     0.249 C 
ATOM     47  O2  4P3 d   1      -7.805  32.680   6.308  0.00  0.00    -0.268 OA
ATOM     48  N1  4P3 d   1      -9.694  33.917   6.341  0.00  0.00    -0.366 N 
ATOM     49  H1  4P3 d   1     -10.693  33.937   6.378  0.00  0.00     0.159 HD
ATOM     50  H2  4P3 d   1      -9.178  34.773   6.295  0.00  0.00     0.159 HD
ENDBRANCH  42  46
ENDBRANCH   1  36
TORSDOF 8
