REMARK  4 active torsions:
REMARK  status: ('A' for Active; 'I' for Inactive)
REMARK    1  A    between atoms: C1_1  and  C2_2 
REMARK       I    between atoms: N1_28  and  C1_1 
REMARK    2  A    between atoms: C17_25  and  C16_11 
REMARK    3  A    between atoms: C21_14  and  C22_15 
REMARK       I    between atoms: C22_15  and  N2_21 
REMARK    4  A    between atoms: N2_21  and  C23_22 
ROOT
ATOM      1  C1  4P1 d   1     -22.907  10.637  50.606  0.00  0.00     0.240 C 
ATOM      2  C10 4P1 d   1     -24.478   7.529  49.452  0.00  0.00    -0.037 C 
ATOM      3  C11 4P1 d   1     -22.789   9.374  48.750  0.00  0.00     0.043 A 
ATOM      4  C12 4P1 d   1     -23.866   8.424  48.381  0.00  0.00    -0.030 A 
ATOM      5  C13 4P1 d   1     -24.257   8.393  47.045  0.00  0.00    -0.064 A 
ATOM      6  C14 4P1 d   1     -22.206  10.235  47.830  0.00  0.00    -0.056 A 
ATOM      7  C15 4P1 d   1     -22.621  10.159  46.519  0.00  0.00    -0.070 A 
ATOM      8  C16 4P1 d   1     -23.614   9.245  46.126  0.00  0.00    -0.024 A 
ATOM      9  C9  4P1 d   1     -23.675   7.492  50.773  0.00  0.00    -0.046 C 
ATOM     10  C8  4P1 d   1     -22.278   8.138  50.735  0.00  0.00     0.003 C 
ATOM     11  N1  4P1 d   1     -22.547   9.415  50.098  0.00  0.00    -0.317 N 
ATOM     12  O1  4P1 d   1     -24.118  10.891  50.705  0.00  0.00    -0.272 OA
ATOM     13  H2  4P1 d   1     -24.538   6.505  49.055  0.00  0.00     0.040 H 
ATOM     14  H3  4P1 d   1     -25.491   7.896  49.673  0.00  0.00     0.040 H 
ATOM     15  H4  4P1 d   1     -25.044   7.723  46.717  0.00  0.00     0.085 H 
ATOM     16  H5  4P1 d   1     -21.447  10.946  48.135  0.00  0.00     0.087 H 
ATOM     17  H6  4P1 d   1     -22.175  10.814  45.779  0.00  0.00     0.084 H 
ATOM     18  H18 4P1 d   1     -23.550   6.438  51.061  0.00  0.00     0.035 H 
ATOM     19  H19 4P1 d   1     -24.266   8.014  51.540  0.00  0.00     0.035 H 
ATOM     20  H20 4P1 d   1     -21.576   7.535  50.140  0.00  0.00     0.065 H 
ATOM     21  H21 4P1 d   1     -21.875   8.275  51.749  0.00  0.00     0.065 H 
ENDROOT
BRANCH   8  22
ATOM     22  C17 4P1 d   1     -24.053   9.261  44.702  0.00  0.00    -0.003 A 
ATOM     23  C24 4P1 d   1     -23.943   8.212  43.781  0.00  0.00    -0.055 A 
ATOM     24  C21 4P1 d   1     -24.429   8.375  42.469  0.00  0.00     0.032 A 
ATOM     25  H9  4P1 d   1     -23.484   7.276  44.077  0.00  0.00     0.086 H 
ATOM     26  C20 4P1 d   1     -25.044   9.576  42.086  0.00  0.00    -0.066 A 
ATOM     27  C19 4P1 d   1     -25.181  10.643  42.984  0.00  0.00    -0.060 A 
ATOM     28  H8  4P1 d   1     -25.421   9.681  41.075  0.00  0.00     0.085 H 
ATOM     29  C18 4P1 d   1     -24.714  10.540  44.286  0.00  0.00     0.045 A 
ATOM     30  H7  4P1 d   1     -25.658  11.560  42.657  0.00  0.00     0.086 H 
ATOM     31 CL2  4P1 d   1     -24.920  11.929  45.425  0.00  0.00    -0.083 Cl
BRANCH  24  32
ATOM     32  C22 4P1 d   1     -24.338   7.246  41.493  0.00  0.00     0.251 C 
ATOM     33  O2  4P1 d   1     -24.187   6.150  41.972  0.00  0.00    -0.268 OA
ATOM     34  N2  4P1 d   1     -24.481   7.392  40.171  0.00  0.00    -0.361 N 
ATOM     35  H14 4P1 d   1     -24.643   8.327  39.856  0.00  0.00     0.162 HD
BRANCH  34  36
ATOM     36  C23 4P1 d   1     -24.434   6.376  39.123  0.00  0.00    -0.018 C 
ATOM     37  H15 4P1 d   1     -24.592   6.852  38.144  0.00  0.00     0.056 H 
ATOM     38  H16 4P1 d   1     -25.223   5.630  39.300  0.00  0.00     0.056 H 
ATOM     39  H17 4P1 d   1     -23.452   5.881  39.136  0.00  0.00     0.056 H 
ENDBRANCH  34  36
ENDBRANCH  24  32
ENDBRANCH   8  22
BRANCH   1  40
ATOM     40  C2  4P1 d   1     -21.924  11.768  50.943  0.00  0.00     0.110 A 
ATOM     41  C3  4P1 d   1     -22.661  12.940  51.582  0.00  0.00     0.108 A 
ATOM     42  C4  4P1 d   1     -22.257  13.513  52.787  0.00  0.00    -0.065 A 
ATOM     43  F   4P1 d   1     -23.755  13.504  51.019  0.00  0.00    -0.210 F 
ATOM     44  C5  4P1 d   1     -21.155  13.017  53.473  0.00  0.00    -0.031 A 
ATOM     45  H10 4P1 d   1     -22.811  14.358  53.195  0.00  0.00     0.081 H 
ATOM     46  C6  4P1 d   1     -20.408  11.952  52.970  0.00  0.00    -0.081 A 
ATOM     47  H11 4P1 d   1     -21.520  12.702  54.462  0.00  0.00     0.044 H 
ATOM     48  H12 4P1 d   1     -20.457  13.859  53.591  0.00  0.00     0.044 H 
ATOM     49  C7  4P1 d   1     -20.749  11.327  51.772  0.00  0.00     0.028 A 
ATOM     50  H13 4P1 d   1     -19.540  11.601  53.525  0.00  0.00     0.079 H 
ATOM     51 CL1  4P1 d   1     -19.669   9.988  51.272  0.00  0.00    -0.088 Cl
ATOM     52  H1  4P1 d   1     -21.514  12.126  49.987  0.00  0.00     0.074 H 
ENDBRANCH   1  40
TORSDOF 4
