REMARK  5 active torsions:
REMARK  status: ('A' for Active; 'I' for Inactive)
REMARK    1  A    between atoms: C8_5  and  C3_10 
REMARK    2  A    between atoms: C12_8  and  C19_19 
REMARK    3  A    between atoms: C15_15  and  N18_18 
REMARK       I    between atoms: C19_19  and  N21_21 
REMARK    4  A    between atoms: N21_21  and  C22_22 
REMARK       I    between atoms: N24_24  and  C26_26 
REMARK    5  A    between atoms: C26_26  and  C28_28 
ROOT
ATOM      1  C11 4P4 d   1     -24.943   4.481 -16.138  0.00  0.00     0.014 A 
ATOM      2  C8  4P4 d   1     -23.100   6.498 -16.695  0.00  0.00     0.068 A 
ATOM      3  C9  4P4 d   1     -23.313   5.483 -17.628  0.00  0.00    -0.053 A 
ATOM      4  C10 4P4 d   1     -24.207   4.486 -17.352  0.00  0.00    -0.067 A 
ATOM      5  C12 4P4 d   1     -25.899   3.476 -15.772  0.00  0.00     0.062 A 
ATOM      6  C13 4P4 d   1     -26.556   3.695 -14.557  0.00  0.00     0.021 A 
ATOM      7  N14 4P4 d   1     -26.388   4.730 -13.726  0.00  0.00    -0.240 NA
ATOM      8  C15 4P4 d   1     -25.480   5.692 -14.047  0.00  0.00     0.150 A 
ATOM      9  C16 4P4 d   1     -24.703   5.583 -15.262  0.00  0.00     0.114 A 
ATOM     10  N17 4P4 d   1     -23.780   6.549 -15.553  0.00  0.00    -0.244 NA
ATOM     11  H3  4P4 d   1     -22.772   5.485 -18.567  0.00  0.00     0.087 H 
ATOM     12  H4  4P4 d   1     -24.356   3.688 -18.070  0.00  0.00     0.085 H 
ATOM     13  H5  4P4 d   1     -27.279   2.946 -14.256  0.00  0.00     0.116 H 
ENDROOT
BRANCH   5  14
ATOM     14  C19 4P4 d   1     -26.185   2.260 -16.613  0.00  0.00     0.254 C 
ATOM     15  O20 4P4 d   1     -25.550   2.009 -17.635  0.00  0.00    -0.268 OA
ATOM     16  N21 4P4 d   1     -27.184   1.477 -16.169  0.00  0.00    -0.349 N 
ATOM     17  H10 4P4 d   1     -27.580   1.674 -15.272  0.00  0.00     0.163 HD
BRANCH  16  18
ATOM     18  C22 4P4 d   1     -27.719   0.352 -16.934  0.00  0.00     0.043 C 
ATOM     19  C23 4P4 d   1     -26.903  -0.972 -16.777  0.00  0.00     0.018 C 
ATOM     20  N24 4P4 d   1     -28.004  -1.526 -15.942  0.00  0.00    -0.347 N 
ATOM     21  H12 4P4 d   1     -25.947  -0.854 -16.245  0.00  0.00     0.067 H 
ATOM     22  H13 4P4 d   1     -26.734  -1.514 -17.719  0.00  0.00     0.067 H 
ATOM     23  C25 4P4 d   1     -28.916  -0.381 -16.195  0.00  0.00     0.018 C 
ATOM     24  C26 4P4 d   1     -27.929  -2.543 -15.055  0.00  0.00     0.231 C 
ATOM     25  H14 4P4 d   1     -29.774  -0.617 -16.841  0.00  0.00     0.067 H 
ATOM     26  H15 4P4 d   1     -29.270   0.128 -15.287  0.00  0.00     0.067 H 
ATOM     27  O27 4P4 d   1     -26.860  -3.049 -14.750  0.00  0.00    -0.272 OA
ATOM     28  H11 4P4 d   1     -27.920   0.657 -17.972  0.00  0.00     0.077 H 
BRANCH  24  29
ATOM     29  C28 4P4 d   1     -29.241  -3.043 -14.468  0.00  0.00     0.056 A 
ATOM     30  C29 4P4 d   1     -29.249  -4.230 -13.538  0.00  0.00    -0.089 A 
ATOM     31  C30 4P4 d   1     -29.392  -2.870 -12.978  0.00  0.00    -0.089 A 
ATOM     32  H17 4P4 d   1     -29.191  -5.307 -13.388  0.00  0.00     0.078 H 
ATOM     33  H18 4P4 d   1     -29.516  -2.217 -12.115  0.00  0.00     0.078 H 
ATOM     34  H16 4P4 d   1     -30.074  -2.871 -15.165  0.00  0.00     0.067 H 
ENDBRANCH  24  29
ENDBRANCH  16  18
ENDBRANCH   5  14
BRANCH   8  35
ATOM     35  N18 4P4 d   1     -25.356   6.773 -13.256  0.00  0.00    -0.382 N 
ATOM     36  H8  4P4 d   1     -24.672   7.507 -13.490  0.00  0.00     0.157 HD
ATOM     37  H9  4P4 d   1     -25.945   6.867 -12.416  0.00  0.00     0.157 HD
ENDBRANCH   8  35
BRANCH   2  38
ATOM     38  C3  4P4 d   1     -22.138   7.601 -16.941  0.00  0.00    -0.004 A 
ATOM     39  C4  4P4 d   1     -21.710   8.409 -15.886  0.00  0.00    -0.034 A 
ATOM     40  C5  4P4 d   1     -20.706   9.320 -16.099  0.00  0.00     0.117 A 
ATOM     41  H1  4P4 d   1     -22.167   8.318 -14.907  0.00  0.00     0.089 H 
ATOM     42  C6  4P4 d   1     -20.092   9.487 -17.311  0.00  0.00    -0.046 A 
ATOM     43  F7  4P4 d   1     -20.308  10.096 -15.052  0.00  0.00    -0.206 F 
ATOM     44  C1  4P4 d   1     -20.521   8.700 -18.368  0.00  0.00    -0.079 A 
ATOM     45  H2  4P4 d   1     -19.296  10.211 -17.440  0.00  0.00     0.088 H 
ATOM     46  C2  4P4 d   1     -21.532   7.769 -18.187  0.00  0.00    -0.071 A 
ATOM     47  H6  4P4 d   1     -20.062   8.813 -19.344  0.00  0.00     0.083 H 
ATOM     48  H7  4P4 d   1     -21.857   7.163 -19.025  0.00  0.00     0.084 H 
ENDBRANCH   2  38
TORSDOF 5
