REMARK  9 active torsions:
REMARK  status: ('A' for Active; 'I' for Inactive)
REMARK    1  A    between atoms: O3A_8  and  PB_1 
REMARK    2  A    between atoms: PA_5  and  O3A_8 
REMARK    3  A    between atoms: PA_5  and  O5'_9 
REMARK    4  A    between atoms: O5'_9  and  C5'_10 
REMARK    5  A    between atoms: C5'_10  and  C4'_11 
REMARK    6  A    between atoms: C3'_13  and  O3'_14 
REMARK    7  A    between atoms: C2'_15  and  O2'_16 
REMARK    8  A    between atoms: C1'_17  and  N9_18 
REMARK    9  A    between atoms: C6_22  and  N6_23 
ROOT
ATOM      1  C4' ADP d   1      19.070 -18.927   0.980  0.00  0.00     0.089 C 
ATOM      2  O4' ADP d   1      19.298 -17.851   2.081  0.00  0.00    -0.353 OA
ATOM      3  C3' ADP d   1      17.860 -19.285   1.124  0.00  0.00     0.091 C 
ATOM      4  C2' ADP d   1      17.426 -18.972   2.690  0.00  0.00     0.105 C 
ATOM      5  C1' ADP d   1      18.326 -18.254   3.229  0.00  0.00     0.139 C 
ATOM      6  H3  ADP d   1      19.755 -19.776   1.120  0.00  0.00     0.090 H 
ATOM      7  H4  ADP d   1      17.221 -18.724   0.426  0.00  0.00     0.091 H 
ATOM      8  H6  ADP d   1      16.478 -18.414   2.695  0.00  0.00     0.093 H 
ATOM      9  H8  ADP d   1      18.872 -18.827   3.993  0.00  0.00     0.122 H 
ENDROOT
BRANCH   5  10
ATOM     10  N9  ADP d   1      17.683 -17.102   3.860  0.00  0.00    -0.294 N 
ATOM     11  C8  ADP d   1      17.729 -15.788   3.548  0.00  0.00     0.071 A 
ATOM     12  N7  ADP d   1      16.943 -15.123   4.444  0.00  0.00    -0.236 NA
ATOM     13  H9  ADP d   1      18.291 -15.341   2.730  0.00  0.00     0.144 H 
ATOM     14  C5  ADP d   1      16.401 -16.030   5.323  0.00  0.00     0.149 A 
ATOM     15  C6  ADP d   1      15.538 -15.906   6.423  0.00  0.00     0.155 A 
ATOM     16  C4  ADP d   1      16.865 -17.253   4.952  0.00  0.00     0.167 A 
ATOM     17  N1  ADP d   1      15.161 -16.985   7.110  0.00  0.00    -0.222 NA
ATOM     18  C2  ADP d   1      15.626 -18.214   6.733  0.00  0.00     0.091 A 
ATOM     19  N3  ADP d   1      16.472 -18.344   5.668  0.00  0.00    -0.222 NA
ATOM     20  H12 ADP d   1      15.320 -19.095   7.285  0.00  0.00     0.146 H 
BRANCH  15  21
ATOM     21  N6  ADP d   1      14.846 -14.894   7.127  0.00  0.00    -0.382 N 
ATOM     22  H10 ADP d   1      14.260 -15.139   7.938  0.00  0.00     0.157 HD
ATOM     23  H11 ADP d   1      14.928 -13.911   6.829  0.00  0.00     0.157 HD
ENDBRANCH  15  21
ENDBRANCH   5  10
BRANCH   4  24
ATOM     24  O2' ADP d   1      17.231 -20.223   3.416  0.00  0.00    -0.388 OA
ATOM     25  H7  ADP d   1      16.982 -20.032   4.313  0.00  0.00     0.210 HD
ENDBRANCH   4  24
BRANCH   1  26
ATOM     26  C5' ADP d   1      19.255 -18.330  -0.446  0.00  0.00     0.058 C 
ATOM     27  H1  ADP d   1      20.269 -18.545  -0.815  0.00  0.00     0.079 H 
ATOM     28  H2  ADP d   1      18.514 -18.763  -1.134  0.00  0.00     0.079 H 
BRANCH  26  29
ATOM     29  O5' ADP d   1      19.064 -16.940  -0.347  0.00  0.00    -0.287 OA
BRANCH  29  30
ATOM     30  PA  ADP d   1      18.773 -16.069  -1.636  0.00  0.00     0.418 P 
ATOM     31  O1A ADP d   1      20.120 -15.700  -2.237  0.00  0.00    -0.624 OA
ATOM     32  O2A ADP d   1      18.083 -14.784  -1.202  0.00  0.00    -0.624 OA
BRANCH  30  33
ATOM     33  O3A ADP d   1      17.891 -16.902  -2.687  0.00  0.00    -0.173 OA
BRANCH  33  34
ATOM     34  PB  ADP d   1      16.855 -16.418  -3.817  0.00  0.00     0.431 P 
ATOM     35  O1B ADP d   1      17.315 -16.752  -5.231  0.00  0.00    -0.616 OA
ATOM     36  O2B ADP d   1      16.553 -14.929  -3.829  0.00  0.00    -0.616 OA
ATOM     37  O3B ADP d   1      15.581 -17.162  -3.477  0.00  0.00    -0.616 OA
ENDBRANCH  33  34
ENDBRANCH  30  33
ENDBRANCH  29  30
ENDBRANCH  26  29
ENDBRANCH   1  26
BRANCH   3  38
ATOM     38  O3' ADP d   1      17.692 -20.710   0.907  0.00  0.00    -0.390 OA
ATOM     39  H5  ADP d   1      18.223 -21.189   1.533  0.00  0.00     0.210 HD
ENDBRANCH   3  38
TORSDOF 9
