REMARK  2 active torsions:
REMARK  status: ('A' for Active; 'I' for Inactive)
REMARK    1  A    between atoms: C5_12  and  N1_13 
REMARK    2  A    between atoms: N_15  and  C_16 
ROOT
ATOM      1  C11 4PV d   1      41.114   3.427 -15.181  0.00  0.00     0.061 A 
ATOM      2  C12 4PV d   1      43.385   4.164 -15.099  0.00  0.00     0.046 A 
ATOM      3  C13 4PV d   1      44.224   4.283 -13.987  0.00  0.00    -0.053 A 
ATOM      4  C14 4PV d   1      45.082   5.362 -13.861  0.00  0.00    -0.043 A 
ATOM      5  C15 4PV d   1      45.073   6.314 -14.844  0.00  0.00     0.117 A 
ATOM      6  C16 4PV d   1      44.271   6.250 -15.960  0.00  0.00    -0.030 A 
ATOM      7  C17 4PV d   1      43.422   5.147 -16.111  0.00  0.00     0.039 A 
ATOM      8  F1  4PV d   1      45.893   7.390 -14.712  0.00  0.00    -0.206 F 
ATOM      9  C5  4PV d   1      42.573   4.994 -17.330  0.00  0.00     0.139 C 
ATOM     10  N3  4PV d   1      42.485   3.075 -15.164  0.00  0.00    -0.354 N 
ATOM     11  C6  4PV d   1      40.604   4.241 -16.212  0.00  0.00     0.088 A 
ATOM     12  N2  4PV d   1      41.333   4.644 -17.348  0.00  0.00    -0.228 NA
ATOM     13  C10 4PV d   1      40.275   2.985 -14.155  0.00  0.00    -0.052 A 
ATOM     14  C9  4PV d   1      38.942   3.358 -14.134  0.00  0.00    -0.043 A 
ATOM     15  C8  4PV d   1      38.477   4.169 -15.137  0.00  0.00     0.118 A 
ATOM     16  F   4PV d   1      37.184   4.573 -15.091  0.00  0.00    -0.206 F 
ATOM     17  C7  4PV d   1      39.257   4.621 -16.173  0.00  0.00    -0.016 A 
ATOM     18  H7  4PV d   1      44.202   3.522 -13.215  0.00  0.00     0.087 H 
ATOM     19  H8  4PV d   1      45.743   5.450 -13.007  0.00  0.00     0.088 H 
ATOM     20  H9  4PV d   1      44.296   7.036 -16.706  0.00  0.00     0.089 H 
ATOM     21  H16 4PV d   1      42.804   2.096 -15.197  0.00  0.00     0.166 HD
ATOM     22  H17 4PV d   1      40.669   2.347 -13.372  0.00  0.00     0.087 H 
ATOM     23  H18 4PV d   1      38.282   3.017 -13.344  0.00  0.00     0.088 H 
ATOM     24  H19 4PV d   1      38.839   5.258 -16.944  0.00  0.00     0.091 H 
ENDROOT
BRANCH   9  25
ATOM     25  N1  4PV d   1      43.232   5.155 -18.560  0.00  0.00    -0.362 N 
ATOM     26  C2  4PV d   1      42.441   5.179 -19.802  0.00  0.00     0.019 C 
ATOM     27  C1  4PV d   1      43.055   6.157 -20.794  0.00  0.00     0.098 C 
ATOM     28  H3  4PV d   1      42.428   4.172 -20.244  0.00  0.00     0.066 H 
ATOM     29  H4  4PV d   1      41.412   5.492 -19.572  0.00  0.00     0.066 H 
ATOM     30  N   4PV d   1      44.447   5.809 -21.078  0.00  0.00    -0.072 N 
ATOM     31  H1  4PV d   1      43.017   7.171 -20.370  0.00  0.00     0.078 H 
ATOM     32  H2  4PV d   1      42.479   6.129 -21.731  0.00  0.00     0.078 H 
ATOM     33  C4  4PV d   1      45.223   5.805 -19.838  0.00  0.00     0.098 C 
ATOM     34  H12 4PV d   1      44.471   4.882 -21.473  0.00  0.00     0.279 HD
ATOM     35  C3  4PV d   1      44.640   4.818 -18.832  0.00  0.00     0.019 C 
ATOM     36  H10 4PV d   1      46.261   5.518 -20.064  0.00  0.00     0.078 H 
ATOM     37  H11 4PV d   1      45.209   6.814 -19.401  0.00  0.00     0.078 H 
ATOM     38  H5  4PV d   1      44.699   3.800 -19.244  0.00  0.00     0.066 H 
ATOM     39  H6  4PV d   1      45.215   4.869 -17.896  0.00  0.00     0.066 H 
BRANCH  30  40
ATOM     40  C   4PV d   1      45.025   6.739 -22.051  0.00  0.00     0.066 C 
ATOM     41  H13 4PV d   1      44.425   6.724 -22.973  0.00  0.00     0.068 H 
ATOM     42  H14 4PV d   1      46.057   6.436 -22.280  0.00  0.00     0.068 H 
ATOM     43  H15 4PV d   1      45.026   7.755 -21.631  0.00  0.00     0.068 H 
ENDBRANCH  30  40
ENDBRANCH   9  25
TORSDOF 2
