REMARK  2 active torsions:
REMARK  status: ('A' for Active; 'I' for Inactive)
REMARK       I    between atoms: C2_7  and  N1_1 
REMARK    1  A    between atoms: C4_2  and  C2_7 
REMARK    2  A    between atoms: C13_6  and  N14_14 
ROOT
ATOM      1  C4  4RU d   1      19.402   5.490   1.247  0.00  0.00     0.173 A 
ATOM      2  C7  4RU d   1      21.798   6.642   1.813  0.00  0.00     0.091 A 
ATOM      3  C8  4RU d   1      23.044   7.238   2.115  0.00  0.00    -0.052 A 
ATOM      4  C10 4RU d   1      23.673   7.193  -0.232  0.00  0.00    -0.082 A 
ATOM      5  C13 4RU d   1      20.262   5.716   0.148  0.00  0.00     0.075 A 
ATOM      6  N5  4RU d   1      19.764   5.824   2.500  0.00  0.00    -0.142 NA
ATOM      7  N6  4RU d   1      20.906   6.360   2.790  0.00  0.00    -0.149 NA
ATOM      8  C9  4RU d   1      23.938   7.497   1.107  0.00  0.00    -0.081 A 
ATOM      9  C11 4RU d   1      22.464   6.622  -0.554  0.00  0.00    -0.068 A 
ATOM     10  C12 4RU d   1      21.521   6.325   0.451  0.00  0.00     0.023 A 
ATOM     11  H3  4RU d   1      23.292   7.489   3.140  0.00  0.00     0.087 H 
ATOM     12  H4  4RU d   1      24.407   7.404  -1.002  0.00  0.00     0.083 H 
ATOM     13  H5  4RU d   1      24.887   7.955   1.359  0.00  0.00     0.083 H 
ATOM     14  H6  4RU d   1      22.234   6.398  -1.589  0.00  0.00     0.085 H 
ENDROOT
BRANCH   1  15
ATOM     15  C2  4RU d   1      18.077   4.847   1.093  0.00  0.00     0.272 C 
ATOM     16  N1  4RU d   1      17.195   4.915   2.117  0.00  0.00    -0.365 N 
ATOM     17  H1  4RU d   1      16.295   4.487   2.031  0.00  0.00     0.159 HD
ATOM     18  H2  4RU d   1      17.443   5.394   2.959  0.00  0.00     0.159 HD
ATOM     19  O3  4RU d   1      17.804   4.214   0.070  0.00  0.00    -0.266 OA
ENDBRANCH   1  15
BRANCH   5  20
ATOM     20  N14 4RU d   1      19.903   5.393  -1.153  0.00  0.00    -0.396 N 
ATOM     21  H7  4RU d   1      18.990   4.955  -1.342  0.00  0.00     0.156 HD
ATOM     22  H8  4RU d   1      20.550   5.591  -1.930  0.00  0.00     0.156 HD
ENDBRANCH   5  20
TORSDOF 2
