REMARK  4 active torsions:
REMARK  status: ('A' for Active; 'I' for Inactive)
REMARK    1  A    between atoms: C8_4  and  C7_3 
REMARK    2  A    between atoms: C13_6  and  N14_15 
REMARK    3  A    between atoms: C15_7  and  C19_19 
REMARK    4  A    between atoms: C2_9  and  C1_8 
REMARK       I    between atoms: C19_19  and  N20_20 
ROOT
ATOM      1  C8  4RV d   1     -22.108   8.035  -2.735  0.00  0.00     0.007 A 
ATOM      2  C10 4RV d   1     -22.988   8.025  -0.482  0.00  0.00    -0.081 A 
ATOM      3  C13 4RV d   1     -19.860   6.002  -0.561  0.00  0.00     0.075 A 
ATOM      4  C15 4RV d   1     -18.919   5.657  -1.555  0.00  0.00     0.173 A 
ATOM      5  C9  4RV d   1     -23.069   8.421  -1.801  0.00  0.00    -0.070 A 
ATOM      6  C11 4RV d   1     -21.954   7.230  -0.060  0.00  0.00    -0.068 A 
ATOM      7  C12 4RV d   1     -20.958   6.818  -0.960  0.00  0.00     0.024 A 
ATOM      8  N16 4RV d   1     -19.089   6.095  -2.810  0.00  0.00    -0.142 NA
ATOM      9  N17 4RV d   1     -20.076   6.826  -3.170  0.00  0.00    -0.148 NA
ATOM     10  C18 4RV d   1     -21.034   7.218  -2.318  0.00  0.00     0.102 A 
ATOM     11  H3  4RV d   1     -23.746   8.344   0.224  0.00  0.00     0.083 H 
ATOM     12  H8  4RV d   1     -23.897   9.045  -2.118  0.00  0.00     0.084 H 
ATOM     13  H9  4RV d   1     -21.905   6.917   0.977  0.00  0.00     0.085 H 
ENDROOT
BRANCH   1  14
ATOM     14  C7  4RV d   1     -22.232   8.514  -4.143  0.00  0.00    -0.000 A 
ATOM     15  C6  4RV d   1     -23.212   7.963  -4.990  0.00  0.00     0.013 A 
ATOM     16  N5  4RV d   1     -23.341   8.388  -6.237  0.00  0.00    -0.272 NA
ATOM     17  H2  4RV d   1     -23.867   7.184  -4.618  0.00  0.00     0.116 H 
ATOM     18  C4  4RV d   1     -22.583   9.355  -6.742  0.00  0.00     0.002 A 
ATOM     19  C3  4RV d   1     -21.602   9.970  -5.968  0.00  0.00    -0.059 A 
ATOM     20  H1  4RV d   1     -22.730   9.669  -7.769  0.00  0.00     0.114 H 
ATOM     21  C2  4RV d   1     -21.408   9.554  -4.648  0.00  0.00    -0.048 A 
ATOM     22  H7  4RV d   1     -20.994  10.764  -6.386  0.00  0.00     0.086 H 
BRANCH  21  23
ATOM     23  C1  4RV d   1     -20.338  10.227  -3.805  0.00  0.00    -0.050 C 
ATOM     24  H4  4RV d   1     -19.830  10.998  -4.404  0.00  0.00     0.033 H 
ATOM     25  H5  4RV d   1     -19.605   9.476  -3.476  0.00  0.00     0.033 H 
ATOM     26  H6  4RV d   1     -20.804  10.694  -2.925  0.00  0.00     0.033 H 
ENDBRANCH  21  23
ENDBRANCH   1  14
BRANCH   3  27
ATOM     27  N14 4RV d   1     -19.746   5.611   0.756  0.00  0.00    -0.396 N 
ATOM     28  H10 4RV d   1     -18.955   5.021   1.052  0.00  0.00     0.156 HD
ATOM     29  H11 4RV d   1     -20.452   5.909   1.444  0.00  0.00     0.156 HD
ENDBRANCH   3  27
BRANCH   4  30
ATOM     30  C19 4RV d   1     -17.713   4.859  -1.296  0.00  0.00     0.272 C 
ATOM     31  N20 4RV d   1     -16.771   4.778  -2.259  0.00  0.00    -0.365 N 
ATOM     32  H12 4RV d   1     -15.942   4.240  -2.104  0.00  0.00     0.159 HD
ATOM     33  H13 4RV d   1     -16.902   5.256  -3.128  0.00  0.00     0.159 HD
ATOM     34  O21 4RV d   1     -17.525   4.326  -0.219  0.00  0.00    -0.266 OA
ENDBRANCH   4  30
TORSDOF 4
