REMARK  6 active torsions:
REMARK  status: ('A' for Active; 'I' for Inactive)
REMARK    1  A    between atoms: P_1  and  O5'_5 
REMARK    2  A    between atoms: O5'_5  and  C5'_6 
REMARK    3  A    between atoms: C5'_6  and  C4'_7 
REMARK    4  A    between atoms: C3'_9  and  O3'_10 
REMARK    5  A    between atoms: C2'_11  and  O2'_12 
REMARK    6  A    between atoms: C1'_13  and  N9_14 
ROOT
ATOM      1  C4' AMP d   1     -22.708  13.237 -47.702  0.00  0.00     0.089 C 
ATOM      2  O4' AMP d   1     -21.458  12.571 -47.480  0.00  0.00    -0.353 OA
ATOM      3  C3' AMP d   1     -23.662  12.647 -46.684  0.00  0.00     0.091 C 
ATOM      4  C2' AMP d   1     -23.150  11.231 -46.595  0.00  0.00     0.105 C 
ATOM      5  C1' AMP d   1     -21.647  11.353 -46.756  0.00  0.00     0.139 C 
ATOM      6  H3  AMP d   1     -23.079  12.992 -48.708  0.00  0.00     0.090 H 
ATOM      7  H4  AMP d   1     -23.565  13.161 -45.716  0.00  0.00     0.091 H 
ATOM      8  H6  AMP d   1     -23.417  10.778 -45.629  0.00  0.00     0.093 H 
ATOM      9  H8  AMP d   1     -21.258  10.482 -47.304  0.00  0.00     0.122 H 
ENDROOT
BRANCH   5  10
ATOM     10  N9  AMP d   1     -20.885  11.538 -45.499  0.00  0.00    -0.294 N 
ATOM     11  C8  AMP d   1     -21.086  12.520 -44.602  0.00  0.00     0.071 A 
ATOM     12  N7  AMP d   1     -20.211  12.436 -43.589  0.00  0.00    -0.236 NA
ATOM     13  H9  AMP d   1     -21.858  13.283 -44.687  0.00  0.00     0.144 H 
ATOM     14  C5  AMP d   1     -19.422  11.401 -43.845  0.00  0.00     0.149 A 
ATOM     15  C6  AMP d   1     -18.281  10.792 -43.169  0.00  0.00     0.155 A 
ATOM     16  C4  AMP d   1     -19.855  10.814 -45.099  0.00  0.00     0.167 A 
ATOM     17  N6  AMP d   1     -17.872  11.323 -42.020  0.00  0.00    -0.382 N 
ATOM     18  N1  AMP d   1     -17.687   9.717 -43.709  0.00  0.00    -0.222 NA
ATOM     19  H10 AMP d   1     -17.069  10.914 -41.521  0.00  0.00     0.157 HD
ATOM     20  H11 AMP d   1     -18.358  12.143 -41.630  0.00  0.00     0.157 HD
ATOM     21  C2  AMP d   1     -18.162   9.219 -44.875  0.00  0.00     0.091 A 
ATOM     22  N3  AMP d   1     -19.202   9.739 -45.553  0.00  0.00    -0.222 NA
ATOM     23  H12 AMP d   1     -17.673   8.345 -45.289  0.00  0.00     0.146 H 
ENDBRANCH   5  10
BRANCH   4  24
ATOM     24  O2' AMP d   1     -23.646  10.431 -47.668  0.00  0.00    -0.388 OA
ATOM     25  H7  AMP d   1     -24.595  10.412 -47.635  0.00  0.00     0.210 HD
ENDBRANCH   4  24
BRANCH   1  26
ATOM     26  C5' AMP d   1     -22.527  14.759 -47.639  0.00  0.00     0.059 C 
ATOM     27  H1  AMP d   1     -21.655  15.043 -48.247  0.00  0.00     0.079 H 
ATOM     28  H2  AMP d   1     -23.428  15.245 -48.041  0.00  0.00     0.079 H 
BRANCH  26  29
ATOM     29  O5' AMP d   1     -22.320  15.197 -46.291  0.00  0.00    -0.280 OA
BRANCH  29  30
ATOM     30  P   AMP d   1     -23.367  16.153 -45.496  0.00  0.00     0.422 P 
ATOM     31  O1P AMP d   1     -24.769  15.807 -46.036  0.00  0.00    -0.617 OA
ATOM     32  O2P AMP d   1     -22.839  17.524 -45.855  0.00  0.00    -0.617 OA
ATOM     33  O3P AMP d   1     -23.135  15.791 -44.034  0.00  0.00    -0.617 OA
ENDBRANCH  29  30
ENDBRANCH  26  29
ENDBRANCH   1  26
BRANCH   3  34
ATOM     34  O3' AMP d   1     -25.017  12.707 -47.091  0.00  0.00    -0.390 OA
ATOM     35  H5  AMP d   1     -25.125  12.223 -47.901  0.00  0.00     0.210 HD
ENDBRANCH   3  34
TORSDOF 6
