REMARK  30 active torsions:
REMARK  status: ('A' for Active; 'I' for Inactive)
REMARK    1  A    between atoms: N_1  and  CA_2 
REMARK    2  A    between atoms: CA_2  and  C_3 
REMARK    3  A    between atoms: CA_2  and  CB_5 
REMARK       I    between atoms: C_3  and  N_6 
REMARK    4  A    between atoms: CA_7  and  C_8 
REMARK       I    between atoms: C_8  and  N_13 
REMARK    5  A    between atoms: CA_14  and  C_15 
REMARK       I    between atoms: C_15  and  N_20 
REMARK    6  A    between atoms: N_20  and  CA_21 
REMARK    7  A    between atoms: CA_21  and  C_22 
REMARK    8  A    between atoms: CA_21  and  CB_24 
REMARK       I    between atoms: C_22  and  N_28 
REMARK    9  A    between atoms: CB_24  and  CG_25 
REMARK   10  A    between atoms: CG_25  and  CD1_26 
REMARK   11  A    between atoms: CG_25  and  CD2_27 
REMARK   12  A    between atoms: CA_29  and  C_30 
REMARK       I    between atoms: C_30  and  N_35 
REMARK   13  A    between atoms: CA_36  and  C_37 
REMARK       I    between atoms: C_37  and  N_42 
REMARK   14  A    between atoms: N_42  and  CA_43 
REMARK   15  A    between atoms: CA_43  and  C_44 
REMARK   16  A    between atoms: CA_43  and  CB_46 
REMARK       I    between atoms: C_44  and  N_53 
REMARK   17  A    between atoms: CB_46  and  CG_47 
REMARK   18  A    between atoms: CG_47  and  CD_48 
REMARK   19  A    between atoms: CD_48  and  NE_49 
REMARK       I    between atoms: NE_49  and  CZ_50 
REMARK       I    between atoms: CZ_50  and  NH1_51 
REMARK       I    between atoms: CZ_50  and  NH2_52 
REMARK   20  A    between atoms: N_53  and  CA_54 
REMARK   21  A    between atoms: CA_54  and  C_55 
REMARK   22  A    between atoms: CA_54  and  CB_57 
REMARK       I    between atoms: C_55  and  N_61 
REMARK   23  A    between atoms: CB_57  and  CG_58 
REMARK       I    between atoms: CG_58  and  ND2_60 
REMARK   24  A    between atoms: N_61  and  CA_62 
REMARK   25  A    between atoms: CA_62  and  C_63 
REMARK   26  A    between atoms: CA_62  and  CB_65 
REMARK       I    between atoms: C_63  and  N_72 
REMARK   27  A    between atoms: CB_65  and  CG_66 
REMARK   28  A    between atoms: CG_66  and  CD_67 
REMARK   29  A    between atoms: CD_67  and  NE_68 
REMARK       I    between atoms: NE_68  and  CZ_69 
REMARK       I    between atoms: CZ_69  and  NH1_70 
REMARK   30  A    between atoms: CA_73  and  C_74 
ROOT
ATOM      1  C   PRO d   1     -25.166 -24.258 -55.086  0.00  0.00     0.243 C 
ATOM      2  O   PRO d   1     -25.476 -25.406 -55.458  0.00  0.00    -0.271 OA
ATOM      3  N   PRO d   1     -24.623 -23.350 -55.902  0.00  0.00    -0.337 N 
ATOM      4  CA  PRO d   1     -24.293 -23.703 -57.282  0.00  0.00     0.091 C 
ATOM      5  CB  PRO d   1     -23.509 -22.481 -57.776  0.00  0.00    -0.036 C 
ATOM      6  CG  PRO d   1     -23.982 -21.326 -56.899  0.00  0.00    -0.048 C 
ATOM      7  CD  PRO d   1     -24.287 -21.951 -55.567  0.00  0.00    -0.001 C 
ATOM      8  H40 PRO d   1     -25.209 -23.848 -57.873  0.00  0.00     0.087 H 
ATOM      9  H41 PRO d   1     -23.733 -22.280 -58.834  0.00  0.00     0.036 H 
ATOM     10  H42 PRO d   1     -22.427 -22.641 -57.654  0.00  0.00     0.036 H 
ATOM     11  H43 PRO d   1     -24.884 -20.862 -57.324  0.00  0.00     0.035 H 
ATOM     12  H44 PRO d   1     -23.192 -20.568 -56.799  0.00  0.00     0.035 H 
ATOM     13  H45 PRO d   1     -23.411 -21.907 -54.904  0.00  0.00     0.064 H 
ATOM     14  H46 PRO d   1     -25.138 -21.448 -55.084  0.00  0.00     0.064 H 
ENDROOT
BRANCH   4  15
ATOM     15  C   PRO d   1     -23.424 -24.977 -57.375  0.00  0.00     0.241 C 
ATOM     16  O   PRO d   1     -22.495 -25.181 -56.593  0.00  0.00    -0.271 OA
ATOM     17  N   ARG d   1     -23.711 -25.817 -58.359  0.00  0.00    -0.346 N 
ATOM     18  H47 ARG d   1     -24.470 -25.610 -58.977  0.00  0.00     0.163 HD
BRANCH  17  19
ATOM     19  CA  ARG d   1     -22.943 -27.031 -58.554  0.00  0.00     0.089 C 
ATOM     20  H48 ARG d   1     -22.917 -27.583 -57.603  0.00  0.00     0.087 H 
BRANCH  19  21
ATOM     21  C   ARG d   1     -21.499 -26.699 -58.946  0.00  0.00     0.241 C 
ATOM     22  O   ARG d   1     -21.205 -25.600 -59.438  0.00  0.00    -0.271 OA
ATOM     23  N   ASN d   1     -20.590 -27.628 -58.666  0.00  0.00    -0.346 N 
ATOM     24  H60 ASN d   1     -20.878 -28.432 -58.146  0.00  0.00     0.163 HD
BRANCH  23  25
ATOM     25  CA  ASN d   1     -19.198 -27.534 -59.077  0.00  0.00     0.097 C 
ATOM     26  H61 ASN d   1     -18.794 -26.566 -58.744  0.00  0.00     0.088 H 
BRANCH  25  27
ATOM     27  C   ASN d   1     -19.127 -27.626 -60.597  0.00  0.00     0.241 C 
ATOM     28  O   ASN d   1     -19.977 -28.280 -61.223  0.00  0.00    -0.271 OA
ATOM     29  N   ARG d   1     -18.091 -27.033 -61.180  0.00  0.00    -0.346 N 
ATOM     30  H66 ARG d   1     -17.444 -26.515 -60.621  0.00  0.00     0.163 HD
BRANCH  29  31
ATOM     31  CA  ARG d   1     -17.879 -27.123 -62.620  0.00  0.00     0.089 C 
ATOM     32  H67 ARG d   1     -18.767 -26.732 -63.139  0.00  0.00     0.087 H 
BRANCH  31  33
ATOM     33  C   ARG d   1     -17.649 -28.569 -63.014  0.00  0.00     0.243 C 
ATOM     34  O   ARG d   1     -16.932 -29.279 -62.302  0.00  0.00    -0.271 OA
ATOM     35  N   PRO d   1     -18.230 -29.007 -64.150  0.00  0.00    -0.336 N 
ATOM     36  CA  PRO d   1     -17.980 -30.363 -64.659  0.00  0.00     0.098 C 
ATOM     37  CD  PRO d   1     -19.210 -28.291 -64.989  0.00  0.00    -0.001 C 
ATOM     38  CB  PRO d   1     -18.798 -30.408 -65.962  0.00  0.00    -0.035 C 
ATOM     39  H79 PRO d   1     -18.338 -31.117 -63.943  0.00  0.00     0.089 H 
ATOM     40  CG  PRO d   1     -19.863 -29.387 -65.768  0.00  0.00    -0.048 C 
ATOM     41  H80 PRO d   1     -19.238 -31.405 -66.111  0.00  0.00     0.036 H 
ATOM     42  H81 PRO d   1     -18.167 -30.153 -66.826  0.00  0.00     0.036 H 
ATOM     43  H82 PRO d   1     -20.708 -29.811 -65.205  0.00  0.00     0.035 H 
ATOM     44  H83 PRO d   1     -20.220 -29.012 -66.738  0.00  0.00     0.035 H 
ATOM     45  H84 PRO d   1     -18.708 -27.577 -65.659  0.00  0.00     0.064 H 
ATOM     46  H85 PRO d   1     -19.945 -27.757 -64.368  0.00  0.00     0.064 H 
BRANCH  36  47
ATOM     47  C   PRO d   1     -16.495 -30.611 -64.954  0.00  0.00     0.196 C 
ATOM     48  O   PRO d   1     -15.877 -29.756 -65.599  0.00  0.00    -0.646 OA
ATOM     49  OXT PRO d   1     -15.982 -31.655 -64.534  0.00  0.00    -0.646 OA
ENDBRANCH  36  47
ENDBRANCH  31  33
BRANCH  31  50
ATOM     50  CB  ARG d   1     -16.660 -26.335 -63.042  0.00  0.00    -0.036 C 
ATOM     51  H68 ARG d   1     -16.418 -26.618 -64.077  0.00  0.00     0.036 H 
ATOM     52  H69 ARG d   1     -15.829 -26.620 -62.380  0.00  0.00     0.036 H 
BRANCH  50  53
ATOM     53  CG  ARG d   1     -16.795 -24.829 -62.994  0.00  0.00    -0.048 C 
ATOM     54  H70 ARG d   1     -16.892 -24.493 -61.951  0.00  0.00     0.035 H 
ATOM     55  H71 ARG d   1     -17.680 -24.513 -63.565  0.00  0.00     0.035 H 
BRANCH  53  56
ATOM     56  CD  ARG d   1     -15.538 -24.239 -63.615  0.00  0.00     0.009 C 
ATOM     57  H72 ARG d   1     -14.675 -24.485 -62.980  0.00  0.00     0.064 H 
ATOM     58  H73 ARG d   1     -15.648 -23.146 -63.677  0.00  0.00     0.064 H 
BRANCH  56  59
ATOM     59  NE  ARG d   1     -15.309 -24.771 -64.956  0.00  0.00    -0.227 N 
ATOM     60  CZ  ARG d   1     -14.133 -24.784 -65.570  0.00  0.00     0.665 C 
ATOM     61  NH1 ARG d   1     -13.047 -24.313 -64.968  0.00  0.00    -0.235 N 
ATOM     62  NH2 ARG d   1     -14.047 -25.288 -66.784  0.00  0.00    -0.235 N 
ATOM     63  H75 ARG d   1     -12.140 -24.329 -65.456  0.00  0.00     0.174 HD
ATOM     64  H76 ARG d   1     -13.112 -23.932 -64.013  0.00  0.00     0.174 HD
ATOM     65  H77 ARG d   1     -14.889 -25.653 -67.251  0.00  0.00     0.174 HD
ATOM     66  H78 ARG d   1     -13.137 -25.317 -67.266  0.00  0.00     0.174 HD
ATOM     67  H74 ARG d   1     -16.117 -25.163 -65.460  0.00  0.00     0.177 HD
ENDBRANCH  56  59
ENDBRANCH  53  56
ENDBRANCH  50  53
ENDBRANCH  31  50
ENDBRANCH  29  31
ENDBRANCH  25  27
BRANCH  25  68
ATOM     68  CB  ASN d   1     -18.334 -28.663 -58.493  0.00  0.00     0.036 C 
ATOM     69  H62 ASN d   1     -17.301 -28.525 -58.844  0.00  0.00     0.051 H 
ATOM     70  H63 ASN d   1     -18.722 -29.623 -58.864  0.00  0.00     0.051 H 
BRANCH  68  71
ATOM     71  CG  ASN d   1     -18.322 -28.706 -56.964  0.00  0.00     0.217 C 
ATOM     72  OD1 ASN d   1     -18.784 -27.790 -56.272  0.00  0.00    -0.274 OA
ATOM     73  ND2 ASN d   1     -17.778 -29.782 -56.439  0.00  0.00    -0.370 N 
ATOM     74  H64 ASN d   1     -17.732 -29.885 -55.445  0.00  0.00     0.159 HD
ATOM     75  H65 ASN d   1     -17.410 -30.497 -57.033  0.00  0.00     0.159 HD
ENDBRANCH  68  71
ENDBRANCH  25  68
ENDBRANCH  23  25
ENDBRANCH  19  21
BRANCH  19  76
ATOM     76  CB  ARG d   1     -23.636 -27.913 -59.598  0.00  0.00    -0.036 C 
ATOM     77  H49 ARG d   1     -22.926 -28.683 -59.935  0.00  0.00     0.036 H 
ATOM     78  H50 ARG d   1     -23.927 -27.284 -60.452  0.00  0.00     0.036 H 
BRANCH  76  79
ATOM     79  CG  ARG d   1     -24.886 -28.606 -59.052  0.00  0.00    -0.048 C 
ATOM     80  H51 ARG d   1     -25.519 -28.923 -59.894  0.00  0.00     0.035 H 
ATOM     81  H52 ARG d   1     -25.443 -27.898 -58.421  0.00  0.00     0.035 H 
BRANCH  79  82
ATOM     82  CD  ARG d   1     -24.511 -29.833 -58.218  0.00  0.00     0.009 C 
ATOM     83  H53 ARG d   1     -23.741 -29.541 -57.489  0.00  0.00     0.064 H 
ATOM     84  H54 ARG d   1     -24.106 -30.604 -58.890  0.00  0.00     0.064 H 
BRANCH  82  85
ATOM     85  NE  ARG d   1     -25.654 -30.397 -57.492  0.00  0.00    -0.227 N 
ATOM     86  CZ  ARG d   1     -25.636 -31.557 -56.835  0.00  0.00     0.665 C 
ATOM     87  NH1 ARG d   1     -24.549 -32.321 -56.832  0.00  0.00    -0.235 N 
ATOM     88  NH2 ARG d   1     -26.721 -31.974 -56.210  0.00  0.00    -0.235 N 
ATOM     89  H56 ARG d   1     -24.549 -33.215 -56.320  0.00  0.00     0.174 HD
ATOM     90  H57 ARG d   1     -23.706 -32.020 -57.342  0.00  0.00     0.174 HD
ATOM     91  H58 ARG d   1     -27.569 -31.390 -56.206  0.00  0.00     0.174 HD
ATOM     92  H59 ARG d   1     -26.719 -32.883 -55.726  0.00  0.00     0.174 HD
ATOM     93  H55 ARG d   1     -26.532 -29.859 -57.490  0.00  0.00     0.177 HD
ENDBRANCH  82  85
ENDBRANCH  79  82
ENDBRANCH  76  79
ENDBRANCH  19  76
ENDBRANCH  17  19
ENDBRANCH   4  15
BRANCH   1  94
ATOM     94  CA  PRO d   1     -25.383 -23.824 -53.637  0.00  0.00     0.092 C 
ATOM     95  N   PRO d   1     -26.345 -24.694 -52.962  0.00  0.00    -0.337 N 
ATOM     96  C   LEU d   1     -27.635 -24.489 -53.159  0.00  0.00     0.243 C 
ATOM     97  CD  PRO d   1     -25.703 -25.692 -52.099  0.00  0.00    -0.001 C 
ATOM     98  O   LEU d   1     -28.046 -23.576 -53.878  0.00  0.00    -0.271 OA
ATOM     99  CG  PRO d   1     -24.249 -25.313 -52.111  0.00  0.00    -0.048 C 
ATOM    100  H38 PRO d   1     -25.845 -26.705 -52.503  0.00  0.00     0.064 H 
ATOM    101  H39 PRO d   1     -26.110 -25.644 -51.078  0.00  0.00     0.064 H 
ATOM    102  CB  PRO d   1     -24.102 -23.995 -52.806  0.00  0.00    -0.036 C 
ATOM    103  H36 PRO d   1     -23.880 -25.230 -51.078  0.00  0.00     0.035 H 
ATOM    104  H37 PRO d   1     -23.671 -26.080 -52.647  0.00  0.00     0.035 H 
ATOM    105  H34 PRO d   1     -24.009 -23.181 -52.072  0.00  0.00     0.036 H 
ATOM    106  H35 PRO d   1     -23.218 -24.002 -53.460  0.00  0.00     0.036 H 
ATOM    107  H33 PRO d   1     -25.723 -22.778 -53.619  0.00  0.00     0.087 H 
BRANCH  96 108
ATOM    108  CA  LEU d   1     -28.579 -25.425 -52.432  0.00  0.00     0.090 C 
ATOM    109  H23 LEU d   1     -28.103 -25.748 -51.495  0.00  0.00     0.087 H 
BRANCH 108 110
ATOM    110  N   LEU d   1     -29.808 -24.732 -52.115  0.00  0.00    -0.346 N 
ATOM    111  C   PRO d   1     -29.845 -23.889 -51.102  0.00  0.00     0.241 C 
ATOM    112  O   PRO d   1     -28.864 -23.636 -50.393  0.00  0.00    -0.271 OA
ATOM    113  H22 LEU d   1     -30.629 -24.892 -52.663  0.00  0.00     0.163 HD
BRANCH 111 114
ATOM    114  CA  PRO d   1     -31.161 -23.213 -50.824  0.00  0.00     0.091 C 
ATOM    115  N   PRO d   1     -31.275 -22.958 -49.380  0.00  0.00    -0.337 N 
ATOM    116  C   PRO d   1     -31.282 -23.958 -48.479  0.00  0.00     0.243 C 
ATOM    117  CD  PRO d   1     -31.193 -21.514 -49.075  0.00  0.00    -0.001 C 
ATOM    118  O   PRO d   1     -31.226 -25.158 -48.772  0.00  0.00    -0.271 OA
ATOM    119  CG  PRO d   1     -31.648 -20.877 -50.356  0.00  0.00    -0.048 C 
ATOM    120  H20 PRO d   1     -30.162 -21.219 -48.830  0.00  0.00     0.064 H 
ATOM    121  H21 PRO d   1     -31.859 -21.247 -48.241  0.00  0.00     0.064 H 
ATOM    122  CB  PRO d   1     -31.182 -21.814 -51.467  0.00  0.00    -0.036 C 
ATOM    123  H18 PRO d   1     -32.744 -20.781 -50.369  0.00  0.00     0.035 H 
ATOM    124  H19 PRO d   1     -31.191 -19.884 -50.474  0.00  0.00     0.035 H 
ATOM    125  H16 PRO d   1     -31.883 -21.788 -52.314  0.00  0.00     0.036 H 
ATOM    126  H17 PRO d   1     -30.177 -21.533 -51.814  0.00  0.00     0.036 H 
ATOM    127  H15 PRO d   1     -31.994 -23.832 -51.190  0.00  0.00     0.087 H 
BRANCH 116 128
ATOM    128  CA  PRO d   1     -31.318 -23.583 -46.993  0.00  0.00     0.092 C 
ATOM    129  N   PRO d   1     -31.691 -24.714 -46.140  0.00  0.00    -0.337 N 
ATOM    130  C   ALA d   1     -32.959 -25.118 -46.129  0.00  0.00     0.250 C 
ATOM    131  CD  PRO d   1     -30.550 -25.210 -45.358  0.00  0.00    -0.001 C 
ATOM    132  O   ALA d   1     -33.797 -24.618 -46.840  0.00  0.00    -0.271 OA
ATOM    133  CG  PRO d   1     -29.650 -24.035 -45.293  0.00  0.00    -0.048 C 
ATOM    134  H13 PRO d   1     -30.061 -26.054 -45.866  0.00  0.00     0.064 H 
ATOM    135  H14 PRO d   1     -30.867 -25.521 -44.352  0.00  0.00     0.064 H 
ATOM    136  CB  PRO d   1     -29.904 -23.234 -46.518  0.00  0.00    -0.036 C 
ATOM    137  H11 PRO d   1     -29.871 -23.437 -44.397  0.00  0.00     0.035 H 
ATOM    138  H12 PRO d   1     -28.600 -24.363 -45.265  0.00  0.00     0.035 H 
ATOM    139  H9  PRO d   1     -29.836 -22.160 -46.289  0.00  0.00     0.036 H 
ATOM    140  H10 PRO d   1     -29.170 -23.490 -47.296  0.00  0.00     0.036 H 
ATOM    141  H8  PRO d   1     -32.009 -22.740 -46.844  0.00  0.00     0.087 H 
BRANCH 130 142
ATOM    142  CA  ALA d   1     -33.343 -26.236 -45.176  0.00  0.00     0.172 C 
ATOM    143  H4  ALA d   1     -32.450 -26.544 -44.612  0.00  0.00     0.098 H 
BRANCH 142 144
ATOM    144  N   ALA d   1     -34.370 -25.729 -44.205  0.00  0.00    -0.067 N 
ATOM    145  H1  ALA d   1     -34.627 -26.469 -43.571  0.00  0.00     0.275 HD
ATOM    146  H2  ALA d   1     -35.186 -25.421 -44.710  0.00  0.00     0.275 HD
ATOM    147  H3  ALA d   1     -33.986 -24.957 -43.683  0.00  0.00     0.275 HD
ENDBRANCH 142 144
BRANCH 142 148
ATOM    148  CB  ALA d   1     -33.853 -27.437 -45.957  0.00  0.00    -0.042 C 
ATOM    149  H5  ALA d   1     -33.074 -27.778 -46.655  0.00  0.00     0.030 H 
ATOM    150  H6  ALA d   1     -34.753 -27.152 -46.522  0.00  0.00     0.030 H 
ATOM    151  H7  ALA d   1     -34.101 -28.250 -45.259  0.00  0.00     0.030 H 
ENDBRANCH 142 148
ENDBRANCH 130 142
ENDBRANCH 116 128
ENDBRANCH 111 114
ENDBRANCH 108 110
BRANCH 108 152
ATOM    152  CB  LEU d   1     -28.871 -26.657 -53.277  0.00  0.00    -0.035 C 
ATOM    153  H24 LEU d   1     -27.923 -27.174 -53.485  0.00  0.00     0.037 H 
ATOM    154  H25 LEU d   1     -29.328 -26.334 -54.224  0.00  0.00     0.037 H 
BRANCH 152 155
ATOM    155  CG  LEU d   1     -29.814 -27.629 -52.590  0.00  0.00    -0.059 C 
ATOM    156  H26 LEU d   1     -30.726 -27.093 -52.288  0.00  0.00     0.038 H 
BRANCH 155 157
ATOM    157  CD1 LEU d   1     -30.213 -28.765 -53.577  0.00  0.00    -0.073 C 
ATOM    158  H27 LEU d   1     -30.896 -29.465 -53.073  0.00  0.00     0.028 H 
ATOM    159  H28 LEU d   1     -29.310 -29.303 -53.901  0.00  0.00     0.028 H 
ATOM    160  H29 LEU d   1     -30.715 -28.330 -54.453  0.00  0.00     0.028 H 
ENDBRANCH 155 157
BRANCH 155 161
ATOM    161  CD2 LEU d   1     -29.136 -28.175 -51.344  0.00  0.00    -0.073 C 
ATOM    162  H30 LEU d   1     -28.872 -27.342 -50.676  0.00  0.00     0.028 H 
ATOM    163  H31 LEU d   1     -28.224 -28.719 -51.631  0.00  0.00     0.028 H 
ATOM    164  H32 LEU d   1     -29.822 -28.859 -50.823  0.00  0.00     0.028 H 
ENDBRANCH 155 161
ENDBRANCH 152 155
ENDBRANCH 108 152
ENDBRANCH  96 108
ENDBRANCH   1  94
TORSDOF 30
