REMARK  10 active torsions:
REMARK  status: ('A' for Active; 'I' for Inactive)
REMARK    1  A    between atoms: C17_2  and  C16_14 
REMARK    2  A    between atoms: C20_4  and  C21_5 
REMARK       I    between atoms: N2_6  and  C20_4 
REMARK    3  A    between atoms: C19_7  and  N2_6 
REMARK    4  A    between atoms: N4_10  and  C22_11 
REMARK    5  A    between atoms: C22_11  and  C24_12 
REMARK    6  A    between atoms: C22_11  and  C23_13 
REMARK    7  A    between atoms: C9_15  and  N1_16 
REMARK    8  A    between atoms: C8_24  and  N_25 
REMARK    9  A    between atoms: N_25  and  C7_26 
REMARK       I    between atoms: N_25  and  C_27 
REMARK   10  A    between atoms: C_27  and  C1_29 
ROOT
ATOM      1  C15 4Q3 d   1      45.751 169.733  -0.014  0.00  0.00    -0.043 A 
ATOM      2  C16 4Q3 d   1      45.098 170.087   1.086  0.00  0.00    -0.005 A 
ATOM      3  C9  4Q3 d   1      46.619 168.639  -0.090  0.00  0.00     0.058 A 
ATOM      4  C25 4Q3 d   1      45.228 169.400   2.260  0.00  0.00    -0.069 A 
ATOM      5  C26 4Q3 d   1      46.036 168.243   2.261  0.00  0.00    -0.054 A 
ATOM      6  C8  4Q3 d   1      46.754 167.832   1.104  0.00  0.00     0.063 A 
ATOM      7  H1  4Q3 d   1      45.602 170.328  -0.908  0.00  0.00     0.088 H 
ATOM      8  H22 4Q3 d   1      44.727 169.733   3.162  0.00  0.00     0.085 H 
ATOM      9  H23 4Q3 d   1      46.111 167.652   3.167  0.00  0.00     0.087 H 
ENDROOT
BRANCH   2  10
ATOM     10  C17 4Q3 d   1      44.166 171.285   1.059  0.00  0.00     0.067 A 
ATOM     11  C18 4Q3 d   1      44.467 172.572   1.163  0.00  0.00    -0.009 A 
ATOM     12  C19 4Q3 d   1      43.294 173.252   1.127  0.00  0.00     0.152 A 
ATOM     13  H6  4Q3 d   1      45.464 173.000   1.259  0.00  0.00     0.093 H 
ATOM     14  N3  4Q3 d   1      42.243 172.441   0.909  0.00  0.00    -0.153 NA
ATOM     15  N4  4Q3 d   1      42.896 171.222   0.841  0.00  0.00    -0.263 N 
BRANCH  12  16
ATOM     16  N2  4Q3 d   1      42.986 174.591   1.250  0.00  0.00    -0.311 N 
ATOM     17  C20 4Q3 d   1      43.868 175.619   1.319  0.00  0.00     0.219 C 
ATOM     18  O1  4Q3 d   1      45.054 175.544   1.324  0.00  0.00    -0.274 OA
ATOM     19  H5  4Q3 d   1      42.015 174.827   1.292  0.00  0.00     0.170 HD
BRANCH  17  20
ATOM     20  C21 4Q3 d   1      43.302 177.074   1.352  0.00  0.00    -0.002 C 
ATOM     21  H2  4Q3 d   1      42.203 177.040   1.345  0.00  0.00     0.040 H 
ATOM     22  H3  4Q3 d   1      43.657 177.626   0.469  0.00  0.00     0.040 H 
ATOM     23  H4  4Q3 d   1      43.647 177.581   2.265  0.00  0.00     0.040 H 
ENDBRANCH  17  20
ENDBRANCH  12  16
BRANCH  15  24
ATOM     24  C22 4Q3 d   1      42.085 170.028   0.595  0.00  0.00     0.028 C 
ATOM     25  H7  4Q3 d   1      42.660 169.097   0.709  0.00  0.00     0.074 H 
BRANCH  24  26
ATOM     26  C24 4Q3 d   1      41.639 170.238  -0.762  0.00  0.00    -0.056 C 
ATOM     27  H8  4Q3 d   1      41.007 169.394  -1.075  0.00  0.00     0.030 H 
ATOM     28  H9  4Q3 d   1      42.512 170.310  -1.428  0.00  0.00     0.030 H 
ATOM     29  H10 4Q3 d   1      41.058 171.171  -0.817  0.00  0.00     0.030 H 
ENDBRANCH  24  26
BRANCH  24  30
ATOM     30  C23 4Q3 d   1      40.863 170.045   1.541  0.00  0.00    -0.056 C 
ATOM     31  H11 4Q3 d   1      40.248 169.150   1.362  0.00  0.00     0.030 H 
ATOM     32  H12 4Q3 d   1      40.263 170.947   1.349  0.00  0.00     0.030 H 
ATOM     33  H13 4Q3 d   1      41.208 170.050   2.586  0.00  0.00     0.030 H 
ENDBRANCH  24  30
ENDBRANCH  15  24
ENDBRANCH   2  10
BRANCH   3  34
ATOM     34  N1  4Q3 d   1      47.144 168.317  -1.301  0.00  0.00    -0.378 N 
ATOM     35  C14 4Q3 d   1      47.372 166.908  -1.741  0.00  0.00    -0.001 C 
ATOM     36  C13 4Q3 d   1      48.067 167.165  -3.137  0.00  0.00    -0.033 A 
ATOM     37  H14 4Q3 d   1      46.426 166.357  -1.851  0.00  0.00     0.064 H 
ATOM     38  H15 4Q3 d   1      48.034 166.366  -1.049  0.00  0.00     0.064 H 
ATOM     39  C12 4Q3 d   1      49.361 167.993  -2.964  0.00  0.00    -0.055 A 
ATOM     40  C11 4Q3 d   1      48.066 168.634  -3.463  0.00  0.00    -0.033 A 
ATOM     41  H16 4Q3 d   1      47.937 166.362  -3.877  0.00  0.00     0.043 H 
ATOM     42  H17 4Q3 d   1      50.208 167.848  -3.651  0.00  0.00     0.034 H 
ATOM     43  H18 4Q3 d   1      49.741 168.223  -1.958  0.00  0.00     0.034 H 
ATOM     44  C10 4Q3 d   1      47.225 169.331  -2.401  0.00  0.00    -0.001 C 
ATOM     45  H19 4Q3 d   1      47.968 169.060  -4.473  0.00  0.00     0.043 H 
ATOM     46  H20 4Q3 d   1      47.716 170.252  -2.052  0.00  0.00     0.064 H 
ATOM     47  H21 4Q3 d   1      46.224 169.573  -2.788  0.00  0.00     0.064 H 
ENDBRANCH   3  34
BRANCH   6  48
ATOM     48  N   4Q3 d   1      47.646 166.832   1.236  0.00  0.00    -0.316 N 
ATOM     49  C   4Q3 d   1      47.184 165.664   1.574  0.00  0.00     0.262 C 
ATOM     50  O   4Q3 d   1      45.964 165.390   1.446  0.00  0.00    -0.267 OA
BRANCH  48  51
ATOM     51  C7  4Q3 d   1      49.034 167.164   1.026  0.00  0.00    -0.011 C 
ATOM     52  H24 4Q3 d   1      49.119 168.225   0.749  0.00  0.00     0.057 H 
ATOM     53  H25 4Q3 d   1      49.442 166.540   0.217  0.00  0.00     0.057 H 
ATOM     54  H26 4Q3 d   1      49.599 166.980   1.952  0.00  0.00     0.057 H 
ENDBRANCH  48  51
BRANCH  49  55
ATOM     55  C1  4Q3 d   1      48.179 164.680   2.138  0.00  0.00     0.092 A 
ATOM     56  C6  4Q3 d   1      48.603 164.631   3.555  0.00  0.00     0.133 A 
ATOM     57  F   4Q3 d   1      48.004 165.457   4.406  0.00  0.00    -0.205 F 
ATOM     58  C5  4Q3 d   1      49.526 163.700   3.979  0.00  0.00    -0.044 A 
ATOM     59  C4  4Q3 d   1      50.144 162.844   3.052  0.00  0.00    -0.078 A 
ATOM     60  H27 4Q3 d   1      49.776 163.628   5.031  0.00  0.00     0.088 H 
ATOM     61  C3  4Q3 d   1      49.794 162.846   1.731  0.00  0.00    -0.061 A 
ATOM     62  H28 4Q3 d   1      50.917 162.165   3.393  0.00  0.00     0.083 H 
ATOM     63  C2  4Q3 d   1      48.823 163.736   1.295  0.00  0.00     0.052 A 
ATOM     64  H29 4Q3 d   1      50.267 162.163   1.035  0.00  0.00     0.086 H 
ATOM     65 CL   4Q3 d   1      48.335 163.910  -0.376  0.00  0.00    -0.083 Cl
ENDBRANCH  49  55
ENDBRANCH   6  48
TORSDOF 10
