REMARK  9 active torsions:
REMARK  status: ('A' for Active; 'I' for Inactive)
REMARK    1  A    between atoms: C5_3  and  N12_12 
REMARK    2  A    between atoms: N2_5  and  C13_13 
REMARK    3  A    between atoms: N8_8  and  C26_26 
REMARK    4  A    between atoms: N12_12  and  C14_14 
REMARK    5  A    between atoms: C26_26  and  C27_27 
REMARK    6  A    between atoms: C31_31  and  O33_33 
REMARK    7  A    between atoms: O33_33  and  C34_34 
REMARK    8  A    between atoms: C34_34  and  C35_35 
REMARK    9  A    between atoms: C34_34  and  C36_36 
ROOT
ATOM      1  C1  4QA d   1      29.528  38.657   0.504  0.00  0.00     0.105 C 
ATOM      2  C3  4QA d   1      28.625  39.009  -1.656  0.00  0.00     0.351 C 
ATOM      3  C5  4QA d   1      28.234  37.935   0.156  0.00  0.00     0.135 C 
ATOM      4  C6  4QA d   1      30.666  37.671   0.753  0.00  0.00    -0.011 C 
ATOM      5  N2  4QA d   1      29.614  39.370  -0.755  0.00  0.00    -0.281 N 
ATOM      6  N4  4QA d   1      27.734  38.187  -1.026  0.00  0.00    -0.178 NA
ATOM      7  C7  4QA d   1      31.960  38.298   1.268  0.00  0.00     0.086 C 
ATOM      8  N8  4QA d   1      31.694  39.230   2.383  0.00  0.00    -0.067 N 
ATOM      9  C9  4QA d   1      30.530  40.186   2.282  0.00  0.00     0.086 C 
ATOM     10  C10 4QA d   1      29.264  39.569   1.697  0.00  0.00    -0.011 C 
ATOM     11  O11 4QA d   1      28.608  39.281  -2.851  0.00  0.00    -0.244 OA
ATOM     12  H1  4QA d   1      30.888  37.159  -0.195  0.00  0.00     0.039 H 
ATOM     13  H2  4QA d   1      30.324  36.935   1.496  0.00  0.00     0.039 H 
ATOM     14  H3  4QA d   1      32.444  38.849   0.448  0.00  0.00     0.076 H 
ATOM     15  H4  4QA d   1      32.631  37.500   1.619  0.00  0.00     0.076 H 
ATOM     16  H5  4QA d   1      31.349  38.593   3.084  0.00  0.00     0.280 HD
ATOM     17  H6  4QA d   1      30.830  41.029   1.642  0.00  0.00     0.076 H 
ATOM     18  H7  4QA d   1      30.299  40.556   3.292  0.00  0.00     0.076 H 
ATOM     19  H8  4QA d   1      28.768  38.980   2.483  0.00  0.00     0.039 H 
ATOM     20  H9  4QA d   1      28.598  40.382   1.373  0.00  0.00     0.039 H 
ENDROOT
BRANCH   3  21
ATOM     21  N12 4QA d   1      27.643  37.126   1.112  0.00  0.00    -0.371 N 
ATOM     22  H10 4QA d   1      28.054  37.066   2.054  0.00  0.00     0.161 HD
BRANCH  21  23
ATOM     23  C14 4QA d   1      26.446  36.360   0.797  0.00  0.00     0.011 C 
ATOM     24  C15 4QA d   1      26.856  34.932   0.471  0.00  0.00    -0.046 C 
ATOM     25  C16 4QA d   1      25.625  34.066   0.217  0.00  0.00    -0.063 C 
ATOM     26  H12 4QA d   1      27.422  34.516   1.317  0.00  0.00     0.035 H 
ATOM     27  H13 4QA d   1      27.489  34.934  -0.429  0.00  0.00     0.035 H 
ATOM     28  C17 4QA d   1      24.645  34.118   1.377  0.00  0.00    -0.065 C 
ATOM     29  H14 4QA d   1      25.947  33.025   0.070  0.00  0.00     0.033 H 
ATOM     30  H15 4QA d   1      25.119  34.425  -0.692  0.00  0.00     0.033 H 
ATOM     31  C18 4QA d   1      24.253  35.542   1.735  0.00  0.00    -0.063 C 
ATOM     32  H16 4QA d   1      25.111  33.648   2.255  0.00  0.00     0.033 H 
ATOM     33  H17 4QA d   1      23.738  33.560   1.100  0.00  0.00     0.033 H 
ATOM     34  C19 4QA d   1      25.497  36.392   1.986  0.00  0.00    -0.046 C 
ATOM     35  H18 4QA d   1      23.634  35.529   2.644  0.00  0.00     0.033 H 
ATOM     36  H19 4QA d   1      23.678  35.979   0.905  0.00  0.00     0.033 H 
ATOM     37  H20 4QA d   1      25.188  37.432   2.168  0.00  0.00     0.035 H 
ATOM     38  H21 4QA d   1      26.021  36.005   2.872  0.00  0.00     0.035 H 
ATOM     39  H11 4QA d   1      25.945  36.803  -0.076  0.00  0.00     0.072 H 
ENDBRANCH  21  23
ENDBRANCH   3  21
BRANCH   5  40
ATOM     40  C13 4QA d   1      30.583  40.336  -1.099  0.00  0.00     0.043 A 
ATOM     41  C20 4QA d   1      30.365  41.671  -0.809  0.00  0.00    -0.057 A 
ATOM     42  C21 4QA d   1      31.287  42.633  -1.168  0.00  0.00    -0.078 A 
ATOM     43  H22 4QA d   1      29.458  41.965  -0.293  0.00  0.00     0.086 H 
ATOM     44  C22 4QA d   1      32.397  42.270  -1.897  0.00  0.00    -0.046 A 
ATOM     45  H23 4QA d   1      31.138  43.667  -0.878  0.00  0.00     0.083 H 
ATOM     46  C23 4QA d   1      32.580  40.940  -2.226  0.00  0.00     0.118 A 
ATOM     47  H24 4QA d   1      33.118  43.017  -2.209  0.00  0.00     0.088 H 
ATOM     48  C24 4QA d   1      31.688  39.963  -1.837  0.00  0.00    -0.020 A 
ATOM     49  F25 4QA d   1      33.625  40.591  -2.960  0.00  0.00    -0.206 F 
ATOM     50  H25 4QA d   1      31.851  38.925  -2.105  0.00  0.00     0.091 H 
ENDBRANCH   5  40
BRANCH   8  51
ATOM     51  C26 4QA d   1      32.932  39.769   3.051  0.00  0.00     0.107 C 
ATOM     52  H26 4QA d   1      33.629  38.937   3.230  0.00  0.00     0.083 H 
ATOM     53  H27 4QA d   1      32.647  40.222   4.012  0.00  0.00     0.083 H 
BRANCH  51  54
ATOM     54  C27 4QA d   1      33.623  40.805   2.215  0.00  0.00    -0.030 A 
ATOM     55  C28 4QA d   1      34.570  40.472   1.274  0.00  0.00    -0.075 A 
ATOM     56  C29 4QA d   1      35.161  41.449   0.493  0.00  0.00    -0.080 A 
ATOM     57  H28 4QA d   1      34.856  39.434   1.143  0.00  0.00     0.084 H 
ATOM     58  C30 4QA d   1      34.801  42.773   0.664  0.00  0.00    -0.051 A 
ATOM     59  H29 4QA d   1      35.903  41.178  -0.249  0.00  0.00     0.083 H 
ATOM     60  C31 4QA d   1      33.856  43.111   1.613  0.00  0.00     0.069 A 
ATOM     61  H30 4QA d   1      35.259  43.544   0.055  0.00  0.00     0.087 H 
ATOM     62  C32 4QA d   1      33.274  42.123   2.386  0.00  0.00    -0.043 A 
ATOM     63  H31 4QA d   1      32.536  42.391   3.133  0.00  0.00     0.088 H 
BRANCH  60  64
ATOM     64  O33 4QA d   1      33.506  44.451   1.732  0.00  0.00    -0.347 OA
BRANCH  64  65
ATOM     65  C34 4QA d   1      32.345  44.620   2.568  0.00  0.00     0.038 C 
ATOM     66  H32 4QA d   1      31.832  43.659   2.720  0.00  0.00     0.082 H 
BRANCH  65  67
ATOM     67  C35 4QA d   1      32.826  45.160   3.886  0.00  0.00    -0.052 C 
ATOM     68  H33 4QA d   1      31.967  45.305   4.558  0.00  0.00     0.030 H 
ATOM     69  H34 4QA d   1      33.332  46.123   3.725  0.00  0.00     0.030 H 
ATOM     70  H35 4QA d   1      33.530  44.447   4.339  0.00  0.00     0.030 H 
ENDBRANCH  65  67
BRANCH  65  71
ATOM     71  C36 4QA d   1      31.410  45.600   1.874  0.00  0.00    -0.052 C 
ATOM     72  H36 4QA d   1      30.512  45.749   2.491  0.00  0.00     0.030 H 
ATOM     73  H37 4QA d   1      31.118  45.197   0.893  0.00  0.00     0.030 H 
ATOM     74  H38 4QA d   1      31.924  46.563   1.736  0.00  0.00     0.030 H 
ENDBRANCH  65  71
ENDBRANCH  64  65
ENDBRANCH  60  64
ENDBRANCH  51  54
ENDBRANCH   8  51
TORSDOF 9
