REMARK  10 active torsions:
REMARK  status: ('A' for Active; 'I' for Inactive)
REMARK    1  A    between atoms: N2_2  and  C13_13 
REMARK    2  A    between atoms: C5_5  and  N12_12 
REMARK    3  A    between atoms: N8_8  and  C26_26 
REMARK    4  A    between atoms: N12_12  and  C14_14 
REMARK    5  A    between atoms: C26_26  and  C27_27 
REMARK    6  A    between atoms: C31_31  and  O33_33 
REMARK    7  A    between atoms: O33_33  and  C34_34 
REMARK    8  A    between atoms: C34_34  and  C35_35 
REMARK    9  A    between atoms: C34_34  and  C36_36 
REMARK   10  A    between atoms: C35_35  and  N37_37 
ROOT
ATOM      1  C1  4QD d   1      29.388  38.376   0.451  0.00  0.00     0.105 A 
ATOM      2  N2  4QD d   1      29.482  39.089  -0.810  0.00  0.00    -0.281 N 
ATOM      3  C3  4QD d   1      28.499  38.739  -1.708  0.00  0.00     0.351 A 
ATOM      4  N4  4QD d   1      27.652  37.866  -1.102  0.00  0.00    -0.178 NA
ATOM      5  C5  4QD d   1      28.110  37.641   0.094  0.00  0.00     0.135 A 
ATOM      6  C6  4QD d   1      30.504  37.357   0.718  0.00  0.00    -0.011 C 
ATOM      7  C7  4QD d   1      31.797  37.990   1.224  0.00  0.00     0.086 C 
ATOM      8  N8  4QD d   1      31.517  38.869   2.404  0.00  0.00    -0.067 N 
ATOM      9  C9  4QD d   1      30.406  39.873   2.240  0.00  0.00     0.086 C 
ATOM     10  C10 4QD d   1      29.124  39.272   1.658  0.00  0.00    -0.011 C 
ATOM     11  O11 4QD d   1      28.410  39.117  -2.865  0.00  0.00    -0.244 OA
ATOM     12  H1  4QD d   1      30.721  36.824  -0.220  0.00  0.00     0.039 H 
ATOM     13  H2  4QD d   1      30.148  36.641   1.473  0.00  0.00     0.039 H 
ATOM     14  H3  4QD d   1      32.245  38.593   0.420  0.00  0.00     0.076 H 
ATOM     15  H4  4QD d   1      32.498  37.196   1.521  0.00  0.00     0.076 H 
ATOM     16  H5  4QD d   1      31.151  38.230   3.093  0.00  0.00     0.280 HD
ATOM     17  H6  4QD d   1      30.754  40.671   1.567  0.00  0.00     0.076 H 
ATOM     18  H7  4QD d   1      30.174  40.300   3.227  0.00  0.00     0.076 H 
ATOM     19  H8  4QD d   1      28.630  38.675   2.438  0.00  0.00     0.039 H 
ATOM     20  H9  4QD d   1      28.460  40.092   1.349  0.00  0.00     0.039 H 
ENDROOT
BRANCH   2  21
ATOM     21  C13 4QD d   1      30.459  40.038  -1.172  0.00  0.00     0.043 A 
ATOM     22  C20 4QD d   1      30.251  41.372  -0.880  0.00  0.00    -0.057 A 
ATOM     23  C21 4QD d   1      31.190  42.317  -1.234  0.00  0.00    -0.078 A 
ATOM     24  H22 4QD d   1      29.345  41.677  -0.370  0.00  0.00     0.086 H 
ATOM     25  C22 4QD d   1      32.314  41.938  -1.935  0.00  0.00    -0.046 A 
ATOM     26  H23 4QD d   1      31.044  43.356  -0.962  0.00  0.00     0.083 H 
ATOM     27  C23 4QD d   1      32.498  40.607  -2.246  0.00  0.00     0.118 A 
ATOM     28  H24 4QD d   1      33.046  42.678  -2.239  0.00  0.00     0.088 H 
ATOM     29  C24 4QD d   1      31.576  39.647  -1.887  0.00  0.00    -0.020 A 
ATOM     30  F25 4QD d   1      33.581  40.249  -2.935  0.00  0.00    -0.206 F 
ATOM     31  H25 4QD d   1      31.724  38.608  -2.159  0.00  0.00     0.091 H 
ENDBRANCH   2  21
BRANCH   5  32
ATOM     32  N12 4QD d   1      27.526  36.807   1.030  0.00  0.00    -0.371 N 
ATOM     33  H10 4QD d   1      27.997  36.649   1.932  0.00  0.00     0.161 HD
BRANCH  32  34
ATOM     34  C14 4QD d   1      26.257  36.149   0.760  0.00  0.00     0.011 C 
ATOM     35  C15 4QD d   1      26.494  34.690   0.405  0.00  0.00    -0.046 C 
ATOM     36  C16 4QD d   1      25.165  33.979   0.126  0.00  0.00    -0.063 C 
ATOM     37  H12 4QD d   1      27.001  34.192   1.244  0.00  0.00     0.035 H 
ATOM     38  H13 4QD d   1      27.128  34.635  -0.492  0.00  0.00     0.035 H 
ATOM     39  C17 4QD d   1      24.234  34.100   1.328  0.00  0.00    -0.065 C 
ATOM     40  H14 4QD d   1      25.359  32.915  -0.077  0.00  0.00     0.033 H 
ATOM     41  H15 4QD d   1      24.686  34.438  -0.751  0.00  0.00     0.033 H 
ATOM     42  C18 4QD d   1      24.008  35.564   1.678  0.00  0.00    -0.063 C 
ATOM     43  H16 4QD d   1      24.686  33.587   2.190  0.00  0.00     0.033 H 
ATOM     44  H17 4QD d   1      23.268  33.632   1.087  0.00  0.00     0.033 H 
ATOM     45  C19 4QD d   1      25.339  36.250   1.967  0.00  0.00    -0.046 C 
ATOM     46  H18 4QD d   1      23.365  35.629   2.568  0.00  0.00     0.033 H 
ATOM     47  H19 4QD d   1      23.516  36.068   0.833  0.00  0.00     0.033 H 
ATOM     48  H20 4QD d   1      25.158  37.310   2.198  0.00  0.00     0.035 H 
ATOM     49  H21 4QD d   1      25.818  35.764   2.829  0.00  0.00     0.035 H 
ATOM     50  H11 4QD d   1      25.774  36.648  -0.093  0.00  0.00     0.072 H 
ENDBRANCH  32  34
ENDBRANCH   5  32
BRANCH   8  51
ATOM     51  C26 4QD d   1      32.765  39.411   3.043  0.00  0.00     0.107 C 
ATOM     52  H26 4QD d   1      33.470  38.579   3.189  0.00  0.00     0.083 H 
ATOM     53  H27 4QD d   1      32.497  39.841   4.019  0.00  0.00     0.083 H 
BRANCH  51  54
ATOM     54  C27 4QD d   1      33.447  40.473   2.228  0.00  0.00    -0.030 A 
ATOM     55  C28 4QD d   1      34.403  40.151   1.277  0.00  0.00    -0.075 A 
ATOM     56  C29 4QD d   1      35.007  41.139   0.517  0.00  0.00    -0.080 A 
ATOM     57  H28 4QD d   1      34.681  39.114   1.127  0.00  0.00     0.084 H 
ATOM     58  C30 4QD d   1      34.636  42.457   0.707  0.00  0.00    -0.051 A 
ATOM     59  H29 4QD d   1      35.761  40.882  -0.218  0.00  0.00     0.083 H 
ATOM     60  C31 4QD d   1      33.678  42.784   1.653  0.00  0.00     0.069 A 
ATOM     61  H30 4QD d   1      35.097  43.238   0.113  0.00  0.00     0.087 H 
ATOM     62  C32 4QD d   1      33.091  41.794   2.420  0.00  0.00    -0.043 A 
ATOM     63  H31 4QD d   1      32.353  42.054   3.170  0.00  0.00     0.088 H 
BRANCH  60  64
ATOM     64  O33 4QD d   1      33.360  44.137   1.771  0.00  0.00    -0.345 OA
BRANCH  64  65
ATOM     65  C34 4QD d   1      32.487  44.478   2.865  0.00  0.00     0.064 C 
ATOM     66  H32 4QD d   1      31.668  43.750   2.966  0.00  0.00     0.086 H 
BRANCH  65  67
ATOM     67  C35 4QD d   1      31.964  45.873   2.567  0.00  0.00     0.103 C 
ATOM     68  H33 4QD d   1      32.808  46.553   2.381  0.00  0.00     0.079 H 
ATOM     69  H34 4QD d   1      31.379  46.240   3.423  0.00  0.00     0.079 H 
BRANCH  67  70
ATOM     70  N37 4QD d   1      31.101  45.806   1.364  0.00  0.00    -0.077 N 
ATOM     71  H38 4QD d   1      30.746  46.726   1.153  0.00  0.00     0.274 HD
ATOM     72  H39 4QD d   1      30.330  45.180   1.538  0.00  0.00     0.274 HD
ATOM     73  H40 4QD d   1      31.640  45.467   0.583  0.00  0.00     0.274 HD
ENDBRANCH  67  70
ENDBRANCH  65  67
BRANCH  65  74
ATOM     74  C36 4QD d   1      33.307  44.562   4.148  0.00  0.00    -0.050 C 
ATOM     75  H35 4QD d   1      32.647  44.822   4.989  0.00  0.00     0.031 H 
ATOM     76  H36 4QD d   1      34.082  45.335   4.038  0.00  0.00     0.031 H 
ATOM     77  H37 4QD d   1      33.783  43.590   4.343  0.00  0.00     0.031 H 
ENDBRANCH  65  74
ENDBRANCH  64  65
ENDBRANCH  60  64
ENDBRANCH  51  54
ENDBRANCH   8  51
TORSDOF 10
