REMARK  6 active torsions:
REMARK  status: ('A' for Active; 'I' for Inactive)
REMARK    1  A    between atoms: C4_3  and  C33_33 
REMARK    2  A    between atoms: N19_22  and  C7_6 
REMARK    3  A    between atoms: N10_19  and  C12_8 
REMARK    4  A    between atoms: C20_14  and  N19_22 
REMARK    5  A    between atoms: N3_17  and  C26_26 
REMARK    6  A    between atoms: C26_26  and  C27_27 
ROOT
ATOM      1  C1  4QF d   1      29.229  39.619   1.566  0.00  0.00    -0.011 C 
ATOM      2  C2  4QF d   1      30.506  40.214   2.145  0.00  0.00     0.087 C 
ATOM      3  C4  4QF d   1      31.863  38.223   1.303  0.00  0.00     0.103 C 
ATOM      4  C5  4QF d   1      30.570  37.590   0.812  0.00  0.00    -0.008 C 
ATOM      5  C6  4QF d   1      29.499  38.622   0.445  0.00  0.00     0.105 A 
ATOM      6  C7  4QF d   1      28.210  37.883   0.115  0.00  0.00     0.135 A 
ATOM      7  C9  4QF d   1      28.652  38.863  -1.753  0.00  0.00     0.351 A 
ATOM      8  N3  4QF d   1      31.597  39.201   2.410  0.00  0.00    -0.063 N 
ATOM      9  N8  4QF d   1      27.780  38.051  -1.101  0.00  0.00    -0.178 NA
ATOM     10  N10 4QF d   1      29.652  39.239  -0.870  0.00  0.00    -0.281 N 
ATOM     11  O11 4QF d   1      28.537  39.176  -2.932  0.00  0.00    -0.244 OA
ATOM     12  H1  4QF d   1      28.609  40.436   1.168  0.00  0.00     0.039 H 
ATOM     13  H2  4QF d   1      28.684  39.104   2.371  0.00  0.00     0.039 H 
ATOM     14  H3  4QF d   1      30.256  40.709   3.095  0.00  0.00     0.076 H 
ATOM     15  H4  4QF d   1      30.892  40.959   1.434  0.00  0.00     0.076 H 
ATOM     16  H5  4QF d   1      32.312  38.776   0.465  0.00  0.00     0.084 H 
ATOM     17  H6  4QF d   1      30.174  36.941   1.607  0.00  0.00     0.040 H 
ATOM     18  H7  4QF d   1      30.793  36.984  -0.079  0.00  0.00     0.040 H 
ATOM     19  H17 4QF d   1      31.227  38.626   3.151  0.00  0.00     0.280 HD
ENDROOT
BRANCH   6  20
ATOM     20  N19 4QF d   1      27.574  37.123   1.086  0.00  0.00    -0.371 N 
ATOM     21  H18 4QF d   1      27.989  37.064   2.027  0.00  0.00     0.161 HD
BRANCH  20  22
ATOM     22  C20 4QF d   1      26.333  36.404   0.813  0.00  0.00     0.011 C 
ATOM     23  C21 4QF d   1      25.402  36.451   2.020  0.00  0.00    -0.046 C 
ATOM     24  C22 4QF d   1      24.100  35.687   1.743  0.00  0.00    -0.063 C 
ATOM     25  H13 4QF d   1      25.162  37.500   2.248  0.00  0.00     0.035 H 
ATOM     26  H14 4QF d   1      25.909  35.995   2.883  0.00  0.00     0.035 H 
ATOM     27  C23 4QF d   1      24.381  34.248   1.324  0.00  0.00    -0.065 C 
ATOM     28  H15 4QF d   1      23.551  36.195   0.936  0.00  0.00     0.033 H 
ATOM     29  H16 4QF d   1      23.487  35.681   2.656  0.00  0.00     0.033 H 
ATOM     30  C24 4QF d   1      25.328  34.207   0.131  0.00  0.00    -0.063 C 
ATOM     31  H19 4QF d   1      23.434  33.761   1.049  0.00  0.00     0.033 H 
ATOM     32  H20 4QF d   1      24.839  33.710   2.167  0.00  0.00     0.033 H 
ATOM     33  C25 4QF d   1      26.631  34.963   0.422  0.00  0.00    -0.046 C 
ATOM     34  H21 4QF d   1      24.832  34.669  -0.735  0.00  0.00     0.033 H 
ATOM     35  H22 4QF d   1      25.567  33.158  -0.100  0.00  0.00     0.033 H 
ATOM     36  H23 4QF d   1      27.162  34.466   1.247  0.00  0.00     0.035 H 
ATOM     37  H24 4QF d   1      27.263  34.955  -0.478  0.00  0.00     0.035 H 
ATOM     38  H12 4QF d   1      25.828  36.895  -0.032  0.00  0.00     0.072 H 
ENDBRANCH  20  22
ENDBRANCH   6  20
BRANCH  10  39
ATOM     39  C12 4QF d   1      30.688  40.105  -1.300  0.00  0.00     0.043 A 
ATOM     40  C13 4QF d   1      30.603  41.473  -1.100  0.00  0.00    -0.057 A 
ATOM     41  C14 4QF d   1      31.610  42.304  -1.548  0.00  0.00    -0.078 A 
ATOM     42  H8  4QF d   1      29.743  41.892  -0.590  0.00  0.00     0.086 H 
ATOM     43  C15 4QF d   1      32.697  41.788  -2.236  0.00  0.00    -0.046 A 
ATOM     44  H9  4QF d   1      31.550  43.370  -1.360  0.00  0.00     0.083 H 
ATOM     45  C16 4QF d   1      32.763  40.429  -2.452  0.00  0.00     0.118 A 
ATOM     46  H10 4QF d   1      33.482  42.443  -2.598  0.00  0.00     0.088 H 
ATOM     47  C17 4QF d   1      31.765  39.591  -1.999  0.00  0.00    -0.020 A 
ATOM     48  F18 4QF d   1      33.796  39.904  -3.138  0.00  0.00    -0.206 F 
ATOM     49  H11 4QF d   1      31.825  38.526  -2.192  0.00  0.00     0.091 H 
ENDBRANCH  10  39
BRANCH   3  50
ATOM     50  C33 4QF d   1      32.845  37.152   1.736  0.00  0.00    -0.049 C 
ATOM     51  H32 4QF d   1      33.017  36.454   0.903  0.00  0.00     0.030 H 
ATOM     52  H33 4QF d   1      32.433  36.603   2.596  0.00  0.00     0.030 H 
ATOM     53  H34 4QF d   1      33.797  37.622   2.023  0.00  0.00     0.030 H 
ENDBRANCH   3  50
BRANCH   8  54
ATOM     54  C26 4QF d   1      32.828  39.840   3.012  0.00  0.00     0.107 C 
ATOM     55  H25 4QF d   1      33.555  39.041   3.221  0.00  0.00     0.083 H 
ATOM     56  H26 4QF d   1      32.531  40.322   3.955  0.00  0.00     0.083 H 
BRANCH  54  57
ATOM     57  C27 4QF d   1      33.513  40.877   2.158  0.00  0.00    -0.033 A 
ATOM     58  C28 4QF d   1      34.464  40.501   1.225  0.00  0.00    -0.075 A 
ATOM     59  C29 4QF d   1      35.092  41.445   0.428  0.00  0.00    -0.082 A 
ATOM     60  H27 4QF d   1      34.721  39.454   1.116  0.00  0.00     0.084 H 
ATOM     61  C30 4QF d   1      34.743  42.775   0.556  0.00  0.00    -0.083 A 
ATOM     62  H28 4QF d   1      35.848  41.143  -0.287  0.00  0.00     0.083 H 
ATOM     63  C31 4QF d   1      33.798  43.171   1.491  0.00  0.00    -0.082 A 
ATOM     64  H29 4QF d   1      35.212  43.517  -0.080  0.00  0.00     0.083 H 
ATOM     65  C32 4QF d   1      33.195  42.221   2.296  0.00  0.00    -0.075 A 
ATOM     66  H30 4QF d   1      33.534  44.218   1.590  0.00  0.00     0.083 H 
ATOM     67  H31 4QF d   1      32.469  42.529   3.040  0.00  0.00     0.084 H 
ENDBRANCH  54  57
ENDBRANCH   8  54
TORSDOF 6
