REMARK  2 active torsions:
REMARK  status: ('A' for Active; 'I' for Inactive)
REMARK    1  A    between atoms: C3_3  and  N15_15 
REMARK    2  A    between atoms: C6_6  and  N16_16 
ROOT
ATOM      1  C1  PRL d   1     169.900-110.316-113.503  0.00  0.00    -0.069 A 
ATOM      2  C2  PRL d   1     168.999-111.308-113.862  0.00  0.00    -0.057 A 
ATOM      3  C3  PRL d   1     168.984-112.516-113.165  0.00  0.00     0.028 A 
ATOM      4  C4  PRL d   1     169.865-112.730-112.113  0.00  0.00    -0.029 A 
ATOM      5  C5  PRL d   1     173.365-111.211-109.347  0.00  0.00    -0.029 A 
ATOM      6  C6  PRL d   1     174.260-110.224-108.980  0.00  0.00     0.028 A 
ATOM      7  C7  PRL d   1     174.293-109.018-109.658  0.00  0.00    -0.057 A 
ATOM      8  C8  PRL d   1     173.420-108.789-110.707  0.00  0.00    -0.069 A 
ATOM      9  C9  PRL d   1     171.660-109.556-112.094  0.00  0.00    -0.059 A 
ATOM     10  N10 PRL d   1     171.615-111.950-110.744  0.00  0.00    -0.247 NA
ATOM     11  C11 PRL d   1     170.756-111.735-111.762  0.00  0.00     0.070 A 
ATOM     12  C12 PRL d   1     172.517-109.777-111.070  0.00  0.00    -0.006 A 
ATOM     13  C13 PRL d   1     170.778-110.531-112.449  0.00  0.00    -0.006 A 
ATOM     14  C14 PRL d   1     172.493-110.982-110.393  0.00  0.00     0.070 A 
ATOM     15  H1  PRL d   1     169.918-109.376-114.043  0.00  0.00     0.085 H 
ATOM     16  H2  PRL d   1     168.309-111.145-114.682  0.00  0.00     0.086 H 
ATOM     17  H3  PRL d   1     169.853-113.669-111.572  0.00  0.00     0.090 H 
ATOM     18  H4  PRL d   1     173.348-112.157-108.818  0.00  0.00     0.090 H 
ATOM     19  H5  PRL d   1     175.003-108.252-109.367  0.00  0.00     0.086 H 
ATOM     20  H6  PRL d   1     173.442-107.846-111.240  0.00  0.00     0.085 H 
ATOM     21  H7  PRL d   1     171.675-108.612-112.626  0.00  0.00     0.086 H 
ENDROOT
BRANCH   3  22
ATOM     22  N15 PRL d   1     168.066-113.543-113.529  0.00  0.00    -0.399 N 
ATOM     23  H8  PRL d   1     167.409-113.394-114.308  0.00  0.00     0.156 HD
ATOM     24  H9  PRL d   1     168.060-114.435-113.013  0.00  0.00     0.156 HD
ENDBRANCH   3  22
BRANCH   6  25
ATOM     25  N16 PRL d   1     175.161-110.453-107.916  0.00  0.00    -0.399 N 
ATOM     26  H10 PRL d   1     175.141-111.349-107.408  0.00  0.00     0.156 HD
ATOM     27  H11 PRL d   1     175.838-109.724-107.648  0.00  0.00     0.156 HD
ENDBRANCH   6  25
TORSDOF 2
