REMARK  10 active torsions:
REMARK  status: ('A' for Active; 'I' for Inactive)
REMARK    1  A    between atoms: C11_14  and  N12_1 
REMARK    2  A    between atoms: C11_14  and  C13_2 
REMARK    3  A    between atoms: C03_6  and  C02_5 
REMARK    4  A    between atoms: C03_6  and  C04_7 
REMARK    5  A    between atoms: C05_8  and  C03_6 
REMARK    6  A    between atoms: C06_9  and  C05_8 
REMARK    7  A    between atoms: C07_10  and  C06_9 
REMARK    8  A    between atoms: C06_9  and  C19_18 
REMARK    9  A    between atoms: P08_11  and  C07_10 
REMARK   10  A    between atoms: P08_11  and  C11_14 
ROOT
ATOM      1  C07 4QP d   1      14.589  11.025  12.265  0.00  0.00     0.022 C 
ATOM      2  H16 4QP d   1      15.043  11.841  12.846  0.00  0.00     0.050 H 
ATOM      3  H17 4QP d   1      14.207  10.255  12.951  0.00  0.00     0.050 H 
ENDROOT
BRANCH   1   4
ATOM      4  C06 4QP d   1      15.662  10.401  11.388  0.00  0.00     0.040 C 
ATOM      5  H15 4QP d   1      16.272  11.230  11.000  0.00  0.00     0.057 H 
BRANCH   4   6
ATOM      6  C05 4QP d   1      15.188   9.627  10.163  0.00  0.00    -0.049 C 
ATOM      7  H13 4QP d   1      14.380   8.948  10.473  0.00  0.00     0.034 H 
ATOM      8  H14 4QP d   1      14.800  10.347   9.427  0.00  0.00     0.034 H 
BRANCH   6   9
ATOM      9  C03 4QP d   1      16.283   8.797   9.493  0.00  0.00    -0.060 C 
ATOM     10  H9  4QP d   1      16.955   8.443  10.289  0.00  0.00     0.038 H 
BRANCH   9  11
ATOM     11  C02 4QP d   1      17.117   9.581   8.502  0.00  0.00    -0.073 C 
ATOM     12  H6  4QP d   1      17.880   8.922   8.062  0.00  0.00     0.028 H 
ATOM     13  H7  4QP d   1      17.609  10.418   9.018  0.00  0.00     0.028 H 
ATOM     14  H8  4QP d   1      16.468   9.973   7.705  0.00  0.00     0.028 H 
ENDBRANCH   9  11
BRANCH   9  15
ATOM     15  C04 4QP d   1      15.704   7.587   8.793  0.00  0.00    -0.073 C 
ATOM     16  H10 4QP d   1      15.095   7.009   9.504  0.00  0.00     0.028 H 
ATOM     17  H11 4QP d   1      16.522   6.957   8.413  0.00  0.00     0.028 H 
ATOM     18  H12 4QP d   1      15.074   7.916   7.953  0.00  0.00     0.028 H 
ENDBRANCH   9  15
ENDBRANCH   6   9
ENDBRANCH   4   6
BRANCH   4  19
ATOM     19  C19 4QP d   1      16.543   9.564  12.273  0.00  0.00     0.177 C 
ATOM     20  O20 4QP d   1      17.763   9.825  12.296  0.00  0.00    -0.648 OA
ATOM     21  O21 4QP d   1      16.050   8.636  12.979  0.00  0.00    -0.648 OA
ENDBRANCH   4  19
ENDBRANCH   1   4
BRANCH   1  22
ATOM     22  P08 4QP d   1      13.197  11.696  11.321  0.00  0.00     0.142 P 
ATOM     23  O09 4QP d   1      12.270  10.500  10.858  0.00  0.00    -0.666 OA
ATOM     24  O10 4QP d   1      13.654  12.427  10.132  0.00  0.00    -0.666 OA
BRANCH  22  25
ATOM     25  C11 4QP d   1      12.294  12.888  12.361  0.00  0.00     0.198 C 
ATOM     26  H18 4QP d   1      12.670  13.898  12.139  0.00  0.00     0.108 H 
BRANCH  25  27
ATOM     27  N12 4QP d   1      10.918  12.817  11.981  0.00  0.00    -0.061 N 
ATOM     28  H1  4QP d   1      10.382  13.465  12.537  0.00  0.00     0.275 HD
ATOM     29  H2  4QP d   1      10.575  11.881  12.133  0.00  0.00     0.275 HD
ATOM     30  H3  4QP d   1      10.826  13.055  11.006  0.00  0.00     0.275 HD
ENDBRANCH  25  27
BRANCH  25  31
ATOM     31  C13 4QP d   1      12.484  12.646  13.851  0.00  0.00    -0.018 A 
ATOM     32  C14 4QP d   1      11.684  11.725  14.521  0.00  0.00    -0.074 A 
ATOM     33  C15 4QP d   1      11.845  11.514  15.883  0.00  0.00    -0.082 A 
ATOM     34  H19 4QP d   1      10.930  11.169  13.975  0.00  0.00     0.084 H 
ATOM     35  C16 4QP d   1      12.810  12.222  16.583  0.00  0.00    -0.083 A 
ATOM     36  H4  4QP d   1      11.217  10.797  16.399  0.00  0.00     0.083 H 
ATOM     37  C17 4QP d   1      13.605  13.150  15.918  0.00  0.00    -0.082 A 
ATOM     38  H20 4QP d   1      12.945  12.053  17.645  0.00  0.00     0.083 H 
ATOM     39  C18 4QP d   1      13.444  13.355  14.554  0.00  0.00    -0.074 A 
ATOM     40  H5  4QP d   1      14.351  13.714  16.465  0.00  0.00     0.083 H 
ATOM     41  H21 4QP d   1      14.072  14.072  14.038  0.00  0.00     0.084 H 
ENDBRANCH  25  31
ENDBRANCH  22  25
ENDBRANCH   1  22
TORSDOF 10
