REMARK  2 active torsions:
REMARK  status: ('A' for Active; 'I' for Inactive)
REMARK    1  A    between atoms: CAG_6  and  OAH_7 
REMARK    2  A    between atoms: NAC_11  and  CAL_12 
ROOT
ATOM      1  OAA 4QV d   1      -3.753  32.458  -9.208  0.00  0.00    -0.246 OA
ATOM      2  CAB 4QV d   1      -4.610  31.652  -8.833  0.00  0.00     0.346 A 
ATOM      3  NAK 4QV d   1      -5.298  30.848  -9.628  0.00  0.00    -0.306 N 
ATOM      4  CAJ 4QV d   1      -6.124  30.131  -8.864  0.00  0.00     0.067 A 
ATOM      5  CAI 4QV d   1      -7.026  29.179  -9.192  0.00  0.00    -0.023 A 
ATOM      6  CAG 4QV d   1      -7.798  28.553  -8.206  0.00  0.00     0.068 A 
ATOM      7  CAF 4QV d   1      -7.597  28.945  -6.884  0.00  0.00    -0.049 A 
ATOM      8  CAE 4QV d   1      -6.649  29.934  -6.601  0.00  0.00    -0.051 A 
ATOM      9  CAD 4QV d   1      -5.930  30.513  -7.584  0.00  0.00     0.088 A 
ATOM     10  NAC 4QV d   1      -4.987  31.476  -7.572  0.00  0.00    -0.092 N 
ATOM     11  H1  4QV d   1      -5.214  30.789 -10.623  0.00  0.00     0.171 HD
ATOM     12  H2  4QV d   1      -7.153  28.897 -10.231  0.00  0.00     0.091 H 
ATOM     13  H4  4QV d   1      -8.169  28.489  -6.084  0.00  0.00     0.087 H 
ATOM     14  H5  4QV d   1      -6.490  30.240  -5.574  0.00  0.00     0.087 H 
ENDROOT
BRANCH  10  15
ATOM     15  CAL 4QV d   1      -4.464  32.140  -6.517  0.00  0.00     0.716 A 
ATOM     16  NAM 4QV d   1      -4.644  31.822  -5.230  0.00  0.00    -0.062 NA
ATOM     17  CAN 4QV d   1      -3.963  32.702  -4.502  0.00  0.00     0.103 A 
ATOM     18  CAT 4QV d   1      -3.829  32.808  -3.180  0.00  0.00    -0.052 A 
ATOM     19  CAO 4QV d   1      -3.354  33.559  -5.345  0.00  0.00     0.078 A 
ATOM     20  CAS 4QV d   1      -3.041  33.824  -2.642  0.00  0.00    -0.081 A 
ATOM     21  H6  4QV d   1      -4.332  32.106  -2.525  0.00  0.00     0.087 H 
ATOM     22  CAR 4QV d   1      -2.408  34.712  -3.505  0.00  0.00    -0.081 A 
ATOM     23  H7  4QV d   1      -2.924  33.920  -1.569  0.00  0.00     0.083 H 
ATOM     24  CAQ 4QV d   1      -2.587  34.550  -4.878  0.00  0.00    -0.054 A 
ATOM     25  H8  4QV d   1      -1.789  35.513  -3.118  0.00  0.00     0.083 H 
ATOM     26  H9  4QV d   1      -2.103  35.230  -5.570  0.00  0.00     0.087 H 
ATOM     27  NAP 4QV d   1      -3.666  33.213  -6.596  0.00  0.00    -0.187 N 
ATOM     28  H10 4QV d   1      -3.353  33.682  -7.458  0.00  0.00     0.184 HD
ENDBRANCH  10  15
BRANCH   6  29
ATOM     29  OAH 4QV d   1      -8.724  27.591  -8.512  0.00  0.00    -0.361 OA
ATOM     30  H3  4QV d   1      -9.142  27.290  -7.714  0.00  0.00     0.217 HD
ENDBRANCH   6  29
TORSDOF 2
