REMARK  4 active torsions:
REMARK  status: ('A' for Active; 'I' for Inactive)
REMARK    1  A    between atoms: C1_1  and  O1_2 
REMARK    2  A    between atoms: C6_8  and  O3_9 
REMARK    3  A    between atoms: C10_13  and  C14_17 
REMARK    4  A    between atoms: C19_22  and  C20_23 
ROOT
ATOM      1  C1  FLU d   1     173.703   3.019  33.927  0.00  0.00     0.068 A 
ATOM      2  C2  FLU d   1     173.192   3.490  32.735  0.00  0.00    -0.018 A 
ATOM      3  C3  FLU d   1     173.545   4.744  32.274  0.00  0.00     0.086 A 
ATOM      4  O2  FLU d   1     173.007   5.148  31.070  0.00  0.00    -0.309 OA
ATOM      5  C4  FLU d   1     173.320   6.384  30.582  0.00  0.00     0.086 A 
ATOM      6  C5  FLU d   1     172.740   6.722  29.379  0.00  0.00    -0.018 A 
ATOM      7  C6  FLU d   1     173.012   7.955  28.811  0.00  0.00     0.068 A 
ATOM      8  C7  FLU d   1     173.870   8.836  29.471  0.00  0.00    -0.050 A 
ATOM      9  C8  FLU d   1     174.458   8.487  30.688  0.00  0.00    -0.070 A 
ATOM     10  C9  FLU d   1     174.186   7.246  31.276  0.00  0.00    -0.011 A 
ATOM     11  C10 FLU d   1     174.754   6.851  32.513  0.00  0.00     0.029 A 
ATOM     12  C11 FLU d   1     174.412   5.571  33.000  0.00  0.00    -0.011 A 
ATOM     13  C12 FLU d   1     174.909   5.083  34.209  0.00  0.00    -0.070 A 
ATOM     14  C13 FLU d   1     174.562   3.816  34.663  0.00  0.00    -0.050 A 
ATOM     15  H2  FLU d   1     172.511   2.874  32.158  0.00  0.00     0.092 H 
ATOM     16  H3  FLU d   1     172.075   6.027  28.880  0.00  0.00     0.092 H 
ATOM     17  H5  FLU d   1     174.083   9.804  29.033  0.00  0.00     0.087 H 
ATOM     18  H6  FLU d   1     175.129   9.181  31.181  0.00  0.00     0.084 H 
ATOM     19  H7  FLU d   1     175.694   6.515  32.050  0.00  0.00     0.062 H 
ATOM     20  H8  FLU d   1     175.574   5.700  34.802  0.00  0.00     0.084 H 
ATOM     21  H9  FLU d   1     174.967   3.450  35.600  0.00  0.00     0.087 H 
ENDROOT
BRANCH  11  22
ATOM     22  C14 FLU d   1     175.405   7.741  33.372  0.00  0.00    -0.028 A 
ATOM     23  C15 FLU d   1     174.683   8.766  33.994  0.00  0.00    -0.075 A 
ATOM     24  C16 FLU d   1     175.295   9.664  34.878  0.00  0.00    -0.082 A 
ATOM     25  H10 FLU d   1     173.624   8.867  33.786  0.00  0.00     0.084 H 
ATOM     26  C17 FLU d   1     176.652   9.549  35.179  0.00  0.00    -0.082 A 
ATOM     27  H11 FLU d   1     174.709  10.455  35.332  0.00  0.00     0.083 H 
ATOM     28  C18 FLU d   1     177.386   8.534  34.576  0.00  0.00    -0.066 A 
ATOM     29  H12 FLU d   1     177.125  10.238  35.870  0.00  0.00     0.083 H 
ATOM     30  C19 FLU d   1     176.771   7.642  33.684  0.00  0.00     0.048 A 
ATOM     31  H13 FLU d   1     178.442   8.431  34.797  0.00  0.00     0.085 H 
BRANCH  30  32
ATOM     32  C20 FLU d   1     177.621   6.589  33.079  0.00  0.00     0.209 C 
ATOM     33  O4  FLU d   1     177.510   6.306  31.875  0.00  0.00    -0.644 OA
ATOM     34  O5  FLU d   1     178.451   5.985  33.782  0.00  0.00    -0.644 OA
ENDBRANCH  30  32
ENDBRANCH  11  22
BRANCH   7  35
ATOM     35  O3  FLU d   1     172.442   8.272  27.642  0.00  0.00    -0.361 OA
ATOM     36  H4  FLU d   1     171.497   8.257  27.737  0.00  0.00     0.217 HD
ENDBRANCH   7  35
BRANCH   1  37
ATOM     37  O1  FLU d   1     173.358   1.809  34.355  0.00  0.00    -0.361 OA
ATOM     38  H1  FLU d   1     173.789   1.632  35.183  0.00  0.00     0.217 HD
ENDBRANCH   1  37
TORSDOF 4
