REMARK  5 active torsions:
REMARK  status: ('A' for Active; 'I' for Inactive)
REMARK    1  A    between atoms: C17_2  and  C18_4 
REMARK    2  A    between atoms: C20_6  and  N1_7 
REMARK    3  A    between atoms: C14_10  and  C1_11 
REMARK    4  A    between atoms: C10_15  and  O3_16 
REMARK    5  A    between atoms: C5_25  and  O1_26 
ROOT
ATOM      1  C1  A4F d   1     174.407   6.760  32.583  0.00  0.00     0.029 A 
ATOM      2  C13 A4F d   1     173.807   7.210  31.376  0.00  0.00    -0.011 A 
ATOM      3  C12 A4F d   1     174.111   8.445  30.792  0.00  0.00    -0.070 A 
ATOM      4  C11 A4F d   1     173.488   8.847  29.604  0.00  0.00    -0.050 A 
ATOM      5  C10 A4F d   1     172.548   8.025  28.981  0.00  0.00     0.068 A 
ATOM      6  C9  A4F d   1     172.244   6.802  29.552  0.00  0.00    -0.018 A 
ATOM      7  C8  A4F d   1     172.865   6.406  30.723  0.00  0.00     0.086 A 
ATOM      8  O2  A4F d   1     172.508   5.181  31.236  0.00  0.00    -0.309 OA
ATOM      9  C2  A4F d   1     174.030   5.494  33.087  0.00  0.00    -0.011 A 
ATOM     10  C7  A4F d   1     173.083   4.717  32.410  0.00  0.00     0.086 A 
ATOM     11  C6  A4F d   1     172.700   3.469  32.901  0.00  0.00    -0.018 A 
ATOM     12  C3  A4F d   1     174.576   4.978  34.276  0.00  0.00    -0.070 A 
ATOM     13  C4  A4F d   1     174.200   3.728  34.753  0.00  0.00    -0.050 A 
ATOM     14  C5  A4F d   1     173.260   2.973  34.074  0.00  0.00     0.068 A 
ATOM     15  H6  A4F d   1     175.323   6.404  32.089  0.00  0.00     0.062 H 
ATOM     16  H7  A4F d   1     174.837   9.097  31.264  0.00  0.00     0.084 H 
ATOM     17  H8  A4F d   1     173.738   9.806  29.164  0.00  0.00     0.087 H 
ATOM     18  H10 A4F d   1     171.517   6.152  29.080  0.00  0.00     0.092 H 
ATOM     19  H11 A4F d   1     171.962   2.882  32.366  0.00  0.00     0.092 H 
ATOM     20  H12 A4F d   1     175.301   5.564  34.829  0.00  0.00     0.084 H 
ATOM     21  H13 A4F d   1     174.646   3.342  35.663  0.00  0.00     0.087 H 
ENDROOT
BRANCH   1  22
ATOM     22  C14 A4F d   1     175.078   7.610  33.454  0.00  0.00    -0.028 A 
ATOM     23  C18 A4F d   1     176.436   7.445  33.772  0.00  0.00     0.050 A 
ATOM     24  C19 A4F d   1     177.085   8.287  34.674  0.00  0.00    -0.041 A 
ATOM     25  C20 A4F d   1     176.383   9.315  35.290  0.00  0.00     0.026 A 
ATOM     26  H1  A4F d   1     178.136   8.139  34.894  0.00  0.00     0.088 H 
ATOM     27  C16 A4F d   1     175.036   9.489  34.992  0.00  0.00    -0.057 A 
ATOM     28  C15 A4F d   1     174.390   8.640  34.091  0.00  0.00    -0.073 A 
ATOM     29  H4  A4F d   1     174.482  10.292  35.464  0.00  0.00     0.086 H 
ATOM     30  H5  A4F d   1     173.336   8.785  33.884  0.00  0.00     0.084 H 
BRANCH  23  31
ATOM     31  C17 A4F d   1     177.219   6.364  33.149  0.00  0.00     0.210 C 
ATOM     32  O5  A4F d   1     177.839   5.548  33.872  0.00  0.00    -0.644 OA
ATOM     33  O4  A4F d   1     177.226   6.282  31.904  0.00  0.00    -0.644 OA
ENDBRANCH  23  31
BRANCH  25  34
ATOM     34  N1  A4F d   1     176.983  10.123  36.149  0.00  0.00    -0.399 N 
ATOM     35  H2  A4F d   1     176.452  10.882  36.599  0.00  0.00     0.156 HD
ATOM     36  H3  A4F d   1     177.981   9.993  36.367  0.00  0.00     0.156 HD
ENDBRANCH  25  34
ENDBRANCH   1  22
BRANCH   5  37
ATOM     37  O3  A4F d   1     171.930   8.390  27.851  0.00  0.00    -0.361 OA
ATOM     38  H9  A4F d   1     171.331   7.703  27.583  0.00  0.00     0.217 HD
ENDBRANCH   5  37
BRANCH  14  39
ATOM     39  O1  A4F d   1     172.905   1.782  34.554  0.00  0.00    -0.361 OA
ATOM     40  H14 A4F d   1     172.257   1.391  33.980  0.00  0.00     0.217 HD
ENDBRANCH  14  39
TORSDOF 5
