REMARK  19 active torsions:
REMARK  status: ('A' for Active; 'I' for Inactive)
REMARK    1  A    between atoms: O6'_1  and  C6'_2 
REMARK    2  A    between atoms: C6'_2  and  C5'_3 
REMARK    3  A    between atoms: C4'_4  and  O4'_5 
REMARK    4  A    between atoms: C3'_6  and  O3'_7 
REMARK    5  A    between atoms: C2'_9  and  C1'_10 
REMARK    6  A    between atoms: C2'_9  and  O1_12 
REMARK    7  A    between atoms: C1'_10  and  O1'_11 
REMARK    8  A    between atoms: O1_12  and  C1_13 
REMARK    9  A    between atoms: C2_14  and  O2_15 
REMARK   10  A    between atoms: C3_16  and  O3_17 
REMARK   11  A    between atoms: C4_18  and  O4_19 
REMARK   12  A    between atoms: C5_20  and  C6_22 
REMARK   13  A    between atoms: C6_22  and  O6_23 
REMARK   14  A    between atoms: O6_23  and  C1X_24 
REMARK   15  A    between atoms: C5X_26  and  C6X_27 
REMARK   16  A    between atoms: C6X_27  and  O6X_28 
REMARK   17  A    between atoms: C4X_29  and  O4X_30 
REMARK   18  A    between atoms: C3X_31  and  O3X_32 
REMARK   19  A    between atoms: C2X_33  and  O2X_34 
ROOT
ATOM      1  C1  RAF d   1      -4.241  27.928  55.948  0.00  0.00     0.162 C 
ATOM      2  C2  RAF d   1      -3.873  28.250  57.375  0.00  0.00     0.110 C 
ATOM      3  C3  RAF d   1      -2.894  29.357  57.372  0.00  0.00     0.092 C 
ATOM      4  C4  RAF d   1      -1.639  28.930  56.690  0.00  0.00     0.090 C 
ATOM      5  C5  RAF d   1      -1.889  28.380  55.306  0.00  0.00     0.089 C 
ATOM      6  O5  RAF d   1      -3.021  27.483  55.284  0.00  0.00    -0.348 OA
ATOM      7  H12 RAF d   1      -4.992  27.125  55.923  0.00  0.00     0.133 H 
ATOM      8  H13 RAF d   1      -3.418  27.368  57.849  0.00  0.00     0.094 H 
ATOM      9  H15 RAF d   1      -3.331  30.218  56.846  0.00  0.00     0.091 H 
ATOM     10  H17 RAF d   1      -1.136  28.169  57.305  0.00  0.00     0.091 H 
ATOM     11  H19 RAF d   1      -2.050  29.212  54.604  0.00  0.00     0.090 H 
ENDROOT
BRANCH   5  12
ATOM     12  C6  RAF d   1      -0.702  27.543  54.882  0.00  0.00     0.049 C 
ATOM     13  H20 RAF d   1      -0.744  26.574  55.400  0.00  0.00     0.078 H 
ATOM     14  H21 RAF d   1       0.224  28.068  55.161  0.00  0.00     0.078 H 
BRANCH  12  15
ATOM     15  O6  RAF d   1      -0.701  27.316  53.469  0.00  0.00    -0.356 OA
BRANCH  15  16
ATOM     16  C1X RAF d   1       0.154  26.256  53.084  0.00  0.00     0.158 C 
ATOM     17  O5X RAF d   1      -0.379  24.978  53.538  0.00  0.00    -0.348 OA
ATOM     18  C5X RAF d   1      -1.648  24.610  52.890  0.00  0.00     0.089 C 
ATOM     19  C4X RAF d   1      -1.547  24.666  51.376  0.00  0.00     0.090 C 
ATOM     20  H23 RAF d   1      -2.419  25.337  53.184  0.00  0.00     0.090 H 
ATOM     21  C3X RAF d   1      -0.969  25.971  50.928  0.00  0.00     0.092 C 
ATOM     22  H27 RAF d   1      -2.549  24.554  50.936  0.00  0.00     0.091 H 
ATOM     23  C2X RAF d   1       0.351  26.230  51.596  0.00  0.00     0.110 C 
ATOM     24  H29 RAF d   1      -1.672  26.778  51.183  0.00  0.00     0.091 H 
ATOM     25  H31 RAF d   1       1.056  25.427  51.333  0.00  0.00     0.094 H 
ATOM     26  H22 RAF d   1       1.133  26.414  53.560  0.00  0.00     0.133 H 
BRANCH  18  27
ATOM     27  C6X RAF d   1      -2.023  23.279  53.465  0.00  0.00     0.043 C 
ATOM     28  H24 RAF d   1      -2.971  22.953  53.012  0.00  0.00     0.078 H 
ATOM     29  H25 RAF d   1      -2.154  23.388  54.552  0.00  0.00     0.078 H 
BRANCH  27  30
ATOM     30  O6X RAF d   1      -1.046  22.296  53.224  0.00  0.00    -0.398 OA
ATOM     31  H26 RAF d   1      -0.224  22.565  53.617  0.00  0.00     0.209 HD
ENDBRANCH  27  30
ENDBRANCH  18  27
BRANCH  19  32
ATOM     32  O4X RAF d   1      -0.722  23.569  50.972  0.00  0.00    -0.390 OA
ATOM     33  H28 RAF d   1      -0.635  23.571  50.026  0.00  0.00     0.210 HD
ENDBRANCH  19  32
BRANCH  21  34
ATOM     34  O3X RAF d   1      -0.747  25.958  49.498  0.00  0.00    -0.390 OA
ATOM     35  H30 RAF d   1      -0.142  25.259  49.279  0.00  0.00     0.210 HD
ENDBRANCH  21  34
BRANCH  23  36
ATOM     36  O2X RAF d   1       0.886  27.490  51.165  0.00  0.00    -0.388 OA
ATOM     37  H32 RAF d   1       1.011  27.474  50.223  0.00  0.00     0.210 HD
ENDBRANCH  23  36
ENDBRANCH  15  16
ENDBRANCH  12  15
ENDBRANCH   5  12
BRANCH   4  38
ATOM     38  O4  RAF d   1      -0.794  30.069  56.517  0.00  0.00    -0.390 OA
ATOM     39  H18 RAF d   1       0.008  29.804  56.083  0.00  0.00     0.210 HD
ENDBRANCH   4  38
BRANCH   3  40
ATOM     40  O3  RAF d   1      -2.522  29.752  58.742  0.00  0.00    -0.390 OA
ATOM     41  H16 RAF d   1      -3.298  30.037  59.210  0.00  0.00     0.210 HD
ENDBRANCH   3  40
BRANCH   1  42
ATOM     42  O1  RAF d   1      -4.780  29.101  55.314  0.00  0.00    -0.318 OA
BRANCH  42  43
ATOM     43  C2' RAF d   1      -6.041  29.047  54.504  0.00  0.00     0.217 C 
ATOM     44  C3' RAF d   1      -6.091  30.314  53.941  0.00  0.00     0.118 C 
ATOM     45  C4' RAF d   1      -4.966  30.278  52.788  0.00  0.00     0.092 C 
ATOM     46  H7  RAF d   1      -7.078  30.447  53.474  0.00  0.00     0.095 H 
ATOM     47  C5' RAF d   1      -5.099  29.008  52.283  0.00  0.00     0.089 C 
ATOM     48  H5  RAF d   1      -3.962  30.427  53.211  0.00  0.00     0.091 H 
ATOM     49  O2' RAF d   1      -5.650  28.123  53.478  0.00  0.00    -0.341 OA
ATOM     50  H4  RAF d   1      -5.829  29.028  51.461  0.00  0.00     0.090 H 
BRANCH  44  51
ATOM     51  O3' RAF d   1      -5.916  31.392  54.837  0.00  0.00    -0.387 OA
ATOM     52  H8  RAF d   1      -5.962  32.211  54.358  0.00  0.00     0.210 HD
ENDBRANCH  44  51
BRANCH  45  53
ATOM     53  O4' RAF d   1      -5.213  31.285  51.796  0.00  0.00    -0.390 OA
ATOM     54  H6  RAF d   1      -6.098  31.190  51.464  0.00  0.00     0.210 HD
ENDBRANCH  45  53
BRANCH  47  55
ATOM     55  C6' RAF d   1      -3.823  28.389  51.766  0.00  0.00     0.043 C 
ATOM     56  H2  RAF d   1      -3.379  29.032  50.992  0.00  0.00     0.078 H 
ATOM     57  H3  RAF d   1      -3.106  28.260  52.590  0.00  0.00     0.078 H 
BRANCH  55  58
ATOM     58  O6' RAF d   1      -4.172  27.087  51.197  0.00  0.00    -0.398 OA
ATOM     59  H1  RAF d   1      -4.795  27.208  50.490  0.00  0.00     0.209 HD
ENDBRANCH  55  58
ENDBRANCH  47  55
BRANCH  43  60
ATOM     60  C1' RAF d   1      -7.075  28.486  55.403  0.00  0.00     0.071 C 
ATOM     61  H9  RAF d   1      -7.179  29.089  56.317  0.00  0.00     0.082 H 
ATOM     62  H10 RAF d   1      -6.846  27.445  55.674  0.00  0.00     0.082 H 
BRANCH  60  63
ATOM     63  O1' RAF d   1      -8.251  28.565  54.592  0.00  0.00    -0.395 OA
ATOM     64  H11 RAF d   1      -8.993  28.225  55.078  0.00  0.00     0.209 HD
ENDBRANCH  60  63
ENDBRANCH  43  60
ENDBRANCH  42  43
ENDBRANCH   1  42
BRANCH   2  65
ATOM     65  O2  RAF d   1      -5.089  28.610  58.102  0.00  0.00    -0.388 OA
ATOM     66  H14 RAF d   1      -4.869  28.815  59.003  0.00  0.00     0.210 HD
ENDBRANCH   2  65
TORSDOF 19
