REMARK  8 active torsions:
REMARK  status: ('A' for Active; 'I' for Inactive)
REMARK    1  A    between atoms: C11_18  and  C10_1 
REMARK    2  A    between atoms: C19_25  and  C20_3 
REMARK    3  A    between atoms: C24_6  and  O25_27 
REMARK    4  A    between atoms: O25_27  and  C26_7 
REMARK    5  A    between atoms: C02_10  and  C01_9 
REMARK    6  A    between atoms: N03_11  and  C02_10 
REMARK    7  A    between atoms: C07_15  and  N06_14 
REMARK       I    between atoms: N13_20  and  C11_18 
REMARK    8  A    between atoms: C14_21  and  N13_20 
ROOT
ATOM      1  C10 4UT d   1     199.848   4.348  87.097  0.00  0.00     0.032 A 
ATOM      2  C07 4UT d   1     201.369   4.005  89.419  0.00  0.00     0.030 A 
ATOM      3  C08 4UT d   1     201.741   4.933  88.459  0.00  0.00    -0.056 A 
ATOM      4  C09 4UT d   1     200.991   5.110  87.306  0.00  0.00    -0.066 A 
ATOM      5  C31 4UT d   1     199.481   3.403  88.056  0.00  0.00    -0.066 A 
ATOM      6  C32 4UT d   1     200.235   3.230  89.212  0.00  0.00    -0.056 A 
ATOM      7  H17 4UT d   1     202.633   5.530  88.612  0.00  0.00     0.086 H 
ATOM      8  H18 4UT d   1     201.296   5.843  86.568  0.00  0.00     0.085 H 
ATOM      9  H25 4UT d   1     198.597   2.796  87.898  0.00  0.00     0.085 H 
ATOM     10  H26 4UT d   1     199.939   2.493  89.949  0.00  0.00     0.086 H 
ENDROOT
BRANCH   1  11
ATOM     11  C11 4UT d   1     199.044   4.525  85.821  0.00  0.00     0.257 C 
ATOM     12  O12 4UT d   1     199.268   5.469  85.105  0.00  0.00    -0.267 OA
ATOM     13  N13 4UT d   1     198.035   3.579  85.482  0.00  0.00    -0.305 N 
ATOM     14  H19 4UT d   1     197.884   2.843  86.142  0.00  0.00     0.170 HD
BRANCH  13  15
ATOM     15  C14 4UT d   1     197.207   3.553  84.306  0.00  0.00     0.163 A 
ATOM     16  N15 4UT d   1     196.367   2.536  84.120  0.00  0.00    -0.155 NA
ATOM     17  N16 4UT d   1     195.706   2.664  82.958  0.00  0.00    -0.275 N 
ATOM     18  C17 4UT d   1     196.145   3.810  82.356  0.00  0.00     0.065 A 
ATOM     19  H20 4UT d   1     194.996   2.016  82.587  0.00  0.00     0.189 HD
ATOM     20  C18 4UT d   1     195.760   4.368  81.096  0.00  0.00    -0.044 A 
ATOM     21  C30 4UT d   1     197.103   4.402  83.157  0.00  0.00     0.040 A 
ATOM     22  C19 4UT d   1     196.326   5.553  80.646  0.00  0.00    -0.024 A 
ATOM     23  H21 4UT d   1     195.020   3.861  80.487  0.00  0.00     0.088 H 
ATOM     24  C28 4UT d   1     197.315   6.170  81.447  0.00  0.00    -0.071 A 
ATOM     25  C29 4UT d   1     197.710   5.606  82.677  0.00  0.00    -0.066 A 
ATOM     26  H6  4UT d   1     197.776   7.091  81.110  0.00  0.00     0.084 H 
ATOM     27  H24 4UT d   1     198.482   6.089  83.266  0.00  0.00     0.085 H 
BRANCH  22  28
ATOM     28  C20 4UT d   1     195.940   6.069  79.393  0.00  0.00    -0.023 A 
ATOM     29  C21 4UT d   1     196.920   6.434  78.472  0.00  0.00    -0.072 A 
ATOM     30  C22 4UT d   1     196.589   6.929  77.222  0.00  0.00    -0.080 A 
ATOM     31  H1  4UT d   1     197.965   6.328  78.740  0.00  0.00     0.084 H 
ATOM     32  C23 4UT d   1     195.251   7.052  76.874  0.00  0.00    -0.051 A 
ATOM     33  H2  4UT d   1     197.366   7.217  76.523  0.00  0.00     0.083 H 
ATOM     34  C24 4UT d   1     194.262   6.680  77.778  0.00  0.00     0.069 A 
ATOM     35  H22 4UT d   1     194.977   7.438  75.899  0.00  0.00     0.087 H 
ATOM     36  C27 4UT d   1     194.613   6.189  79.027  0.00  0.00    -0.040 A 
ATOM     37  H23 4UT d   1     193.837   5.896  79.725  0.00  0.00     0.089 H 
BRANCH  34  38
ATOM     38  O25 4UT d   1     192.906   6.790  77.436  0.00  0.00    -0.356 OA
BRANCH  38  39
ATOM     39  C26 4UT d   1     192.599   7.194  76.127  0.00  0.00     0.010 C 
ATOM     40  H3  4UT d   1     191.507   7.236  76.003  0.00  0.00     0.066 H 
ATOM     41  H4  4UT d   1     193.022   6.473  75.412  0.00  0.00     0.066 H 
ATOM     42  H5  4UT d   1     193.028   8.190  75.941  0.00  0.00     0.066 H 
ENDBRANCH  38  39
ENDBRANCH  34  38
ENDBRANCH  22  28
ENDBRANCH  13  15
ENDBRANCH   1  11
BRANCH   2  43
ATOM     43  N06 4UT d   1     202.176   3.865  90.575  0.00  0.00    -0.378 N 
ATOM     44  C05 4UT d   1     201.995   2.765  91.381  0.00  0.00     0.018 C 
ATOM     45  C04 4UT d   1     202.885   2.748  92.616  0.00  0.00     0.098 C 
ATOM     46  H15 4UT d   1     200.946   2.747  91.711  0.00  0.00     0.066 H 
ATOM     47  H16 4UT d   1     202.209   1.863  90.788  0.00  0.00     0.066 H 
ATOM     48  N03 4UT d   1     204.230   2.928  92.314  0.00  0.00    -0.068 N 
ATOM     49  H13 4UT d   1     202.565   3.556  93.291  0.00  0.00     0.078 H 
ATOM     50  H14 4UT d   1     202.765   1.779  93.122  0.00  0.00     0.078 H 
ATOM     51  C34 4UT d   1     204.410   4.082  91.577  0.00  0.00     0.098 C 
ATOM     52  H12 4UT d   1     204.565   2.132  91.794  0.00  0.00     0.280 HD
ATOM     53  C33 4UT d   1     203.500   4.173  90.379  0.00  0.00     0.018 C 
ATOM     54  H29 4UT d   1     205.452   4.114  91.227  0.00  0.00     0.078 H 
ATOM     55  H30 4UT d   1     204.216   4.946  92.229  0.00  0.00     0.078 H 
ATOM     56  H27 4UT d   1     203.548   5.206  90.004  0.00  0.00     0.066 H 
ATOM     57  H28 4UT d   1     203.890   3.486  89.613  0.00  0.00     0.066 H 
BRANCH  48  58
ATOM     58  C02 4UT d   1     204.888   3.059  93.367  0.00  0.00     0.080 C 
ATOM     59  H10 4UT d   1     205.786   3.655  93.146  0.00  0.00     0.075 H 
ATOM     60  H11 4UT d   1     204.267   3.591  94.103  0.00  0.00     0.075 H 
BRANCH  58  61
ATOM     61  C01 4UT d   1     205.323   1.737  93.969  0.00  0.00    -0.053 C 
ATOM     62  H7  4UT d   1     205.895   1.924  94.890  0.00  0.00     0.029 H 
ATOM     63  H8  4UT d   1     205.954   1.196  93.249  0.00  0.00     0.029 H 
ATOM     64  H9  4UT d   1     204.435   1.132  94.206  0.00  0.00     0.029 H 
ENDBRANCH  58  61
ENDBRANCH  48  58
ENDBRANCH   2  43
TORSDOF 8
