REMARK  6 active torsions:
REMARK  status: ('A' for Active; 'I' for Inactive)
REMARK    1  A    between atoms: C1_1  and  C2_2 
REMARK    2  A    between atoms: N_19  and  C1_1 
REMARK    3  A    between atoms: C1_1  and  C_20 
REMARK       I    between atoms: N1_17  and  C3_3 
REMARK       I    between atoms: C3_3  and  N_19 
REMARK    4  A    between atoms: N5_11  and  C6_10 
REMARK    5  A    between atoms: C4_12  and  N5_11 
REMARK    6  A    between atoms: C5_14  and  N4_15 
ROOT
ATOM      1  C3  4QX d   1      -3.441 -37.095  -4.300  0.00  0.00     0.359 C 
ATOM      2  C4  4QX d   1      -4.126 -35.147  -5.685  0.00  0.00     0.748 A 
ATOM      3  N2  4QX d   1      -4.888 -34.068  -5.569  0.00  0.00     0.131 NA
ATOM      4  C5  4QX d   1      -5.405 -34.213  -4.300  0.00  0.00     0.753 A 
ATOM      5  N3  4QX d   1      -5.001 -35.285  -3.643  0.00  0.00     0.046 NA
ATOM      6  N1  4QX d   1      -4.141 -35.886  -4.549  0.00  0.00     0.009 N 
ATOM      7  O   4QX d   1      -2.714 -37.575  -5.160  0.00  0.00    -0.244 OA
ATOM      8  N   4QX d   1      -3.626 -37.627  -3.081  0.00  0.00    -0.337 N 
ATOM      9  H12 4QX d   1      -4.293 -37.212  -2.462  0.00  0.00     0.164 HD
ENDROOT
BRANCH   2  10
ATOM     10  N5  4QX d   1      -3.368 -35.511  -6.759  0.00  0.00    -0.188 N 
ATOM     11  H9  4QX d   1      -2.863 -36.405  -6.672  0.00  0.00     0.184 HD
BRANCH  10  12
ATOM     12  C6  4QX d   1      -3.188 -34.814  -7.979  0.00  0.00     0.049 A 
ATOM     13  C7  4QX d   1      -3.827 -33.616  -8.272  0.00  0.00    -0.055 A 
ATOM     14  C8  4QX d   1      -3.634 -33.004  -9.496  0.00  0.00    -0.060 A 
ATOM     15  H5  4QX d   1      -4.480 -33.159  -7.537  0.00  0.00     0.087 H 
ATOM     16  C9  4QX d   1      -2.787 -33.585 -10.412  0.00  0.00     0.034 A 
ATOM     17  H6  4QX d   1      -4.144 -32.077  -9.732  0.00  0.00     0.086 H 
ATOM     18  C10 4QX d   1      -2.146 -34.771 -10.146  0.00  0.00    -0.060 A 
ATOM     19 CL   4QX d   1      -2.499 -32.788 -11.927  0.00  0.00    -0.084 Cl
ATOM     20  C11 4QX d   1      -2.344 -35.386  -8.927  0.00  0.00    -0.055 A 
ATOM     21  H7  4QX d   1      -1.492 -35.218 -10.886  0.00  0.00     0.086 H 
ATOM     22  H8  4QX d   1      -1.840 -36.320  -8.706  0.00  0.00     0.087 H 
ENDBRANCH  10  12
ENDBRANCH   2  10
BRANCH   8  23
ATOM     23  C1  4QX d   1      -2.872 -38.803  -2.639  0.00  0.00     0.007 C 
ATOM     24  H1  4QX d   1      -2.637 -39.416  -3.522  0.00  0.00     0.071 H 
BRANCH  23  25
ATOM     25  C2  4QX d   1      -3.709 -39.641  -1.702  0.00  0.00    -0.058 C 
ATOM     26  H2  4QX d   1      -3.130 -40.519  -1.379  0.00  0.00     0.030 H 
ATOM     27  H3  4QX d   1      -4.620 -39.973  -2.222  0.00  0.00     0.030 H 
ATOM     28  H4  4QX d   1      -3.987 -39.041  -0.823  0.00  0.00     0.030 H 
ENDBRANCH  23  25
BRANCH  23  29
ATOM     29  C   4QX d   1      -1.570 -38.370  -2.012  0.00  0.00    -0.058 C 
ATOM     30  H13 4QX d   1      -1.000 -37.765  -2.732  0.00  0.00     0.030 H 
ATOM     31  H14 4QX d   1      -0.984 -39.258  -1.734  0.00  0.00     0.030 H 
ATOM     32  H15 4QX d   1      -1.777 -37.771  -1.113  0.00  0.00     0.030 H 
ENDBRANCH  23  29
ENDBRANCH   8  23
BRANCH   4  33
ATOM     33  N4  4QX d   1      -6.262 -33.318  -3.801  0.00  0.00    -0.229 N 
ATOM     34  H10 4QX d   1      -6.539 -32.501  -4.364  0.00  0.00     0.174 HD
ATOM     35  H11 4QX d   1      -6.646 -33.445  -2.854  0.00  0.00     0.174 HD
ENDBRANCH   4  33
TORSDOF 6
