REMARK  12 active torsions:
REMARK  status: ('A' for Active; 'I' for Inactive)
REMARK    1  A    between atoms: C1_1  and  C16_16 
REMARK    2  A    between atoms: C1_1  and  C17_17 
REMARK    3  A    between atoms: C5_5  and  C18_18 
REMARK    4  A    between atoms: C6_6  and  C7_7 
REMARK    5  A    between atoms: C8_8  and  C9_9 
REMARK    6  A    between atoms: C9_9  and  C10_10 
REMARK    7  A    between atoms: C9_9  and  C19_19 
REMARK    8  A    between atoms: C10_10  and  C11_11 
REMARK    9  A    between atoms: C12_12  and  C13_13 
REMARK   10  A    between atoms: C13_13  and  C14_14 
REMARK   11  A    between atoms: C13_13  and  C20_20 
REMARK   12  A    between atoms: C14_14  and  C15_15 
ROOT
ATOM      1  C7  4XW d   1      62.608  46.128  31.018  0.00  0.00    -0.101 C 
ATOM      2  C8  4XW d   1      61.285  46.337  30.691  0.00  0.00    -0.102 C 
ATOM      3  H9  4XW d   1      63.285  45.930  30.188  0.00  0.00     0.077 H 
ATOM      4  H10 4XW d   1      60.484  46.462  31.418  0.00  0.00     0.076 H 
ENDROOT
BRANCH   1   5
ATOM      5  C6  4XW d   1      63.253  46.143  32.460  0.00  0.00    -0.028 C 
ATOM      6  C1  4XW d   1      64.249  44.991  32.688  0.00  0.00    -0.041 C 
ATOM      7  C2  4XW d   1      64.783  44.923  34.099  0.00  0.00    -0.058 C 
ATOM      8  C3  4XW d   1      63.760  45.119  35.202  0.00  0.00    -0.064 C 
ATOM      9  H1  4XW d   1      65.550  45.704  34.208  0.00  0.00     0.034 H 
ATOM     10  H2  4XW d   1      65.244  43.934  34.238  0.00  0.00     0.034 H 
ATOM     11  C4  4XW d   1      62.411  45.663  34.803  0.00  0.00    -0.061 C 
ATOM     12  H3  4XW d   1      64.194  45.815  35.935  0.00  0.00     0.033 H 
ATOM     13  H4  4XW d   1      63.595  44.141  35.678  0.00  0.00     0.033 H 
ATOM     14  C5  4XW d   1      62.587  46.694  33.731  0.00  0.00    -0.050 C 
ATOM     15  H5  4XW d   1      61.927  46.122  35.678  0.00  0.00     0.033 H 
ATOM     16  H6  4XW d   1      61.782  44.844  34.424  0.00  0.00     0.033 H 
ATOM     17  H7  4XW d   1      63.345  47.375  34.145  0.00  0.00     0.040 H 
ATOM     18  H8  4XW d   1      63.958  46.972  32.299  0.00  0.00     0.047 H 
BRANCH   6  19
ATOM     19  C16 4XW d   1      63.727  43.628  32.276  0.00  0.00    -0.069 C 
ATOM     20  H19 4XW d   1      64.496  42.866  32.471  0.00  0.00     0.028 H 
ATOM     21  H20 4XW d   1      63.484  43.637  31.203  0.00  0.00     0.028 H 
ATOM     22  H21 4XW d   1      62.822  43.392  32.855  0.00  0.00     0.028 H 
ENDBRANCH   6  19
BRANCH   6  23
ATOM     23  C17 4XW d   1      65.406  45.402  31.825  0.00  0.00    -0.069 C 
ATOM     24  H22 4XW d   1      65.767  46.392  32.142  0.00  0.00     0.028 H 
ATOM     25  H23 4XW d   1      65.082  45.449  30.775  0.00  0.00     0.028 H 
ATOM     26  H24 4XW d   1      66.218  44.666  31.925  0.00  0.00     0.028 H 
ENDBRANCH   6  23
BRANCH  14  27
ATOM     27  C18 4XW d   1      61.384  47.601  33.514  0.00  0.00    -0.072 C 
ATOM     28  H25 4XW d   1      60.994  47.932  34.488  0.00  0.00     0.028 H 
ATOM     29  H26 4XW d   1      60.601  47.049  32.974  0.00  0.00     0.028 H 
ATOM     30  H27 4XW d   1      61.688  48.478  32.924  0.00  0.00     0.028 H 
ENDBRANCH  14  27
ENDBRANCH   1   5
BRANCH   2  31
ATOM     31  C9  4XW d   1      61.087  46.371  29.174  0.00  0.00    -0.038 C 
ATOM     32  H11 4XW d   1      61.340  45.355  28.836  0.00  0.00     0.045 H 
BRANCH  31  33
ATOM     33  C10 4XW d   1      59.649  46.606  28.726  0.00  0.00    -0.044 C 
ATOM     34  H12 4XW d   1      59.499  46.095  27.764  0.00  0.00     0.039 H 
ATOM     35  H13 4XW d   1      59.500  47.688  28.594  0.00  0.00     0.039 H 
BRANCH  33  36
ATOM     36  C11 4XW d   1      58.591  46.089  29.719  0.00  0.00    -0.106 C 
ATOM     37  C12 4XW d   1      57.278  46.036  29.307  0.00  0.00    -0.102 C 
ATOM     38  H15 4XW d   1      56.924  46.688  28.509  0.00  0.00     0.076 H 
ATOM     39  H14 4XW d   1      58.874  45.773  30.722  0.00  0.00     0.076 H 
BRANCH  37  40
ATOM     40  C13 4XW d   1      56.322  45.050  29.984  0.00  0.00    -0.032 C 
ATOM     41  H16 4XW d   1      56.821  44.070  29.966  0.00  0.00     0.046 H 
BRANCH  40  42
ATOM     42  C14 4XW d   1      55.051  44.874  29.165  0.00  0.00     0.022 C 
ATOM     43  H17 4XW d   1      55.122  43.897  28.665  0.00  0.00     0.050 H 
ATOM     44  H18 4XW d   1      55.040  45.673  28.409  0.00  0.00     0.050 H 
BRANCH  42  45
ATOM     45  C15 4XW d   1      53.700  44.915  29.882  0.00  0.00     0.173 C 
ATOM     46  O21 4XW d   1      53.371  43.812  30.650  0.00  0.00    -0.648 OA
ATOM     47  O22 4XW d   1      53.065  46.135  30.034  0.00  0.00    -0.648 OA
ENDBRANCH  42  45
ENDBRANCH  40  42
BRANCH  40  48
ATOM     48  C20 4XW d   1      56.136  45.376  31.436  0.00  0.00    -0.069 C 
ATOM     49  H31 4XW d   1      57.120  45.478  31.918  0.00  0.00     0.028 H 
ATOM     50  H32 4XW d   1      55.571  44.568  31.924  0.00  0.00     0.028 H 
ATOM     51  H33 4XW d   1      55.581  46.321  31.532  0.00  0.00     0.028 H 
ENDBRANCH  40  48
ENDBRANCH  37  40
ENDBRANCH  33  36
ENDBRANCH  31  33
BRANCH  31  52
ATOM     52  C19 4XW d   1      62.030  47.293  28.430  0.00  0.00    -0.069 C 
ATOM     53  H28 4XW d   1      63.062  47.110  28.765  0.00  0.00     0.028 H 
ATOM     54  H29 4XW d   1      61.758  48.339  28.635  0.00  0.00     0.028 H 
ATOM     55  H30 4XW d   1      61.956  47.100  27.350  0.00  0.00     0.028 H 
ENDBRANCH  31  52
ENDBRANCH   2  31
TORSDOF 12
