REMARK  6 active torsions:
REMARK  status: ('A' for Active; 'I' for Inactive)
REMARK    1  A    between atoms: C1_1  and  C_21 
REMARK    2  A    between atoms: N_16  and  C3_3 
REMARK    3  A    between atoms: C7_4  and  N_16 
REMARK       I    between atoms: N4_11  and  C9_6 
REMARK       I    between atoms: C9_6  and  N3_12 
REMARK    4  A    between atoms: C10_7  and  C11_8 
REMARK    5  A    between atoms: C10_7  and  C12_9 
REMARK    6  A    between atoms: C10_7  and  N4_11 
ROOT
ATOM      1  C7  4R0 d   1      -4.770 -35.512  -5.714  0.00  0.00     0.748 A 
ATOM      2  C8  4R0 d   1      -5.983 -34.678  -4.209  0.00  0.00     0.753 A 
ATOM      3  C9  4R0 d   1      -3.994 -37.531  -4.479  0.00  0.00     0.359 C 
ATOM      4  O   4R0 d   1      -3.313 -37.955  -5.403  0.00  0.00    -0.244 OA
ATOM      5  N4  4R0 d   1      -4.159 -38.182  -3.277  0.00  0.00    -0.337 N 
ATOM      6  N3  4R0 d   1      -4.716 -36.317  -4.626  0.00  0.00     0.009 N 
ATOM      7  N2  4R0 d   1      -5.525 -35.784  -3.634  0.00  0.00     0.046 NA
ATOM      8  N5  4R0 d   1      -6.752 -33.801  -3.586  0.00  0.00    -0.229 N 
ATOM      9  N1  4R0 d   1      -5.539 -34.433  -5.487  0.00  0.00     0.131 NA
ATOM     10  H9  4R0 d   1      -4.757 -37.792  -2.577  0.00  0.00     0.164 HD
ATOM     11  H10 4R0 d   1      -7.080 -33.992  -2.629  0.00  0.00     0.174 HD
ATOM     12  H11 4R0 d   1      -7.023 -32.926  -4.058  0.00  0.00     0.174 HD
ENDROOT
BRANCH   1  13
ATOM     13  N   4R0 d   1      -4.067 -35.879  -6.850  0.00  0.00    -0.187 N 
ATOM     14  H12 4R0 d   1      -3.590 -36.790  -6.785  0.00  0.00     0.184 HD
BRANCH  13  15
ATOM     15  C3  4R0 d   1      -3.898 -35.217  -8.069  0.00  0.00     0.050 A 
ATOM     16  C2  4R0 d   1      -3.063 -35.883  -8.991  0.00  0.00    -0.049 A 
ATOM     17  C1  4R0 d   1      -2.824 -35.363 -10.247  0.00  0.00    -0.038 A 
ATOM     18  H1  4R0 d   1      -2.600 -36.821  -8.707  0.00  0.00     0.087 H 
ATOM     19  C6  4R0 d   1      -3.467 -34.182 -10.584  0.00  0.00     0.040 A 
ATOM     20  C5  4R0 d   1      -4.302 -33.495  -9.716  0.00  0.00    -0.059 A 
ATOM     21 CL   4R0 d   1      -3.143 -33.487 -12.121  0.00  0.00    -0.084 Cl
ATOM     22  C4  4R0 d   1      -4.502 -33.994  -8.423  0.00  0.00    -0.055 A 
ATOM     23  H14 4R0 d   1      -4.794 -32.583 -10.034  0.00  0.00     0.086 H 
ATOM     24  H13 4R0 d   1      -5.109 -33.450  -7.708  0.00  0.00     0.087 H 
BRANCH  17  25
ATOM     25  C   4R0 d   1      -1.920 -36.089 -11.193  0.00  0.00    -0.050 C 
ATOM     26  H15 4R0 d   1      -1.529 -36.994 -10.705  0.00  0.00     0.033 H 
ATOM     27  H16 4R0 d   1      -1.083 -35.434 -11.476  0.00  0.00     0.033 H 
ATOM     28  H17 4R0 d   1      -2.484 -36.373 -12.094  0.00  0.00     0.033 H 
ENDBRANCH  17  25
ENDBRANCH  13  15
ENDBRANCH   1  13
BRANCH   5  29
ATOM     29  C10 4R0 d   1      -3.461 -39.446  -3.021  0.00  0.00     0.007 C 
ATOM     30  H2  4R0 d   1      -3.356 -39.987  -3.973  0.00  0.00     0.071 H 
BRANCH  29  31
ATOM     31  C11 4R0 d   1      -2.076 -39.157  -2.488  0.00  0.00    -0.058 C 
ATOM     32  H3  4R0 d   1      -1.552 -40.105  -2.296  0.00  0.00     0.030 H 
ATOM     33  H4  4R0 d   1      -2.155 -38.586  -1.552  0.00  0.00     0.030 H 
ATOM     34  H5  4R0 d   1      -1.513 -38.571  -3.229  0.00  0.00     0.030 H 
ENDBRANCH  29  31
BRANCH  29  35
ATOM     35  C12 4R0 d   1      -4.271 -40.312  -2.077  0.00  0.00    -0.058 C 
ATOM     36  H6  4R0 d   1      -5.266 -40.493  -2.509  0.00  0.00     0.030 H 
ATOM     37  H7  4R0 d   1      -4.378 -39.799  -1.110  0.00  0.00     0.030 H 
ATOM     38  H8  4R0 d   1      -3.756 -41.273  -1.928  0.00  0.00     0.030 H 
ENDBRANCH  29  35
ENDBRANCH   5  29
TORSDOF 6
