REMARK  5 active torsions:
REMARK  status: ('A' for Active; 'I' for Inactive)
REMARK    1  A    between atoms: C1_1  and  C2_2 
REMARK    2  A    between atoms: N_21  and  C1_1 
REMARK    3  A    between atoms: C1_1  and  C_22 
REMARK       I    between atoms: N1_19  and  C8_5 
REMARK       I    between atoms: C8_5  and  N_21 
REMARK    4  A    between atoms: N5_15  and  C9_6 
REMARK    5  A    between atoms: C11_8  and  N5_15 
ROOT
ATOM      1  C8  4QZ d   1      96.563  37.228  50.897  0.00  0.00     0.359 C 
ATOM      2  C9  4QZ d   1      97.213  35.113  49.530  0.00  0.00     0.735 A 
ATOM      3  C10 4QZ d   1      98.420  34.136  51.092  0.00  0.00     0.258 A 
ATOM      4  N2  4QZ d   1      97.935  33.973  49.752  0.00  0.00    -0.024 NA
ATOM      5  N4  4QZ d   1      99.120  33.190  51.688  0.00  0.00    -0.366 N 
ATOM      6  N3  4QZ d   1      98.029  35.328  51.695  0.00  0.00    -0.109 NA
ATOM      7  N1  4QZ d   1      97.244  35.951  50.693  0.00  0.00    -0.003 N 
ATOM      8  O   4QZ d   1      96.068  37.803  49.899  0.00  0.00    -0.244 OA
ATOM      9  N   4QZ d   1      96.485  37.705  52.207  0.00  0.00    -0.333 N 
ATOM     10  H9  4QZ d   1      99.371  32.334  51.174  0.00  0.00     0.159 HD
ATOM     11  H10 4QZ d   1      99.415  33.308  52.668  0.00  0.00     0.159 HD
ATOM     12  H11 4QZ d   1      96.877  37.167  52.954  0.00  0.00     0.165 HD
ENDROOT
BRANCH   2  13
ATOM     13  N5  4QZ d   1      96.516  35.512  48.403  0.00  0.00    -0.188 N 
ATOM     14  H8  4QZ d   1      96.045  36.424  48.484  0.00  0.00     0.184 HD
BRANCH  13  15
ATOM     15  C11 4QZ d   1      96.350  34.870  47.168  0.00  0.00     0.049 A 
ATOM     16  C12 4QZ d   1      96.907  33.614  46.822  0.00  0.00    -0.055 A 
ATOM     17  C13 4QZ d   1      96.632  33.091  45.564  0.00  0.00    -0.060 A 
ATOM     18  H4  4QZ d   1      97.533  33.073  47.522  0.00  0.00     0.087 H 
ATOM     19  C14 4QZ d   1      95.808  33.820  44.710  0.00  0.00     0.034 A 
ATOM     20  H5  4QZ d   1      97.049  32.139  45.255  0.00  0.00     0.086 H 
ATOM     21  C15 4QZ d   1      95.233  35.056  45.008  0.00  0.00    -0.060 A 
ATOM     22 CL   4QZ d   1      95.488  33.161  43.207  0.00  0.00    -0.084 Cl
ATOM     23  C16 4QZ d   1      95.519  35.596  46.256  0.00  0.00    -0.055 A 
ATOM     24  H6  4QZ d   1      94.594  35.570  44.300  0.00  0.00     0.086 H 
ATOM     25  H7  4QZ d   1      95.115  36.562  46.538  0.00  0.00     0.087 H 
ENDBRANCH  13  15
ENDBRANCH   2  13
BRANCH   9  26
ATOM     26  C1  4QZ d   1      95.834  38.986  52.499  0.00  0.00     0.036 C 
ATOM     27  H1  4QZ d   1      95.580  39.471  51.545  0.00  0.00     0.079 H 
BRANCH  26  28
ATOM     28  C2  4QZ d   1      96.745  39.918  53.272  0.00  0.00    -0.036 A 
ATOM     29  C3  4QZ d   1      97.381  39.489  54.475  0.00  0.00    -0.075 A 
ATOM     30  C4  4QZ d   1      98.189  40.386  55.201  0.00  0.00    -0.082 A 
ATOM     31  H2  4QZ d   1      97.243  38.474  54.830  0.00  0.00     0.084 H 
ATOM     32  C5  4QZ d   1      98.364  41.707  54.730  0.00  0.00    -0.083 A 
ATOM     33  H17 4QZ d   1      98.674  40.065  56.116  0.00  0.00     0.083 H 
ATOM     34  C6  4QZ d   1      97.743  42.135  53.527  0.00  0.00    -0.082 A 
ATOM     35  H16 4QZ d   1      98.978  42.400  55.293  0.00  0.00     0.083 H 
ATOM     36  C7  4QZ d   1      96.935  41.238  52.798  0.00  0.00    -0.075 A 
ATOM     37  H15 4QZ d   1      97.889  43.148  53.170  0.00  0.00     0.083 H 
ATOM     38  H3  4QZ d   1      96.461  41.559  51.877  0.00  0.00     0.084 H 
ENDBRANCH  26  28
BRANCH  26  39
ATOM     39  C   4QZ d   1      94.545  38.732  53.274  0.00  0.00    -0.053 C 
ATOM     40  H12 4QZ d   1      94.055  39.692  53.494  0.00  0.00     0.030 H 
ATOM     41  H13 4QZ d   1      94.779  38.215  54.216  0.00  0.00     0.030 H 
ATOM     42  H14 4QZ d   1      93.871  38.106  52.670  0.00  0.00     0.030 H 
ENDBRANCH  26  39
ENDBRANCH   9  26
TORSDOF 5
