REMARK  1 active torsions:
REMARK  status: ('A' for Active; 'I' for Inactive)
REMARK    1  A    between atoms: C6_2  and  N9_9 
ROOT
ATOM      1  C7  4RW d   1      14.360  -2.738  -1.030  0.00  0.00    -0.026 C 
ATOM      2  C6  4RW d   1      14.696  -2.675   1.891  0.00  0.00     0.134 C 
ATOM      3  C1  4RW d   1      16.044  -1.159  -1.925  0.00  0.00    -0.065 C 
ATOM      4  C5  4RW d   1      12.993  -2.884  -0.392  0.00  0.00    -0.011 C 
ATOM      5  C4  4RW d   1      16.743  -3.366  -0.956  0.00  0.00    -0.046 C 
ATOM      6  C3  4RW d   1      14.710  -1.273  -1.235  0.00  0.00    -0.059 C 
ATOM      7  C2  4RW d   1      17.106  -1.899  -1.121  0.00  0.00    -0.063 C 
ATOM      8  C8  4RW d   1      15.417  -3.522  -0.249  0.00  0.00     0.015 C 
ATOM      9  N10 4RW d   1      15.668  -3.118   1.156  0.00  0.00    -0.366 N 
ATOM     10  S11 4RW d   1      13.012  -2.489   1.383  0.00  0.00    -0.094 SA
ATOM     11  H1  4RW d   1      14.304  -3.193  -2.030  0.00  0.00     0.044 H 
ATOM     12  H2  4RW d   1      16.323  -0.098  -2.008  0.00  0.00     0.033 H 
ATOM     13  H3  4RW d   1      15.974  -1.600  -2.930  0.00  0.00     0.033 H 
ATOM     14  H4  4RW d   1      12.652  -3.922  -0.519  0.00  0.00     0.050 H 
ATOM     15  H5  4RW d   1      12.292  -2.204  -0.898  0.00  0.00     0.050 H 
ATOM     16  H6  4RW d   1      17.526  -3.866  -0.366  0.00  0.00     0.036 H 
ATOM     17  H7  4RW d   1      16.678  -3.834  -1.949  0.00  0.00     0.036 H 
ATOM     18  H8  4RW d   1      14.760  -0.769  -0.258  0.00  0.00     0.033 H 
ATOM     19  H9  4RW d   1      13.936  -0.796  -1.855  0.00  0.00     0.033 H 
ATOM     20  H10 4RW d   1      17.192  -1.436  -0.127  0.00  0.00     0.033 H 
ATOM     21  H11 4RW d   1      18.070  -1.824  -1.645  0.00  0.00     0.033 H 
ATOM     22  H12 4RW d   1      15.113  -4.579  -0.251  0.00  0.00     0.073 H 
ATOM     23  H15 4RW d   1      16.617  -3.190   1.549  0.00  0.00     0.162 HD
ENDROOT
BRANCH   2  24
ATOM     24  N9  4RW d   1      14.867  -2.296   3.196  0.00  0.00    -0.380 N 
ATOM     25  H13 4RW d   1      15.799  -2.350   3.630  0.00  0.00     0.158 HD
ATOM     26  H14 4RW d   1      14.063  -1.956   3.743  0.00  0.00     0.158 HD
ENDBRANCH   2  24
TORSDOF 1
