REMARK  2 active torsions:
REMARK  status: ('A' for Active; 'I' for Inactive)
REMARK    1  A    between atoms: N3_12  and  C7_2 
REMARK       I    between atoms: N3_12  and  C8_13 
REMARK    2  A    between atoms: C8_13  and  C9_14 
ROOT
ATOM      1  C7  4RZ d   1      24.376  56.874  85.106  0.00  0.00     0.013 C 
ATOM      2  C6  4RZ d   1      23.718  55.496  84.952  0.00  0.00    -0.044 C 
ATOM      3  C1  4RZ d   1      22.300  55.726  88.572  0.00  0.00     0.134 C 
ATOM      4  N1  4RZ d   1      22.018  55.331  87.341  0.00  0.00    -0.366 N 
ATOM      5  C5  4RZ d   1      22.201  55.584  84.908  0.00  0.00    -0.044 C 
ATOM      6  C4  4RZ d   1      21.670  56.196  86.205  0.00  0.00     0.015 C 
ATOM      7  C3  4RZ d   1      22.278  57.580  86.321  0.00  0.00    -0.024 C 
ATOM      8  C2  4RZ d   1      21.704  58.256  87.551  0.00  0.00    -0.011 C 
ATOM      9  N2  4RZ d   1      22.649  54.858  89.496  0.00  0.00    -0.380 N 
ATOM     10  S1  4RZ d   1      22.261  57.393  89.049  0.00  0.00    -0.094 SA
ATOM     11  C15 4RZ d   1      23.805  57.646  86.277  0.00  0.00    -0.040 C 
ATOM     12  H1  4RZ d   1      24.221  57.450  84.182  0.00  0.00     0.072 H 
ATOM     13  H2  4RZ d   1      24.011  54.866  85.805  0.00  0.00     0.036 H 
ATOM     14  H3  4RZ d   1      24.073  55.037  84.018  0.00  0.00     0.036 H 
ATOM     15  H4  4RZ d   1      22.045  54.317  87.161  0.00  0.00     0.162 HD
ATOM     16  H5  4RZ d   1      21.782  54.575  84.784  0.00  0.00     0.036 H 
ATOM     17  H6  4RZ d   1      21.898  56.214  84.058  0.00  0.00     0.036 H 
ATOM     18  H7  4RZ d   1      20.575  56.285  86.153  0.00  0.00     0.073 H 
ATOM     19  H8  4RZ d   1      21.930  58.148  85.446  0.00  0.00     0.044 H 
ATOM     20  H9  4RZ d   1      20.605  58.230  87.502  0.00  0.00     0.050 H 
ATOM     21  H10 4RZ d   1      22.044  59.301  87.585  0.00  0.00     0.050 H 
ATOM     22  H11 4RZ d   1      22.866  55.180  90.450  0.00  0.00     0.158 HD
ATOM     23  H12 4RZ d   1      22.706  53.856  89.266  0.00  0.00     0.158 HD
ATOM     24  H18 4RZ d   1      24.112  58.699  86.191  0.00  0.00     0.036 H 
ATOM     25  H19 4RZ d   1      24.205  57.222  87.210  0.00  0.00     0.036 H 
ENDROOT
BRANCH   1  26
ATOM     26  N3  4RZ d   1      25.791  56.697  85.341  0.00  0.00    -0.352 N 
ATOM     27  C8  4RZ d   1      26.759  56.949  84.404  0.00  0.00     0.252 C 
ATOM     28  O1  4RZ d   1      26.549  57.262  83.242  0.00  0.00    -0.268 OA
ATOM     29  H13 4RZ d   1      26.081  56.371  86.241  0.00  0.00     0.163 HD
BRANCH  27  30
ATOM     30  C9  4RZ d   1      28.146  56.852  84.919  0.00  0.00     0.033 A 
ATOM     31  C10 4RZ d   1      28.440  56.001  85.965  0.00  0.00    -0.047 A 
ATOM     32  C11 4RZ d   1      29.728  55.934  86.434  0.00  0.00     0.035 A 
ATOM     33  H14 4RZ d   1      27.662  55.392  86.411  0.00  0.00     0.087 H 
ATOM     34 CL1  4RZ d   1      30.098  54.867  87.745  0.00  0.00    -0.084 Cl
ATOM     35  C12 4RZ d   1      30.729  56.714  85.877  0.00  0.00    -0.062 A 
ATOM     36  C13 4RZ d   1      30.433  57.564  84.833  0.00  0.00    -0.080 A 
ATOM     37  H15 4RZ d   1      31.741  56.656  86.261  0.00  0.00     0.086 H 
ATOM     38  C14 4RZ d   1      29.137  57.632  84.348  0.00  0.00    -0.068 A 
ATOM     39  H16 4RZ d   1      31.211  58.177  84.393  0.00  0.00     0.083 H 
ATOM     40  H17 4RZ d   1      28.899  58.294  83.523  0.00  0.00     0.085 H 
ENDBRANCH  27  30
ENDBRANCH   1  26
TORSDOF 2
