REMARK  3 active torsions:
REMARK  status: ('A' for Active; 'I' for Inactive)
REMARK    1  A    between atoms: N10_20  and  C7_1 
REMARK    2  A    between atoms: C2_5  and  N24_19 
REMARK    3  A    between atoms: C11_12  and  C13_10 
REMARK       I    between atoms: C11_12  and  N10_20 
ROOT
ATOM      1  C7  4RX d   1      18.983 -10.793  -9.734  0.00  0.00     0.013 C 
ATOM      2  C6  4RX d   1      19.516 -11.409  -8.453  0.00  0.00    -0.039 C 
ATOM      3  C5  4RX d   1      21.034 -11.369  -8.443  0.00  0.00    -0.012 C 
ATOM      4  C4  4RX d   1      21.602  -9.969  -8.656  0.00  0.00     0.058 C 
ATOM      5  C2  4RX d   1      21.001  -9.348  -6.385  0.00  0.00     0.134 C 
ATOM      6  C8  4RX d   1      19.590  -9.430 -10.038  0.00  0.00    -0.044 C 
ATOM      7  C9  4RX d   1      21.101  -9.422  -9.986  0.00  0.00    -0.037 C 
ATOM      8  C21 4RX d   1      23.136 -11.980  -7.361  0.00  0.00     0.032 C 
ATOM      9  C23 4RX d   1      23.124 -10.050  -8.724  0.00  0.00     0.043 C 
ATOM     10  C20 4RX d   1      21.615 -11.968  -7.184  0.00  0.00     0.025 C 
ATOM     11  N3  4RX d   1      21.212  -8.985  -7.615  0.00  0.00    -0.359 N 
ATOM     12  O22 4RX d   1      23.652 -10.664  -7.542  0.00  0.00    -0.387 OA
ATOM     13  S1  4RX d   1      21.087 -10.992  -5.733  0.00  0.00    -0.087 SA
ATOM     14  H1  4RX d   1      19.181 -11.471 -10.578  0.00  0.00     0.072 H 
ATOM     15  H2  4RX d   1      19.180 -12.454  -8.385  0.00  0.00     0.036 H 
ATOM     16  H3  4RX d   1      19.132 -10.844  -7.591  0.00  0.00     0.036 H 
ATOM     17  H4  4RX d   1      21.371 -11.988  -9.287  0.00  0.00     0.045 H 
ATOM     18  H9  4RX d   1      19.212  -8.707  -9.300  0.00  0.00     0.036 H 
ATOM     19  H10 4RX d   1      19.274  -9.124 -11.046  0.00  0.00     0.036 H 
ATOM     20  H11 4RX d   1      21.493 -10.046 -10.803  0.00  0.00     0.036 H 
ATOM     21  H12 4RX d   1      21.460  -8.390 -10.109  0.00  0.00     0.036 H 
ATOM     22  H13 4RX d   1      23.388 -12.587  -8.243  0.00  0.00     0.076 H 
ATOM     23  H14 4RX d   1      23.596 -12.424  -6.466  0.00  0.00     0.076 H 
ATOM     24  H15 4RX d   1      23.536  -9.034  -8.818  0.00  0.00     0.078 H 
ATOM     25  H16 4RX d   1      23.415 -10.646  -9.601  0.00  0.00     0.078 H 
ATOM     26  H17 4RX d   1      21.256 -13.001  -7.063  0.00  0.00     0.061 H 
ATOM     27  H18 4RX d   1      21.106  -7.994  -7.873  0.00  0.00     0.162 HD
ENDROOT
BRANCH   1  28
ATOM     28  N10 4RX d   1      17.565 -10.629  -9.543  0.00  0.00    -0.352 N 
ATOM     29  C11 4RX d   1      16.596 -10.774 -10.508  0.00  0.00     0.252 C 
ATOM     30  O12 4RX d   1      16.766 -10.997 -11.699  0.00  0.00    -0.268 OA
ATOM     31  H21 4RX d   1      17.256 -10.387  -8.623  0.00  0.00     0.163 HD
BRANCH  29  32
ATOM     32  C13 4RX d   1      15.236 -10.659  -9.950  0.00  0.00     0.033 A 
ATOM     33  C14 4RX d   1      14.239 -11.437 -10.492  0.00  0.00    -0.068 A 
ATOM     34  C15 4RX d   1      12.964 -11.347  -9.970  0.00  0.00    -0.080 A 
ATOM     35  H6  4RX d   1      14.451 -12.110 -11.315  0.00  0.00     0.085 H 
ATOM     36  C16 4RX d   1      12.682 -10.496  -8.920  0.00  0.00    -0.062 A 
ATOM     37  H5  4RX d   1      12.171 -11.954 -10.392  0.00  0.00     0.083 H 
ATOM     38  C17 4RX d   1      13.689  -9.720  -8.393  0.00  0.00     0.035 A 
ATOM     39  H7  4RX d   1      11.678 -10.440  -8.515  0.00  0.00     0.086 H 
ATOM     40  C18 4RX d   1      14.973  -9.791  -8.901  0.00  0.00    -0.047 A 
ATOM     41 CL1  4RX d   1      13.309  -8.652  -7.096  0.00  0.00    -0.084 Cl
ATOM     42  H8  4RX d   1      15.763  -9.177  -8.485  0.00  0.00     0.087 H 
ENDBRANCH  29  32
ENDBRANCH   1  28
BRANCH   5  43
ATOM     43  N24 4RX d   1      20.661  -8.428  -5.433  0.00  0.00    -0.380 N 
ATOM     44  H19 4RX d   1      20.497  -8.729  -4.462  0.00  0.00     0.158 HD
ATOM     45  H20 4RX d   1      20.569  -7.434  -5.687  0.00  0.00     0.158 HD
ENDBRANCH   5  43
TORSDOF 3
