REMARK  3 active torsions:
REMARK  status: ('A' for Active; 'I' for Inactive)
REMARK    1  A    between atoms: C7_1  and  N8_20 
REMARK    2  A    between atoms: C15_13  and  C17_11 
REMARK       I    between atoms: N14_21  and  C15_13 
REMARK    3  A    between atoms: C13_17  and  N14_21 
ROOT
ATOM      1  C7  4RY d   1      22.266  54.701  89.713  0.00  0.00     0.134 C 
ATOM      2  O2  4RY d   1      20.089  56.501  86.284  0.00  0.00    -0.388 OA
ATOM      3  C1  4RY d   1      20.116  55.324  87.128  0.00  0.00     0.043 C 
ATOM      4  C5  4RY d   1      21.655  57.189  88.779  0.00  0.00    -0.005 C 
ATOM      5  C4  4RY d   1      22.127  56.532  87.486  0.00  0.00     0.019 C 
ATOM      6  C3  4RY d   1      21.343  57.207  86.382  0.00  0.00     0.030 C 
ATOM      7  C12 4RY d   1      23.729  54.313  86.338  0.00  0.00    -0.044 C 
ATOM      8  C11 4RY d   1      22.217  54.345  86.240  0.00  0.00    -0.037 C 
ATOM      9  C24 4RY d   1      23.641  56.662  87.285  0.00  0.00    -0.034 C 
ATOM     10  C13 4RY d   1      24.302  55.698  86.296  0.00  0.00     0.013 C 
ATOM     11  C10 4RY d   1      21.598  55.118  87.398  0.00  0.00     0.064 C 
ATOM     12  N9  4RY d   1      21.888  54.258  88.548  0.00  0.00    -0.359 N 
ATOM     13  S6  4RY d   1      22.347  56.381  90.234  0.00  0.00    -0.094 SA
ATOM     14  H1  4RY d   1      19.686  54.456  86.607  0.00  0.00     0.078 H 
ATOM     15  H2  4RY d   1      19.566  55.498  88.064  0.00  0.00     0.078 H 
ATOM     16  H3  4RY d   1      20.558  57.130  88.828  0.00  0.00     0.051 H 
ATOM     17  H4  4RY d   1      21.966  58.244  88.776  0.00  0.00     0.051 H 
ATOM     18  H5  4RY d   1      21.166  58.264  86.632  0.00  0.00     0.075 H 
ATOM     19  H6  4RY d   1      21.892  57.142  85.431  0.00  0.00     0.075 H 
ATOM     20  H11 4RY d   1      24.131  53.732  85.495  0.00  0.00     0.036 H 
ATOM     21  H12 4RY d   1      24.018  53.833  87.285  0.00  0.00     0.036 H 
ATOM     22  H13 4RY d   1      21.836  53.313  86.255  0.00  0.00     0.036 H 
ATOM     23  H14 4RY d   1      21.930  54.828  85.294  0.00  0.00     0.036 H 
ATOM     24  H15 4RY d   1      24.119  56.510  88.264  0.00  0.00     0.037 H 
ATOM     25  H16 4RY d   1      23.841  57.685  86.934  0.00  0.00     0.037 H 
ATOM     26  H17 4RY d   1      24.174  56.103  85.281  0.00  0.00     0.072 H 
ATOM     27  H18 4RY d   1      21.787  53.240  88.428  0.00  0.00     0.162 HD
ENDROOT
BRANCH  10  28
ATOM     28  N14 4RY d   1      25.719  55.586  86.600  0.00  0.00    -0.352 N 
ATOM     29  C15 4RY d   1      26.699  55.895  85.693  0.00  0.00     0.252 C 
ATOM     30  O16 4RY d   1      26.530  56.216  84.517  0.00  0.00    -0.268 OA
ATOM     31  H21 4RY d   1      25.990  55.270  87.509  0.00  0.00     0.163 HD
BRANCH  29  32
ATOM     32  C17 4RY d   1      28.071  55.777  86.243  0.00  0.00     0.033 A 
ATOM     33  C18 4RY d   1      29.089  56.528  85.708  0.00  0.00    -0.068 A 
ATOM     34  C19 4RY d   1      30.380  56.451  86.191  0.00  0.00    -0.080 A 
ATOM     35  H8  4RY d   1      28.873  57.199  84.885  0.00  0.00     0.085 H 
ATOM     36  C20 4RY d   1      30.656  55.596  87.233  0.00  0.00    -0.062 A 
ATOM     37  H7  4RY d   1      31.166  57.056  85.755  0.00  0.00     0.083 H 
ATOM     38  C21 4RY d   1      29.631  54.835  87.768  0.00  0.00     0.035 A 
ATOM     39  H9  4RY d   1      31.662  55.519  87.629  0.00  0.00     0.086 H 
ATOM     40  C23 4RY d   1      28.339  54.910  87.286  0.00  0.00    -0.047 A 
ATOM     41 CL1  4RY d   1      30.018  53.766  89.071  0.00  0.00    -0.084 Cl
ATOM     42  H10 4RY d   1      27.552  54.302  87.716  0.00  0.00     0.087 H 
ENDBRANCH  29  32
ENDBRANCH  10  28
BRANCH   1  43
ATOM     43  N8  4RY d   1      22.574  53.815  90.730  0.00  0.00    -0.380 N 
ATOM     44  H19 4RY d   1      22.872  54.170  91.650  0.00  0.00     0.158 HD
ATOM     45  H20 4RY d   1      22.505  52.800  90.567  0.00  0.00     0.158 HD
ENDBRANCH   1  43
TORSDOF 3
