REMARK  7 active torsions:
REMARK  status: ('A' for Active; 'I' for Inactive)
REMARK    1  A    between atoms: N1_1  and  C4_4 
REMARK    2  A    between atoms: C5_5  and  N1_1 
REMARK    3  A    between atoms: N2_2  and  C7_7 
REMARK    4  A    between atoms: C8_17  and  N2_2 
REMARK    5  A    between atoms: C6_6  and  C5_5 
REMARK    6  A    between atoms: C7_7  and  C6_6 
REMARK    7  A    between atoms: C9_16  and  C8_17 
ROOT
ATOM      1  C6  MOL d   1     129.230 117.500 -10.427  0.00  0.00    -0.027 C 
ATOM      2  H6  MOL d   1     129.876 116.624 -10.272  0.00  0.00     0.037 H 
ATOM      3  H7  MOL d   1     128.283 117.181 -10.888  0.00  0.00     0.037 H 
ENDROOT
BRANCH   1   4
ATOM      4  C5  MOL d   1     129.929 118.459 -11.367  0.00  0.00     0.011 C 
ATOM      5  H4  MOL d   1     130.642 119.066 -10.789  0.00  0.00     0.064 H 
ATOM      6  H5  MOL d   1     130.473 117.878 -12.126  0.00  0.00     0.064 H 
BRANCH   4   7
ATOM      7  N1  MOL d   1     128.993 119.348 -12.039  0.00  0.00    -0.224 N 
ATOM      8  H1  MOL d   1     128.000 119.287 -11.772  0.00  0.00     0.177 HD
BRANCH   7   9
ATOM      9  C4  MOL d   1     129.331 120.240 -12.980  0.00  0.00     0.702 A 
ATOM     10  N   MOL d   1     128.417 121.035 -13.513  0.00  0.00    -0.186 N 
ATOM     11  C3  MOL d   1     129.156 121.832 -14.384  0.00  0.00     0.098 A 
ATOM     12  H15 MOL d   1     127.404 121.059 -13.328  0.00  0.00     0.184 HD
ATOM     13  C15 MOL d   1     130.520 121.464 -14.336  0.00  0.00     0.198 A 
ATOM     14  C2  MOL d   1     128.795 122.934 -15.160  0.00  0.00    -0.048 A 
ATOM     15  N3  MOL d   1     130.594 120.433 -13.428  0.00  0.00    -0.043 NA
ATOM     16  N4  MOL d   1     131.522 122.069 -14.997  0.00  0.00    -0.198 NA
ATOM     17  C   MOL d   1     131.059 123.179 -15.755  0.00  0.00     0.211 A 
ATOM     18  F   MOL d   1     132.034 123.847 -16.414  0.00  0.00    -0.184 F 
ATOM     19  C1  MOL d   1     129.765 123.625 -15.858  0.00  0.00    -0.025 A 
ATOM     20  H17 MOL d   1     129.514 124.488 -16.465  0.00  0.00     0.090 H 
ATOM     21  H16 MOL d   1     127.758 123.246 -15.214  0.00  0.00     0.087 H 
ENDBRANCH   7   9
ENDBRANCH   4   7
ENDBRANCH   1   4
BRANCH   1  22
ATOM     22  C7  MOL d   1     128.929 118.127  -9.081  0.00  0.00     0.083 C 
ATOM     23  H8  MOL d   1     129.833 118.075  -8.456  0.00  0.00     0.075 H 
ATOM     24  H9  MOL d   1     128.650 119.180  -9.235  0.00  0.00     0.075 H 
BRANCH  22  25
ATOM     25  N2  MOL d   1     127.832 117.445  -8.384  0.00  0.00    -0.071 N 
ATOM     26  H2  MOL d   1     128.105 116.489  -8.215  0.00  0.00     0.277 HD
ATOM     27  H3  MOL d   1     127.016 117.462  -8.976  0.00  0.00     0.277 HD
BRANCH  25  28
ATOM     28  C8  MOL d   1     127.489 118.066  -7.099  0.00  0.00     0.105 C 
ATOM     29  H13 MOL d   1     128.417 118.198  -6.524  0.00  0.00     0.083 H 
ATOM     30  H14 MOL d   1     126.816 117.385  -6.558  0.00  0.00     0.083 H 
BRANCH  28  31
ATOM     31  C9  MOL d   1     126.809 119.410  -7.208  0.00  0.00    -0.029 A 
ATOM     32  C10 MOL d   1     127.567 120.577  -7.215  0.00  0.00    -0.054 A 
ATOM     33  C11 MOL d   1     126.934 121.803  -7.259  0.00  0.00     0.036 A 
ATOM     34  H10 MOL d   1     128.649 120.524  -7.186  0.00  0.00     0.086 H 
ATOM     35  C12 MOL d   1     125.558 121.918  -7.282  0.00  0.00    -0.041 A 
ATOM     36 CL   MOL d   1     127.903 123.244  -7.356  0.00  0.00    -0.084 Cl
ATOM     37  C13 MOL d   1     124.820 120.750  -7.296  0.00  0.00     0.036 A 
ATOM     38  H11 MOL d   1     125.075 122.888  -7.289  0.00  0.00     0.088 H 
ATOM     39 CL1  MOL d   1     123.080 120.847  -7.433  0.00  0.00    -0.084 Cl
ATOM     40  C14 MOL d   1     125.420 119.505  -7.256  0.00  0.00    -0.054 A 
ATOM     41  H12 MOL d   1     124.813 118.607  -7.262  0.00  0.00     0.086 H 
ENDBRANCH  28  31
ENDBRANCH  25  28
ENDBRANCH  22  25
ENDBRANCH   1  22
TORSDOF 7
