REMARK  7 active torsions:
REMARK  status: ('A' for Active; 'I' for Inactive)
REMARK    1  A    between atoms: C2_2  and  C3_3 
REMARK    2  A    between atoms: N_15  and  C2_2 
REMARK    3  A    between atoms: C1_4  and  N_15 
REMARK    4  A    between atoms: C_16  and  C1_4 
REMARK    5  A    between atoms: C9_19  and  C_16 
REMARK    6  A    between atoms: N1_20  and  C9_19 
REMARK    7  A    between atoms: C10_21  and  N1_20 
ROOT
ATOM      1  C   MOL d   1     -44.298  12.642  10.169  0.00  0.00     0.283 C 
ATOM      2  F   MOL d   1     -45.219  11.738   9.686  0.00  0.00    -0.203 F 
ATOM      3  F1  MOL d   1     -44.851  13.872   9.895  0.00  0.00    -0.203 F 
ENDROOT
BRANCH   1   4
ATOM      4  C1  MOL d   1     -42.843  12.455   9.489  0.00  0.00     0.143 C 
ATOM      5  H4  MOL d   1     -42.205  13.305   9.772  0.00  0.00     0.085 H 
ATOM      6  H5  MOL d   1     -42.394  11.521   9.858  0.00  0.00     0.085 H 
BRANCH   4   7
ATOM      7  N   MOL d   1     -42.934  12.394   8.028  0.00  0.00    -0.066 N 
ATOM      8  H10 MOL d   1     -43.494  11.595   7.776  0.00  0.00     0.277 HD
ATOM      9  H11 MOL d   1     -43.383  13.235   7.701  0.00  0.00     0.277 HD
BRANCH   7  10
ATOM     10  C2  MOL d   1     -41.623  12.274   7.361  0.00  0.00     0.105 C 
ATOM     11  H2  MOL d   1     -41.034  11.518   7.901  0.00  0.00     0.083 H 
ATOM     12  H3  MOL d   1     -41.795  11.936   6.328  0.00  0.00     0.083 H 
BRANCH  10  13
ATOM     13  C3  MOL d   1     -40.812  13.550   7.308  0.00  0.00    -0.029 A 
ATOM     14  C4  MOL d   1     -41.453  14.783   7.245  0.00  0.00    -0.054 A 
ATOM     15  C5  MOL d   1     -40.706  15.941   7.218  0.00  0.00     0.036 A 
ATOM     16  H1  MOL d   1     -42.535  14.833   7.217  0.00  0.00     0.086 H 
ATOM     17  C6  MOL d   1     -39.325  15.926   7.215  0.00  0.00    -0.041 A 
ATOM     18 CL   MOL d   1     -41.529  17.466   7.266  0.00  0.00    -0.084 Cl
ATOM     19  C7  MOL d   1     -38.697  14.696   7.272  0.00  0.00     0.036 A 
ATOM     20  H9  MOL d   1     -38.754  16.846   7.170  0.00  0.00     0.088 H 
ATOM     21  C8  MOL d   1     -39.415  13.513   7.328  0.00  0.00    -0.054 A 
ATOM     22 CL1  MOL d   1     -36.939  14.637   7.279  0.00  0.00    -0.084 Cl
ATOM     23  H6  MOL d   1     -38.896  12.563   7.387  0.00  0.00     0.086 H 
ENDBRANCH  10  13
ENDBRANCH   7  10
ENDBRANCH   4   7
ENDBRANCH   1   4
BRANCH   1  24
ATOM     24  C9  MOL d   1     -44.090  12.449  11.719  0.00  0.00     0.071 C 
ATOM     25  H12 MOL d   1     -43.725  11.426  11.895  0.00  0.00     0.074 H 
ATOM     26  H13 MOL d   1     -45.061  12.583  12.219  0.00  0.00     0.074 H 
BRANCH  24  27
ATOM     27  N1  MOL d   1     -43.140  13.382  12.304  0.00  0.00    -0.218 N 
ATOM     28  H14 MOL d   1     -42.152  13.298  12.025  0.00  0.00     0.178 HD
BRANCH  27  29
ATOM     29  C10 MOL d   1     -43.461  14.341  13.179  0.00  0.00     0.703 A 
ATOM     30  N4  MOL d   1     -42.555  15.186  13.644  0.00  0.00    -0.186 N 
ATOM     31  C15 MOL d   1     -43.274  16.034  14.484  0.00  0.00     0.097 A 
ATOM     32  H15 MOL d   1     -41.547  15.211  13.433  0.00  0.00     0.184 HD
ATOM     33  C11 MOL d   1     -44.593  15.672  14.501  0.00  0.00     0.195 A 
ATOM     34  C14 MOL d   1     -42.906  17.169  15.206  0.00  0.00    -0.051 A 
ATOM     35  N2  MOL d   1     -44.698  14.589  13.666  0.00  0.00    -0.043 NA
ATOM     36  N3  MOL d   1     -45.576  16.299  15.162  0.00  0.00    -0.239 NA
ATOM     37  C12 MOL d   1     -45.199  17.387  15.850  0.00  0.00     0.005 A 
ATOM     38  C13 MOL d   1     -43.894  17.854  15.898  0.00  0.00    -0.064 A 
ATOM     39  H8  MOL d   1     -45.958  17.932  16.400  0.00  0.00     0.114 H 
ATOM     40  H16 MOL d   1     -43.649  18.742  16.469  0.00  0.00     0.085 H 
ATOM     41  H7  MOL d   1     -41.876  17.507  15.226  0.00  0.00     0.087 H 
ENDBRANCH  27  29
ENDBRANCH  24  27
ENDBRANCH   1  24
TORSDOF 7
