REMARK  8 active torsions:
REMARK  status: ('A' for Active; 'I' for Inactive)
REMARK    1  A    between atoms: C1_1  and  C2_2 
REMARK    2  A    between atoms: C1_1  and  C_17 
REMARK    3  A    between atoms: C10_18  and  C1_1 
REMARK    4  A    between atoms: C2_2  and  N_16 
REMARK    5  A    between atoms: C3_3  and  C4_4 
REMARK    6  A    between atoms: N_16  and  C3_3 
REMARK    7  A    between atoms: N1_8  and  C10_18 
REMARK    8  A    between atoms: C11_19  and  N1_8 
ROOT
ATOM      1  C1  MOL d   1     -43.045  11.733  10.467  0.00  0.00    -0.019 C 
ATOM      2  H1  MOL d   1     -42.163  11.210  10.867  0.00  0.00     0.044 H 
ENDROOT
BRANCH   1   3
ATOM      3  C2  MOL d   1     -42.610  12.495   9.162  0.00  0.00     0.086 C 
ATOM      4  H2  MOL d   1     -42.355  13.537   9.407  0.00  0.00     0.076 H 
ATOM      5  H3  MOL d   1     -43.432  12.481   8.431  0.00  0.00     0.076 H 
BRANCH   3   6
ATOM      6  N   MOL d   1     -41.435  11.814   8.601  0.00  0.00    -0.071 N 
ATOM      7  H11 MOL d   1     -41.642  10.829   8.546  0.00  0.00     0.277 HD
ATOM      8  H12 MOL d   1     -40.660  11.961   9.229  0.00  0.00     0.277 HD
BRANCH   6   9
ATOM      9  C3  MOL d   1     -41.031  12.268   7.266  0.00  0.00     0.105 C 
ATOM     10  H4  MOL d   1     -40.388  11.498   6.816  0.00  0.00     0.083 H 
ATOM     11  H5  MOL d   1     -41.935  12.394   6.653  0.00  0.00     0.083 H 
BRANCH   9  12
ATOM     12  C4  MOL d   1     -40.275  13.575   7.277  0.00  0.00    -0.029 A 
ATOM     13  C5  MOL d   1     -38.881  13.612   7.328  0.00  0.00    -0.054 A 
ATOM     14  C6  MOL d   1     -38.229  14.831   7.300  0.00  0.00     0.036 A 
ATOM     15  H6  MOL d   1     -38.313  12.691   7.389  0.00  0.00     0.086 H 
ATOM     16  C7  MOL d   1     -38.920  16.027   7.252  0.00  0.00    -0.041 A 
ATOM     17 CL   MOL d   1     -36.475  14.863   7.291  0.00  0.00    -0.084 Cl
ATOM     18  C8  MOL d   1     -40.298  15.965   7.207  0.00  0.00     0.036 A 
ATOM     19  H7  MOL d   1     -38.399  16.978   7.250  0.00  0.00     0.088 H 
ATOM     20 CL1  MOL d   1     -41.205  17.441   7.119  0.00  0.00    -0.084 Cl
ATOM     21  C9  MOL d   1     -40.980  14.768   7.213  0.00  0.00    -0.054 A 
ATOM     22  H10 MOL d   1     -42.063  14.758   7.168  0.00  0.00     0.086 H 
ENDBRANCH   9  12
ENDBRANCH   6   9
ENDBRANCH   3   6
ENDBRANCH   1   3
BRANCH   1  23
ATOM     23  C   MOL d   1     -44.137  10.715  10.150  0.00  0.00    -0.070 C 
ATOM     24  H13 MOL d   1     -44.429  10.192  11.072  0.00  0.00     0.028 H 
ATOM     25  H14 MOL d   1     -43.758   9.986   9.419  0.00  0.00     0.028 H 
ATOM     26  H15 MOL d   1     -45.011  11.234   9.730  0.00  0.00     0.028 H 
ENDBRANCH   1  23
BRANCH   1  27
ATOM     27  C10 MOL d   1     -43.612  12.668  11.566  0.00  0.00     0.014 C 
ATOM     28  H16 MOL d   1     -44.064  12.042  12.350  0.00  0.00     0.065 H 
ATOM     29  H17 MOL d   1     -44.387  13.302  11.111  0.00  0.00     0.065 H 
BRANCH  27  30
ATOM     30  N1  MOL d   1     -42.625  13.534  12.189  0.00  0.00    -0.224 N 
ATOM     31  H8  MOL d   1     -41.645  13.455  11.881  0.00  0.00     0.177 HD
BRANCH  30  32
ATOM     32  C11 MOL d   1     -42.918  14.428  13.141  0.00  0.00     0.702 A 
ATOM     33  N2  MOL d   1     -42.008  15.245  13.721  0.00  0.00    -0.061 NA
ATOM     34  C12 MOL d   1     -42.687  16.036  14.628  0.00  0.00     0.122 A 
ATOM     35  C16 MOL d   1     -44.002  15.655  14.541  0.00  0.00     0.172 A 
ATOM     36  C13 MOL d   1     -42.329  17.144  15.383  0.00  0.00    -0.049 A 
ATOM     37  N3  MOL d   1     -44.994  16.297  15.187  0.00  0.00    -0.241 NA
ATOM     38  N4  MOL d   1     -44.135  14.641  13.618  0.00  0.00    -0.171 N 
ATOM     39  C15 MOL d   1     -44.644  17.367  15.918  0.00  0.00     0.005 A 
ATOM     40  C14 MOL d   1     -43.343  17.824  16.039  0.00  0.00    -0.064 A 
ATOM     41  H18 MOL d   1     -45.425  17.904  16.444  0.00  0.00     0.114 H 
ATOM     42  H19 MOL d   1     -43.121  18.700  16.637  0.00  0.00     0.085 H 
ATOM     43  H9  MOL d   1     -45.001  14.150  13.354  0.00  0.00     0.186 HD
ATOM     44  H20 MOL d   1     -41.296  17.465  15.457  0.00  0.00     0.087 H 
ENDBRANCH  30  32
ENDBRANCH  27  30
ENDBRANCH   1  27
TORSDOF 8
