REMARK  6 active torsions:
REMARK  status: ('A' for Active; 'I' for Inactive)
REMARK    1  A    between atoms: N1_21  and  C4_4 
REMARK    2  A    between atoms: C6_6  and  C5_5 
REMARK    3  A    between atoms: C5_5  and  N1_21 
REMARK    4  A    between atoms: C7_7  and  C6_6 
REMARK    5  A    between atoms: N2_20  and  C7_7 
REMARK    6  A    between atoms: C8_8  and  N2_20 
ROOT
ATOM      1  C7  MOL d   1     -42.738  12.357   9.182  0.00  0.00     0.084 C 
ATOM      2  H7  MOL d   1     -42.256  13.296   9.492  0.00  0.00     0.075 H 
ATOM      3  H8  MOL d   1     -43.561  12.579   8.486  0.00  0.00     0.075 H 
ENDROOT
BRANCH   1   4
ATOM      4  C6  MOL d   1     -43.307  11.678  10.405  0.00  0.00    -0.027 C 
ATOM      5  H5  MOL d   1     -44.085  10.972  10.078  0.00  0.00     0.037 H 
ATOM      6  H6  MOL d   1     -42.496  11.126  10.902  0.00  0.00     0.037 H 
BRANCH   4   7
ATOM      7  C5  MOL d   1     -43.920  12.629  11.409  0.00  0.00     0.011 C 
ATOM      8  H3  MOL d   1     -44.442  12.044  12.181  0.00  0.00     0.064 H 
ATOM      9  H4  MOL d   1     -44.641  13.278  10.891  0.00  0.00     0.064 H 
BRANCH   7  10
ATOM     10  N1  MOL d   1     -42.911  13.461  12.049  0.00  0.00    -0.224 N 
ATOM     11  H18 MOL d   1     -41.928  13.330  11.770  0.00  0.00     0.177 HD
BRANCH  10  12
ATOM     12  C4  MOL d   1     -43.183  14.384  12.976  0.00  0.00     0.702 A 
ATOM     13  N   MOL d   1     -42.266  15.165  13.518  0.00  0.00    -0.186 N 
ATOM     14  C3  MOL d   1     -43.003  15.961  14.389  0.00  0.00     0.098 A 
ATOM     15  H19 MOL d   1     -41.252  15.181  13.339  0.00  0.00     0.184 HD
ATOM     16  C2  MOL d   1     -42.643  17.048  15.182  0.00  0.00    -0.048 A 
ATOM     17  C17 MOL d   1     -44.358  15.615  14.328  0.00  0.00     0.198 A 
ATOM     18  C1  MOL d   1     -43.625  17.731  15.873  0.00  0.00    -0.025 A 
ATOM     19  H2  MOL d   1     -41.606  17.354  15.256  0.00  0.00     0.087 H 
ATOM     20  C   MOL d   1     -44.915  17.283  15.744  0.00  0.00     0.211 A 
ATOM     21  H1  MOL d   1     -43.386  18.587  16.493  0.00  0.00     0.090 H 
ATOM     22  N4  MOL d   1     -45.355  16.220  14.982  0.00  0.00    -0.198 NA
ATOM     23  F   MOL d   1     -45.898  17.905  16.435  0.00  0.00    -0.184 F 
ATOM     24  N3  MOL d   1     -44.444  14.600  13.414  0.00  0.00    -0.043 NA
ENDBRANCH  10  12
ENDBRANCH   7  10
ENDBRANCH   4   7
ENDBRANCH   1   4
BRANCH   1  25
ATOM     25  N2  MOL d   1     -41.747  11.524   8.489  0.00  0.00    -0.067 N 
ATOM     26  H16 MOL d   1     -42.138  10.598   8.407  0.00  0.00     0.277 HD
ATOM     27  H17 MOL d   1     -40.924  11.491   9.070  0.00  0.00     0.277 HD
BRANCH  25  28
ATOM     28  C8  MOL d   1     -41.318  11.939   7.145  0.00  0.00     0.132 C 
ATOM     29  C9  MOL d   1     -40.423  10.854   6.555  0.00  0.00    -0.014 C 
ATOM     30  C10 MOL d   1     -39.012  10.912   7.095  0.00  0.00     0.028 C 
ATOM     31  H10 MOL d   1     -40.388  10.980   5.463  0.00  0.00     0.039 H 
ATOM     32  H11 MOL d   1     -40.853   9.871   6.797  0.00  0.00     0.039 H 
ATOM     33  O   MOL d   1     -38.414  12.228   7.056  0.00  0.00    -0.349 OA
ATOM     34  H12 MOL d   1     -38.386  10.232   6.499  0.00  0.00     0.075 H 
ATOM     35  H13 MOL d   1     -39.029  10.572   8.141  0.00  0.00     0.075 H 
ATOM     36  C11 MOL d   1     -39.192  13.356   7.082  0.00  0.00     0.099 A 
ATOM     37  C16 MOL d   1     -40.593  13.275   7.106  0.00  0.00     0.009 A 
ATOM     38  C12 MOL d   1     -38.565  14.610   7.052  0.00  0.00     0.069 A 
ATOM     39  C15 MOL d   1     -41.326  14.462   7.083  0.00  0.00    -0.051 A 
ATOM     40  C14 MOL d   1     -40.677  15.679   7.059  0.00  0.00     0.036 A 
ATOM     41  H14 MOL d   1     -42.410  14.428   7.084  0.00  0.00     0.087 H 
ATOM     42 CL1  MOL d   1     -41.618  17.134   7.030  0.00  0.00    -0.084 Cl
ATOM     43  C13 MOL d   1     -39.304  15.773   7.048  0.00  0.00    -0.038 A 
ATOM     44  H15 MOL d   1     -38.815  16.740   7.036  0.00  0.00     0.088 H 
ATOM     45 CL   MOL d   1     -36.821  14.730   7.019  0.00  0.00    -0.081 Cl
ATOM     46  H9  MOL d   1     -42.218  12.031   6.520  0.00  0.00     0.092 H 
ENDBRANCH  25  28
ENDBRANCH   1  25
TORSDOF 6
