REMARK  6 active torsions:
REMARK  status: ('A' for Active; 'I' for Inactive)
REMARK    1  A    between atoms: C7_7  and  N2_2 
REMARK    2  A    between atoms: N2_2  and  C8_19 
REMARK    3  A    between atoms: C5_5  and  C6_6 
REMARK    4  A    between atoms: N1_20  and  C5_5 
REMARK    5  A    between atoms: C6_6  and  C7_7 
REMARK    6  A    between atoms: N1_20  and  C4_21 
ROOT
ATOM      1  C7  MOL d   1     -42.509  12.075   9.126  0.00  0.00     0.084 C 
ATOM      2  H8  MOL d   1     -43.383  11.877   8.488  0.00  0.00     0.075 H 
ATOM      3  H9  MOL d   1     -42.321  13.158   9.164  0.00  0.00     0.075 H 
ENDROOT
BRANCH   1   4
ATOM      4  N2  MOL d   1     -41.338  11.411   8.545  0.00  0.00    -0.067 N 
ATOM      5  H2  MOL d   1     -41.494  10.415   8.572  0.00  0.00     0.277 HD
ATOM      6  H3  MOL d   1     -40.533  11.641   9.107  0.00  0.00     0.277 HD
BRANCH   4   7
ATOM      7  C8  MOL d   1     -41.054  11.796   7.154  0.00  0.00     0.131 C 
ATOM      8  C9  MOL d   1     -40.179  10.707   6.538  0.00  0.00    -0.020 C 
ATOM      9  C10 MOL d   1     -38.807  10.676   7.192  0.00  0.00    -0.005 C 
ATOM     10  H10 MOL d   1     -40.667   9.731   6.679  0.00  0.00     0.038 H 
ATOM     11  H11 MOL d   1     -40.061  10.906   5.463  0.00  0.00     0.038 H 
ATOM     12  N3  MOL d   1     -38.183  12.000   7.188  0.00  0.00    -0.388 N 
ATOM     13  H15 MOL d   1     -38.163   9.975   6.640  0.00  0.00     0.064 H 
ATOM     14  H16 MOL d   1     -38.914  10.334   8.232  0.00  0.00     0.064 H 
ATOM     15  C11 MOL d   1     -38.914  13.176   7.141  0.00  0.00     0.058 A 
ATOM     16  H14 MOL d   1     -37.155  12.060   7.222  0.00  0.00     0.159 HD
ATOM     17  C12 MOL d   1     -38.284  14.429   7.121  0.00  0.00     0.062 A 
ATOM     18  C16 MOL d   1     -40.320  13.127   7.110  0.00  0.00     0.002 A 
ATOM     19  C13 MOL d   1     -39.004  15.607   7.070  0.00  0.00    -0.039 A 
ATOM     20 CL   MOL d   1     -36.546  14.533   7.168  0.00  0.00    -0.082 Cl
ATOM     21  C14 MOL d   1     -40.380  15.536   7.035  0.00  0.00     0.036 A 
ATOM     22  H12 MOL d   1     -38.498  16.566   7.058  0.00  0.00     0.088 H 
ATOM     23 CL1  MOL d   1     -41.301  17.012   6.998  0.00  0.00    -0.084 Cl
ATOM     24  C15 MOL d   1     -41.044  14.324   7.050  0.00  0.00    -0.052 A 
ATOM     25  H13 MOL d   1     -42.127  14.300   7.015  0.00  0.00     0.087 H 
ATOM     26  H17 MOL d   1     -41.996  11.881   6.593  0.00  0.00     0.092 H 
ENDBRANCH   4   7
ENDBRANCH   1   4
BRANCH   1  27
ATOM     27  C6  MOL d   1     -42.804  11.583  10.523  0.00  0.00    -0.027 C 
ATOM     28  H6  MOL d   1     -43.460  10.703  10.448  0.00  0.00     0.037 H 
ATOM     29  H7  MOL d   1     -41.854  11.293  10.995  0.00  0.00     0.037 H 
BRANCH  27  30
ATOM     30  C5  MOL d   1     -43.482  12.609  11.407  0.00  0.00     0.011 C 
ATOM     31  H4  MOL d   1     -44.063  12.088  12.182  0.00  0.00     0.064 H 
ATOM     32  H5  MOL d   1     -44.157  13.223  10.793  0.00  0.00     0.064 H 
BRANCH  30  33
ATOM     33  N1  MOL d   1     -42.504  13.475  12.048  0.00  0.00    -0.224 N 
ATOM     34  H18 MOL d   1     -41.524  13.384  11.745  0.00  0.00     0.177 HD
BRANCH  33  35
ATOM     35  C4  MOL d   1     -42.770  14.377  12.995  0.00  0.00     0.702 A 
ATOM     36  N4  MOL d   1     -44.035  14.580  13.428  0.00  0.00    -0.043 NA
ATOM     37  C17 MOL d   1     -43.970  15.569  14.383  0.00  0.00     0.198 A 
ATOM     38  C3  MOL d   1     -42.622  15.909  14.482  0.00  0.00     0.098 A 
ATOM     39  N5  MOL d   1     -44.973  16.179  15.029  0.00  0.00    -0.198 NA
ATOM     40  N   MOL d   1     -41.876  15.143  13.592  0.00  0.00    -0.186 N 
ATOM     41  C2  MOL d   1     -42.273  16.993  15.287  0.00  0.00    -0.048 A 
ATOM     42  H19 MOL d   1     -40.858  15.168  13.435  0.00  0.00     0.184 HD
ATOM     43  C1  MOL d   1     -43.249  17.698  15.968  0.00  0.00    -0.025 A 
ATOM     44  H20 MOL d   1     -41.233  17.284  15.379  0.00  0.00     0.087 H 
ATOM     45  C   MOL d   1     -44.543  17.256  15.814  0.00  0.00     0.211 A 
ATOM     46  H1  MOL d   1     -43.008  18.553  16.590  0.00  0.00     0.090 H 
ATOM     47  F   MOL d   1     -45.537  17.890  16.479  0.00  0.00    -0.184 F 
ENDBRANCH  33  35
ENDBRANCH  30  33
ENDBRANCH  27  30
ENDBRANCH   1  27
TORSDOF 6
