REMARK  11 active torsions:
REMARK  status: ('A' for Active; 'I' for Inactive)
REMARK    1  A    between atoms: C01_1  and  N07_7 
REMARK    2  A    between atoms: C03_3  and  N08_8 
REMARK    3  A    between atoms: C06_6  and  C09_9 
REMARK    4  A    between atoms: N07_7  and  C10_10 
REMARK    5  A    between atoms: N08_8  and  C19_19 
REMARK    6  A    between atoms: C11_11  and  O15_15 
REMARK    7  A    between atoms: C12_12  and  O16_16 
REMARK    8  A    between atoms: C13_13  and  C17_17 
REMARK    9  A    between atoms: C17_17  and  O18_18 
REMARK   10  A    between atoms: C19_19  and  C20_20 
REMARK   11  A    between atoms: C20_20  and  C21_21 
ROOT
ATOM      1  C01 4S1 d   1      29.984   8.305  -8.357  0.00  0.00     0.157 A 
ATOM      2  N02 4S1 d   1      29.393   7.658  -7.289  0.00  0.00    -0.045 NA
ATOM      3  C03 4S1 d   1      29.640   6.358  -7.087  0.00  0.00     0.724 A 
ATOM      4  N04 4S1 d   1      30.441   5.594  -7.870  0.00  0.00    -0.074 NA
ATOM      5  C05 4S1 d   1      31.048   6.197  -8.951  0.00  0.00     0.037 A 
ATOM      6  C06 4S1 d   1      30.816   7.582  -9.296  0.00  0.00     0.064 A 
ATOM      7  H1  4S1 d   1      31.724   5.612  -9.564  0.00  0.00     0.117 H 
ENDROOT
BRANCH   1   8
ATOM      8  N07 4S1 d   1      29.670   9.647  -8.493  0.00  0.00    -0.366 N 
ATOM      9  H2  4S1 d   1      30.041  10.109  -9.335  0.00  0.00     0.161 HD
BRANCH   8  10
ATOM     10  C10 4S1 d   1      28.873  10.506  -7.591  0.00  0.00     0.038 C 
ATOM     11  C11 4S1 d   1      29.658  10.905  -6.305  0.00  0.00     0.080 C 
ATOM     12  C12 4S1 d   1      30.414  12.220  -6.718  0.00  0.00     0.067 C 
ATOM     13  H5  4S1 d   1      30.376  10.118  -6.030  0.00  0.00     0.090 H 
ATOM     14  C13 4S1 d   1      29.589  12.882  -7.868  0.00  0.00    -0.004 C 
ATOM     15  H6  4S1 d   1      31.381  11.910  -7.142  0.00  0.00     0.087 H 
ATOM     16  C14 4S1 d   1      28.469  11.858  -8.221  0.00  0.00    -0.036 C 
ATOM     17  H7  4S1 d   1      29.140  13.820  -7.511  0.00  0.00     0.047 H 
ATOM     18  H8  4S1 d   1      27.507  12.194  -7.808  0.00  0.00     0.036 H 
ATOM     19  H9  4S1 d   1      28.383  11.755  -9.313  0.00  0.00     0.036 H 
ATOM     20  H4  4S1 d   1      27.966   9.949  -7.312  0.00  0.00     0.076 H 
BRANCH  11  21
ATOM     21  O15 4S1 d   1      28.759  11.132  -5.195  0.00  0.00    -0.391 OA
ATOM     22  H10 4S1 d   1      29.255  11.441  -4.446  0.00  0.00     0.210 HD
ENDBRANCH  11  21
BRANCH  12  23
ATOM     23  O16 4S1 d   1      30.728  13.122  -5.673  0.00  0.00    -0.392 OA
ATOM     24  H11 4S1 d   1      31.242  13.841  -6.021  0.00  0.00     0.210 HD
ENDBRANCH  12  23
BRANCH  14  25
ATOM     25  C17 4S1 d   1      30.483  13.197  -9.119  0.00  0.00     0.022 C 
ATOM     26  H12 4S1 d   1      30.842  12.253  -9.556  0.00  0.00     0.074 H 
ATOM     27  H13 4S1 d   1      31.343  13.807  -8.806  0.00  0.00     0.074 H 
BRANCH  25  28
ATOM     28  O18 4S1 d   1      29.731  13.911 -10.095  0.00  0.00    -0.400 OA
ATOM     29  H14 4S1 d   1      30.283  14.095 -10.846  0.00  0.00     0.209 HD
ENDBRANCH  25  28
ENDBRANCH  14  25
ENDBRANCH   8  10
ENDBRANCH   1   8
BRANCH   6  30
ATOM     30  C09 4S1 d   1      31.534   8.251 -10.403  0.00  0.00     0.114 A 
ATOM     31  S22 4S1 d   1      32.804   7.390 -11.279  0.00  0.00    -0.067 SA
ATOM     32  C23 4S1 d   1      33.178   8.851 -12.145  0.00  0.00     0.035 A 
ATOM     33  C24 4S1 d   1      32.340   9.915 -11.718  0.00  0.00     0.075 A 
ATOM     34  C26 4S1 d   1      34.150   9.043 -13.135  0.00  0.00    -0.064 A 
ATOM     35  N25 4S1 d   1      31.452   9.565 -10.711  0.00  0.00    -0.239 NA
ATOM     36  C29 4S1 d   1      32.498  11.207 -12.343  0.00  0.00    -0.054 A 
ATOM     37  C28 4S1 d   1      33.465  11.407 -13.382  0.00  0.00    -0.081 A 
ATOM     38  H25 4S1 d   1      31.878  12.036 -12.023  0.00  0.00     0.087 H 
ATOM     39  C27 4S1 d   1      34.310  10.316 -13.764  0.00  0.00    -0.082 A 
ATOM     40  H24 4S1 d   1      33.555  12.370 -13.871  0.00  0.00     0.083 H 
ATOM     41  H23 4S1 d   1      35.068  10.455 -14.527  0.00  0.00     0.083 H 
ATOM     42  H22 4S1 d   1      34.788   8.217 -13.427  0.00  0.00     0.085 H 
ENDBRANCH   6  30
BRANCH   3  43
ATOM     43  N08 4S1 d   1      29.009   5.760  -5.989  0.00  0.00    -0.222 N 
ATOM     44  H3  4S1 d   1      29.170   4.751  -5.859  0.00  0.00     0.177 HD
BRANCH  43  45
ATOM     45  C19 4S1 d   1      28.130   6.427  -4.990  0.00  0.00     0.009 C 
ATOM     46  H15 4S1 d   1      27.351   6.986  -5.529  0.00  0.00     0.064 H 
ATOM     47  H16 4S1 d   1      28.740   7.126  -4.399  0.00  0.00     0.064 H 
BRANCH  45  48
ATOM     48  C20 4S1 d   1      27.447   5.441  -4.028  0.00  0.00    -0.053 C 
ATOM     49  H17 4S1 d   1      28.216   4.954  -3.410  0.00  0.00     0.034 H 
ATOM     50  H18 4S1 d   1      26.914   4.680  -4.617  0.00  0.00     0.034 H 
BRANCH  48  51
ATOM     51  C21 4S1 d   1      26.446   6.149  -3.108  0.00  0.00    -0.075 C 
ATOM     52  H19 4S1 d   1      25.980   5.412  -2.437  0.00  0.00     0.027 H 
ATOM     53  H20 4S1 d   1      25.669   6.634  -3.716  0.00  0.00     0.027 H 
ATOM     54  H21 4S1 d   1      26.971   6.909  -2.510  0.00  0.00     0.027 H 
ENDBRANCH  48  51
ENDBRANCH  45  48
ENDBRANCH  43  45
ENDBRANCH   3  43
TORSDOF 11
