REMARK  9 active torsions:
REMARK  status: ('A' for Active; 'I' for Inactive)
REMARK    1  A    between atoms: C01_1  and  N07_7 
REMARK    2  A    between atoms: C03_3  and  N08_8 
REMARK    3  A    between atoms: C06_6  and  C10_10 
REMARK    4  A    between atoms: N07_7  and  C11_11 
REMARK    5  A    between atoms: N08_8  and  C20_20 
REMARK    6  A    between atoms: C12_12  and  O16_16 
REMARK    7  A    between atoms: C13_13  and  O17_17 
REMARK    8  A    between atoms: C14_14  and  C18_18 
REMARK    9  A    between atoms: C18_18  and  O19_19 
ROOT
ATOM      1  C01 4S2 d   1      29.350   7.739  -7.113  0.00  0.00     0.136 A 
ATOM      2  N02 4S2 d   1      28.697   7.284  -5.992  0.00  0.00    -0.176 N 
ATOM      3  C03 4S2 d   1      28.707   6.043  -5.624  0.00  0.00     0.682 A 
ATOM      4  N04 4S2 d   1      29.403   5.077  -6.398  0.00  0.00    -0.155 N 
ATOM      5  C05 4S2 d   1      30.106   5.405  -7.557  0.00  0.00     0.276 A 
ATOM      6  C06 4S2 d   1      30.066   6.875  -7.933  0.00  0.00     0.112 A 
ATOM      7  O09 4S2 d   1      30.687   4.489  -8.203  0.00  0.00    -0.267 OA
ATOM      8  H1  4S2 d   1      28.176   7.962  -5.418  0.00  0.00     0.186 HD
ATOM      9  H2  4S2 d   1      29.389   4.123  -6.100  0.00  0.00     0.187 HD
ENDROOT
BRANCH   1  10
ATOM     10  N07 4S2 d   1      29.184   9.125  -7.302  0.00  0.00    -0.368 N 
ATOM     11  H3  4S2 d   1      29.626   9.440  -8.178  0.00  0.00     0.161 HD
BRANCH  10  12
ATOM     12  C11 4S2 d   1      28.550  10.246  -6.587  0.00  0.00     0.038 C 
ATOM     13  C12 4S2 d   1      28.673  10.180  -5.054  0.00  0.00     0.080 C 
ATOM     14  C13 4S2 d   1      28.363  11.619  -4.568  0.00  0.00     0.067 C 
ATOM     15  H6  4S2 d   1      29.695   9.890  -4.770  0.00  0.00     0.090 H 
ATOM     16  C14 4S2 d   1      28.696  12.501  -5.769  0.00  0.00    -0.004 C 
ATOM     17  H7  4S2 d   1      29.024  11.859  -3.722  0.00  0.00     0.087 H 
ATOM     18  C15 4S2 d   1      29.301  11.567  -6.817  0.00  0.00    -0.036 C 
ATOM     19  H8  4S2 d   1      27.746  12.871  -6.181  0.00  0.00     0.047 H 
ATOM     20  H9  4S2 d   1      29.125  11.949  -7.834  0.00  0.00     0.036 H 
ATOM     21  H10 4S2 d   1      30.381  11.440  -6.655  0.00  0.00     0.036 H 
ATOM     22  H5  4S2 d   1      27.498  10.313  -6.900  0.00  0.00     0.076 H 
BRANCH  13  23
ATOM     23  O16 4S2 d   1      27.759   9.263  -4.481  0.00  0.00    -0.391 OA
ATOM     24  H11 4S2 d   1      26.875   9.495  -4.739  0.00  0.00     0.210 HD
ENDBRANCH  13  23
BRANCH  14  25
ATOM     25  O17 4S2 d   1      26.996  11.877  -4.155  0.00  0.00    -0.392 OA
ATOM     26  H12 4S2 d   1      26.784  11.330  -3.408  0.00  0.00     0.210 HD
ENDBRANCH  14  25
BRANCH  16  27
ATOM     27  C18 4S2 d   1      29.503  13.759  -5.414  0.00  0.00     0.022 C 
ATOM     28  H13 4S2 d   1      30.579  13.544  -5.488  0.00  0.00     0.074 H 
ATOM     29  H14 4S2 d   1      29.262  14.079  -4.389  0.00  0.00     0.074 H 
BRANCH  27  30
ATOM     30  O19 4S2 d   1      29.152  14.789  -6.336  0.00  0.00    -0.400 OA
ATOM     31  H15 4S2 d   1      29.642  15.576  -6.131  0.00  0.00     0.209 HD
ENDBRANCH  27  30
ENDBRANCH  16  27
ENDBRANCH  10  12
ENDBRANCH   1  10
BRANCH   6  32
ATOM     32  C10 4S2 d   1      30.790   7.354  -9.132  0.00  0.00     0.118 A 
ATOM     33  S23 4S2 d   1      31.906   6.310  -9.972  0.00  0.00    -0.067 SA
ATOM     34  C24 4S2 d   1      32.490   7.669 -10.917  0.00  0.00     0.035 A 
ATOM     35  C25 4S2 d   1      31.718   8.821 -10.609  0.00  0.00     0.075 A 
ATOM     36  C27 4S2 d   1      33.574   7.747 -11.824  0.00  0.00    -0.064 A 
ATOM     37  N26 4S2 d   1      30.782   8.628  -9.589  0.00  0.00    -0.239 NA
ATOM     38  C30 4S2 d   1      32.027  10.045 -11.280  0.00  0.00    -0.054 A 
ATOM     39  C29 4S2 d   1      33.103  10.138 -12.225  0.00  0.00    -0.081 A 
ATOM     40  H24 4S2 d   1      31.433  10.927 -11.069  0.00  0.00     0.087 H 
ATOM     41  C28 4S2 d   1      33.894   9.001 -12.475  0.00  0.00    -0.082 A 
ATOM     42  H23 4S2 d   1      33.304  11.071 -12.739  0.00  0.00     0.083 H 
ATOM     43  H22 4S2 d   1      34.739   9.063 -13.152  0.00  0.00     0.083 H 
ATOM     44  H21 4S2 d   1      34.167   6.864 -12.032  0.00  0.00     0.085 H 
ENDBRANCH   6  32
BRANCH   3  45
ATOM     45  N08 4S2 d   1      27.998   5.647  -4.498  0.00  0.00    -0.221 N 
ATOM     46  H4  4S2 d   1      27.348   6.368  -4.153  0.00  0.00     0.178 HD
BRANCH  45  47
ATOM     47  C20 4S2 d   1      27.978   4.441  -3.709  0.00  0.00     0.026 A 
ATOM     48  C21 4S2 d   1      26.692   4.052  -2.993  0.00  0.00    -0.044 A 
ATOM     49  C22 4S2 d   1      27.838   4.673  -2.216  0.00  0.00    -0.044 A 
ATOM     50  H17 4S2 d   1      26.441   2.991  -2.850  0.00  0.00     0.036 H 
ATOM     51  H18 4S2 d   1      25.770   4.626  -3.167  0.00  0.00     0.036 H 
ATOM     52  H19 4S2 d   1      27.746   5.697  -1.825  0.00  0.00     0.036 H 
ATOM     53  H20 4S2 d   1      28.417   4.061  -1.508  0.00  0.00     0.036 H 
ATOM     54  H16 4S2 d   1      28.647   3.674  -4.127  0.00  0.00     0.073 H 
ENDBRANCH  45  47
ENDBRANCH   3  45
TORSDOF 9
