REMARK  4 active torsions:
REMARK  status: ('A' for Active; 'I' for Inactive)
REMARK    1  A    between atoms: C01_1  and  N07_7 
REMARK    2  A    between atoms: C03_3  and  N08_8 
REMARK    3  A    between atoms: C06_6  and  C10_10 
REMARK    4  A    between atoms: N07_7  and  C11_11 
ROOT
ATOM      1  C01 4S3 d   1      29.613   7.917  -6.522  0.00  0.00     0.139 A 
ATOM      2  N02 4S3 d   1      28.857   7.481  -5.481  0.00  0.00    -0.050 NA
ATOM      3  C03 4S3 d   1      28.657   6.174  -5.259  0.00  0.00     0.707 A 
ATOM      4  N04 4S3 d   1      29.220   5.243  -6.092  0.00  0.00    -0.157 N 
ATOM      5  C05 4S3 d   1      30.009   5.539  -7.193  0.00  0.00     0.254 A 
ATOM      6  C06 4S3 d   1      30.226   6.948  -7.435  0.00  0.00     0.130 A 
ATOM      7  O09 4S3 d   1      30.466   4.615  -7.872  0.00  0.00    -0.271 OA
ATOM      8  H1  4S3 d   1      29.049   4.278  -5.891  0.00  0.00     0.187 HD
ATOM      9  H2  4S3 d   1      29.332   6.983  -8.075  0.00  0.00     0.077 H 
ENDROOT
BRANCH   1  10
ATOM     10  N07 4S3 d   1      29.789   9.269  -6.672  0.00  0.00    -0.370 N 
ATOM     11  H3  4S3 d   1      30.559   9.533  -7.304  0.00  0.00     0.161 HD
BRANCH  10  12
ATOM     12  C11 4S3 d   1      29.069  10.399  -6.087  0.00  0.00     0.034 C 
ATOM     13  C12 4S3 d   1      29.088  10.343  -4.514  0.00  0.00     0.100 C 
ATOM     14  N13 4S3 d   1      28.550  11.559  -3.909  0.00  0.00    -0.073 N 
ATOM     15  H5  4S3 d   1      30.127  10.210  -4.177  0.00  0.00     0.078 H 
ATOM     16  H6  4S3 d   1      28.483   9.486  -4.183  0.00  0.00     0.078 H 
ATOM     17  C14 4S3 d   1      28.997  12.860  -4.426  0.00  0.00     0.082 C 
ATOM     18  H7  4S3 d   1      28.785  11.532  -2.929  0.00  0.00     0.277 HD
ATOM     19  H8  4S3 d   1      27.548  11.525  -4.015  0.00  0.00     0.277 HD
ATOM     20  C15 4S3 d   1      29.069  12.921  -5.926  0.00  0.00    -0.041 C 
ATOM     21  H9  4S3 d   1      29.998  13.069  -4.021  0.00  0.00     0.075 H 
ATOM     22  H10 4S3 d   1      28.293  13.632  -4.080  0.00  0.00     0.075 H 
ATOM     23  C16 4S3 d   1      29.745  11.696  -6.530  0.00  0.00    -0.043 C 
ATOM     24  H11 4S3 d   1      29.639  13.816  -6.215  0.00  0.00     0.035 H 
ATOM     25  H12 4S3 d   1      28.047  12.992  -6.325  0.00  0.00     0.035 H 
ATOM     26  H13 4S3 d   1      29.696  11.767  -7.627  0.00  0.00     0.036 H 
ATOM     27  H14 4S3 d   1      30.797  11.676  -6.210  0.00  0.00     0.036 H 
ATOM     28  H4  4S3 d   1      28.027  10.384  -6.438  0.00  0.00     0.074 H 
ENDBRANCH  10  12
ENDBRANCH   1  10
BRANCH   6  29
ATOM     29  C10 4S3 d   1      31.047   7.379  -8.569  0.00  0.00     0.097 A 
ATOM     30  S22 4S3 d   1      32.093   6.340  -9.514  0.00  0.00    -0.071 SA
ATOM     31  C23 4S3 d   1      32.551   7.724 -10.464  0.00  0.00     0.035 A 
ATOM     32  C24 4S3 d   1      31.858   8.851 -10.014  0.00  0.00     0.074 A 
ATOM     33  C26 4S3 d   1      33.455   7.813 -11.517  0.00  0.00    -0.064 A 
ATOM     34  N25 4S3 d   1      31.018   8.628  -8.929  0.00  0.00    -0.243 NA
ATOM     35  C29 4S3 d   1      32.088  10.085 -10.626  0.00  0.00    -0.054 A 
ATOM     36  C28 4S3 d   1      32.977  10.168 -11.689  0.00  0.00    -0.081 A 
ATOM     37  H26 4S3 d   1      31.576  10.973 -10.273  0.00  0.00     0.087 H 
ATOM     38  C27 4S3 d   1      33.657   9.044 -12.129  0.00  0.00    -0.082 A 
ATOM     39  H25 4S3 d   1      33.141  11.121 -12.179  0.00  0.00     0.083 H 
ATOM     40  H24 4S3 d   1      34.352   9.126 -12.957  0.00  0.00     0.083 H 
ATOM     41  H23 4S3 d   1      33.994   6.935 -11.855  0.00  0.00     0.085 H 
ENDBRANCH   6  29
BRANCH   3  42
ATOM     42  N08 4S3 d   1      27.850   5.779  -4.138  0.00  0.00    -0.212 N 
ATOM     43  C17 4S3 d   1      26.665   6.588  -3.802  0.00  0.00     0.031 C 
ATOM     44  C18 4S3 d   1      26.210   6.298  -2.392  0.00  0.00     0.035 C 
ATOM     45  H15 4S3 d   1      25.851   6.347  -4.502  0.00  0.00     0.068 H 
ATOM     46  H16 4S3 d   1      26.919   7.655  -3.888  0.00  0.00     0.068 H 
ATOM     47  O19 4S3 d   1      25.983   4.906  -2.186  0.00  0.00    -0.388 OA
ATOM     48  H17 4S3 d   1      25.274   6.844  -2.200  0.00  0.00     0.076 H 
ATOM     49  H18 4S3 d   1      26.985   6.640  -1.690  0.00  0.00     0.076 H 
ATOM     50  C20 4S3 d   1      27.187   4.186  -2.407  0.00  0.00     0.035 C 
ATOM     51  C21 4S3 d   1      27.674   4.351  -3.821  0.00  0.00     0.031 C 
ATOM     52  H19 4S3 d   1      27.006   3.118  -2.213  0.00  0.00     0.076 H 
ATOM     53  H20 4S3 d   1      27.959   4.559  -1.717  0.00  0.00     0.076 H 
ATOM     54  H21 4S3 d   1      28.637   3.832  -3.936  0.00  0.00     0.068 H 
ATOM     55  H22 4S3 d   1      26.938   3.914  -4.512  0.00  0.00     0.068 H 
ENDBRANCH   3  42
TORSDOF 4
