REMARK  9 active torsions:
REMARK  status: ('A' for Active; 'I' for Inactive)
REMARK    1  A    between atoms: N03_3  and  C04_4 
REMARK    2  A    between atoms: C04_4  and  C05_5 
REMARK    3  A    between atoms: C05_5  and  O06_6 
REMARK    4  A    between atoms: O06_6  and  C07_7 
REMARK    5  A    between atoms: C10_10  and  C11_11 
REMARK    6  A    between atoms: C11_11  and  C12_12 
REMARK    7  A    between atoms: N18_18  and  C19_19 
REMARK    8  A    between atoms: C22_22  and  C23_23 
REMARK    9  A    between atoms: C23_23  and  C24_24 
ROOT
ATOM      1  O01 4RM d   1       4.313 -28.257  -2.856  0.00  0.00    -0.267 OA
ATOM      2  C02 4RM d   1       4.714 -27.976  -3.972  0.00  0.00     0.263 A 
ATOM      3  N03 4RM d   1       5.965 -27.000  -4.291  0.00  0.00    -0.290 N 
ATOM      4  C08 4RM d   1       6.126 -26.916  -5.807  0.00  0.00     0.176 A 
ATOM      5  S09 4RM d   1       4.986 -27.849  -6.505  0.00  0.00    -0.050 SA
ATOM      6  C10 4RM d   1       4.122 -28.493  -5.309  0.00  0.00     0.058 A 
ATOM      7  N18 4RM d   1       7.067 -26.193  -6.396  0.00  0.00    -0.224 NA
ENDROOT
BRANCH   3   8
ATOM      8  C04 4RM d   1       6.745 -26.344  -3.311  0.00  0.00     0.025 C 
ATOM      9  H1  4RM d   1       7.682 -25.981  -3.759  0.00  0.00     0.068 H 
ATOM     10  H2  4RM d   1       6.976 -27.038  -2.489  0.00  0.00     0.068 H 
BRANCH   8  11
ATOM     11  C05 4RM d   1       5.912 -25.143  -2.774  0.00  0.00     0.034 C 
ATOM     12  H3  4RM d   1       6.258 -24.876  -1.764  0.00  0.00     0.076 H 
ATOM     13  H4  4RM d   1       4.848 -25.419  -2.736  0.00  0.00     0.076 H 
BRANCH  11  14
ATOM     14  O06 4RM d   1       6.090 -24.015  -3.663  0.00  0.00    -0.394 OA
BRANCH  14  15
ATOM     15  C07 4RM d   1       7.260 -23.208  -3.352  0.00  0.00     0.004 C 
ATOM     16  H5  4RM d   1       7.330 -22.374  -4.065  0.00  0.00     0.066 H 
ATOM     17  H6  4RM d   1       8.164 -23.830  -3.425  0.00  0.00     0.066 H 
ATOM     18  H7  4RM d   1       7.170 -22.810  -2.330  0.00  0.00     0.066 H 
ENDBRANCH  14  15
ENDBRANCH  11  14
ENDBRANCH   8  11
ENDBRANCH   3   8
BRANCH   7  19
ATOM     19  C19 4RM d   1       7.221 -26.105  -7.830  0.00  0.00     0.059 A 
ATOM     20  C20 4RM d   1       6.366 -25.292  -8.571  0.00  0.00    -0.055 A 
ATOM     21  C21 4RM d   1       6.550 -25.202  -9.968  0.00  0.00    -0.075 A 
ATOM     22  H14 4RM d   1       5.572 -24.738  -8.083  0.00  0.00     0.087 H 
ATOM     23  C22 4RM d   1       7.595 -25.926 -10.597  0.00  0.00    -0.058 A 
ATOM     24  H15 4RM d   1       5.891 -24.578 -10.561  0.00  0.00     0.084 H 
ATOM     25  C25 4RM d   1       8.442 -26.721  -9.845  0.00  0.00    -0.075 A 
ATOM     26  C26 4RM d   1       8.264 -26.809  -8.453  0.00  0.00    -0.055 A 
ATOM     27  H21 4RM d   1       9.240 -27.274 -10.327  0.00  0.00     0.084 H 
ATOM     28  H22 4RM d   1       8.933 -27.422  -7.860  0.00  0.00     0.087 H 
BRANCH  23  29
ATOM     29  C23 4RM d   1       7.813 -25.850 -12.144  0.00  0.00    -0.044 C 
ATOM     30  H16 4RM d   1       6.974 -26.356 -12.644  0.00  0.00     0.039 H 
ATOM     31  H17 4RM d   1       8.753 -26.364 -12.393  0.00  0.00     0.039 H 
BRANCH  29  32
ATOM     32  C24 4RM d   1       7.892 -24.396 -12.660  0.00  0.00    -0.073 C 
ATOM     33  H18 4RM d   1       8.045 -24.401 -13.749  0.00  0.00     0.028 H 
ATOM     34  H19 4RM d   1       8.733 -23.880 -12.174  0.00  0.00     0.028 H 
ATOM     35  H20 4RM d   1       6.954 -23.872 -12.424  0.00  0.00     0.028 H 
ENDBRANCH  29  32
ENDBRANCH  23  29
ENDBRANCH   7  19
BRANCH   6  36
ATOM     36  C11 4RM d   1       3.048 -29.331  -5.306  0.00  0.00    -0.005 C 
ATOM     37  H8  4RM d   1       2.219 -28.704  -4.947  0.00  0.00     0.048 H 
ATOM     38  H9  4RM d   1       3.296 -30.083  -4.543  0.00  0.00     0.048 H 
BRANCH  36  39
ATOM     39  C12 4RM d   1       2.437 -30.141  -6.442  0.00  0.00    -0.051 A 
ATOM     40  C13 4RM d   1       1.678 -31.298  -6.138  0.00  0.00    -0.060 A 
ATOM     41  C14 4RM d   1       1.111 -32.043  -7.164  0.00  0.00     0.002 A 
ATOM     42  H10 4RM d   1       1.540 -31.601  -5.106  0.00  0.00     0.086 H 
ATOM     43  N15 4RM d   1       1.270 -31.680  -8.422  0.00  0.00    -0.273 NA
ATOM     44  H11 4RM d   1       0.533 -32.930  -6.929  0.00  0.00     0.114 H 
ATOM     45  C16 4RM d   1       1.966 -30.602  -8.769  0.00  0.00     0.002 A 
ATOM     46  C17 4RM d   1       2.557 -29.798  -7.795  0.00  0.00    -0.060 A 
ATOM     47  H12 4RM d   1       2.075 -30.346  -9.817  0.00  0.00     0.114 H 
ATOM     48  H13 4RM d   1       3.108 -28.910  -8.084  0.00  0.00     0.086 H 
ENDBRANCH  36  39
ENDBRANCH   6  36
TORSDOF 9
