REMARK  9 active torsions:
REMARK  status: ('A' for Active; 'I' for Inactive)
REMARK    1  A    between atoms: C01_1  and  C02_2 
REMARK    2  A    between atoms: C02_2  and  C03_3 
REMARK    3  A    between atoms: C06_6  and  N09_9 
REMARK    4  A    between atoms: C12_12  and  C13_13 
REMARK    5  A    between atoms: C13_13  and  C14_14 
REMARK    6  A    between atoms: C16_16  and  N17_17 
REMARK    7  A    between atoms: N17_17  and  C18_18 
REMARK    8  A    between atoms: C21_21  and  C24_24 
REMARK    9  A    between atoms: N32_32  and  C33_33 
ROOT
ATOM      1  N09 4RJ d   1      -8.363  25.759  -7.727  0.00  0.00    -0.224 NA
ATOM      2  C10 4RJ d   1      -7.558  26.517  -7.017  0.00  0.00     0.176 A 
ATOM      3  S11 4RJ d   1      -6.615  27.819  -7.551  0.00  0.00    -0.050 SA
ATOM      4  C12 4RJ d   1      -5.941  28.184  -6.182  0.00  0.00     0.058 A 
ATOM      5  C30 4RJ d   1      -6.368  27.325  -5.049  0.00  0.00     0.262 A 
ATOM      6  O31 4RJ d   1      -5.971  27.441  -3.891  0.00  0.00    -0.267 OA
ATOM      7  N32 4RJ d   1      -7.415  26.212  -5.496  0.00  0.00    -0.296 N 
ENDROOT
BRANCH   4   8
ATOM      8  C13 4RJ d   1      -5.060  29.144  -5.924  0.00  0.00    -0.005 C 
ATOM      9  H10 4RJ d   1      -4.207  28.629  -5.458  0.00  0.00     0.048 H 
ATOM     10  H11 4RJ d   1      -5.551  29.788  -5.179  0.00  0.00     0.048 H 
BRANCH   8  11
ATOM     11  C14 4RJ d   1      -4.430  30.120  -6.942  0.00  0.00    -0.048 A 
ATOM     12  C15 4RJ d   1      -3.900  31.303  -6.424  0.00  0.00    -0.032 A 
ATOM     13  C16 4RJ d   1      -3.303  32.248  -7.241  0.00  0.00     0.129 A 
ATOM     14  H12 4RJ d   1      -3.957  31.486  -5.357  0.00  0.00     0.090 H 
ATOM     15  N27 4RJ d   1      -3.252  32.007  -8.560  0.00  0.00    -0.243 NA
ATOM     16  C28 4RJ d   1      -3.729  30.910  -9.113  0.00  0.00     0.005 A 
ATOM     17  C29 4RJ d   1      -4.322  29.933  -8.346  0.00  0.00    -0.059 A 
ATOM     18  H17 4RJ d   1      -3.653  30.775 -10.186  0.00  0.00     0.114 H 
ATOM     19  H18 4RJ d   1      -4.703  29.030  -8.809  0.00  0.00     0.086 H 
BRANCH  13  20
ATOM     20  N17 4RJ d   1      -2.760  33.486  -6.763  0.00  0.00    -0.326 N 
ATOM     21  H13 4RJ d   1      -2.685  34.255  -7.444  0.00  0.00     0.169 HD
BRANCH  20  22
ATOM     22  C18 4RJ d   1      -2.294  33.767  -5.378  0.00  0.00     0.128 A 
ATOM     23  C19 4RJ d   1      -2.789  33.090  -4.262  0.00  0.00    -0.037 A 
ATOM     24  C20 4RJ d   1      -2.350  33.372  -2.967  0.00  0.00    -0.061 A 
ATOM     25  H14 4RJ d   1      -3.539  32.320  -4.406  0.00  0.00     0.089 H 
ATOM     26  C21 4RJ d   1      -1.396  34.369  -2.821  0.00  0.00     0.058 A 
ATOM     27  H15 4RJ d   1      -2.739  32.834  -2.110  0.00  0.00     0.085 H 
ATOM     28  C22 4RJ d   1      -0.923  35.038  -3.968  0.00  0.00     0.021 A 
ATOM     29  N23 4RJ d   1      -1.375  34.727  -5.170  0.00  0.00    -0.242 NA
ATOM     30  H16 4RJ d   1      -0.178  35.818  -3.862  0.00  0.00     0.116 H 
BRANCH  26  31
ATOM     31  C24 4RJ d   1      -0.898  34.686  -1.413  0.00  0.00     0.210 C 
ATOM     32  O25 4RJ d   1       0.239  35.251  -1.252  0.00  0.00    -0.644 OA
ATOM     33  O26 4RJ d   1      -1.612  34.368  -0.401  0.00  0.00    -0.644 OA
ENDBRANCH  26  31
ENDBRANCH  20  22
ENDBRANCH  13  20
ENDBRANCH   8  11
ENDBRANCH   4   8
BRANCH   7  34
ATOM     34  C33 4RJ d   1      -8.047  25.218  -4.725  0.00  0.00    -0.009 C 
ATOM     35  H19 4RJ d   1      -8.712  24.623  -5.368  0.00  0.00     0.057 H 
ATOM     36  H20 4RJ d   1      -8.637  25.693  -3.927  0.00  0.00     0.057 H 
ATOM     37  H21 4RJ d   1      -7.286  24.562  -4.277  0.00  0.00     0.057 H 
ENDBRANCH   7  34
BRANCH   1  38
ATOM     38  C06 4RJ d   1      -8.642  25.900  -9.114  0.00  0.00     0.059 A 
ATOM     39  C05 4RJ d   1      -8.249  24.918 -10.027  0.00  0.00    -0.055 A 
ATOM     40  C04 4RJ d   1      -8.569  25.072 -11.375  0.00  0.00    -0.075 A 
ATOM     41  H7  4RJ d   1      -7.701  24.045  -9.691  0.00  0.00     0.087 H 
ATOM     42  C03 4RJ d   1      -9.286  26.190 -11.791  0.00  0.00    -0.058 A 
ATOM     43  H6  4RJ d   1      -8.261  24.324 -12.096  0.00  0.00     0.084 H 
ATOM     44  C08 4RJ d   1      -9.687  27.159 -10.879  0.00  0.00    -0.075 A 
ATOM     45  C07 4RJ d   1      -9.376  27.014  -9.536  0.00  0.00    -0.055 A 
ATOM     46  H9  4RJ d   1     -10.242  28.027 -11.217  0.00  0.00     0.084 H 
ATOM     47  H8  4RJ d   1      -9.699  27.759  -8.818  0.00  0.00     0.087 H 
BRANCH  42  48
ATOM     48  C02 4RJ d   1      -9.625  26.363 -13.258  0.00  0.00    -0.044 C 
ATOM     49  H4  4RJ d   1      -9.429  25.417 -13.784  0.00  0.00     0.039 H 
ATOM     50  H5  4RJ d   1     -10.691  26.620 -13.350  0.00  0.00     0.039 H 
BRANCH  48  51
ATOM     51  C01 4RJ d   1      -8.779  27.484 -13.909  0.00  0.00    -0.073 C 
ATOM     52  H1  4RJ d   1      -9.052  27.580 -14.970  0.00  0.00     0.028 H 
ATOM     53  H2  4RJ d   1      -7.711  27.233 -13.826  0.00  0.00     0.028 H 
ATOM     54  H3  4RJ d   1      -8.973  28.436 -13.393  0.00  0.00     0.028 H 
ENDBRANCH  48  51
ENDBRANCH  42  48
ENDBRANCH   1  38
TORSDOF 9
