REMARK  10 active torsions:
REMARK  status: ('A' for Active; 'I' for Inactive)
REMARK    1  A    between atoms: C01_1  and  C02_2 
REMARK    2  A    between atoms: C02_2  and  C03_3 
REMARK    3  A    between atoms: C06_6  and  N09_9 
REMARK    4  A    between atoms: N09_9  and  C10_10 
REMARK    5  A    between atoms: C12_12  and  C13_13 
REMARK    6  A    between atoms: C13_13  and  C14_14 
REMARK    7  A    between atoms: C16_16  and  N17_17 
REMARK    8  A    between atoms: N17_17  and  C18_18 
REMARK    9  A    between atoms: C21_21  and  C24_24 
REMARK   10  A    between atoms: N34_34  and  C35_35 
ROOT
ATOM      1  C13 4RK d   1       1.732 -28.112  -5.322  0.00  0.00    -0.005 C 
ATOM      2  H10 4RK d   1       0.848 -27.534  -5.016  0.00  0.00     0.048 H 
ATOM      3  H11 4RK d   1       2.043 -28.771  -4.498  0.00  0.00     0.048 H 
ENDROOT
BRANCH   1   4
ATOM      4  C12 4RK d   1       2.750 -27.170  -5.420  0.00  0.00     0.058 A 
ATOM      5  S11 4RK d   1       3.556 -26.569  -6.641  0.00  0.00    -0.050 SA
ATOM      6  C10 4RK d   1       4.593 -25.471  -5.981  0.00  0.00     0.176 A 
ATOM      7  N34 4RK d   1       4.406 -25.433  -4.508  0.00  0.00    -0.296 N 
ATOM      8  C32 4RK d   1       3.252 -26.487  -4.132  0.00  0.00     0.262 A 
ATOM      9  O33 4RK d   1       2.852 -26.705  -3.004  0.00  0.00    -0.267 OA
BRANCH   6  10
ATOM     10  N09 4RK d   1       5.479 -24.678  -6.547  0.00  0.00    -0.224 NA
BRANCH  10  11
ATOM     11  C06 4RK d   1       5.755 -24.669  -7.912  0.00  0.00     0.059 A 
ATOM     12  C05 4RK d   1       6.428 -25.785  -8.406  0.00  0.00    -0.055 A 
ATOM     13  C04 4RK d   1       6.768 -25.856  -9.748  0.00  0.00    -0.075 A 
ATOM     14  H7  4RK d   1       6.686 -26.600  -7.739  0.00  0.00     0.087 H 
ATOM     15  C03 4RK d   1       6.444 -24.800 -10.602  0.00  0.00    -0.058 A 
ATOM     16  H6  4RK d   1       7.284 -26.728 -10.133  0.00  0.00     0.084 H 
ATOM     17  C08 4RK d   1       5.782 -23.661 -10.099  0.00  0.00    -0.075 A 
ATOM     18  C07 4RK d   1       5.436 -23.597  -8.751  0.00  0.00    -0.055 A 
ATOM     19  H9  4RK d   1       5.543 -22.836 -10.760  0.00  0.00     0.084 H 
ATOM     20  H8  4RK d   1       4.925 -22.726  -8.357  0.00  0.00     0.087 H 
BRANCH  15  21
ATOM     21  C02 4RK d   1       6.865 -24.964 -12.079  0.00  0.00    -0.044 C 
ATOM     22  H4  4RK d   1       7.881 -24.559 -12.192  0.00  0.00     0.039 H 
ATOM     23  H5  4RK d   1       6.870 -26.038 -12.316  0.00  0.00     0.039 H 
BRANCH  21  24
ATOM     24  C01 4RK d   1       5.950 -24.253 -13.097  0.00  0.00    -0.073 C 
ATOM     25  H1  4RK d   1       6.329 -24.427 -14.115  0.00  0.00     0.028 H 
ATOM     26  H2  4RK d   1       5.940 -23.173 -12.889  0.00  0.00     0.028 H 
ATOM     27  H3  4RK d   1       4.928 -24.652 -13.013  0.00  0.00     0.028 H 
ENDBRANCH  21  24
ENDBRANCH  15  21
ENDBRANCH  10  11
ENDBRANCH   6  10
BRANCH   7  28
ATOM     28  C35 4RK d   1       5.128 -24.601  -3.582  0.00  0.00    -0.009 C 
ATOM     29  H21 4RK d   1       5.854 -23.985  -4.132  0.00  0.00     0.057 H 
ATOM     30  H22 4RK d   1       5.660 -25.235  -2.857  0.00  0.00     0.057 H 
ATOM     31  H23 4RK d   1       4.422 -23.948  -3.049  0.00  0.00     0.057 H 
ENDBRANCH   7  28
ENDBRANCH   1   4
BRANCH   1  32
ATOM     32  C14 4RK d   1       1.224 -29.046  -6.381  0.00  0.00    -0.048 A 
ATOM     33  C15 4RK d   1       0.581 -30.217  -5.931  0.00  0.00    -0.032 A 
ATOM     34  C16 4RK d   1       0.065 -31.136  -6.849  0.00  0.00     0.128 A 
ATOM     35  H12 4RK d   1       0.486 -30.406  -4.868  0.00  0.00     0.090 H 
ATOM     36  N29 4RK d   1       0.188 -30.877  -8.154  0.00  0.00    -0.243 NA
ATOM     37  C30 4RK d   1       0.772 -29.787  -8.637  0.00  0.00     0.005 A 
ATOM     38  C31 4RK d   1       1.307 -28.828  -7.782  0.00  0.00    -0.059 A 
ATOM     39  H19 4RK d   1       0.833 -29.642  -9.710  0.00  0.00     0.114 H 
ATOM     40  H20 4RK d   1       1.777 -27.934  -8.177  0.00  0.00     0.086 H 
BRANCH  34  41
ATOM     41  N17 4RK d   1      -0.580 -32.353  -6.489  0.00  0.00    -0.341 N 
ATOM     42  H13 4RK d   1      -0.812 -32.990  -7.264  0.00  0.00     0.167 HD
BRANCH  41  43
ATOM     43  C18 4RK d   1      -0.943 -32.795  -5.180  0.00  0.00     0.033 A 
ATOM     44  C19 4RK d   1      -0.218 -32.563  -4.037  0.00  0.00    -0.056 A 
ATOM     45  C20 4RK d   1      -0.648 -33.060  -2.809  0.00  0.00    -0.067 A 
ATOM     46  H14 4RK d   1       0.699 -31.987  -4.091  0.00  0.00     0.086 H 
ATOM     47  C21 4RK d   1      -1.825 -33.810  -2.724  0.00  0.00     0.015 A 
ATOM     48  H15 4RK d   1      -0.067 -32.864  -1.915  0.00  0.00     0.085 H 
ATOM     49  C22 4RK d   1      -2.542 -34.057  -3.868  0.00  0.00    -0.067 A 
ATOM     50  C23 4RK d   1      -2.114 -33.568  -5.085  0.00  0.00    -0.056 A 
ATOM     51  H16 4RK d   1      -3.453 -34.642  -3.815  0.00  0.00     0.085 H 
ATOM     52  H17 4RK d   1      -2.688 -33.782  -5.979  0.00  0.00     0.086 H 
BRANCH  47  53
ATOM     53  C24 4RK d   1      -2.305 -34.365  -1.381  0.00  0.00     0.197 A 
ATOM     54  N25 4RK d   1      -1.661 -34.256  -0.209  0.00  0.00    -0.139 NA
ATOM     55  N26 4RK d   1      -2.377 -34.873   0.741  0.00  0.00    -0.200 N 
ATOM     56  N27 4RK d   1      -3.474 -35.372   0.164  0.00  0.00     0.022 NA
ATOM     57  H18 4RK d   1      -2.127 -34.949   1.737  0.00  0.00     0.208 HD
ATOM     58  N28 4RK d   1      -3.431 -35.064  -1.152  0.00  0.00    -0.136 NA
ENDBRANCH  47  53
ENDBRANCH  41  43
ENDBRANCH  34  41
ENDBRANCH   1  32
TORSDOF 10
