REMARK  12 active torsions:
REMARK  status: ('A' for Active; 'I' for Inactive)
REMARK    1  A    between atoms: C22_14  and  O3_3 
REMARK    2  A    between atoms: C1_6  and  C2_4 
REMARK    3  A    between atoms: N1_19  and  C1_6 
REMARK    4  A    between atoms: C19_9  and  C20_8 
REMARK    5  A    between atoms: C18_10  and  C19_9 
REMARK    6  A    between atoms: C15_11  and  C18_10 
REMARK    7  A    between atoms: C16_13  and  C22_14 
REMARK    8  A    between atoms: C22_14  and  C23_15 
REMARK    9  A    between atoms: C22_14  and  C24_16 
REMARK   10  A    between atoms: C17_17  and  C21_18 
REMARK   11  A    between atoms: C5_22  and  C8_23 
REMARK   12  A    between atoms: C13_28  and  C14_29 
ROOT
ATOM      1  C15 OLM d   1     -43.398  66.051  28.173  0.00  0.00     0.107 A 
ATOM      2  N6  OLM d   1     -44.607  65.823  27.667  0.00  0.00    -0.234 NA
ATOM      3  C16 OLM d   1     -44.446  65.136  26.546  0.00  0.00     0.103 A 
ATOM      4  C17 OLM d   1     -43.136  64.940  26.359  0.00  0.00     0.141 A 
ATOM      5  N1  OLM d   1     -42.461  65.501  27.376  0.00  0.00    -0.324 N 
ENDROOT
BRANCH   5   6
ATOM      6  C1  OLM d   1     -40.992  65.501  27.482  0.00  0.00     0.025 C 
ATOM      7  H4  OLM d   1     -40.570  65.461  26.467  0.00  0.00     0.072 H 
ATOM      8  H5  OLM d   1     -40.678  66.434  27.973  0.00  0.00     0.072 H 
BRANCH   6   9
ATOM      9  C2  OLM d   1     -40.480  64.412  28.223  0.00  0.00    -0.040 A 
ATOM     10  C3  OLM d   1     -39.090  64.377  28.362  0.00  0.00    -0.074 A 
ATOM     11  C4  OLM d   1     -38.457  63.365  29.082  0.00  0.00    -0.072 A 
ATOM     12  H2  OLM d   1     -38.491  65.153  27.900  0.00  0.00     0.084 H 
ATOM     13  C5  OLM d   1     -39.204  62.344  29.672  0.00  0.00    -0.025 A 
ATOM     14  H1  OLM d   1     -37.378  63.371  29.184  0.00  0.00     0.084 H 
ATOM     15  C6  OLM d   1     -40.598  62.367  29.534  0.00  0.00    -0.072 A 
ATOM     16  C7  OLM d   1     -41.235  63.386  28.813  0.00  0.00    -0.074 A 
ATOM     17  H20 OLM d   1     -41.193  61.585  29.992  0.00  0.00     0.084 H 
ATOM     18  H19 OLM d   1     -42.314  63.382  28.711  0.00  0.00     0.084 H 
BRANCH  13  19
ATOM     19  C8  OLM d   1     -38.569  61.328  30.405  0.00  0.00    -0.012 A 
ATOM     20  C9  OLM d   1     -38.978  61.134  31.733  0.00  0.00    -0.071 A 
ATOM     21  C10 OLM d   1     -38.395  60.151  32.530  0.00  0.00    -0.082 A 
ATOM     22  H21 OLM d   1     -39.761  61.760  32.146  0.00  0.00     0.084 H 
ATOM     23  C11 OLM d   1     -37.384  59.349  32.008  0.00  0.00    -0.082 A 
ATOM     24  H22 OLM d   1     -38.727  60.011  33.552  0.00  0.00     0.083 H 
ATOM     25  C12 OLM d   1     -36.959  59.530  30.691  0.00  0.00    -0.068 A 
ATOM     26  H23 OLM d   1     -36.927  58.584  32.625  0.00  0.00     0.083 H 
ATOM     27  C13 OLM d   1     -37.543  60.510  29.881  0.00  0.00     0.024 A 
ATOM     28  H24 OLM d   1     -36.169  58.905  30.292  0.00  0.00     0.085 H 
BRANCH  27  29
ATOM     29  C14 OLM d   1     -37.093  60.646  28.632  0.00  0.00     0.180 A 
ATOM     30  N5  OLM d   1     -37.752  60.367  27.521  0.00  0.00    -0.239 N 
ATOM     31  N4  OLM d   1     -37.002  60.651  26.635  0.00  0.00    -0.046 NA
ATOM     32  H25 OLM d   1     -38.706  59.987  27.437  0.00  0.00     0.192 HD
ATOM     33  N3  OLM d   1     -35.872  61.115  27.122  0.00  0.00    -0.023 NA
ATOM     34  N2  OLM d   1     -35.908  61.125  28.297  0.00  0.00    -0.108 NA
ENDBRANCH  27  29
ENDBRANCH  13  19
ENDBRANCH   6   9
ENDBRANCH   5   6
BRANCH   1  35
ATOM     35  C18 OLM d   1     -43.248  66.847  29.497  0.00  0.00    -0.010 C 
ATOM     36  H11 OLM d   1     -42.799  67.827  29.280  0.00  0.00     0.044 H 
ATOM     37  H12 OLM d   1     -44.242  66.990  29.947  0.00  0.00     0.044 H 
BRANCH  35  38
ATOM     38  C19 OLM d   1     -42.366  66.102  30.471  0.00  0.00    -0.062 C 
ATOM     39  H9  OLM d   1     -42.557  65.020  30.421  0.00  0.00     0.033 H 
ATOM     40  H10 OLM d   1     -41.304  66.297  30.263  0.00  0.00     0.033 H 
BRANCH  38  41
ATOM     41  C20 OLM d   1     -42.758  66.654  31.824  0.00  0.00    -0.076 C 
ATOM     42  H6  OLM d   1     -42.160  66.164  32.607  0.00  0.00     0.027 H 
ATOM     43  H7  OLM d   1     -43.826  66.461  32.003  0.00  0.00     0.027 H 
ATOM     44  H8  OLM d   1     -42.573  67.738  31.846  0.00  0.00     0.027 H 
ENDBRANCH  38  41
ENDBRANCH  35  38
ENDBRANCH   1  35
BRANCH   4  45
ATOM     45  C21 OLM d   1     -42.571  64.284  25.337  0.00  0.00     0.229 C 
ATOM     46  O2  OLM d   1     -42.661  63.038  25.258  0.00  0.00    -0.643 OA
ATOM     47  O1  OLM d   1     -41.944  64.919  24.460  0.00  0.00    -0.643 OA
ENDBRANCH   4  45
BRANCH   3  48
ATOM     48  C22 OLM d   1     -45.637  64.676  25.668  0.00  0.00     0.097 C 
BRANCH  48  49
ATOM     49  O3  OLM d   1     -46.837  65.303  26.157  0.00  0.00    -0.384 OA
ATOM     50  H3  OLM d   1     -46.982  65.046  27.060  0.00  0.00     0.211 HD
ENDBRANCH  48  49
BRANCH  48  51
ATOM     51  C23 OLM d   1     -45.441  65.138  24.215  0.00  0.00    -0.043 C 
ATOM     52  H13 OLM d   1     -44.530  64.678  23.804  0.00  0.00     0.032 H 
ATOM     53  H14 OLM d   1     -45.343  66.233  24.189  0.00  0.00     0.032 H 
ATOM     54  H15 OLM d   1     -46.309  64.833  23.613  0.00  0.00     0.032 H 
ENDBRANCH  48  51
BRANCH  48  55
ATOM     55  C24 OLM d   1     -45.801  63.138  25.749  0.00  0.00    -0.043 C 
ATOM     56  H16 OLM d   1     -44.887  62.652  25.377  0.00  0.00     0.032 H 
ATOM     57  H17 OLM d   1     -46.658  62.828  25.134  0.00  0.00     0.032 H 
ATOM     58  H18 OLM d   1     -45.974  62.842  26.794  0.00  0.00     0.032 H 
ENDBRANCH  48  55
ENDBRANCH   3  48
TORSDOF 12
