REMARK  13 active torsions:
REMARK  status: ('A' for Active; 'I' for Inactive)
REMARK    1  A    between atoms: C3_2  and  C2_1 
REMARK    2  A    between atoms: C2_1  and  N1_15 
REMARK    3  A    between atoms: C4_3  and  C3_2 
REMARK    4  A    between atoms: N5_14  and  C4_3 
REMARK    5  A    between atoms: C6_4  and  C7_5 
REMARK    6  A    between atoms: C6_4  and  N5_14 
REMARK    7  A    between atoms: C7_5  and  C8_6 
REMARK    8  A    between atoms: C8_6  and  C9_7 
REMARK    9  A    between atoms: C9_7  and  C10_8 
REMARK   10  A    between atoms: C10_8  and  C11_9 
REMARK   11  A    between atoms: C11_9  and  C12_10 
REMARK   12  A    between atoms: C11_9  and  O13_16 
REMARK   13  A    between atoms: C11_9  and  O14_17 
ROOT
ATOM      1  C7  FKS d   1     -11.979   5.567 -27.033  0.00  0.00    -0.043 C 
ATOM      2  H9  FKS d   1     -12.499   5.035 -27.843  0.00  0.00     0.035 H 
ATOM      3  H10 FKS d   1     -10.928   5.728 -27.315  0.00  0.00     0.035 H 
ENDROOT
BRANCH   1   4
ATOM      4  C6  FKS d   1     -12.047   4.740 -25.745  0.00  0.00     0.082 C 
ATOM      5  H7  FKS d   1     -13.102   4.532 -25.513  0.00  0.00     0.075 H 
ATOM      6  H8  FKS d   1     -11.600   5.322 -24.926  0.00  0.00     0.075 H 
BRANCH   4   7
ATOM      7  N5  FKS d   1     -11.334   3.474 -25.865  0.00  0.00    -0.075 N 
ATOM      8  H17 FKS d   1     -10.351   3.696 -25.878  0.00  0.00     0.277 HD
ATOM      9  H18 FKS d   1     -11.548   2.942 -25.036  0.00  0.00     0.277 HD
BRANCH   7  10
ATOM     10  C4  FKS d   1     -11.580   2.592 -27.005  0.00  0.00     0.083 C 
ATOM     11  H5  FKS d   1     -12.639   2.296 -27.007  0.00  0.00     0.075 H 
ATOM     12  H6  FKS d   1     -11.349   3.134 -27.934  0.00  0.00     0.075 H 
BRANCH  10  13
ATOM     13  C3  FKS d   1     -10.714   1.339 -26.932  0.00  0.00    -0.020 C 
ATOM     14  H3  FKS d   1      -9.655   1.638 -26.930  0.00  0.00     0.037 H 
ATOM     15  H4  FKS d   1     -10.945   0.800 -26.001  0.00  0.00     0.037 H 
BRANCH  13  16
ATOM     16  C2  FKS d   1     -10.961   0.409 -28.114  0.00  0.00     0.081 C 
ATOM     17  H1  FKS d   1     -10.673   0.914 -29.048  0.00  0.00     0.075 H 
ATOM     18  H2  FKS d   1     -12.027   0.140 -28.156  0.00  0.00     0.075 H 
BRANCH  16  19
ATOM     19  N1  FKS d   1     -10.159  -0.793 -27.940  0.00  0.00    -0.079 N 
ATOM     20  H19 FKS d   1     -10.315  -1.416 -28.717  0.00  0.00     0.274 HD
ATOM     21  H20 FKS d   1     -10.424  -1.252 -27.083  0.00  0.00     0.274 HD
ATOM     22  H21 FKS d   1      -9.183  -0.543 -27.900  0.00  0.00     0.274 HD
ENDBRANCH  16  19
ENDBRANCH  13  16
ENDBRANCH  10  13
ENDBRANCH   7  10
ENDBRANCH   4   7
ENDBRANCH   1   4
BRANCH   1  23
ATOM     23  C8  FKS d   1     -12.656   6.911 -26.783  0.00  0.00    -0.063 C 
ATOM     24  H11 FKS d   1     -12.089   7.473 -26.026  0.00  0.00     0.033 H 
ATOM     25  H12 FKS d   1     -13.682   6.744 -26.424  0.00  0.00     0.033 H 
BRANCH  23  26
ATOM     26  C9  FKS d   1     -12.694   7.710 -28.090  0.00  0.00    -0.060 C 
ATOM     27  H13 FKS d   1     -13.485   7.309 -28.740  0.00  0.00     0.033 H 
ATOM     28  H14 FKS d   1     -11.723   7.624 -28.599  0.00  0.00     0.033 H 
BRANCH  26  29
ATOM     29  C10 FKS d   1     -12.981   9.180 -27.789  0.00  0.00    -0.004 C 
ATOM     30  H15 FKS d   1     -12.060   9.631 -27.391  0.00  0.00     0.041 H 
ATOM     31  H16 FKS d   1     -13.770   9.222 -27.024  0.00  0.00     0.041 H 
BRANCH  29  32
ATOM     32  C11 FKS d   1     -13.442  10.024 -28.994  0.00  0.00     0.260 C 
BRANCH  32  33
ATOM     33  C12 FKS d   1     -13.652  11.470 -28.594  0.00  0.00     0.444 C 
ATOM     34  F15 FKS d   1     -14.484  11.586 -27.583  0.00  0.00    -0.166 F 
ATOM     35  F16 FKS d   1     -14.147  12.138 -29.646  0.00  0.00    -0.166 F 
ATOM     36  F17 FKS d   1     -12.527  12.047 -28.262  0.00  0.00    -0.166 F 
ENDBRANCH  32  33
BRANCH  32  37
ATOM     37  O13 FKS d   1     -12.485   9.972 -30.032  0.00  0.00    -0.359 OA
ATOM     38  H22 FKS d   1     -11.650  10.289 -29.708  0.00  0.00     0.213 HD
ENDBRANCH  32  37
BRANCH  32  39
ATOM     39  O14 FKS d   1     -14.678   9.537 -29.536  0.00  0.00    -0.359 OA
ATOM     40  H23 FKS d   1     -15.348   9.558 -28.863  0.00  0.00     0.213 HD
ENDBRANCH  32  39
ENDBRANCH  29  32
ENDBRANCH  26  29
ENDBRANCH  23  26
ENDBRANCH   1  23
TORSDOF 13
