REMARK  10 active torsions:
REMARK  status: ('A' for Active; 'I' for Inactive)
REMARK    1  A    between atoms: C3_2  and  C2_1 
REMARK    2  A    between atoms: C2_1  and  N1_9 
REMARK    3  A    between atoms: C4_3  and  C3_2 
REMARK    4  A    between atoms: N5_10  and  C4_3 
REMARK    5  A    between atoms: C6_4  and  C7_5 
REMARK    6  A    between atoms: C6_4  and  N5_10 
REMARK    7  A    between atoms: C7_5  and  C8_6 
REMARK    8  A    between atoms: C8_6  and  C9_7 
REMARK    9  A    between atoms: C9_7  and  C10_8 
REMARK   10  A    between atoms: C10_8  and  S11_11 
ROOT
ATOM      1  C6  SS9 d   1     -11.928   5.139 -26.018  0.00  0.00     0.082 C 
ATOM      2  H7  SS9 d   1     -13.005   5.106 -25.797  0.00  0.00     0.075 H 
ATOM      3  H8  SS9 d   1     -11.409   5.704 -25.230  0.00  0.00     0.075 H 
ENDROOT
BRANCH   1   4
ATOM      4  C7  SS9 d   1     -11.742   5.895 -27.338  0.00  0.00    -0.043 C 
ATOM      5  H9  SS9 d   1     -12.205   5.330 -28.160  0.00  0.00     0.035 H 
ATOM      6  H10 SS9 d   1     -10.670   6.029 -27.543  0.00  0.00     0.035 H 
BRANCH   4   7
ATOM      7  C8  SS9 d   1     -12.421   7.263 -27.201  0.00  0.00    -0.063 C 
ATOM      8  H11 SS9 d   1     -12.038   7.745 -26.289  0.00  0.00     0.033 H 
ATOM      9  H12 SS9 d   1     -13.504   7.098 -27.102  0.00  0.00     0.033 H 
BRANCH   7  10
ATOM     10  C9  SS9 d   1     -12.191   8.218 -28.375  0.00  0.00    -0.057 C 
ATOM     11  H13 SS9 d   1     -12.346   7.677 -29.320  0.00  0.00     0.034 H 
ATOM     12  H14 SS9 d   1     -11.161   8.601 -28.336  0.00  0.00     0.034 H 
BRANCH  10  13
ATOM     13  C10 SS9 d   1     -13.173   9.394 -28.297  0.00  0.00    -0.026 C 
ATOM     14  H15 SS9 d   1     -12.925   9.991 -27.407  0.00  0.00     0.048 H 
ATOM     15  H16 SS9 d   1     -14.190   8.987 -28.193  0.00  0.00     0.048 H 
BRANCH  13  16
ATOM     16  S11 SS9 d   1     -13.146  10.489 -29.740  0.00  0.00    -0.182 SA
ATOM     17  H22 SS9 d   1     -12.224  10.882 -29.845  0.00  0.00     0.101 HD
ENDBRANCH  13  16
ENDBRANCH  10  13
ENDBRANCH   7  10
ENDBRANCH   4   7
ENDBRANCH   1   4
BRANCH   1  18
ATOM     18  N5  SS9 d   1     -11.425   3.772 -25.994  0.00  0.00    -0.075 N 
ATOM     19  H20 SS9 d   1     -10.486   3.823 -25.632  0.00  0.00     0.277 HD
ATOM     20  H21 SS9 d   1     -12.008   3.268 -25.344  0.00  0.00     0.277 HD
BRANCH  18  21
ATOM     21  C4  SS9 d   1     -11.355   2.958 -27.193  0.00  0.00     0.083 C 
ATOM     22  H5  SS9 d   1     -12.362   2.589 -27.438  0.00  0.00     0.075 H 
ATOM     23  H6  SS9 d   1     -10.977   3.571 -28.024  0.00  0.00     0.075 H 
BRANCH  21  24
ATOM     24  C3  SS9 d   1     -10.422   1.767 -26.984  0.00  0.00    -0.020 C 
ATOM     25  H3  SS9 d   1      -9.396   2.135 -26.839  0.00  0.00     0.037 H 
ATOM     26  H4  SS9 d   1     -10.742   1.212 -26.090  0.00  0.00     0.037 H 
BRANCH  24  27
ATOM     27  C2  SS9 d   1     -10.452   0.836 -28.185  0.00  0.00     0.081 C 
ATOM     28  H1  SS9 d   1     -10.034   1.343 -29.067  0.00  0.00     0.075 H 
ATOM     29  H2  SS9 d   1     -11.486   0.525 -28.396  0.00  0.00     0.075 H 
BRANCH  27  30
ATOM     30  N1  SS9 d   1      -9.643  -0.321 -27.845  0.00  0.00    -0.079 N 
ATOM     31  H17 SS9 d   1      -9.637  -0.966 -28.619  0.00  0.00     0.274 HD
ATOM     32  H18 SS9 d   1     -10.030  -0.775 -27.033  0.00  0.00     0.274 HD
ATOM     33  H19 SS9 d   1      -8.700  -0.025 -27.647  0.00  0.00     0.274 HD
ENDBRANCH  27  30
ENDBRANCH  24  27
ENDBRANCH  21  24
ENDBRANCH  18  21
ENDBRANCH   1  18
TORSDOF 10
