REMARK  11 active torsions:
REMARK  status: ('A' for Active; 'I' for Inactive)
REMARK    1  A    between atoms: C3_2  and  C2_1 
REMARK    2  A    between atoms: C2_1  and  N1_10 
REMARK    3  A    between atoms: C4_3  and  C3_2 
REMARK    4  A    between atoms: N5_11  and  C4_3 
REMARK    5  A    between atoms: C6_4  and  C7_5 
REMARK    6  A    between atoms: C6_4  and  N5_11 
REMARK    7  A    between atoms: C7_5  and  C8_6 
REMARK    8  A    between atoms: C8_6  and  C9_7 
REMARK    9  A    between atoms: C9_7  and  C10_8 
REMARK   10  A    between atoms: C10_8  and  C11_9 
REMARK       I    between atoms: C11_9  and  N13_12 
REMARK   11  A    between atoms: N13_12  and  O14_14 
ROOT
ATOM      1  C6  XS6 d   1     -11.921   4.158 -26.097  0.00  0.00     0.082 C 
ATOM      2  H7  XS6 d   1     -12.906   4.205 -26.583  0.00  0.00     0.075 H 
ATOM      3  H8  XS6 d   1     -12.048   3.902 -25.035  0.00  0.00     0.075 H 
ENDROOT
BRANCH   1   4
ATOM      4  C7  XS6 d   1     -11.261   5.517 -26.197  0.00  0.00    -0.043 C 
ATOM      5  H9  XS6 d   1     -10.700   5.566 -27.142  0.00  0.00     0.035 H 
ATOM      6  H10 XS6 d   1     -10.567   5.633 -25.352  0.00  0.00     0.035 H 
BRANCH   4   7
ATOM      7  C8  XS6 d   1     -12.264   6.667 -26.166  0.00  0.00    -0.063 C 
ATOM      8  H11 XS6 d   1     -11.985   7.376 -25.372  0.00  0.00     0.033 H 
ATOM      9  H12 XS6 d   1     -13.271   6.271 -25.967  0.00  0.00     0.033 H 
BRANCH   7  10
ATOM     10  C9  XS6 d   1     -12.256   7.382 -27.512  0.00  0.00    -0.057 C 
ATOM     11  H13 XS6 d   1     -12.735   6.746 -28.271  0.00  0.00     0.033 H 
ATOM     12  H14 XS6 d   1     -11.219   7.593 -27.812  0.00  0.00     0.033 H 
BRANCH  10  13
ATOM     13  C10 XS6 d   1     -13.024   8.685 -27.379  0.00  0.00     0.011 C 
ATOM     14  H15 XS6 d   1     -12.660   9.221 -26.490  0.00  0.00     0.047 H 
ATOM     15  H16 XS6 d   1     -14.093   8.455 -27.256  0.00  0.00     0.047 H 
BRANCH  13  16
ATOM     16  C11 XS6 d   1     -12.855   9.577 -28.588  0.00  0.00     0.240 C 
ATOM     17  N13 XS6 d   1     -13.978  10.183 -28.925  0.00  0.00    -0.237 N 
ATOM     18  H22 XS6 d   1     -14.811   9.978 -28.412  0.00  0.00     0.197 HD
ATOM     19  O12 XS6 d   1     -11.771   9.720 -29.178  0.00  0.00    -0.271 OA
BRANCH  17  20
ATOM     20  O14 XS6 d   1     -14.039  11.093 -29.966  0.00  0.00    -0.287 OA
ATOM     21  H23 XS6 d   1     -14.928  11.417 -30.051  0.00  0.00     0.244 HD
ENDBRANCH  17  20
ENDBRANCH  13  16
ENDBRANCH  10  13
ENDBRANCH   7  10
ENDBRANCH   4   7
ENDBRANCH   1   4
BRANCH   1  22
ATOM     22  N5  XS6 d   1     -11.129   3.120 -26.739  0.00  0.00    -0.075 N 
ATOM     23  H20 XS6 d   1     -11.126   2.334 -26.108  0.00  0.00     0.277 HD
ATOM     24  H21 XS6 d   1     -11.618   2.871 -27.584  0.00  0.00     0.277 HD
BRANCH  22  25
ATOM     25  C4  XS6 d   1      -9.747   3.345 -27.118  0.00  0.00     0.083 C 
ATOM     26  H5  XS6 d   1      -9.655   4.343 -27.573  0.00  0.00     0.075 H 
ATOM     27  H6  XS6 d   1      -9.113   3.291 -26.221  0.00  0.00     0.075 H 
BRANCH  25  28
ATOM     28  C3  XS6 d   1      -9.288   2.294 -28.120  0.00  0.00    -0.020 C 
ATOM     29  H3  XS6 d   1      -9.838   2.426 -29.063  0.00  0.00     0.037 H 
ATOM     30  H4  XS6 d   1      -8.210   2.414 -28.304  0.00  0.00     0.037 H 
BRANCH  28  31
ATOM     31  C2  XS6 d   1      -9.553   0.895 -27.574  0.00  0.00     0.081 C 
ATOM     32  H1  XS6 d   1     -10.572   0.856 -27.161  0.00  0.00     0.075 H 
ATOM     33  H2  XS6 d   1      -8.826   0.675 -26.778  0.00  0.00     0.075 H 
BRANCH  31  34
ATOM     34  N1  XS6 d   1      -9.426  -0.100 -28.624  0.00  0.00    -0.079 N 
ATOM     35  H17 XS6 d   1      -9.605  -1.016 -28.242  0.00  0.00     0.274 HD
ATOM     36  H18 XS6 d   1      -8.493  -0.071 -29.004  0.00  0.00     0.274 HD
ATOM     37  H19 XS6 d   1     -10.092   0.096 -29.355  0.00  0.00     0.274 HD
ENDBRANCH  31  34
ENDBRANCH  28  31
ENDBRANCH  25  28
ENDBRANCH  22  25
ENDBRANCH   1  22
TORSDOF 11
