REMARK  6 active torsions:
REMARK  status: ('A' for Active; 'I' for Inactive)
REMARK    1  A    between atoms: O8_1  and  N7_2 
REMARK       I    between atoms: N7_2  and  C6_3 
REMARK    2  A    between atoms: C6_3  and  C5_5 
REMARK    3  A    between atoms: C5_5  and  C4_6 
REMARK    4  A    between atoms: C4_6  and  C3_7 
REMARK    5  A    between atoms: C3_7  and  C2_8 
REMARK    6  A    between atoms: C2_8  and  N1_9 
ROOT
ATOM      1  C4  5XA d   1       3.164  26.800  29.190  0.00  0.00    -0.056 C 
ATOM      2  H5  5XA d   1       3.582  27.316  30.067  0.00  0.00     0.033 H 
ATOM      3  H6  5XA d   1       2.079  26.976  29.144  0.00  0.00     0.033 H 
ENDROOT
BRANCH   1   4
ATOM      4  C5  5XA d   1       3.451  25.319  29.268  0.00  0.00     0.011 C 
ATOM      5  H3  5XA d   1       3.192  24.868  28.299  0.00  0.00     0.047 H 
ATOM      6  H4  5XA d   1       4.527  25.188  29.458  0.00  0.00     0.047 H 
BRANCH   4   7
ATOM      7  C6  5XA d   1       2.697  24.594  30.336  0.00  0.00     0.240 C 
ATOM      8  N7  5XA d   1       1.470  24.268  30.028  0.00  0.00    -0.237 N 
ATOM      9  H2  5XA d   1       1.043  24.506  29.156  0.00  0.00     0.197 HD
ATOM     10  O9  5XA d   1       3.175  24.261  31.425  0.00  0.00    -0.271 OA
BRANCH   8  11
ATOM     11  O8  5XA d   1       0.813  23.557  31.029  0.00  0.00    -0.287 OA
ATOM     12  H1  5XA d   1       0.777  24.084  31.819  0.00  0.00     0.244 HD
ENDBRANCH   8  11
ENDBRANCH   4   7
ENDBRANCH   1   4
BRANCH   1  13
ATOM     13  C3  5XA d   1       3.835  27.301  27.914  0.00  0.00    -0.042 C 
ATOM     14  H7  5XA d   1       3.267  26.938  27.045  0.00  0.00     0.035 H 
ATOM     15  H8  5XA d   1       4.862  26.908  27.872  0.00  0.00     0.035 H 
BRANCH  13  16
ATOM     16  C2  5XA d   1       3.885  28.811  27.872  0.00  0.00     0.080 C 
ATOM     17  H9  5XA d   1       4.235  29.201  28.839  0.00  0.00     0.075 H 
ATOM     18  H10 5XA d   1       2.884  29.213  27.655  0.00  0.00     0.075 H 
BRANCH  16  19
ATOM     19  N1  5XA d   1       4.809  29.195  26.822  0.00  0.00    -0.079 N 
ATOM     20  H11 5XA d   1       4.862  30.200  26.772  0.00  0.00     0.274 HD
ATOM     21  H12 5XA d   1       4.485  28.831  25.940  0.00  0.00     0.274 HD
ATOM     22  H13 5XA d   1       5.723  28.820  27.025  0.00  0.00     0.274 HD
ENDBRANCH  16  19
ENDBRANCH  13  16
ENDBRANCH   1  13
TORSDOF 6
