REMARK  7 active torsions:
REMARK  status: ('A' for Active; 'I' for Inactive)
REMARK    1  A    between atoms: C2_1  and  C3_2 
REMARK    2  A    between atoms: C2_1  and  N1_7 
REMARK    3  A    between atoms: C3_2  and  C4_3 
REMARK    4  A    between atoms: C4_3  and  C5_4 
REMARK    5  A    between atoms: C5_4  and  C6_5 
REMARK    6  A    between atoms: C6_5  and  C7_6 
REMARK       I    between atoms: C7_6  and  N8_8 
REMARK    7  A    between atoms: N8_8  and  O9_10 
ROOT
ATOM      1  C4  6XA d   1      -3.447  -5.772 -27.886  0.00  0.00    -0.063 C 
ATOM      2  H5  6XA d   1      -4.222  -6.435 -27.474  0.00  0.00     0.033 H 
ATOM      3  H6  6XA d   1      -2.806  -5.406 -27.070  0.00  0.00     0.033 H 
ENDROOT
BRANCH   1   4
ATOM      4  C3  6XA d   1      -4.117  -4.583 -28.566  0.00  0.00    -0.043 C 
ATOM      5  H3  6XA d   1      -3.373  -4.060 -29.185  0.00  0.00     0.035 H 
ATOM      6  H4  6XA d   1      -4.932  -4.952 -29.206  0.00  0.00     0.035 H 
BRANCH   4   7
ATOM      7  C2  6XA d   1      -4.691  -3.603 -27.552  0.00  0.00     0.080 C 
ATOM      8  H1  6XA d   1      -5.234  -2.803 -28.076  0.00  0.00     0.075 H 
ATOM      9  H2  6XA d   1      -3.876  -3.165 -26.957  0.00  0.00     0.075 H 
BRANCH   7  10
ATOM     10  N1  6XA d   1      -5.599  -4.319 -26.682  0.00  0.00    -0.079 N 
ATOM     11  H11 6XA d   1      -5.987  -3.682 -26.004  0.00  0.00     0.274 HD
ATOM     12  H12 6XA d   1      -5.099  -5.053 -26.205  0.00  0.00     0.274 HD
ATOM     13  H13 6XA d   1      -6.343  -4.721 -27.230  0.00  0.00     0.274 HD
ENDBRANCH   7  10
ENDBRANCH   4   7
ENDBRANCH   1   4
BRANCH   1  14
ATOM     14  C5  6XA d   1      -2.590  -6.560 -28.883  0.00  0.00    -0.057 C 
ATOM     15  H7  6XA d   1      -1.681  -6.914 -28.374  0.00  0.00     0.033 H 
ATOM     16  H8  6XA d   1      -2.309  -5.899 -29.716  0.00  0.00     0.033 H 
BRANCH  14  17
ATOM     17  C6  6XA d   1      -3.345  -7.753 -29.432  0.00  0.00     0.011 C 
ATOM     18  H9  6XA d   1      -4.242  -7.381 -29.948  0.00  0.00     0.047 H 
ATOM     19  H10 6XA d   1      -3.646  -8.386 -28.584  0.00  0.00     0.047 H 
BRANCH  17  20
ATOM     20  C7  6XA d   1      -2.568  -8.610 -30.403  0.00  0.00     0.240 C 
ATOM     21  N8  6XA d   1      -1.316  -8.929 -30.153  0.00  0.00    -0.237 N 
ATOM     22  H14 6XA d   1      -0.843  -8.606 -29.333  0.00  0.00     0.197 HD
ATOM     23  O10 6XA d   1      -3.093  -9.041 -31.427  0.00  0.00    -0.271 OA
BRANCH  21  24
ATOM     24  O9  6XA d   1      -0.685  -9.743 -31.095  0.00  0.00    -0.287 OA
ATOM     25  H15 6XA d   1      -0.680  -9.305 -31.938  0.00  0.00     0.244 HD
ENDBRANCH  21  24
ENDBRANCH  17  20
ENDBRANCH  14  17
ENDBRANCH   1  14
TORSDOF 7
