REMARK  8 active torsions:
REMARK  status: ('A' for Active; 'I' for Inactive)
REMARK    1  A    between atoms: O10_1  and  N9_2 
REMARK       I    between atoms: N9_2  and  C8_3 
REMARK    2  A    between atoms: C8_3  and  C7_5 
REMARK    3  A    between atoms: C7_5  and  C6_6 
REMARK    4  A    between atoms: C6_6  and  C5_7 
REMARK    5  A    between atoms: C5_7  and  C4_8 
REMARK    6  A    between atoms: C4_8  and  C3_9 
REMARK    7  A    between atoms: C3_9  and  C2_10 
REMARK    8  A    between atoms: C2_10  and  N1_11 
ROOT
ATOM      1  C5  7XA d   1      -3.555  -6.307 -28.021  0.00  0.00    -0.065 C 
ATOM      2  H7  7XA d   1      -2.669  -6.261 -27.371  0.00  0.00     0.033 H 
ATOM      3  H8  7XA d   1      -4.361  -6.847 -27.503  0.00  0.00     0.033 H 
ENDROOT
BRANCH   1   4
ATOM      4  C6  7XA d   1      -3.203  -7.033 -29.310  0.00  0.00    -0.057 C 
ATOM      5  H5  7XA d   1      -4.103  -7.131 -29.935  0.00  0.00     0.033 H 
ATOM      6  H6  7XA d   1      -2.437  -6.463 -29.856  0.00  0.00     0.033 H 
BRANCH   4   7
ATOM      7  C7  7XA d   1      -2.671  -8.401 -28.974  0.00  0.00     0.011 C 
ATOM      8  H3  7XA d   1      -1.714  -8.285 -28.444  0.00  0.00     0.047 H 
ATOM      9  H4  7XA d   1      -3.395  -8.908 -28.319  0.00  0.00     0.047 H 
BRANCH   7  10
ATOM     10  C8  7XA d   1      -2.442  -9.266 -30.204  0.00  0.00     0.240 C 
ATOM     11  N9  7XA d   1      -1.307  -9.864 -30.230  0.00  0.00    -0.237 N 
ATOM     12  H2  7XA d   1      -0.660  -9.693 -29.487  0.00  0.00     0.197 HD
ATOM     13  O11 7XA d   1      -3.291  -9.439 -31.024  0.00  0.00    -0.271 OA
BRANCH  11  14
ATOM     14  O10 7XA d   1      -0.939 -10.729 -31.232  0.00  0.00    -0.287 OA
ATOM     15  H1  7XA d   1      -0.065 -11.059 -31.059  0.00  0.00     0.244 HD
ENDBRANCH  11  14
ENDBRANCH   7  10
ENDBRANCH   4   7
ENDBRANCH   1   4
BRANCH   1  16
ATOM     16  C4  7XA d   1      -4.016  -4.903 -28.349  0.00  0.00    -0.064 C 
ATOM     17  H9  7XA d   1      -4.852  -4.961 -29.062  0.00  0.00     0.033 H 
ATOM     18  H10 7XA d   1      -3.181  -4.353 -28.807  0.00  0.00     0.033 H 
BRANCH  16  19
ATOM     19  C3  7XA d   1      -4.478  -4.153 -27.109  0.00  0.00    -0.043 C 
ATOM     20  H11 7XA d   1      -3.656  -4.106 -26.380  0.00  0.00     0.035 H 
ATOM     21  H12 7XA d   1      -5.336  -4.676 -26.661  0.00  0.00     0.035 H 
BRANCH  19  22
ATOM     22  C2  7XA d   1      -4.891  -2.742 -27.502  0.00  0.00     0.080 C 
ATOM     23  H13 7XA d   1      -5.765  -2.784 -28.168  0.00  0.00     0.075 H 
ATOM     24  H14 7XA d   1      -4.059  -2.244 -28.021  0.00  0.00     0.075 H 
BRANCH  22  25
ATOM     25  N1  7XA d   1      -5.230  -2.000 -26.296  0.00  0.00    -0.079 N 
ATOM     26  H15 7XA d   1      -5.505  -1.063 -26.544  0.00  0.00     0.274 HD
ATOM     27  H16 7XA d   1      -4.428  -1.964 -25.687  0.00  0.00     0.274 HD
ATOM     28  H17 7XA d   1      -5.992  -2.459 -25.822  0.00  0.00     0.274 HD
ENDBRANCH  22  25
ENDBRANCH  19  22
ENDBRANCH  16  19
ENDBRANCH   1  16
TORSDOF 8
