REMARK  9 active torsions:
REMARK  status: ('A' for Active; 'I' for Inactive)
REMARK    1  A    between atoms: CAA_1  and  CAW_2 
REMARK    2  A    between atoms: CAW_2  and  CAB_3 
REMARK    3  A    between atoms: CAW_2  and  CAC_4 
REMARK    4  A    between atoms: CAW_2  and  CAR_5 
REMARK       I    between atoms: CAR_5  and  N_7 
REMARK    5  A    between atoms: N_7  and  CA_8 
REMARK    6  A    between atoms: CA_8  and  C_9 
REMARK    7  A    between atoms: CA_8  and  CAU_13 
REMARK       I    between atoms: C_9  and  NAN_11 
REMARK    8  A    between atoms: NAN_11  and  OAF_12 
REMARK    9  A    between atoms: CAS_18  and  CAT_19 
ROOT
ATOM      1  CA  4TM d   1      89.295 119.942  12.201  0.00  0.00     0.117 C 
ATOM      2  H11 4TM d   1      90.054 120.725  12.344  0.00  0.00     0.095 H 
ENDROOT
BRANCH   1   3
ATOM      3  N   4TM d   1      89.960 118.847  11.464  0.00  0.00    -0.343 N 
ATOM      4  CAR 4TM d   1      91.271 118.901  11.177  0.00  0.00     0.226 C 
ATOM      5  OAE 4TM d   1      92.015 119.773  11.624  0.00  0.00    -0.273 OA
ATOM      6  H10 4TM d   1      89.425 118.053  11.174  0.00  0.00     0.163 HD
BRANCH   4   7
ATOM      7  CAW 4TM d   1      91.792 117.824  10.192  0.00  0.00     0.030 C 
BRANCH   7   8
ATOM      8  CAA 4TM d   1      91.016 116.510  10.356  0.00  0.00    -0.061 C 
ATOM      9  H1  4TM d   1      91.404 115.764   9.647  0.00  0.00     0.029 H 
ATOM     10  H2  4TM d   1      89.949 116.687  10.155  0.00  0.00     0.029 H 
ATOM     11  H3  4TM d   1      91.138 116.138  11.384  0.00  0.00     0.029 H 
ENDBRANCH   7   8
BRANCH   7  12
ATOM     12  CAB 4TM d   1      91.553 118.386   8.779  0.00  0.00    -0.061 C 
ATOM     13  H4  4TM d   1      92.109 119.328   8.660  0.00  0.00     0.029 H 
ATOM     14  H5  4TM d   1      90.479 118.574   8.636  0.00  0.00     0.029 H 
ATOM     15  H6  4TM d   1      91.901 117.658   8.031  0.00  0.00     0.029 H 
ENDBRANCH   7  12
BRANCH   7  16
ATOM     16  CAC 4TM d   1      93.295 117.562  10.347  0.00  0.00    -0.061 C 
ATOM     17  H7  4TM d   1      93.495 117.159  11.351  0.00  0.00     0.029 H 
ATOM     18  H8  4TM d   1      93.847 118.504  10.213  0.00  0.00     0.029 H 
ATOM     19  H9  4TM d   1      93.621 116.835   9.588  0.00  0.00     0.029 H 
ENDBRANCH   7  16
ENDBRANCH   4   7
ENDBRANCH   1   3
BRANCH   1  20
ATOM     20  C   4TM d   1      88.270 120.458  11.182  0.00  0.00     0.268 C 
ATOM     21  O   4TM d   1      87.303 119.775  10.853  0.00  0.00    -0.269 OA
ATOM     22  NAN 4TM d   1      88.622 121.605  10.592  0.00  0.00    -0.235 N 
ATOM     23  H12 4TM d   1      89.477 122.066  10.829  0.00  0.00     0.197 HD
BRANCH  22  24
ATOM     24  OAF 4TM d   1      87.731 122.155   9.605  0.00  0.00    -0.287 OA
ATOM     25  H13 4TM d   1      88.096 122.964   9.266  0.00  0.00     0.244 HD
ENDBRANCH  22  24
ENDBRANCH   1  20
BRANCH   1  26
ATOM     26  CAU 4TM d   1      88.755 119.735  13.499  0.00  0.00    -0.026 A 
ATOM     27  CAL 4TM d   1      89.046 118.621  14.289  0.00  0.00    -0.074 A 
ATOM     28  CAJ 4TM d   1      88.506 118.532  15.575  0.00  0.00    -0.072 A 
ATOM     29  H14 4TM d   1      89.685 117.832  13.908  0.00  0.00     0.084 H 
ATOM     30  CAS 4TM d   1      87.678 119.522  16.109  0.00  0.00    -0.025 A 
ATOM     31  H15 4TM d   1      88.738 117.663  16.180  0.00  0.00     0.084 H 
ATOM     32  CAI 4TM d   1      87.396 120.646  15.323  0.00  0.00    -0.072 A 
ATOM     33  CAK 4TM d   1      87.943 120.739  14.032  0.00  0.00    -0.074 A 
ATOM     34  H17 4TM d   1      86.762 121.437  15.707  0.00  0.00     0.084 H 
ATOM     35  H16 4TM d   1      87.728 121.616  13.432  0.00  0.00     0.084 H 
BRANCH  30  36
ATOM     36  CAT 4TM d   1      87.200 119.394  17.367  0.00  0.00    -0.019 A 
ATOM     37  CAH 4TM d   1      86.423 120.322  17.980  0.00  0.00    -0.066 A 
ATOM     38  CAG 4TM d   1      86.034 120.051  19.256  0.00  0.00    -0.044 A 
ATOM     39  H18 4TM d   1      86.125 121.240  17.475  0.00  0.00     0.085 H 
ATOM     40  SAP 4TM d   1      86.725 118.590  19.634  0.00  0.00    -0.113 SA
ATOM     41  H19 4TM d   1      85.401 120.665  19.895  0.00  0.00     0.095 H 
ATOM     42  CAM 4TM d   1      87.500 118.328  18.133  0.00  0.00    -0.034 A 
ATOM     43  H20 4TM d   1      88.112 117.472  17.853  0.00  0.00     0.096 H 
ENDBRANCH  30  36
ENDBRANCH   1  26
TORSDOF 9
