REMARK  12 active torsions:
REMARK  status: ('A' for Active; 'I' for Inactive)
REMARK    1  A    between atoms: CAA_1  and  CBB_2 
REMARK    2  A    between atoms: CBB_2  and  CAB_3 
REMARK    3  A    between atoms: CBB_2  and  CAC_4 
REMARK    4  A    between atoms: CBB_2  and  CAV_5 
REMARK       I    between atoms: CAV_5  and  N_7 
REMARK    5  A    between atoms: N_7  and  CA_8 
REMARK    6  A    between atoms: CA_8  and  C_9 
REMARK    7  A    between atoms: CA_8  and  CAZ_13 
REMARK       I    between atoms: C_9  and  NAR_11 
REMARK    8  A    between atoms: NAR_11  and  OAH_12 
REMARK    9  A    between atoms: CAX_18  and  CAY_19 
REMARK   10  A    between atoms: CAW_24  and  CAT_25 
REMARK   11  A    between atoms: CAT_25  and  NAD_26 
REMARK   12  A    between atoms: NAQ_27  and  OAG_28 
ROOT
ATOM      1  CAZ 4U6 d   1      88.986 119.788  13.565  0.00  0.00    -0.026 A 
ATOM      2  CAO 4U6 d   1      88.233 120.799  14.153  0.00  0.00    -0.074 A 
ATOM      3  CAM 4U6 d   1      87.650 120.609  15.400  0.00  0.00    -0.072 A 
ATOM      4  CAN 4U6 d   1      89.162 118.583  14.237  0.00  0.00    -0.074 A 
ATOM      5  CAL 4U6 d   1      88.579 118.392  15.488  0.00  0.00    -0.072 A 
ATOM      6  CAX 4U6 d   1      87.820 119.403  16.070  0.00  0.00    -0.026 A 
ATOM      7  H14 4U6 d   1      88.100 121.742  13.635  0.00  0.00     0.084 H 
ATOM      8  H15 4U6 d   1      87.063 121.401  15.850  0.00  0.00     0.084 H 
ATOM      9  H16 4U6 d   1      89.752 117.793  13.788  0.00  0.00     0.084 H 
ATOM     10  H17 4U6 d   1      88.717 117.452  16.010  0.00  0.00     0.084 H 
ENDROOT
BRANCH   1  11
ATOM     11  CA  4U6 d   1      89.565 120.018  12.315  0.00  0.00     0.117 C 
ATOM     12  H11 4U6 d   1      90.339 120.790  12.439  0.00  0.00     0.095 H 
BRANCH  11  13
ATOM     13  N   4U6 d   1      90.195 118.815  11.750  0.00  0.00    -0.343 N 
ATOM     14  CAV 4U6 d   1      91.494 118.812  11.423  0.00  0.00     0.226 C 
ATOM     15  OAF 4U6 d   1      92.238 119.777  11.591  0.00  0.00    -0.273 OA
ATOM     16  H10 4U6 d   1      89.647 117.990  11.608  0.00  0.00     0.163 HD
BRANCH  14  17
ATOM     17  CBB 4U6 d   1      92.021 117.519  10.798  0.00  0.00     0.030 C 
BRANCH  17  18
ATOM     18  CAA 4U6 d   1      93.465 117.283  11.242  0.00  0.00    -0.061 C 
ATOM     19  H1  4U6 d   1      93.840 116.353  10.790  0.00  0.00     0.029 H 
ATOM     20  H2  4U6 d   1      93.503 117.200  12.338  0.00  0.00     0.029 H 
ATOM     21  H3  4U6 d   1      94.091 118.127  10.917  0.00  0.00     0.029 H 
ENDBRANCH  17  18
BRANCH  17  22
ATOM     22  CAB 4U6 d   1      91.149 116.337  11.228  0.00  0.00    -0.061 C 
ATOM     23  H4  4U6 d   1      90.111 116.511  10.907  0.00  0.00     0.029 H 
ATOM     24  H5  4U6 d   1      91.182 116.236  12.323  0.00  0.00     0.029 H 
ATOM     25  H6  4U6 d   1      91.527 115.414  10.763  0.00  0.00     0.029 H 
ENDBRANCH  17  22
BRANCH  17  26
ATOM     26  CAC 4U6 d   1      91.980 117.658   9.273  0.00  0.00    -0.061 C 
ATOM     27  H7  4U6 d   1      92.607 118.508   8.965  0.00  0.00     0.029 H 
ATOM     28  H8  4U6 d   1      90.943 117.831   8.948  0.00  0.00     0.029 H 
ATOM     29  H9  4U6 d   1      92.360 116.735   8.810  0.00  0.00     0.029 H 
ENDBRANCH  17  26
ENDBRANCH  14  17
ENDBRANCH  11  13
BRANCH  11  30
ATOM     30  C   4U6 d   1      88.522 120.522  11.313  0.00  0.00     0.268 C 
ATOM     31  O   4U6 d   1      87.457 119.929  11.148  0.00  0.00    -0.269 OA
ATOM     32  NAR 4U6 d   1      88.887 121.618  10.634  0.00  0.00    -0.235 N 
ATOM     33  H12 4U6 d   1      89.771 122.057  10.793  0.00  0.00     0.197 HD
BRANCH  32  34
ATOM     34  OAH 4U6 d   1      87.955 122.140   9.665  0.00  0.00    -0.287 OA
ATOM     35  H13 4U6 d   1      87.143 122.372  10.101  0.00  0.00     0.244 HD
ENDBRANCH  32  34
ENDBRANCH  11  30
ENDBRANCH   1  11
BRANCH   6  36
ATOM     36  CAY 4U6 d   1      87.240 119.224  17.324  0.00  0.00    -0.025 A 
ATOM     37  CAP 4U6 d   1      87.676 118.199  18.156  0.00  0.00    -0.059 A 
ATOM     38  CAW 4U6 d   1      87.102 118.025  19.412  0.00  0.00     0.010 A 
ATOM     39  H18 4U6 d   1      88.465 117.533  17.826  0.00  0.00     0.086 H 
ATOM     40  CAJ 4U6 d   1      86.093 118.880  19.840  0.00  0.00    -0.069 A 
ATOM     41  CAI 4U6 d   1      85.658 119.908  19.012  0.00  0.00    -0.081 A 
ATOM     42  H21 4U6 d   1      85.646 118.745  20.818  0.00  0.00     0.085 H 
ATOM     43  CAK 4U6 d   1      86.234 120.081  17.756  0.00  0.00    -0.072 A 
ATOM     44  H20 4U6 d   1      84.871 120.575  19.344  0.00  0.00     0.083 H 
ATOM     45  H19 4U6 d   1      85.897 120.886  17.113  0.00  0.00     0.084 H 
BRANCH  38  46
ATOM     46  CAT 4U6 d   1      87.538 116.997  20.242  0.00  0.00     0.129 C 
ATOM     47  NAQ 4U6 d   1      88.411 116.108  19.752  0.00  0.00    -0.253 N 
ATOM     48  H24 4U6 d   1      88.755 116.169  18.783  0.00  0.00     0.196 HD
BRANCH  46  49
ATOM     49  NAD 4U6 d   1      87.081 116.955  21.491  0.00  0.00    -0.383 N 
ATOM     50  H22 4U6 d   1      87.388 116.205  22.127  0.00  0.00     0.157 HD
ATOM     51  H23 4U6 d   1      86.421 117.673  21.822  0.00  0.00     0.157 HD
ENDBRANCH  46  49
BRANCH  47  52
ATOM     52  OAG 4U6 d   1      88.853 115.049  20.652  0.00  0.00    -0.288 OA
ATOM     53  H25 4U6 d   1      89.466 114.484  20.197  0.00  0.00     0.244 HD
ENDBRANCH  47  52
ENDBRANCH  38  46
ENDBRANCH   6  36
TORSDOF 12
