REMARK  9 active torsions:
REMARK  status: ('A' for Active; 'I' for Inactive)
REMARK    1  A    between atoms: C5_2  and  C4_1 
REMARK    2  A    between atoms: C5_2  and  C11_4 
REMARK    3  A    between atoms: N1_11  and  C5_2 
REMARK       I    between atoms: C6_3  and  N1_11 
REMARK    4  A    between atoms: O1_17  and  C6_3 
REMARK       I    between atoms: C11_4  and  N2_12 
REMARK    5  A    between atoms: C7_5  and  C8_6 
REMARK    6  A    between atoms: C7_5  and  C9_7 
REMARK    7  A    between atoms: C7_5  and  C10_8 
REMARK    8  A    between atoms: C7_5  and  O1_17 
REMARK    9  A    between atoms: N2_12  and  O4_20 
ROOT
ATOM      1  C5  4TY d   1      83.776  15.246  31.194  0.00  0.00     0.119 C 
ATOM      2  H1  4TY d   1      83.326  14.869  32.124  0.00  0.00     0.095 H 
ENDROOT
BRANCH   1   3
ATOM      3  C4  4TY d   1      85.195  15.682  31.488  0.00  0.00    -0.026 A 
ATOM      4  C12 4TY d   1      85.686  16.856  30.931  0.00  0.00    -0.073 A 
ATOM      5  C13 4TY d   1      86.987  17.259  31.202  0.00  0.00    -0.066 A 
ATOM      6  H11 4TY d   1      85.055  17.456  30.286  0.00  0.00     0.084 H 
ATOM      7  C1  4TY d   1      87.794  16.487  32.029  0.00  0.00     0.011 A 
ATOM      8  H12 4TY d   1      87.373  18.175  30.769  0.00  0.00     0.085 H 
ATOM      9 BR1  4TY d   1      89.580  17.057  32.392  0.00  0.00    -0.051 Br
ATOM     10  C2  4TY d   1      87.306  15.312  32.590  0.00  0.00    -0.066 A 
ATOM     11  C3  4TY d   1      86.003  14.910  32.318  0.00  0.00    -0.073 A 
ATOM     12  H16 4TY d   1      87.938  14.713  33.236  0.00  0.00     0.085 H 
ATOM     13  H15 4TY d   1      85.616  13.995  32.752  0.00  0.00     0.084 H 
ENDBRANCH   1   3
BRANCH   1  14
ATOM     14  C11 4TY d   1      83.763  14.143  30.162  0.00  0.00     0.268 C 
ATOM     15  N2  4TY d   1      83.537  12.882  30.550  0.00  0.00    -0.235 N 
ATOM     16  H14 4TY d   1      83.382  12.677  31.516  0.00  0.00     0.197 HD
ATOM     17  O3  4TY d   1      83.951  14.403  28.975  0.00  0.00    -0.269 OA
BRANCH  15  18
ATOM     18  O4  4TY d   1      83.517  11.809  29.565  0.00  0.00    -0.287 OA
ATOM     19  H17 4TY d   1      82.834  11.979  28.927  0.00  0.00     0.244 HD
ENDBRANCH  15  18
ENDBRANCH   1  14
BRANCH   1  20
ATOM     20  N1  4TY d   1      83.002  16.338  30.719  0.00  0.00    -0.319 N 
ATOM     21  C6  4TY d   1      81.773  16.517  31.226  0.00  0.00     0.362 C 
ATOM     22  O2  4TY d   1      81.565  16.133  32.378  0.00  0.00    -0.238 OA
ATOM     23  H13 4TY d   1      83.364  16.958  30.023  0.00  0.00     0.166 HD
BRANCH  21  24
ATOM     24  O1  4TY d   1      80.697  16.671  30.328  0.00  0.00    -0.294 OA
BRANCH  24  25
ATOM     25  C7  4TY d   1      79.640  17.520  30.714  0.00  0.00     0.061 C 
BRANCH  25  26
ATOM     26  C8  4TY d   1      78.879  17.917  29.469  0.00  0.00    -0.048 C 
ATOM     27  H2  4TY d   1      78.047  18.581  29.744  0.00  0.00     0.031 H 
ATOM     28  H3  4TY d   1      78.482  17.016  28.979  0.00  0.00     0.031 H 
ATOM     29  H4  4TY d   1      79.555  18.443  28.778  0.00  0.00     0.031 H 
ENDBRANCH  25  26
BRANCH  25  30
ATOM     30  C9  4TY d   1      78.679  16.817  31.649  0.00  0.00    -0.048 C 
ATOM     31  H5  4TY d   1      79.211  16.518  32.564  0.00  0.00     0.031 H 
ATOM     32  H6  4TY d   1      78.272  15.924  31.153  0.00  0.00     0.031 H 
ATOM     33  H7  4TY d   1      77.856  17.499  31.909  0.00  0.00     0.031 H 
ENDBRANCH  25  30
BRANCH  25  34
ATOM     34  C10 4TY d   1      80.182  18.768  31.378  0.00  0.00    -0.048 C 
ATOM     35  H8  4TY d   1      80.879  19.274  30.694  0.00  0.00     0.031 H 
ATOM     36  H9  4TY d   1      80.711  18.491  32.302  0.00  0.00     0.031 H 
ATOM     37  H10 4TY d   1      79.350  19.445  31.620  0.00  0.00     0.031 H 
ENDBRANCH  25  34
ENDBRANCH  24  25
ENDBRANCH  21  24
ENDBRANCH   1  20
TORSDOF 9
