REMARK  8 active torsions:
REMARK  status: ('A' for Active; 'I' for Inactive)
REMARK    1  A    between atoms: CA_1  and  N_2 
REMARK    2  A    between atoms: CA_1  and  C_9 
REMARK    3  A    between atoms: CAQ_14  and  CA_1 
REMARK       I    between atoms: N_2  and  CAO_3 
REMARK    4  A    between atoms: CAO_3  and  CAS_5 
REMARK    5  A    between atoms: CAS_5  and  CAA_6 
REMARK    6  A    between atoms: CAS_5  and  CAB_7 
REMARK    7  A    between atoms: CAS_5  and  CAC_8 
REMARK       I    between atoms: C_9  and  NAL_11 
REMARK    8  A    between atoms: NAL_11  and  OAF_12 
ROOT
ATOM      1  CA  4TK d   1     174.501  15.151  83.950  0.00  0.00     0.117 C 
ATOM      2  H1  4TK d   1     174.857  14.722  83.002  0.00  0.00     0.095 H 
ENDROOT
BRANCH   1   3
ATOM      3  N   4TK d   1     175.435  16.216  84.353  0.00  0.00    -0.343 N 
ATOM      4  CAO 4TK d   1     176.183  16.871  83.454  0.00  0.00     0.226 C 
ATOM      5  OAE 4TK d   1     176.133  16.666  82.243  0.00  0.00    -0.273 OA
ATOM      6  H2  4TK d   1     175.513  16.456  85.321  0.00  0.00     0.163 HD
BRANCH   4   7
ATOM      7  CAS 4TK d   1     177.132  17.922  84.031  0.00  0.00     0.030 C 
BRANCH   7   8
ATOM      8  CAA 4TK d   1     178.248  18.194  83.022  0.00  0.00    -0.061 C 
ATOM      9  H3  4TK d   1     178.935  18.950  83.430  0.00  0.00     0.029 H 
ATOM     10  H4  4TK d   1     177.811  18.565  82.083  0.00  0.00     0.029 H 
ATOM     11  H5  4TK d   1     178.801  17.263  82.827  0.00  0.00     0.029 H 
ENDBRANCH   7   8
BRANCH   7  12
ATOM     12  CAB 4TK d   1     176.368  19.217  84.309  0.00  0.00    -0.061 C 
ATOM     13  H6  4TK d   1     175.565  19.020  85.035  0.00  0.00     0.029 H 
ATOM     14  H7  4TK d   1     175.931  19.593  83.372  0.00  0.00     0.029 H 
ATOM     15  H8  4TK d   1     177.058  19.969  84.720  0.00  0.00     0.029 H 
ENDBRANCH   7  12
BRANCH   7  16
ATOM     16  CAC 4TK d   1     177.743  17.396  85.332  0.00  0.00    -0.061 C 
ATOM     17  H9  4TK d   1     178.292  16.465  85.129  0.00  0.00     0.029 H 
ATOM     18  H10 4TK d   1     176.942  17.198  86.060  0.00  0.00     0.029 H 
ATOM     19  H11 4TK d   1     178.434  18.147  85.742  0.00  0.00     0.029 H 
ENDBRANCH   7  16
ENDBRANCH   4   7
ENDBRANCH   1   3
BRANCH   1  20
ATOM     20  C   4TK d   1     174.490  14.055  85.016  0.00  0.00     0.268 C 
ATOM     21  O   4TK d   1     174.131  14.293  86.167  0.00  0.00    -0.269 OA
ATOM     22  NAL 4TK d   1     174.896  12.855  84.584  0.00  0.00    -0.235 N 
ATOM     23  H12 4TK d   1     175.179  12.710  83.636  0.00  0.00     0.197 HD
BRANCH  22  24
ATOM     24  OAF 4TK d   1     174.907  11.792  85.535  0.00  0.00    -0.287 OA
ATOM     25  H13 4TK d   1     175.489  12.016  86.252  0.00  0.00     0.244 HD
ENDBRANCH  22  24
ENDBRANCH   1  20
BRANCH   1  26
ATOM     26  CAQ 4TK d   1     173.203  15.618  83.757  0.00  0.00    -0.026 A 
ATOM     27  CAJ 4TK d   1     172.313  14.827  83.040  0.00  0.00    -0.073 A 
ATOM     28  CAH 4TK d   1     171.010  15.252  82.826  0.00  0.00    -0.066 A 
ATOM     29  H14 4TK d   1     172.639  13.872  82.645  0.00  0.00     0.084 H 
ATOM     30  CAP 4TK d   1     170.594  16.476  83.333  0.00  0.00     0.011 A 
ATOM     31  H15 4TK d   1     170.320  14.632  82.266  0.00  0.00     0.085 H 
ATOM     32 BRG  4TK d   1     168.830  17.044  83.040  0.00  0.00    -0.051 Br
ATOM     33  CAI 4TK d   1     171.481  17.270  84.053  0.00  0.00    -0.066 A 
ATOM     34  CAK 4TK d   1     172.788  16.842  84.268  0.00  0.00    -0.073 A 
ATOM     35  H16 4TK d   1     171.153  18.225  84.448  0.00  0.00     0.085 H 
ATOM     36  H17 4TK d   1     173.478  17.460  84.831  0.00  0.00     0.084 H 
ENDBRANCH   1  26
TORSDOF 8
