REMARK  12 active torsions:
REMARK  status: ('A' for Active; 'I' for Inactive)
REMARK    1  A    between atoms: C13_1  and  N16_23 
REMARK    2  A    between atoms: C17_3  and  C18_2 
REMARK       I    between atoms: C18_2  and  N1_12 
REMARK    3  A    between atoms: N16_23  and  C17_3 
REMARK    4  A    between atoms: C17_3  and  C36_36 
REMARK    5  A    between atoms: C2_13  and  C21_5 
REMARK    6  A    between atoms: C23_7  and  N33_34 
REMARK       I    between atoms: N33_34  and  C34_11 
REMARK    7  A    between atoms: C34_11  and  C42_42 
REMARK    8  A    between atoms: C9_20  and  N20_25 
REMARK    9  A    between atoms: C26_27  and  S27_28 
REMARK   10  A    between atoms: S27_28  and  C30_31 
REMARK   11  A    between atoms: C30_31  and  C31_32 
REMARK   12  A    between atoms: C30_31  and  C32_33 
ROOT
ATOM      1  C18 4T0 d   1       7.201  38.139  24.342  0.00  0.00     0.247 C 
ATOM      2  N1  4T0 d   1       6.805  39.424  24.381  0.00  0.00    -0.341 N 
ATOM      3  C2  4T0 d   1       6.835  40.250  23.158  0.00  0.00     0.042 C 
ATOM      4  C3  4T0 d   1       6.665  41.664  23.734  0.00  0.00    -0.041 C 
ATOM      5  C4  4T0 d   1       5.775  41.446  24.928  0.00  0.00    -0.048 C 
ATOM      6  C5  4T0 d   1       6.323  40.189  25.546  0.00  0.00    -0.001 C 
ATOM      7  O19 4T0 d   1       7.714  37.663  23.351  0.00  0.00    -0.271 OA
ATOM      8  H6  4T0 d   1       7.805  40.155  22.648  0.00  0.00     0.080 H 
ATOM      9  H7  4T0 d   1       6.187  42.333  23.003  0.00  0.00     0.036 H 
ATOM     10  H8  4T0 d   1       7.635  42.085  24.037  0.00  0.00     0.036 H 
ATOM     11  H9  4T0 d   1       4.728  41.309  24.619  0.00  0.00     0.035 H 
ATOM     12  H10 4T0 d   1       5.843  42.291  25.629  0.00  0.00     0.035 H 
ATOM     13  H11 4T0 d   1       7.148  40.416  26.237  0.00  0.00     0.064 H 
ATOM     14  H12 4T0 d   1       5.537  39.638  26.082  0.00  0.00     0.064 H 
ENDROOT
BRANCH   1  15
ATOM     15  C17 4T0 d   1       7.054  37.281  25.609  0.00  0.00     0.113 C 
ATOM     16  H1  4T0 d   1       7.323  37.878  26.493  0.00  0.00     0.095 H 
BRANCH  15  17
ATOM     17  N16 4T0 d   1       7.941  36.131  25.520  0.00  0.00    -0.373 N 
ATOM     18  H16 4T0 d   1       8.302  35.889  24.586  0.00  0.00     0.161 HD
BRANCH  17  19
ATOM     19  C13 4T0 d   1       8.345  35.329  26.582  0.00  0.00     0.029 A 
ATOM     20  C12 4T0 d   1       8.105  35.688  27.891  0.00  0.00    -0.047 A 
ATOM     21  C11 4T0 d   1       8.538  34.869  28.959  0.00  0.00    -0.019 A 
ATOM     22  H5  4T0 d   1       7.577  36.611  28.104  0.00  0.00     0.088 H 
ATOM     23  C8  4T0 d   1       8.449  35.298  30.305  0.00  0.00    -0.055 A 
ATOM     24  C10 4T0 d   1       9.178  33.627  28.667  0.00  0.00     0.020 A 
ATOM     25  C7  4T0 d   1       9.003  34.544  31.291  0.00  0.00     0.005 A 
ATOM     26  H14 4T0 d   1       7.941  36.224  30.549  0.00  0.00     0.087 H 
ATOM     27  N6  4T0 d   1       9.610  33.369  31.084  0.00  0.00    -0.243 NA
ATOM     28  H13 4T0 d   1       8.950  34.917  32.307  0.00  0.00     0.114 H 
ATOM     29  C9  4T0 d   1       9.698  32.889  29.798  0.00  0.00     0.132 A 
ATOM     30  C15 4T0 d   1       9.357  33.279  27.302  0.00  0.00    -0.066 A 
ATOM     31  C14 4T0 d   1       8.961  34.112  26.300  0.00  0.00    -0.057 A 
ATOM     32  H2  4T0 d   1       9.819  32.331  27.052  0.00  0.00     0.085 H 
ATOM     33  H15 4T0 d   1       9.128  33.824  25.268  0.00  0.00     0.086 H 
BRANCH  29  34
ATOM     34  N20 4T0 d   1      10.323  31.707  29.647  0.00  0.00    -0.383 N 
ATOM     35  H17 4T0 d   1      10.422  31.293  28.709  0.00  0.00     0.157 HD
ATOM     36  H18 4T0 d   1      10.702  31.216  30.469  0.00  0.00     0.157 HD
ENDBRANCH  29  34
ENDBRANCH  17  19
ENDBRANCH  15  17
BRANCH  15  37
ATOM     37  C36 4T0 d   1       5.604  36.834  25.723  0.00  0.00    -0.026 A 
ATOM     38  C37 4T0 d   1       4.908  36.977  26.917  0.00  0.00    -0.074 A 
ATOM     39  C38 4T0 d   1       3.599  36.537  27.030  0.00  0.00    -0.082 A 
ATOM     40  H28 4T0 d   1       5.394  37.438  27.769  0.00  0.00     0.084 H 
ATOM     41  C39 4T0 d   1       2.968  35.955  25.952  0.00  0.00    -0.083 A 
ATOM     42  H29 4T0 d   1       3.070  36.651  27.969  0.00  0.00     0.083 H 
ATOM     43  C40 4T0 d   1       3.648  35.803  24.759  0.00  0.00    -0.082 A 
ATOM     44  H30 4T0 d   1       1.942  35.618  26.040  0.00  0.00     0.083 H 
ATOM     45  C41 4T0 d   1       4.957  36.238  24.645  0.00  0.00    -0.074 A 
ATOM     46  H31 4T0 d   1       3.155  35.342  23.910  0.00  0.00     0.083 H 
ATOM     47  H32 4T0 d   1       5.484  36.113  23.706  0.00  0.00     0.084 H 
ENDBRANCH  15  37
ENDBRANCH   1  15
BRANCH   3  48
ATOM     48  C21 4T0 d   1       5.738  39.871  22.181  0.00  0.00    -0.012 A 
ATOM     49  C22 4T0 d   1       4.585  39.245  22.670  0.00  0.00    -0.048 A 
ATOM     50  C23 4T0 d   1       3.577  38.772  21.833  0.00  0.00     0.035 A 
ATOM     51  H3  4T0 d   1       4.472  39.124  23.741  0.00  0.00     0.087 H 
ATOM     52  C24 4T0 d   1       3.726  38.912  20.461  0.00  0.00    -0.056 A 
ATOM     53  C25 4T0 d   1       4.835  39.562  19.945  0.00  0.00    -0.059 A 
ATOM     54  H4  4T0 d   1       2.973  38.512  19.791  0.00  0.00     0.087 H 
ATOM     55  C26 4T0 d   1       5.826  40.039  20.795  0.00  0.00     0.068 A 
ATOM     56  H19 4T0 d   1       4.930  39.699  18.874  0.00  0.00     0.085 H 
BRANCH  50  57
ATOM     57  N33 4T0 d   1       2.338  38.275  22.312  0.00  0.00    -0.327 N 
ATOM     58  C34 4T0 d   1       1.819  38.310  23.573  0.00  0.00     0.218 C 
ATOM     59  O35 4T0 d   1       2.182  39.111  24.428  0.00  0.00    -0.274 OA
ATOM     60  H27 4T0 d   1       1.760  37.834  21.625  0.00  0.00     0.169 HD
BRANCH  58  61
ATOM     61  C42 4T0 d   1       0.713  37.331  23.831  0.00  0.00    -0.003 C 
ATOM     62  H33 4T0 d   1       0.364  37.437  24.869  0.00  0.00     0.040 H 
ATOM     63  H34 4T0 d   1       1.084  36.308  23.672  0.00  0.00     0.040 H 
ATOM     64  H35 4T0 d   1      -0.121  37.530  23.142  0.00  0.00     0.040 H 
ENDBRANCH  58  61
ENDBRANCH  50  57
BRANCH  55  65
ATOM     65  S27 4T0 d   1       7.167  40.869  19.968  0.00  0.00     0.179 S 
ATOM     66  O28 4T0 d   1       6.612  41.536  18.821  0.00  0.00    -0.222 OA
ATOM     67  O29 4T0 d   1       7.912  41.647  20.920  0.00  0.00    -0.222 OA
BRANCH  65  68
ATOM     68  C30 4T0 d   1       8.248  39.547  19.362  0.00  0.00     0.042 C 
ATOM     69  H20 4T0 d   1       7.608  38.828  18.831  0.00  0.00     0.063 H 
BRANCH  68  70
ATOM     70  C31 4T0 d   1       8.937  38.771  20.469  0.00  0.00    -0.060 C 
ATOM     71  H21 4T0 d   1       9.573  37.989  20.028  0.00  0.00     0.029 H 
ATOM     72  H22 4T0 d   1       8.180  38.305  21.116  0.00  0.00     0.029 H 
ATOM     73  H23 4T0 d   1       9.558  39.456  21.065  0.00  0.00     0.029 H 
ENDBRANCH  68  70
BRANCH  68  74
ATOM     74  C32 4T0 d   1       9.227  40.108  18.348  0.00  0.00    -0.060 C 
ATOM     75  H24 4T0 d   1       9.880  39.301  17.984  0.00  0.00     0.029 H 
ATOM     76  H25 4T0 d   1       9.839  40.889  18.822  0.00  0.00     0.029 H 
ATOM     77  H26 4T0 d   1       8.672  40.540  17.502  0.00  0.00     0.029 H 
ENDBRANCH  68  74
ENDBRANCH  65  68
ENDBRANCH  55  65
ENDBRANCH   3  48
TORSDOF 12
