REMARK  2 active torsions:
REMARK  status: ('A' for Active; 'I' for Inactive)
REMARK    1  A    between atoms: C13_1  and  N11_22 
REMARK    2  A    between atoms: N11_22  and  C9_20 
ROOT
ATOM      1  C13 4T1 d   1       7.991  35.766  25.706  0.00  0.00     0.113 C 
ATOM      2  C18 4T1 d   1       4.485  34.388  25.086  0.00  0.00    -0.076 A 
ATOM      3  C17 4T1 d   1       5.835  34.655  24.936  0.00  0.00    -0.074 A 
ATOM      4  C15 4T1 d   1       8.100  36.563  24.390  0.00  0.00     0.245 C 
ATOM      5  C19 4T1 d   1       3.782  34.870  26.183  0.00  0.00    -0.058 A 
ATOM      6  C20 4T1 d   1       4.477  35.595  27.139  0.00  0.00    -0.076 A 
ATOM      7  C21 4T1 d   1       5.819  35.875  26.980  0.00  0.00    -0.074 A 
ATOM      8  C22 4T1 d   1       2.298  34.637  26.332  0.00  0.00    -0.041 C 
ATOM      9  C23 4T1 d   1       7.527  38.623  23.189  0.00  0.00     0.019 C 
ATOM     10  C27 4T1 d   1       5.101  37.915  20.347  0.00  0.00    -0.080 A 
ATOM     11  C33 4T1 d   1       1.233  36.416  24.763  0.00  0.00     0.010 C 
ATOM     12  C14 4T1 d   1       6.517  35.426  25.870  0.00  0.00    -0.026 A 
ATOM     13  O16 4T1 d   1       8.545  35.999  23.394  0.00  0.00    -0.271 OA
ATOM     14  N24 4T1 d   1       7.734  37.850  24.406  0.00  0.00    -0.355 N 
ATOM     15  C25 4T1 d   1       6.304  38.179  22.422  0.00  0.00    -0.038 A 
ATOM     16  C26 4T1 d   1       6.227  38.329  21.044  0.00  0.00    -0.075 A 
ATOM     17  C28 4T1 d   1       4.028  37.355  21.020  0.00  0.00    -0.057 A 
ATOM     18  C29 4T1 d   1       4.086  37.197  22.397  0.00  0.00     0.035 A 
ATOM     19  C30 4T1 d   1       5.227  37.600  23.087  0.00  0.00    -0.050 A 
ATOM     20  N31 4T1 d   1       2.971  36.681  23.104  0.00  0.00    -0.327 N 
ATOM     21  C32 4T1 d   1       2.454  37.145  24.268  0.00  0.00     0.222 C 
ATOM     22  O34 4T1 d   1       2.889  38.123  24.869  0.00  0.00    -0.273 OA
ATOM     23  C35 4T1 d   1       1.435  34.951  25.108  0.00  0.00    -0.053 C 
ATOM     24  H1  4T1 d   1       8.329  36.382  26.552  0.00  0.00     0.095 H 
ATOM     25  H2  4T1 d   1       3.970  33.796  24.338  0.00  0.00     0.084 H 
ATOM     26  H3  4T1 d   1       6.367  34.258  24.079  0.00  0.00     0.084 H 
ATOM     27  H4  4T1 d   1       3.959  35.947  28.024  0.00  0.00     0.084 H 
ATOM     28  H5  4T1 d   1       6.336  36.456  27.736  0.00  0.00     0.084 H 
ATOM     29  H6  4T1 d   1       1.942  35.264  27.163  0.00  0.00     0.040 H 
ATOM     30  H7  4T1 d   1       2.149  33.577  26.584  0.00  0.00     0.040 H 
ATOM     31  H8  4T1 d   1       8.410  38.507  22.543  0.00  0.00     0.071 H 
ATOM     32  H9  4T1 d   1       7.408  39.682  23.460  0.00  0.00     0.071 H 
ATOM     33  H10 4T1 d   1       5.061  38.031  19.270  0.00  0.00     0.083 H 
ATOM     34  H11 4T1 d   1       0.463  36.475  23.980  0.00  0.00     0.047 H 
ATOM     35  H12 4T1 d   1       0.876  36.930  25.668  0.00  0.00     0.047 H 
ATOM     36  H21 4T1 d   1       7.597  38.299  25.289  0.00  0.00     0.162 HD
ATOM     37  H22 4T1 d   1       7.056  38.775  20.506  0.00  0.00     0.084 H 
ATOM     38  H23 4T1 d   1       3.146  37.041  20.473  0.00  0.00     0.086 H 
ATOM     39  H24 4T1 d   1       5.277  37.460  24.161  0.00  0.00     0.087 H 
ATOM     40  H25 4T1 d   1       2.516  35.888  22.700  0.00  0.00     0.169 HD
ATOM     41  H26 4T1 d   1       0.442  34.511  25.281  0.00  0.00     0.034 H 
ATOM     42  H27 4T1 d   1       1.904  34.467  24.239  0.00  0.00     0.034 H 
ENDROOT
BRANCH   1  43
ATOM     43  N11 4T1 d   1       8.812  34.569  25.631  0.00  0.00    -0.373 N 
ATOM     44  H18 4T1 d   1       9.057  34.248  24.683  0.00  0.00     0.161 HD
BRANCH  43  45
ATOM     45  C9  4T1 d   1       9.307  33.805  26.680  0.00  0.00     0.029 A 
ATOM     46  C8  4T1 d   1       9.942  32.598  26.388  0.00  0.00    -0.057 A 
ATOM     47  C7  4T1 d   1      10.435  31.809  27.385  0.00  0.00    -0.066 A 
ATOM     48  H16 4T1 d   1      10.045  32.283  25.356  0.00  0.00     0.086 H 
ATOM     49  C4  4T1 d   1      10.340  32.191  28.750  0.00  0.00     0.020 A 
ATOM     50  H15 4T1 d   1      10.910  30.869  27.130  0.00  0.00     0.085 H 
ATOM     51  C3  4T1 d   1      10.862  31.447  29.879  0.00  0.00     0.132 A 
ATOM     52  C5  4T1 d   1       9.713  33.442  29.046  0.00  0.00    -0.019 A 
ATOM     53  N2  4T1 d   1      10.777  31.927  31.176  0.00  0.00    -0.243 NA
ATOM     54  N12 4T1 d   1      11.425  30.227  29.744  0.00  0.00    -0.383 N 
ATOM     55  C1  4T1 d   1      10.197  33.118  31.383  0.00  0.00     0.005 A 
ATOM     56  C6  4T1 d   1       9.665  33.889  30.393  0.00  0.00    -0.055 A 
ATOM     57  H13 4T1 d   1      10.148  33.490  32.400  0.00  0.00     0.114 H 
ATOM     58  H14 4T1 d   1       9.206  34.841  30.633  0.00  0.00     0.087 H 
ATOM     59  H19 4T1 d   1      11.522  29.805  28.809  0.00  0.00     0.157 HD
ATOM     60  H20 4T1 d   1      11.757  29.718  30.576  0.00  0.00     0.157 HD
ATOM     61  C10 4T1 d   1       9.191  34.221  27.987  0.00  0.00    -0.047 A 
ATOM     62  H17 4T1 d   1       8.693  35.158  28.208  0.00  0.00     0.088 H 
ENDBRANCH  43  45
ENDBRANCH   1  43
TORSDOF 2
