REMARK  10 active torsions:
REMARK  status: ('A' for Active; 'I' for Inactive)
REMARK    1  A    between atoms: CAB_1  and  CAX_2 
REMARK    2  A    between atoms: CAX_2  and  CAC_3 
REMARK    3  A    between atoms: CAX_2  and  CAD_4 
REMARK    4  A    between atoms: CAX_2  and  CAR_5 
REMARK       I    between atoms: CAR_5  and  N_7 
REMARK    5  A    between atoms: N_7  and  CA_8 
REMARK    6  A    between atoms: CA_8  and  C_9 
REMARK    7  A    between atoms: CA_8  and  CAU_13 
REMARK       I    between atoms: C_9  and  NAO_11 
REMARK    8  A    between atoms: NAO_11  and  OAG_12 
REMARK    9  A    between atoms: CAS_18  and  CAT_19 
REMARK   10  A    between atoms: NAW_23  and  CAA_24 
ROOT
ATOM      1  CA  4U5 d   1      83.895 250.806  83.829  0.00  0.00     0.117 C 
ATOM      2  H11 4U5 d   1      83.592 251.225  82.858  0.00  0.00     0.095 H 
ENDROOT
BRANCH   1   3
ATOM      3  N   4U5 d   1      82.867 249.843  84.258  0.00  0.00    -0.343 N 
ATOM      4  CAR 4U5 d   1      82.093 249.167  83.397  0.00  0.00     0.226 C 
ATOM      5  OAF 4U5 d   1      82.192 249.239  82.174  0.00  0.00    -0.273 OA
ATOM      6  H10 4U5 d   1      82.740 249.686  85.237  0.00  0.00     0.163 HD
BRANCH   4   7
ATOM      7  CAX 4U5 d   1      81.040 248.271  84.053  0.00  0.00     0.030 C 
BRANCH   7   8
ATOM      8  CAB 4U5 d   1      81.663 246.934  84.455  0.00  0.00    -0.061 C 
ATOM      9  H1  4U5 d   1      80.897 246.299  84.925  0.00  0.00     0.029 H 
ATOM     10  H2  4U5 d   1      82.481 247.111  85.169  0.00  0.00     0.029 H 
ATOM     11  H3  4U5 d   1      82.059 246.430  83.561  0.00  0.00     0.029 H 
ENDBRANCH   7   8
BRANCH   7  12
ATOM     12  CAC 4U5 d   1      80.487 248.975  85.295  0.00  0.00    -0.061 C 
ATOM     13  H4  4U5 d   1      80.040 249.936  85.003  0.00  0.00     0.029 H 
ATOM     14  H5  4U5 d   1      81.304 249.153  86.010  0.00  0.00     0.029 H 
ATOM     15  H6  4U5 d   1      79.720 248.341  85.765  0.00  0.00     0.029 H 
ENDBRANCH   7  12
BRANCH   7  16
ATOM     16  CAD 4U5 d   1      79.892 248.037  83.068  0.00  0.00    -0.061 C 
ATOM     17  H7  4U5 d   1      80.277 247.531  82.170  0.00  0.00     0.029 H 
ATOM     18  H8  4U5 d   1      79.450 249.003  82.784  0.00  0.00     0.029 H 
ATOM     19  H9  4U5 d   1      79.124 247.408  83.542  0.00  0.00     0.029 H 
ENDBRANCH   7  16
ENDBRANCH   4   7
ENDBRANCH   1   3
BRANCH   1  20
ATOM     20  C   4U5 d   1      83.926 251.932  84.864  0.00  0.00     0.268 C 
ATOM     21  O   4U5 d   1      84.170 251.703  86.048  0.00  0.00    -0.269 OA
ATOM     22  NAO 4U5 d   1      83.622 253.144  84.381  0.00  0.00    -0.235 N 
ATOM     23  H12 4U5 d   1      83.412 253.284  83.413  0.00  0.00     0.197 HD
BRANCH  22  24
ATOM     24  OAG 4U5 d   1      83.612 254.227  85.313  0.00  0.00    -0.287 OA
ATOM     25  H13 4U5 d   1      82.971 254.053  85.992  0.00  0.00     0.244 HD
ENDBRANCH  22  24
ENDBRANCH   1  20
BRANCH   1  26
ATOM     26  CAU 4U5 d   1      85.165 250.238  83.666  0.00  0.00    -0.026 A 
ATOM     27  CAK 4U5 d   1      86.098 250.898  82.870  0.00  0.00    -0.074 A 
ATOM     28  CAI 4U5 d   1      87.371 250.371  82.677  0.00  0.00    -0.072 A 
ATOM     29  H14 4U5 d   1      85.829 251.834  82.395  0.00  0.00     0.084 H 
ATOM     30  CAS 4U5 d   1      87.719 249.171  83.286  0.00  0.00    -0.023 A 
ATOM     31  H15 4U5 d   1      88.088 250.894  82.055  0.00  0.00     0.084 H 
ATOM     32  CAH 4U5 d   1      86.787 248.507  84.081  0.00  0.00    -0.072 A 
ATOM     33  CAJ 4U5 d   1      85.513 249.037  84.273  0.00  0.00    -0.074 A 
ATOM     34  H17 4U5 d   1      87.056 247.570  84.554  0.00  0.00     0.084 H 
ATOM     35  H16 4U5 d   1      84.795 248.514  84.894  0.00  0.00     0.084 H 
BRANCH  30  36
ATOM     36  CAT 4U5 d   1      88.935 248.654  83.104  0.00  0.00     0.010 A 
ATOM     37  CAM 4U5 d   1      89.798 249.013  82.165  0.00  0.00     0.010 A 
ATOM     38  NAW 4U5 d   1      90.872 248.241  82.345  0.00  0.00    -0.285 N 
ATOM     39  H18 4U5 d   1      89.660 249.779  81.404  0.00  0.00     0.115 H 
ATOM     40  NAN 4U5 d   1      90.685 247.479  83.303  0.00  0.00    -0.185 NA
ATOM     41  CAL 4U5 d   1      89.477 247.687  83.826  0.00  0.00     0.034 A 
ATOM     42  H19 4U5 d   1      89.029 247.168  84.672  0.00  0.00     0.118 H 
BRANCH  38  43
ATOM     43  CAA 4U5 d   1      92.113 248.278  81.530  0.00  0.00     0.002 C 
ATOM     44  H20 4U5 d   1      92.824 247.530  81.910  0.00  0.00     0.059 H 
ATOM     45  H21 4U5 d   1      92.565 249.279  81.595  0.00  0.00     0.059 H 
ATOM     46  H22 4U5 d   1      91.870 248.053  80.481  0.00  0.00     0.059 H 
ENDBRANCH  38  43
ENDBRANCH  30  36
ENDBRANCH   1  26
TORSDOF 10
