REMARK  5 active torsions:
REMARK  status: ('A' for Active; 'I' for Inactive)
REMARK    1  A    between atoms: C7_3  and  N20_22 
REMARK    2  A    between atoms: C13_4  and  C17_5 
REMARK    3  A    between atoms: N10_15  and  C9_14 
REMARK    4  A    between atoms: C11_16  and  N10_15 
REMARK    5  A    between atoms: C23_23  and  N26_25 
ROOT
ATOM      1  C4  4T3 d   1      12.690 -14.063  17.131  0.00  0.00     0.081 A 
ATOM      2  C5  4T3 d   1      11.929 -12.991  16.663  0.00  0.00     0.097 A 
ATOM      3  C7  4T3 d   1      13.709 -12.374  15.303  0.00  0.00     0.727 A 
ATOM      4  C1  4T3 d   1      10.657 -12.941  17.245  0.00  0.00    -0.047 A 
ATOM      5  C2  4T3 d   1      10.385 -13.887  18.125  0.00  0.00    -0.042 A 
ATOM      6  S3  4T3 d   1      11.751 -14.967  18.306  0.00  0.00    -0.096 SA
ATOM      7  N6  4T3 d   1      12.483 -12.167  15.745  0.00  0.00    -0.062 NA
ATOM      8  N8  4T3 d   1      14.457 -13.383  15.737  0.00  0.00    -0.043 NA
ATOM      9  C9  4T3 d   1      13.997 -14.247  16.637  0.00  0.00     0.168 A 
ATOM     10  H8  4T3 d   1       9.935 -12.168  16.987  0.00  0.00     0.087 H 
ATOM     11  H9  4T3 d   1       9.443 -13.982  18.663  0.00  0.00     0.095 H 
ENDROOT
BRANCH   3  12
ATOM     12  N20 4T3 d   1      14.248 -11.508  14.361  0.00  0.00    -0.214 N 
ATOM     13  C21 4T3 d   1      15.641 -11.666  13.946  0.00  0.00     0.014 C 
ATOM     14  C22 4T3 d   1      16.306 -10.291  13.970  0.00  0.00    -0.023 C 
ATOM     15  H2  4T3 d   1      16.161 -12.343  14.639  0.00  0.00     0.065 H 
ATOM     16  H3  4T3 d   1      15.681 -12.081  12.928  0.00  0.00     0.065 H 
ATOM     17  C23 4T3 d   1      15.494  -9.323  13.105  0.00  0.00     0.103 C 
ATOM     18  H4  4T3 d   1      17.329 -10.370  13.572  0.00  0.00     0.038 H 
ATOM     19  H5  4T3 d   1      16.342  -9.918  15.004  0.00  0.00     0.038 H 
ATOM     20  C24 4T3 d   1      14.067  -9.201  13.649  0.00  0.00    -0.023 C 
ATOM     21  H17 4T3 d   1      15.456  -9.701  12.073  0.00  0.00     0.084 H 
ATOM     22  C25 4T3 d   1      13.393 -10.574  13.626  0.00  0.00     0.014 C 
ATOM     23  H6  4T3 d   1      13.495  -8.501  13.023  0.00  0.00     0.038 H 
ATOM     24  H7  4T3 d   1      14.100  -8.826  14.682  0.00  0.00     0.038 H 
ATOM     25  H18 4T3 d   1      13.274 -10.915  12.587  0.00  0.00     0.065 H 
ATOM     26  H19 4T3 d   1      12.406 -10.514  14.107  0.00  0.00     0.065 H 
BRANCH  17  27
ATOM     27  N26 4T3 d   1      16.146  -8.007  13.119  0.00  0.00    -0.075 N 
ATOM     28  H20 4T3 d   1      17.084  -8.093  12.760  0.00  0.00     0.274 HD
ATOM     29  H21 4T3 d   1      16.178  -7.658  14.064  0.00  0.00     0.274 HD
ATOM     30  H22 4T3 d   1      15.623  -7.367  12.542  0.00  0.00     0.274 HD
ENDBRANCH  17  27
ENDBRANCH   3  12
BRANCH   9  31
ATOM     31  N10 4T3 d   1      14.774 -15.308  17.094  0.00  0.00    -0.323 N 
ATOM     32  H10 4T3 d   1      14.505 -15.764  17.977  0.00  0.00     0.169 HD
BRANCH  31  33
ATOM     33  C11 4T3 d   1      15.907 -15.790  16.413  0.00  0.00     0.151 A 
ATOM     34  C12 4T3 d   1      16.306 -15.497  15.096  0.00  0.00    -0.013 A 
ATOM     35  C13 4T3 d   1      17.443 -16.174  14.834  0.00  0.00     0.035 A 
ATOM     36  H11 4T3 d   1      15.785 -14.836  14.405  0.00  0.00     0.092 H 
ATOM     37  N14 4T3 d   1      17.762 -16.887  15.935  0.00  0.00    -0.280 N 
ATOM     38  N16 4T3 d   1      16.786 -16.631  16.907  0.00  0.00    -0.156 NA
ATOM     39  H12 4T3 d   1      18.577 -17.508  16.041  0.00  0.00     0.189 HD
BRANCH  35  40
ATOM     40  C17 4T3 d   1      18.207 -16.140  13.534  0.00  0.00    -0.012 A 
ATOM     41  C18 4T3 d   1      17.900 -14.990  12.577  0.00  0.00    -0.056 A 
ATOM     42  C19 4T3 d   1      19.235 -15.027  13.325  0.00  0.00    -0.056 A 
ATOM     43  H13 4T3 d   1      17.141 -14.240  12.844  0.00  0.00     0.034 H 
ATOM     44  H14 4T3 d   1      17.872 -15.170  11.492  0.00  0.00     0.034 H 
ATOM     45  H15 4T3 d   1      20.167 -15.234  12.778  0.00  0.00     0.034 H 
ATOM     46  H16 4T3 d   1      19.435 -14.304  14.130  0.00  0.00     0.034 H 
ATOM     47  H1  4T3 d   1      18.394 -17.159  13.163  0.00  0.00     0.049 H 
ENDBRANCH  35  40
ENDBRANCH  31  33
ENDBRANCH   9  31
TORSDOF 5
