REMARK  7 active torsions:
REMARK  status: ('A' for Active; 'I' for Inactive)
REMARK    1  A    between atoms: C4_2  and  N7_12 
REMARK    2  A    between atoms: N7_12  and  C8_4 
REMARK    3  A    between atoms: C8_4  and  C9_13 
REMARK    4  A    between atoms: C13_5  and  N17_17 
REMARK    5  A    between atoms: N18_18  and  C2_10 
REMARK    6  A    between atoms: C19_19  and  N18_18 
REMARK    7  A    between atoms: C23_22  and  C25_23 
ROOT
ATOM      1  N3  4T5 d   1      13.864 -13.678  15.412  0.00  0.00    -0.045 NA
ATOM      2  C4  4T5 d   1      12.908 -12.909  14.908  0.00  0.00     0.724 A 
ATOM      3  C6  4T5 d   1      11.390 -13.617  16.497  0.00  0.00     0.025 A 
ATOM      4  C1  4T5 d   1      12.362 -14.426  17.051  0.00  0.00    -0.020 A 
ATOM      5  C2  4T5 d   1      13.634 -14.445  16.468  0.00  0.00     0.149 A 
ATOM      6  N5  4T5 d   1      11.692 -12.880  15.436  0.00  0.00    -0.075 NA
ATOM      7  H1  4T5 d   1      10.394 -13.585  16.923  0.00  0.00     0.115 H 
ATOM      8  H10 4T5 d   1      12.144 -15.035  17.921  0.00  0.00     0.091 H 
ENDROOT
BRANCH   2   9
ATOM      9  N7  4T5 d   1      13.200 -12.131  13.800  0.00  0.00    -0.222 N 
ATOM     10  H11 4T5 d   1      12.574 -11.365  13.514  0.00  0.00     0.177 HD
BRANCH   9  11
ATOM     11  C8  4T5 d   1      14.418 -12.423  13.047  0.00  0.00     0.013 C 
ATOM     12  H2  4T5 d   1      14.149 -12.960  12.125  0.00  0.00     0.065 H 
ATOM     13  H3  4T5 d   1      15.076 -13.055  13.661  0.00  0.00     0.065 H 
BRANCH  11  14
ATOM     14  C9  4T5 d   1      15.165 -11.140  12.676  0.00  0.00    -0.038 C 
ATOM     15  C11 4T5 d   1      16.671 -11.414  12.684  0.00  0.00    -0.058 C 
ATOM     16  C12 4T5 d   1      17.405 -10.175  12.176  0.00  0.00    -0.038 C 
ATOM     17  H13 4T5 d   1      16.894 -12.269  12.029  0.00  0.00     0.033 H 
ATOM     18  H14 4T5 d   1      16.999 -11.642  13.709  0.00  0.00     0.033 H 
ATOM     19  C13 4T5 d   1      17.112  -9.012  13.120  0.00  0.00     0.100 C 
ATOM     20  H15 4T5 d   1      18.487 -10.370  12.153  0.00  0.00     0.036 H 
ATOM     21  H16 4T5 d   1      17.055  -9.927  11.163  0.00  0.00     0.036 H 
ATOM     22  C15 4T5 d   1      15.601  -8.757  13.188  0.00  0.00    -0.038 C 
ATOM     23  H4  4T5 d   1      17.478  -9.264  14.126  0.00  0.00     0.083 H 
ATOM     24  C16 4T5 d   1      14.875 -10.017  13.671  0.00  0.00    -0.058 C 
ATOM     25  H5  4T5 d   1      15.232  -8.486  12.188  0.00  0.00     0.036 H 
ATOM     26  H6  4T5 d   1      15.402  -7.932  13.888  0.00  0.00     0.036 H 
ATOM     27  H17 4T5 d   1      13.792  -9.829  13.717  0.00  0.00     0.033 H 
ATOM     28  H18 4T5 d   1      15.241 -10.299  14.669  0.00  0.00     0.033 H 
ATOM     29  H12 4T5 d   1      14.853 -10.822  11.671  0.00  0.00     0.042 H 
BRANCH  19  30
ATOM     30  N17 4T5 d   1      17.805  -7.807  12.643  0.00  0.00    -0.075 N 
ATOM     31  H19 4T5 d   1      17.611  -7.039  13.267  0.00  0.00     0.274 HD
ATOM     32  H20 4T5 d   1      17.481  -7.577  11.717  0.00  0.00     0.274 HD
ATOM     33  H21 4T5 d   1      18.798  -7.978  12.619  0.00  0.00     0.274 HD
ENDBRANCH  19  30
ENDBRANCH  11  14
ENDBRANCH   9  11
ENDBRANCH   2   9
BRANCH   5  34
ATOM     34  N18 4T5 d   1      14.625 -15.245  17.020  0.00  0.00    -0.325 N 
ATOM     35  H22 4T5 d   1      14.504 -15.542  17.999  0.00  0.00     0.169 HD
BRANCH  34  36
ATOM     36  C19 4T5 d   1      15.771 -15.679  16.355  0.00  0.00     0.125 A 
ATOM     37  C24 4T5 d   1      16.155 -15.465  15.058  0.00  0.00    -0.013 A 
ATOM     38  C23 4T5 d   1      17.383 -16.108  14.860  0.00  0.00     0.062 A 
ATOM     39  H7  4T5 d   1      15.603 -14.895  14.312  0.00  0.00     0.092 H 
ATOM     40  N22 4T5 d   1      17.726 -16.680  15.985  0.00  0.00    -0.177 NA
ATOM     41  N20 4T5 d   1      16.735 -16.433  16.938  0.00  0.00    -0.262 N 
ATOM     42  H23 4T5 d   1      16.736 -16.765  17.913  0.00  0.00     0.191 HD
BRANCH  38  43
ATOM     43  C25 4T5 d   1      18.199 -16.154  13.587  0.00  0.00    -0.010 A 
ATOM     44  C26 4T5 d   1      17.736 -15.335  12.381  0.00  0.00    -0.056 A 
ATOM     45  C27 4T5 d   1      18.968 -14.895  13.178  0.00  0.00    -0.056 A 
ATOM     46  H8  4T5 d   1      16.806 -14.750  12.438  0.00  0.00     0.034 H 
ATOM     47  H9  4T5 d   1      17.854 -15.738  11.364  0.00  0.00     0.034 H 
ATOM     48  H25 4T5 d   1      18.923 -13.994  13.807  0.00  0.00     0.034 H 
ATOM     49  H26 4T5 d   1      19.971 -14.983  12.734  0.00  0.00     0.034 H 
ATOM     50  H24 4T5 d   1      18.638 -17.153  13.450  0.00  0.00     0.049 H 
ENDBRANCH  38  43
ENDBRANCH  34  36
ENDBRANCH   5  34
TORSDOF 7
