REMARK  6 active torsions:
REMARK  status: ('A' for Active; 'I' for Inactive)
REMARK    1  A    between atoms: C7_4  and  C6_3 
REMARK    2  A    between atoms: N8_12  and  C7_4 
REMARK    3  A    between atoms: N15_18  and  C13_5 
REMARK    4  A    between atoms: C18_20  and  C22_7 
REMARK    5  A    between atoms: C9_13  and  N8_12 
REMARK    6  A    between atoms: N15_18  and  C16_19 
ROOT
ATOM      1  C13 4T6 d   1      13.579 -15.967  17.088  0.00  0.00     0.149 A 
ATOM      2  C9  4T6 d   1      12.467 -14.816  15.412  0.00  0.00     0.724 A 
ATOM      3  N10 4T6 d   1      11.390 -14.655  16.183  0.00  0.00    -0.075 NA
ATOM      4  C11 4T6 d   1      11.343 -15.147  17.425  0.00  0.00     0.025 A 
ATOM      5  C12 4T6 d   1      12.444 -15.835  17.918  0.00  0.00    -0.020 A 
ATOM      6  N14 4T6 d   1      13.549 -15.478  15.849  0.00  0.00    -0.045 NA
ATOM      7  H10 4T6 d   1      10.459 -15.011  18.038  0.00  0.00     0.115 H 
ATOM      8  H11 4T6 d   1      12.432 -16.260  18.915  0.00  0.00     0.091 H 
ENDROOT
BRANCH   2   9
ATOM      9  N8  4T6 d   1      12.452 -14.308  14.119  0.00  0.00    -0.218 N 
ATOM     10  H9  4T6 d   1      11.593 -13.872  13.755  0.00  0.00     0.178 HD
BRANCH   9  11
ATOM     11  C7  4T6 d   1      13.648 -14.384  13.262  0.00  0.00     0.035 C 
ATOM     12  H1  4T6 d   1      14.147 -15.350  13.431  0.00  0.00     0.072 H 
ATOM     13  H2  4T6 d   1      13.338 -14.310  12.209  0.00  0.00     0.072 H 
BRANCH  11  14
ATOM     14  C6  4T6 d   1      14.631 -13.259  13.568  0.00  0.00    -0.016 A 
ATOM     15  C5  4T6 d   1      15.797 -13.184  12.816  0.00  0.00     0.073 A 
ATOM     16  C4  4T6 d   1      16.712 -12.147  13.038  0.00  0.00     0.107 A 
ATOM     17 CL1  4T6 d   1      16.165 -14.374  11.604  0.00  0.00    -0.081 Cl
ATOM     18  C3  4T6 d   1      16.457 -11.184  14.031  0.00  0.00     0.064 A 
ATOM     19  N26 4T6 d   1      17.900 -11.832  12.465  0.00  0.00    -0.240 NA
ATOM     20  C2  4T6 d   1      15.284 -11.254  14.798  0.00  0.00    -0.054 A 
ATOM     21  N28 4T6 d   1      17.538 -10.320  13.983  0.00  0.00    -0.349 N 
ATOM     22  C1  4T6 d   1      14.382 -12.285  14.554  0.00  0.00    -0.071 A 
ATOM     23  H8  4T6 d   1      15.084 -10.517  15.568  0.00  0.00     0.087 H 
ATOM     24  H7  4T6 d   1      13.469 -12.339  15.135  0.00  0.00     0.084 H 
ATOM     25  C27 4T6 d   1      18.375 -10.743  12.993  0.00  0.00     0.065 A 
ATOM     26  H17 4T6 d   1      17.684  -9.501  14.589  0.00  0.00     0.167 HD
ATOM     27  H16 4T6 d   1      19.296 -10.247  12.692  0.00  0.00     0.143 H 
ENDBRANCH  11  14
ENDBRANCH   9  11
ENDBRANCH   2   9
BRANCH   1  28
ATOM     28  N15 4T6 d   1      14.675 -16.630  17.588  0.00  0.00    -0.325 N 
ATOM     29  H12 4T6 d   1      14.615 -16.902  18.579  0.00  0.00     0.169 HD
BRANCH  28  30
ATOM     30  C16 4T6 d   1      15.861 -16.986  16.936  0.00  0.00     0.125 A 
ATOM     31  C17 4T6 d   1      16.361 -16.632  15.663  0.00  0.00    -0.013 A 
ATOM     32  C18 4T6 d   1      17.569 -17.239  15.529  0.00  0.00     0.062 A 
ATOM     33  H3  4T6 d   1      15.871 -15.994  14.929  0.00  0.00     0.092 H 
ATOM     34  N19 4T6 d   1      17.806 -17.929  16.661  0.00  0.00    -0.177 NA
ATOM     35  N21 4T6 d   1      16.730 -17.763  17.522  0.00  0.00    -0.262 N 
ATOM     36  H13 4T6 d   1      16.634 -18.180  18.459  0.00  0.00     0.191 HD
BRANCH  32  37
ATOM     37  C22 4T6 d   1      18.568 -17.190  14.393  0.00  0.00    -0.010 A 
ATOM     38  C24 4T6 d   1      18.085 -17.085  12.954  0.00  0.00    -0.056 A 
ATOM     39  C23 4T6 d   1      18.770 -15.885  13.624  0.00  0.00    -0.056 A 
ATOM     40  H5  4T6 d   1      17.007 -17.052  12.736  0.00  0.00     0.034 H 
ATOM     41  H6  4T6 d   1      18.603 -17.640  12.158  0.00  0.00     0.034 H 
ATOM     42  H14 4T6 d   1      19.779 -15.581  13.310  0.00  0.00     0.034 H 
ATOM     43  H15 4T6 d   1      18.184 -14.993  13.889  0.00  0.00     0.034 H 
ATOM     44  H4  4T6 d   1      19.432 -17.826  14.636  0.00  0.00     0.049 H 
ENDBRANCH  32  37
ENDBRANCH  28  30
ENDBRANCH   1  28
TORSDOF 6
