REMARK  12 active torsions:
REMARK  status: ('A' for Active; 'I' for Inactive)
REMARK    1  A    between atoms: N14_26  and  C44_3 
REMARK    2  A    between atoms: C45_4  and  O57_33 
REMARK    3  A    between atoms: C48_6  and  C53_9 
REMARK    4  A    between atoms: O57_33  and  C58_10 
REMARK    5  A    between atoms: C58_10  and  C61_34 
REMARK    6  A    between atoms: C7_23  and  C12_11 
REMARK    7  A    between atoms: C23_17  and  O35_29 
REMARK    8  A    between atoms: C24_18  and  O27_27 
REMARK    9  A    between atoms: O27_27  and  C28_20 
REMARK   10  A    between atoms: C28_20  and  C31_28 
REMARK   11  A    between atoms: O35_29  and  C36_30 
REMARK   12  A    between atoms: C36_30  and  C39_31 
ROOT
ATOM      1  C12 4SS d   1       2.096   2.808  20.764  0.00  0.00     0.071 C 
ATOM      2  C15 4SS d   1       1.413   1.934  23.025  0.00  0.00     0.229 C 
ATOM      3  C16 4SS d   1       0.295   1.129  22.405  0.00  0.00     0.034 C 
ATOM      4  C19 4SS d   1      -0.136   1.625  21.008  0.00  0.00    -0.038 A 
ATOM      5  C20 4SS d   1       0.731   2.401  20.220  0.00  0.00    -0.021 A 
ATOM      6  C21 4SS d   1       0.341   2.835  18.945  0.00  0.00    -0.039 A 
ATOM      7  C23 4SS d   1      -0.923   2.490  18.445  0.00  0.00     0.102 A 
ATOM      8  C24 4SS d   1      -1.784   1.710  19.215  0.00  0.00     0.102 A 
ATOM      9  C25 4SS d   1      -1.388   1.276  20.496  0.00  0.00    -0.041 A 
ATOM     10  N14 4SS d   1       2.224   2.693  22.239  0.00  0.00    -0.301 N 
ATOM     11  O43 4SS d   1       1.551   1.860  24.241  0.00  0.00    -0.273 OA
ATOM     12  H10 4SS d   1       2.244   3.866  20.502  0.00  0.00     0.088 H 
ATOM     13  H11 4SS d   1      -0.577   1.177  23.073  0.00  0.00     0.054 H 
ATOM     14  H12 4SS d   1       0.630   0.085  22.313  0.00  0.00     0.054 H 
ATOM     15  H13 4SS d   1       1.016   3.436  18.346  0.00  0.00     0.088 H 
ATOM     16  H14 4SS d   1      -2.060   0.666  21.089  0.00  0.00     0.088 H 
ENDROOT
BRANCH  10  17
ATOM     17  C44 4SS d   1       3.255   3.473  22.824  0.00  0.00     0.071 A 
ATOM     18  C45 4SS d   1       2.968   4.827  23.007  0.00  0.00     0.096 A 
ATOM     19  C46 4SS d   1       3.937   5.674  23.573  0.00  0.00    -0.043 A 
ATOM     20  C48 4SS d   1       5.182   5.143  23.935  0.00  0.00    -0.059 A 
ATOM     21  H2  4SS d   1       3.723   6.726  23.727  0.00  0.00     0.088 H 
ATOM     22  C49 4SS d   1       5.459   3.777  23.742  0.00  0.00    -0.075 A 
ATOM     23  C51 4SS d   1       4.490   2.928  23.182  0.00  0.00    -0.054 A 
ATOM     24  H3  4SS d   1       6.426   3.378  24.027  0.00  0.00     0.084 H 
ATOM     25  H4  4SS d   1       4.696   1.875  23.031  0.00  0.00     0.087 H 
BRANCH  18  26
ATOM     26  O57 4SS d   1       1.687   5.242  22.611  0.00  0.00    -0.341 OA
BRANCH  26  27
ATOM     27  C58 4SS d   1       1.194   6.581  22.656  0.00  0.00     0.083 C 
ATOM     28  H8  4SS d   1       1.650   7.120  23.500  0.00  0.00     0.087 H 
ATOM     29  H9  4SS d   1       0.100   6.574  22.773  0.00  0.00     0.087 H 
BRANCH  27  30
ATOM     30  C61 4SS d   1       1.566   7.246  21.363  0.00  0.00     0.158 A 
ATOM     31  N62 4SS d   1       1.850   8.472  21.225  0.00  0.00    -0.145 NA
ATOM     32  N63 4SS d   1       2.128   8.692  19.930  0.00  0.00     0.018 NA
ATOM     33  N65 4SS d   1       2.009   7.553  19.226  0.00  0.00    -0.005 NA
ATOM     34  N66 4SS d   1       1.654   6.576  20.085  0.00  0.00    -0.270 N 
ATOM     35  H28 4SS d   1       1.484   5.581  19.878  0.00  0.00     0.185 HD
ENDBRANCH  27  30
ENDBRANCH  26  27
ENDBRANCH  18  26
BRANCH  20  36
ATOM     36  C53 4SS d   1       6.226   6.080  24.541  0.00  0.00    -0.051 C 
ATOM     37  H5  4SS d   1       5.812   7.097  24.605  0.00  0.00     0.033 H 
ATOM     38  H6  4SS d   1       7.124   6.089  23.905  0.00  0.00     0.033 H 
ATOM     39  H7  4SS d   1       6.493   5.729  25.549  0.00  0.00     0.033 H 
ENDBRANCH  20  36
ENDBRANCH  10  17
BRANCH   1  40
ATOM     40  C7  4SS d   1       3.214   1.997  20.109  0.00  0.00    -0.030 A 
ATOM     41  C5  4SS d   1       4.164   2.611  19.277  0.00  0.00    -0.073 A 
ATOM     42  C3  4SS d   1       5.178   1.838  18.702  0.00  0.00    -0.061 A 
ATOM     43  H17 4SS d   1       4.112   3.676  19.082  0.00  0.00     0.084 H 
ATOM     44  C2  4SS d   1       5.231   0.462  18.947  0.00  0.00     0.034 A 
ATOM     45  H1  4SS d   1       5.922   2.305  18.067  0.00  0.00     0.086 H 
ATOM     46 CL1  4SS d   1       6.485  -0.530  18.232  0.00  0.00    -0.084 Cl
ATOM     47  C10 4SS d   1       4.282  -0.146  19.770  0.00  0.00    -0.061 A 
ATOM     48  C8  4SS d   1       3.272   0.625  20.350  0.00  0.00    -0.073 A 
ATOM     49  H19 4SS d   1       4.329  -1.212  19.958  0.00  0.00     0.086 H 
ATOM     50  H18 4SS d   1       2.532   0.156  20.988  0.00  0.00     0.084 H 
ENDBRANCH   1  40
BRANCH   7  51
ATOM     51  O35 4SS d   1      -1.388   2.875  17.184  0.00  0.00    -0.349 OA
BRANCH  51  52
ATOM     52  C36 4SS d   1      -0.742   3.854  16.344  0.00  0.00     0.023 C 
ATOM     53  H23 4SS d   1      -0.126   4.525  16.962  0.00  0.00     0.074 H 
ATOM     54  H24 4SS d   1      -1.501   4.443  15.809  0.00  0.00     0.074 H 
BRANCH  52  55
ATOM     55  C39 4SS d   1       0.154   3.112  15.328  0.00  0.00    -0.056 C 
ATOM     56  H25 4SS d   1       0.655   3.844  14.678  0.00  0.00     0.030 H 
ATOM     57  H26 4SS d   1      -0.465   2.441  14.715  0.00  0.00     0.030 H 
ATOM     58  H27 4SS d   1       0.910   2.523  15.868  0.00  0.00     0.030 H 
ENDBRANCH  52  55
ENDBRANCH  51  52
ENDBRANCH   7  51
BRANCH   8  59
ATOM     59  O27 4SS d   1      -3.021   1.421  18.627  0.00  0.00    -0.349 OA
BRANCH  59  60
ATOM     60  C28 4SS d   1      -4.001   0.559  19.200  0.00  0.00     0.023 C 
ATOM     61  H15 4SS d   1      -4.221   0.888  20.226  0.00  0.00     0.074 H 
ATOM     62  H16 4SS d   1      -3.614  -0.471  19.220  0.00  0.00     0.074 H 
BRANCH  60  63
ATOM     63  C31 4SS d   1      -5.303   0.604  18.355  0.00  0.00    -0.056 C 
ATOM     64  H20 4SS d   1      -6.054  -0.063  18.803  0.00  0.00     0.030 H 
ATOM     65  H21 4SS d   1      -5.085   0.274  17.328  0.00  0.00     0.030 H 
ATOM     66  H22 4SS d   1      -5.692   1.633  18.335  0.00  0.00     0.030 H 
ENDBRANCH  60  63
ENDBRANCH  59  60
ENDBRANCH   8  59
TORSDOF 12
