REMARK  13 active torsions:
REMARK  status: ('A' for Active; 'I' for Inactive)
REMARK    1  A    between atoms: C23_13  and  C41_3 
REMARK    2  A    between atoms: C15_8  and  O21_29 
REMARK    3  A    between atoms: C16_9  and  O18_28 
REMARK    4  A    between atoms: O18_28  and  C19_11 
REMARK    5  A    between atoms: C22_12  and  C23_13 
REMARK    6  A    between atoms: O21_29  and  C22_12 
REMARK    7  A    between atoms: C22_12  and  C31_31 
REMARK    8  A    between atoms: C25_14  and  N9_26 
REMARK    9  A    between atoms: N32_32  and  C28_17 
REMARK   10  A    between atoms: C8_25  and  C5_22 
REMARK   11  A    between atoms: N32_32  and  C33_33 
REMARK   12  A    between atoms: C34_34  and  N32_32 
REMARK   13  A    between atoms: C40_40  and  C34_34 
ROOT
ATOM      1  C11 4TH d   1       5.959   9.472  -4.075  0.00  0.00     0.034 C 
ATOM      2  C12 4TH d   1       5.243   9.073  -2.775  0.00  0.00    -0.038 A 
ATOM      3  C13 4TH d   1       5.565   9.645  -1.514  0.00  0.00    -0.021 A 
ATOM      4  C14 4TH d   1       4.928   9.310  -0.319  0.00  0.00    -0.039 A 
ATOM      5  C15 4TH d   1       3.907   8.343  -0.373  0.00  0.00     0.103 A 
ATOM      6  C16 4TH d   1       3.570   7.764  -1.608  0.00  0.00     0.102 A 
ATOM      7  C17 4TH d   1       4.227   8.114  -2.817  0.00  0.00    -0.041 A 
ATOM      8  C8  4TH d   1       6.637  10.679  -1.393  0.00  0.00     0.071 C 
ATOM      9  N9  4TH d   1       7.610  10.572  -2.527  0.00  0.00    -0.304 N 
ATOM     10  C10 4TH d   1       7.317  10.049  -3.754  0.00  0.00     0.229 C 
ATOM     11  O24 4TH d   1       8.156  10.012  -4.627  0.00  0.00    -0.273 OA
ATOM     12  H5  4TH d   1       5.359  10.225  -4.606  0.00  0.00     0.054 H 
ATOM     13  H6  4TH d   1       6.081   8.584  -4.712  0.00  0.00     0.054 H 
ATOM     14  H7  4TH d   1       5.209   9.778   0.618  0.00  0.00     0.088 H 
ATOM     15  H8  4TH d   1       3.946   7.647  -3.754  0.00  0.00     0.088 H 
ATOM     16  H22 4TH d   1       7.183  10.491  -0.457  0.00  0.00     0.088 H 
ENDROOT
BRANCH   9  17
ATOM     17  C25 4TH d   1       8.874  11.125  -2.200  0.00  0.00     0.038 A 
ATOM     18  C26 4TH d   1       9.794  10.386  -1.444  0.00  0.00    -0.055 A 
ATOM     19  C27 4TH d   1      11.042  10.927  -1.094  0.00  0.00    -0.055 A 
ATOM     20  H15 4TH d   1       9.539   9.382  -1.125  0.00  0.00     0.087 H 
ATOM     21  C28 4TH d   1      11.389  12.226  -1.527  0.00  0.00     0.030 A 
ATOM     22  H16 4TH d   1      11.736  10.350  -0.494  0.00  0.00     0.087 H 
ATOM     23  C29 4TH d   1      10.433  12.950  -2.290  0.00  0.00    -0.055 A 
ATOM     24  C30 4TH d   1       9.179  12.435  -2.640  0.00  0.00    -0.055 A 
ATOM     25  H17 4TH d   1      10.688  13.951  -2.618  0.00  0.00     0.087 H 
ATOM     26  H18 4TH d   1       8.472  13.015  -3.223  0.00  0.00     0.087 H 
BRANCH  21  27
ATOM     27  N32 4TH d   1      12.639  12.826  -1.186  0.00  0.00    -0.381 N 
BRANCH  27  28
ATOM     28  C33 4TH d   1      12.868  14.188  -1.571  0.00  0.00    -0.018 C 
ATOM     29  H26 4TH d   1      13.869  14.500  -1.238  0.00  0.00     0.056 H 
ATOM     30  H27 4TH d   1      12.109  14.833  -1.105  0.00  0.00     0.056 H 
ATOM     31  H28 4TH d   1      12.802  14.276  -2.666  0.00  0.00     0.056 H 
ENDBRANCH  27  28
BRANCH  27  32
ATOM     32  C34 4TH d   1      13.639  12.094  -0.453  0.00  0.00     0.018 C 
ATOM     33  H29 4TH d   1      13.129  11.341   0.167  0.00  0.00     0.071 H 
ATOM     34  H30 4TH d   1      14.176  12.801   0.197  0.00  0.00     0.071 H 
BRANCH  32  35
ATOM     35  C40 4TH d   1      14.657  11.382  -1.321  0.00  0.00    -0.038 A 
ATOM     36  C36 4TH d   1      15.631  10.599  -0.676  0.00  0.00    -0.058 A 
ATOM     37  C37 4TH d   1      16.595   9.922  -1.444  0.00  0.00     0.002 A 
ATOM     38  H31 4TH d   1      15.639  10.518   0.405  0.00  0.00     0.086 H 
ATOM     39  N35 4TH d   1      16.575  10.048  -2.799  0.00  0.00    -0.273 NA
ATOM     40  H32 4TH d   1      17.346   9.306  -0.962  0.00  0.00     0.114 H 
ATOM     41  C38 4TH d   1      15.655  10.797  -3.456  0.00  0.00     0.002 A 
ATOM     42  C39 4TH d   1      14.669  11.481  -2.713  0.00  0.00    -0.058 A 
ATOM     43  H33 4TH d   1      15.677  10.869  -4.537  0.00  0.00     0.114 H 
ATOM     44  H34 4TH d   1      13.924  12.081  -3.222  0.00  0.00     0.086 H 
ENDBRANCH  32  35
ENDBRANCH  27  32
ENDBRANCH  21  27
ENDBRANCH   9  17
BRANCH   8  45
ATOM     45  C5  4TH d   1       6.044  12.104  -1.318  0.00  0.00    -0.030 A 
ATOM     46  C4  4TH d   1       6.483  12.979  -0.307  0.00  0.00    -0.073 A 
ATOM     47  C3  4TH d   1       5.991  14.294  -0.192  0.00  0.00    -0.061 A 
ATOM     48  H19 4TH d   1       7.222  12.630   0.405  0.00  0.00     0.084 H 
ATOM     49  C2  4TH d   1       5.052  14.680  -1.138  0.00  0.00     0.034 A 
ATOM     50  H1  4TH d   1       6.327  14.965   0.590  0.00  0.00     0.086 H 
ATOM     51 CL1  4TH d   1       4.413  16.288  -1.061  0.00  0.00    -0.084 Cl
ATOM     52  C7  4TH d   1       4.601  13.847  -2.159  0.00  0.00    -0.061 A 
ATOM     53  C6  4TH d   1       5.101  12.532  -2.269  0.00  0.00    -0.073 A 
ATOM     54  H21 4TH d   1       3.866  14.209  -2.869  0.00  0.00     0.086 H 
ATOM     55  H20 4TH d   1       4.768  11.872  -3.062  0.00  0.00     0.084 H 
ENDBRANCH   8  45
BRANCH   5  56
ATOM     56  O21 4TH d   1       3.212   7.933   0.780  0.00  0.00    -0.343 OA
BRANCH  56  57
ATOM     57  C22 4TH d   1       3.285   8.524   2.089  0.00  0.00     0.041 C 
ATOM     58  H12 4TH d   1       4.331   8.720   2.369  0.00  0.00     0.083 H 
BRANCH  57  59
ATOM     59  C23 4TH d   1       2.474   9.851   2.088  0.00  0.00    -0.044 C 
ATOM     60  H13 4TH d   1       2.523  10.309   1.089  0.00  0.00     0.036 H 
ATOM     61  H14 4TH d   1       1.425   9.639   2.343  0.00  0.00     0.036 H 
BRANCH  59  62
ATOM     62  C41 4TH d   1       3.055  10.800   3.104  0.00  0.00    -0.074 C 
ATOM     63  H2  4TH d   1       2.480  11.738   3.101  0.00  0.00     0.027 H 
ATOM     64  H3  4TH d   1       4.104  11.013   2.849  0.00  0.00     0.027 H 
ATOM     65  H4  4TH d   1       3.006  10.343   4.103  0.00  0.00     0.027 H 
ENDBRANCH  59  62
ENDBRANCH  57  59
BRANCH  57  66
ATOM     66  C31 4TH d   1       2.651   7.541   3.056  0.00  0.00    -0.052 C 
ATOM     67  H23 4TH d   1       3.226   6.603   3.055  0.00  0.00     0.030 H 
ATOM     68  H24 4TH d   1       1.616   7.337   2.745  0.00  0.00     0.030 H 
ATOM     69  H25 4TH d   1       2.652   7.971   4.069  0.00  0.00     0.030 H 
ENDBRANCH  57  66
ENDBRANCH  56  57
ENDBRANCH   5  56
BRANCH   6  70
ATOM     70  O18 4TH d   1       2.547   6.816  -1.550  0.00  0.00    -0.353 OA
BRANCH  70  71
ATOM     71  C19 4TH d   1       1.977   6.229  -2.717  0.00  0.00     0.010 C 
ATOM     72  H9  4TH d   1       1.194   5.515  -2.423  0.00  0.00     0.066 H 
ATOM     73  H10 4TH d   1       2.760   5.702  -3.282  0.00  0.00     0.066 H 
ATOM     74  H11 4TH d   1       1.538   7.017  -3.347  0.00  0.00     0.066 H 
ENDBRANCH  70  71
ENDBRANCH   6  70
TORSDOF 13
