REMARK  12 active torsions:
REMARK  status: ('A' for Active; 'I' for Inactive)
REMARK    1  A    between atoms: CAA_1  and  CBB_2 
REMARK    2  A    between atoms: CBB_2  and  CAB_3 
REMARK    3  A    between atoms: CBB_2  and  CAC_4 
REMARK    4  A    between atoms: CBB_2  and  CAV_5 
REMARK       I    between atoms: CAV_5  and  N_7 
REMARK    5  A    between atoms: N_7  and  CA_8 
REMARK    6  A    between atoms: CA_8  and  C_9 
REMARK    7  A    between atoms: CA_8  and  CAZ_13 
REMARK       I    between atoms: C_9  and  NAR_11 
REMARK    8  A    between atoms: NAR_11  and  OAH_12 
REMARK    9  A    between atoms: CAX_18  and  CAY_19 
REMARK   10  A    between atoms: CAW_24  and  CAT_25 
REMARK   11  A    between atoms: CAT_25  and  NAD_26 
REMARK   12  A    between atoms: NAQ_27  and  OAG_28 
ROOT
ATOM      1  CAZ 4U6 d   1     173.655  15.741  84.398  0.00  0.00    -0.026 A 
ATOM      2  CAO 4U6 d   1     172.672  15.055  83.693  0.00  0.00    -0.074 A 
ATOM      3  CAM 4U6 d   1     171.428  15.635  83.495  0.00  0.00    -0.072 A 
ATOM      4  CAN 4U6 d   1     173.387  17.010  84.900  0.00  0.00    -0.074 A 
ATOM      5  CAL 4U6 d   1     172.139  17.592  84.701  0.00  0.00    -0.072 A 
ATOM      6  CAX 4U6 d   1     171.159  16.904  83.996  0.00  0.00    -0.026 A 
ATOM      7  H14 4U6 d   1     172.878  14.067  83.298  0.00  0.00     0.084 H 
ATOM      8  H15 4U6 d   1     170.662  15.097  82.948  0.00  0.00     0.084 H 
ATOM      9  H16 4U6 d   1     174.153  17.547  85.448  0.00  0.00     0.084 H 
ATOM     10  H17 4U6 d   1     171.932  18.580  85.095  0.00  0.00     0.084 H 
ENDROOT
BRANCH   1  11
ATOM     11  CA  4U6 d   1     174.900  15.132  84.579  0.00  0.00     0.117 C 
ATOM     12  H11 4U6 d   1     175.190  14.669  83.624  0.00  0.00     0.095 H 
BRANCH  11  13
ATOM     13  N   4U6 d   1     175.946  16.094  84.962  0.00  0.00    -0.343 N 
ATOM     14  CAV 4U6 d   1     176.718  16.701  84.050  0.00  0.00     0.226 C 
ATOM     15  OAF 4U6 d   1     176.598  16.540  82.836  0.00  0.00    -0.273 OA
ATOM     16  H10 4U6 d   1     176.085  16.301  85.930  0.00  0.00     0.163 HD
BRANCH  14  17
ATOM     17  CBB 4U6 d   1     177.789  17.638  84.619  0.00  0.00     0.030 C 
BRANCH  17  18
ATOM     18  CAA 4U6 d   1     177.156  18.977  84.997  0.00  0.00    -0.061 C 
ATOM     19  H1  4U6 d   1     177.929  19.646  85.405  0.00  0.00     0.029 H 
ATOM     20  H2  4U6 d   1     176.376  18.813  85.755  0.00  0.00     0.029 H 
ATOM     21  H3  4U6 d   1     176.708  19.436  84.103  0.00  0.00     0.029 H 
ENDBRANCH  17  18
BRANCH  17  22
ATOM     22  CAB 4U6 d   1     178.429  16.997  85.853  0.00  0.00    -0.061 C 
ATOM     23  H4  4U6 d   1     178.882  16.035  85.573  0.00  0.00     0.029 H 
ATOM     24  H5  4U6 d   1     177.659  16.830  86.621  0.00  0.00     0.029 H 
ATOM     25  H6  4U6 d   1     179.206  17.666  86.252  0.00  0.00     0.029 H 
ENDBRANCH  17  22
BRANCH  17  26
ATOM     26  CAC 4U6 d   1     178.869  17.861  83.564  0.00  0.00    -0.061 C 
ATOM     27  H7  4U6 d   1     178.420  18.322  82.672  0.00  0.00     0.029 H 
ATOM     28  H8  4U6 d   1     179.320  16.895  83.291  0.00  0.00     0.029 H 
ATOM     29  H9  4U6 d   1     179.645  18.527  83.969  0.00  0.00     0.029 H 
ENDBRANCH  17  26
ENDBRANCH  14  17
ENDBRANCH  11  13
BRANCH  11  30
ATOM     30  C   4U6 d   1     174.827  14.036  85.652  0.00  0.00     0.268 C 
ATOM     31  O   4U6 d   1     174.537  14.302  86.817  0.00  0.00    -0.269 OA
ATOM     32  NAR 4U6 d   1     175.133  12.805  85.220  0.00  0.00    -0.235 N 
ATOM     33  H12 4U6 d   1     175.374  12.631  84.265  0.00  0.00     0.197 HD
BRANCH  32  34
ATOM     34  OAH 4U6 d   1     175.099  11.760  86.179  0.00  0.00    -0.287 OA
ATOM     35  H13 4U6 d   1     175.719  11.949  86.874  0.00  0.00     0.244 HD
ENDBRANCH  32  34
ENDBRANCH  11  30
ENDBRANCH   1  11
BRANCH   6  36
ATOM     36  CAY 4U6 d   1     169.900  17.465  83.794  0.00  0.00    -0.025 A 
ATOM     37  CAP 4U6 d   1     169.604  18.741  84.260  0.00  0.00    -0.059 A 
ATOM     38  CAW 4U6 d   1     168.334  19.274  84.051  0.00  0.00     0.010 A 
ATOM     39  H18 4U6 d   1     170.358  19.318  84.783  0.00  0.00     0.086 H 
ATOM     40  CAJ 4U6 d   1     167.362  18.539  83.385  0.00  0.00    -0.069 A 
ATOM     41  CAI 4U6 d   1     167.659  17.265  82.923  0.00  0.00    -0.081 A 
ATOM     42  H21 4U6 d   1     166.375  18.959  83.227  0.00  0.00     0.085 H 
ATOM     43  CAK 4U6 d   1     168.924  16.731  83.130  0.00  0.00    -0.072 A 
ATOM     44  H20 4U6 d   1     166.905  16.687  82.401  0.00  0.00     0.083 H 
ATOM     45  H19 4U6 d   1     169.152  15.734  82.771  0.00  0.00     0.084 H 
BRANCH  38  46
ATOM     46  CAT 4U6 d   1     168.025  20.547  84.507  0.00  0.00     0.129 C 
ATOM     47  NAQ 4U6 d   1     169.031  21.395  84.762  0.00  0.00    -0.253 N 
ATOM     48  H24 4U6 d   1     170.015  21.120  84.630  0.00  0.00     0.196 HD
BRANCH  46  49
ATOM     49  NAD 4U6 d   1     166.743  20.862  84.661  0.00  0.00    -0.383 N 
ATOM     50  H22 4U6 d   1     166.480  21.799  84.998  0.00  0.00     0.157 HD
ATOM     51  H23 4U6 d   1     166.013  20.169  84.444  0.00  0.00     0.157 HD
ENDBRANCH  46  49
BRANCH  47  52
ATOM     52  OAG 4U6 d   1     168.670  22.715  85.232  0.00  0.00    -0.288 OA
ATOM     53  H25 4U6 d   1     168.185  22.639  86.046  0.00  0.00     0.244 HD
ENDBRANCH  47  52
ENDBRANCH  38  46
ENDBRANCH   6  36
TORSDOF 12
