REMARK  8 active torsions:
REMARK  status: ('A' for Active; 'I' for Inactive)
REMARK    1  A    between atoms: C5_2  and  C6_1 
REMARK    2  A    between atoms: C6_1  and  O6_21 
REMARK    3  A    between atoms: C4_3  and  O4_19 
REMARK    4  A    between atoms: C3_4  and  O3_18 
REMARK    5  A    between atoms: C2_5  and  O2_17 
REMARK    6  A    between atoms: O1_16  and  C1_6 
REMARK    7  A    between atoms: C9_10  and  N_8 
REMARK    8  A    between atoms: C12_13  and  O1_16 
ROOT
ATOM      1  C5  9PG d   1      27.807 -18.223  51.523  0.00  0.00     0.089 C 
ATOM      2  C4  9PG d   1      27.468 -18.029  53.007  0.00  0.00     0.090 C 
ATOM      3  C3  9PG d   1      28.426 -18.836  53.886  0.00  0.00     0.092 C 
ATOM      4  C2  9PG d   1      29.858 -18.496  53.490  0.00  0.00     0.110 C 
ATOM      5  C1  9PG d   1      30.013 -18.793  52.007  0.00  0.00     0.164 C 
ATOM      6  O5  9PG d   1      29.163 -17.939  51.298  0.00  0.00    -0.348 OA
ATOM      7  H3  9PG d   1      27.610 -19.268  51.242  0.00  0.00     0.090 H 
ATOM      8  H4  9PG d   1      26.436 -18.363  53.191  0.00  0.00     0.091 H 
ATOM      9  H5  9PG d   1      28.248 -19.911  53.736  0.00  0.00     0.091 H 
ATOM     10  H6  9PG d   1      30.049 -17.429  53.676  0.00  0.00     0.094 H 
ATOM     11  H7  9PG d   1      31.056 -18.640  51.694  0.00  0.00     0.134 H 
ENDROOT
BRANCH   5  12
ATOM     12  O1  9PG d   1      29.626 -20.117  51.767  0.00  0.00    -0.318 OA
BRANCH  12  13
ATOM     13  C12 9PG d   1      30.595 -20.774  51.006  0.00  0.00     0.072 A 
ATOM     14  C13 9PG d   1      31.878 -20.261  50.924  0.00  0.00    -0.048 A 
ATOM     15  C14 9PG d   1      32.838 -20.917  50.170  0.00  0.00    -0.048 A 
ATOM     16  H9  9PG d   1      32.132 -19.347  51.449  0.00  0.00     0.087 H 
ATOM     17  C9  9PG d   1      32.514 -22.086  49.500  0.00  0.00     0.103 A 
ATOM     18  H8  9PG d   1      33.843 -20.516  50.104  0.00  0.00     0.087 H 
ATOM     19  C10 9PG d   1      31.230 -22.599  49.584  0.00  0.00    -0.048 A 
ATOM     20  C11 9PG d   1      30.271 -21.942  50.337  0.00  0.00    -0.048 A 
ATOM     21  H11 9PG d   1      30.976 -23.514  49.061  0.00  0.00     0.087 H 
ATOM     22  H10 9PG d   1      29.266 -22.343  50.403  0.00  0.00     0.087 H 
BRANCH  17  23
ATOM     23  N   9PG d   1      33.511 -22.781  48.707  0.00  0.00    -0.116 N 
ATOM     24  O8  9PG d   1      33.234 -23.796  48.185  0.00  0.00    -0.532 OA
ATOM     25  O7  9PG d   1      34.591 -22.333  48.588  0.00  0.00    -0.532 OA
ENDBRANCH  17  23
ENDBRANCH  12  13
ENDBRANCH   5  12
BRANCH   4  26
ATOM     26  O2  9PG d   1      30.768 -19.265  54.237  0.00  0.00    -0.388 OA
ATOM     27  H12 9PG d   1      30.662 -19.071  55.161  0.00  0.00     0.210 HD
ENDBRANCH   4  26
BRANCH   3  28
ATOM     28  O3  9PG d   1      28.211 -18.512  55.234  0.00  0.00    -0.390 OA
ATOM     29  H13 9PG d   1      27.317 -18.727  55.471  0.00  0.00     0.210 HD
ENDBRANCH   3  28
BRANCH   1  30
ATOM     30  C6  9PG d   1      26.925 -17.306  50.678  0.00  0.00     0.043 C 
ATOM     31  H1  9PG d   1      25.909 -17.291  51.100  0.00  0.00     0.078 H 
ATOM     32  H2  9PG d   1      26.888 -17.689  49.647  0.00  0.00     0.078 H 
BRANCH  30  33
ATOM     33  O6  9PG d   1      27.438 -16.002  50.667  0.00  0.00    -0.398 OA
ATOM     34  H15 9PG d   1      27.469 -15.668  51.556  0.00  0.00     0.209 HD
ENDBRANCH  30  33
ENDBRANCH   1  30
BRANCH   2  35
ATOM     35  O4  9PG d   1      27.587 -16.675  53.331  0.00  0.00    -0.390 OA
ATOM     36  H14 9PG d   1      27.366 -16.549  54.246  0.00  0.00     0.210 HD
ENDBRANCH   2  35
TORSDOF 8
