REMARK  12 active torsions:
REMARK  status: ('A' for Active; 'I' for Inactive)
REMARK    1  A    between atoms: C12_19  and  C17_3 
REMARK       I    between atoms: C17_3  and  N19_21 
REMARK    2  A    between atoms: C20_4  and  C21_5 
REMARK    3  A    between atoms: N19_21  and  C20_4 
REMARK    4  A    between atoms: C20_4  and  C26_26 
REMARK    5  A    between atoms: C21_5  and  C22_22 
REMARK    6  A    between atoms: C29_29  and  C6_7 
REMARK    7  A    between atoms: C2_13  and  N11_18 
REMARK    8  A    between atoms: C22_22  and  C23_23 
REMARK    9  A    between atoms: C30_30  and  C29_29 
REMARK   10  A    between atoms: C31_31  and  C30_30 
REMARK   11  A    between atoms: C32_32  and  C31_31 
REMARK   12  A    between atoms: C32_32  and  C33_33 
ROOT
ATOM      1  C32 3Y9 d   1     -24.661  15.426  16.980  0.00  0.00    -0.041 C 
ATOM      2  H23 3Y9 d   1     -25.507  15.588  16.295  0.00  0.00     0.040 H 
ATOM      3  H24 3Y9 d   1     -24.336  14.377  16.920  0.00  0.00     0.040 H 
ENDROOT
BRANCH   1   4
ATOM      4  C31 3Y9 d   1     -25.170  15.666  18.400  0.00  0.00    -0.061 C 
ATOM      5  H21 3Y9 d   1     -26.131  15.145  18.520  0.00  0.00     0.033 H 
ATOM      6  H22 3Y9 d   1     -24.438  15.252  19.109  0.00  0.00     0.033 H 
BRANCH   4   7
ATOM      7  C30 3Y9 d   1     -25.376  17.145  18.722  0.00  0.00    -0.060 C 
ATOM      8  H19 3Y9 d   1     -24.398  17.649  18.709  0.00  0.00     0.033 H 
ATOM      9  H20 3Y9 d   1     -26.027  17.587  17.953  0.00  0.00     0.033 H 
BRANCH   7  10
ATOM     10  C29 3Y9 d   1     -26.019  17.359  20.090  0.00  0.00    -0.027 C 
ATOM     11  H17 3Y9 d   1     -26.171  18.435  20.260  0.00  0.00     0.042 H 
ATOM     12  H18 3Y9 d   1     -26.989  16.842  20.124  0.00  0.00     0.042 H 
BRANCH  10  13
ATOM     13  C6  3Y9 d   1     -25.110  16.800  21.167  0.00  0.00     0.012 A 
ATOM     14  C7  3Y9 d   1     -25.181  15.608  21.854  0.00  0.00    -0.042 A 
ATOM     15  C8  3Y9 d   1     -24.157  15.400  22.774  0.00  0.00     0.079 A 
ATOM     16  H7  3Y9 d   1     -25.977  14.884  21.690  0.00  0.00     0.088 H 
ATOM     17  C9  3Y9 d   1     -23.397  16.575  22.632  0.00  0.00     0.137 A 
ATOM     18  C4  3Y9 d   1     -23.733  14.447  23.688  0.00  0.00     0.273 A 
ATOM     19  N1  3Y9 d   1     -22.292  16.732  23.387  0.00  0.00    -0.176 N 
ATOM     20  N5  3Y9 d   1     -23.998  17.342  21.699  0.00  0.00    -0.345 N 
ATOM     21  C2  3Y9 d   1     -21.912  15.792  24.259  0.00  0.00     0.680 A 
ATOM     22  H6  3Y9 d   1     -21.731  17.590  23.291  0.00  0.00     0.186 HD
ATOM     23  N3  3Y9 d   1     -22.625  14.663  24.413  0.00  0.00    -0.156 N 
ATOM     24  H10 3Y9 d   1     -22.326  13.976  25.076  0.00  0.00     0.187 HD
ATOM     25  H11 3Y9 d   1     -23.637  18.265  21.417  0.00  0.00     0.167 HD
ATOM     26  O10 3Y9 d   1     -24.337  13.390  23.864  0.00  0.00    -0.267 OA
BRANCH  21  27
ATOM     27  N11 3Y9 d   1     -20.743  15.973  25.048  0.00  0.00    -0.234 N 
ATOM     28  H12 3Y9 d   1     -20.181  16.830  24.947  0.00  0.00     0.174 HD
ATOM     29  H13 3Y9 d   1     -20.458  15.247  25.721  0.00  0.00     0.174 HD
ENDBRANCH  21  27
ENDBRANCH  10  13
ENDBRANCH   7  10
ENDBRANCH   4   7
ENDBRANCH   1   4
BRANCH   1  30
ATOM     30  C33 3Y9 d   1     -23.516  16.283  16.494  0.00  0.00    -0.058 A 
ATOM     31  C15 3Y9 d   1     -22.204  15.823  16.524  0.00  0.00    -0.076 A 
ATOM     32  C13 3Y9 d   1     -21.170  16.652  16.087  0.00  0.00    -0.067 A 
ATOM     33  H2  3Y9 d   1     -21.985  14.825  16.885  0.00  0.00     0.084 H 
ATOM     34  C12 3Y9 d   1     -21.468  17.928  15.616  0.00  0.00     0.032 A 
ATOM     35  H1  3Y9 d   1     -20.143  16.305  16.114  0.00  0.00     0.085 H 
ATOM     36  C14 3Y9 d   1     -22.779  18.382  15.607  0.00  0.00    -0.067 A 
ATOM     37  C16 3Y9 d   1     -23.803  17.558  16.038  0.00  0.00    -0.076 A 
ATOM     38  H8  3Y9 d   1     -23.001  19.385  15.261  0.00  0.00     0.085 H 
ATOM     39  H9  3Y9 d   1     -24.828  17.910  16.019  0.00  0.00     0.084 H 
BRANCH  34  40
ATOM     40  C17 3Y9 d   1     -20.379  18.916  15.159  0.00  0.00     0.252 C 
ATOM     41  O18 3Y9 d   1     -19.298  18.552  14.737  0.00  0.00    -0.268 OA
ATOM     42  N19 3Y9 d   1     -20.717  20.292  15.327  0.00  0.00    -0.342 N 
ATOM     43  H14 3Y9 d   1     -21.626  20.504  15.686  0.00  0.00     0.163 HD
BRANCH  42  44
ATOM     44  C20 3Y9 d   1     -19.864  21.378  15.024  0.00  0.00     0.097 C 
ATOM     45  H3  3Y9 d   1     -19.172  21.115  14.211  0.00  0.00     0.089 H 
BRANCH  44  46
ATOM     46  C21 3Y9 d   1     -20.673  22.602  14.660  0.00  0.00    -0.028 C 
ATOM     47  H4  3Y9 d   1     -20.018  23.485  14.702  0.00  0.00     0.037 H 
ATOM     48  H5  3Y9 d   1     -21.489  22.716  15.389  0.00  0.00     0.037 H 
BRANCH  46  49
ATOM     49  C22 3Y9 d   1     -21.269  22.505  13.274  0.00  0.00     0.018 C 
ATOM     50  H15 3Y9 d   1     -22.116  21.804  13.279  0.00  0.00     0.049 H 
ATOM     51  H16 3Y9 d   1     -20.507  22.154  12.562  0.00  0.00     0.049 H 
BRANCH  49  52
ATOM     52  C23 3Y9 d   1     -21.746  23.888  12.879  0.00  0.00     0.172 C 
ATOM     53  O24 3Y9 d   1     -22.046  24.143  11.683  0.00  0.00    -0.648 OA
ATOM     54  O25 3Y9 d   1     -21.844  24.787  13.756  0.00  0.00    -0.648 OA
ENDBRANCH  49  52
ENDBRANCH  46  49
ENDBRANCH  44  46
BRANCH  44  55
ATOM     55  C26 3Y9 d   1     -19.120  21.706  16.301  0.00  0.00     0.196 C 
ATOM     56  O27 3Y9 d   1     -19.399  21.084  17.365  0.00  0.00    -0.646 OA
ATOM     57  O28 3Y9 d   1     -18.236  22.606  16.308  0.00  0.00    -0.646 OA
ENDBRANCH  44  55
ENDBRANCH  42  44
ENDBRANCH  34  40
ENDBRANCH   1  30
TORSDOF 12
