REMARK  12 active torsions:
REMARK  status: ('A' for Active; 'I' for Inactive)
REMARK    1  A    between atoms: C2_5  and  N11_14 
REMARK    2  A    between atoms: C29_28  and  C6_9 
REMARK    3  A    between atoms: C12_15  and  C17_16 
REMARK       I    between atoms: C17_16  and  N19_18 
REMARK    4  A    between atoms: N19_18  and  C20_19 
REMARK    5  A    between atoms: C20_19  and  C21_20 
REMARK    6  A    between atoms: C20_19  and  C26_25 
REMARK    7  A    between atoms: C21_20  and  C22_21 
REMARK    8  A    between atoms: C22_21  and  C23_22 
REMARK    9  A    between atoms: C30_29  and  C29_28 
REMARK   10  A    between atoms: C31_30  and  C30_29 
REMARK   11  A    between atoms: C32_31  and  C31_30 
REMARK   12  A    between atoms: C32_31  and  C33_32 
ROOT
ATOM      1  C13 3YA d   1      21.878 -16.003 -34.406  0.00  0.00    -0.067 A 
ATOM      2  C14 3YA d   1      23.254 -17.956 -34.778  0.00  0.00    -0.067 A 
ATOM      3  C16 3YA d   1      24.340 -17.288 -34.236  0.00  0.00    -0.076 A 
ATOM      4  C12 3YA d   1      22.027 -17.308 -34.866  0.00  0.00     0.032 A 
ATOM      5  C33 3YA d   1      24.195 -15.979 -33.787  0.00  0.00    -0.058 A 
ATOM      6  C15 3YA d   1      22.966 -15.335 -33.863  0.00  0.00    -0.076 A 
ATOM      7  H1  3YA d   1      20.915 -15.510 -34.472  0.00  0.00     0.085 H 
ATOM      8  H2  3YA d   1      23.360 -18.976 -35.131  0.00  0.00     0.085 H 
ATOM      9  H3  3YA d   1      25.301 -17.784 -34.162  0.00  0.00     0.084 H 
ATOM     10  H23 3YA d   1      22.858 -14.319 -33.501  0.00  0.00     0.084 H 
ENDROOT
BRANCH   5  11
ATOM     11  C32 3YA d   1      25.379 -15.267 -33.182  0.00  0.00    -0.041 C 
ATOM     12  H21 3YA d   1      26.264 -15.517 -33.786  0.00  0.00     0.040 H 
ATOM     13  H22 3YA d   1      25.186 -14.186 -33.244  0.00  0.00     0.040 H 
BRANCH  11  14
ATOM     14  C31 3YA d   1      25.699 -15.597 -31.735  0.00  0.00    -0.061 C 
ATOM     15  H19 3YA d   1      26.551 -14.985 -31.404  0.00  0.00     0.033 H 
ATOM     16  H20 3YA d   1      24.822 -15.374 -31.110  0.00  0.00     0.033 H 
BRANCH  14  17
ATOM     17  C30 3YA d   1      26.054 -17.066 -31.593  0.00  0.00    -0.061 C 
ATOM     18  H17 3YA d   1      25.167 -17.678 -31.813  0.00  0.00     0.033 H 
ATOM     19  H18 3YA d   1      26.857 -17.317 -32.301  0.00  0.00     0.033 H 
BRANCH  17  20
ATOM     20  C29 3YA d   1      26.524 -17.352 -30.177  0.00  0.00    -0.035 C 
ATOM     21  H15 3YA d   1      26.753 -18.423 -30.075  0.00  0.00     0.040 H 
ATOM     22  H16 3YA d   1      27.427 -16.762 -29.963  0.00  0.00     0.040 H 
BRANCH  20  23
ATOM     23  C6  3YA d   1      25.433 -16.974 -29.207  0.00  0.00    -0.014 A 
ATOM     24  S5  3YA d   1      24.163 -18.007 -28.762  0.00  0.00    -0.075 SA
ATOM     25  C9  3YA d   1      23.422 -16.904 -27.721  0.00  0.00     0.106 A 
ATOM     26  N1  3YA d   1      22.304 -17.139 -27.028  0.00  0.00    -0.185 N 
ATOM     27  C8  3YA d   1      24.189 -15.747 -27.722  0.00  0.00     0.068 A 
ATOM     28  C2  3YA d   1      21.897 -16.122 -26.258  0.00  0.00     0.679 A 
ATOM     29  H4  3YA d   1      21.795 -18.033 -27.082  0.00  0.00     0.185 HD
ATOM     30  N3  3YA d   1      22.575 -14.966 -26.194  0.00  0.00    -0.156 N 
ATOM     31  C4  3YA d   1      23.699 -14.746 -26.897  0.00  0.00     0.272 A 
ATOM     32  H5  3YA d   1      22.230 -14.239 -25.600  0.00  0.00     0.187 HD
ATOM     33  O10 3YA d   1      24.269 -13.665 -26.786  0.00  0.00    -0.267 OA
ATOM     34  C7  3YA d   1      25.310 -15.766 -28.536  0.00  0.00    -0.052 A 
ATOM     35  H6  3YA d   1      26.008 -14.936 -28.637  0.00  0.00     0.086 H 
BRANCH  28  36
ATOM     36  N11 3YA d   1      20.724 -16.258 -25.477  0.00  0.00    -0.234 N 
ATOM     37  H7  3YA d   1      20.184 -17.135 -25.507  0.00  0.00     0.174 HD
ATOM     38  H8  3YA d   1      20.410 -15.480 -24.879  0.00  0.00     0.174 HD
ENDBRANCH  28  36
ENDBRANCH  20  23
ENDBRANCH  17  20
ENDBRANCH  14  17
ENDBRANCH  11  14
ENDBRANCH   5  11
BRANCH   4  39
ATOM     39  C17 3YA d   1      20.823 -18.057 -35.456  0.00  0.00     0.252 C 
ATOM     40  O18 3YA d   1      20.765 -18.322 -36.643  0.00  0.00    -0.268 OA
ATOM     41  N19 3YA d   1      19.785 -18.435 -34.563  0.00  0.00    -0.342 N 
ATOM     42  H9  3YA d   1      19.865 -18.194 -33.596  0.00  0.00     0.163 HD
BRANCH  41  43
ATOM     43  C20 3YA d   1      18.637 -19.145 -35.003  0.00  0.00     0.097 C 
ATOM     44  H10 3YA d   1      18.843 -19.562 -36.000  0.00  0.00     0.089 H 
BRANCH  43  45
ATOM     45  C21 3YA d   1      18.399 -20.287 -34.037  0.00  0.00    -0.028 C 
ATOM     46  H11 3YA d   1      17.536 -20.883 -34.368  0.00  0.00     0.037 H 
ATOM     47  H12 3YA d   1      18.206 -19.890 -33.029  0.00  0.00     0.037 H 
BRANCH  45  48
ATOM     48  C22 3YA d   1      19.642 -21.149 -34.020  0.00  0.00     0.018 C 
ATOM     49  H13 3YA d   1      19.461 -22.050 -33.416  0.00  0.00     0.049 H 
ATOM     50  H14 3YA d   1      20.481 -20.582 -33.591  0.00  0.00     0.049 H 
BRANCH  48  51
ATOM     51  C23 3YA d   1      19.968 -21.546 -35.446  0.00  0.00     0.172 C 
ATOM     52  O24 3YA d   1      21.029 -21.152 -35.999  0.00  0.00    -0.648 OA
ATOM     53  O25 3YA d   1      19.168 -22.273 -36.089  0.00  0.00    -0.648 OA
ENDBRANCH  48  51
ENDBRANCH  45  48
ENDBRANCH  43  45
BRANCH  43  54
ATOM     54  C26 3YA d   1      17.418 -18.248 -35.116  0.00  0.00     0.196 C 
ATOM     55  O27 3YA d   1      17.038 -17.558 -34.130  0.00  0.00    -0.646 OA
ATOM     56  O28 3YA d   1      16.779 -18.193 -36.203  0.00  0.00    -0.646 OA
ENDBRANCH  43  54
ENDBRANCH  41  43
ENDBRANCH   4  39
TORSDOF 12
