REMARK  12 active torsions:
REMARK  status: ('A' for Active; 'I' for Inactive)
REMARK    1  A    between atoms: C2_2  and  N11_11 
REMARK    2  A    between atoms: C29_29  and  C6_6 
REMARK    3  A    between atoms: C13_13  and  C17_17 
REMARK    4  A    between atoms: C32_32  and  C16_16 
REMARK       I    between atoms: C17_17  and  N19_19 
REMARK    5  A    between atoms: N19_19  and  C20_20 
REMARK    6  A    between atoms: C20_20  and  C21_21 
REMARK    7  A    between atoms: C20_20  and  C26_26 
REMARK    8  A    between atoms: C21_21  and  C22_22 
REMARK    9  A    between atoms: C22_22  and  C23_23 
REMARK   10  A    between atoms: C30_30  and  C29_29 
REMARK   11  A    between atoms: C31_31  and  C30_30 
REMARK   12  A    between atoms: C31_31  and  C32_32 
ROOT
ATOM      1  C32 G71 d   1      12.807  49.277  66.981  0.00  0.00    -0.035 C 
ATOM      2  H20 G71 d   1      12.718  50.336  67.263  0.00  0.00     0.040 H 
ATOM      3  H21 G71 d   1      12.002  48.701  67.461  0.00  0.00     0.040 H 
ENDROOT
BRANCH   1   4
ATOM      4  C16 G71 d   1      14.129  48.754  67.437  0.00  0.00    -0.017 A 
ATOM      5  S12 G71 d   1      14.489  47.155  67.828  0.00  0.00    -0.089 SA
ATOM      6  C13 G71 d   1      16.108  47.320  68.228  0.00  0.00     0.073 A 
ATOM      7  C14 G71 d   1      16.402  48.686  68.052  0.00  0.00    -0.060 A 
ATOM      8  C15 G71 d   1      15.306  49.499  67.614  0.00  0.00    -0.069 A 
ATOM      9  H6  G71 d   1      17.394  49.096  68.236  0.00  0.00     0.085 H 
ATOM     10  H7  G71 d   1      15.378  50.571  67.439  0.00  0.00     0.085 H 
BRANCH   6  11
ATOM     11  C17 G71 d   1      17.037  46.224  68.645  0.00  0.00     0.259 C 
ATOM     12  O18 G71 d   1      18.204  46.486  68.889  0.00  0.00    -0.267 OA
ATOM     13  N19 G71 d   1      16.567  44.868  68.707  0.00  0.00    -0.342 N 
ATOM     14  H8  G71 d   1      15.608  44.679  68.496  0.00  0.00     0.163 HD
BRANCH  13  15
ATOM     15  C20 G71 d   1      17.426  43.777  69.061  0.00  0.00     0.097 C 
ATOM     16  H9  G71 d   1      18.068  44.065  69.906  0.00  0.00     0.089 H 
BRANCH  15  17
ATOM     17  C21 G71 d   1      16.595  42.592  69.440  0.00  0.00    -0.028 C 
ATOM     18  H10 G71 d   1      16.719  41.808  68.678  0.00  0.00     0.037 H 
ATOM     19  H11 G71 d   1      15.538  42.895  69.486  0.00  0.00     0.037 H 
BRANCH  17  20
ATOM     20  C22 G71 d   1      17.004  42.049  70.769  0.00  0.00     0.018 C 
ATOM     21  H12 G71 d   1      17.419  42.864  71.380  0.00  0.00     0.049 H 
ATOM     22  H13 G71 d   1      17.770  41.274  70.622  0.00  0.00     0.049 H 
BRANCH  20  23
ATOM     23  C23 G71 d   1      15.831  41.451  71.481  0.00  0.00     0.172 C 
ATOM     24  O24 G71 d   1      15.669  40.203  71.516  0.00  0.00    -0.648 OA
ATOM     25  O25 G71 d   1      14.998  42.197  72.061  0.00  0.00    -0.648 OA
ENDBRANCH  20  23
ENDBRANCH  17  20
ENDBRANCH  15  17
BRANCH  15  26
ATOM     26  C26 G71 d   1      18.274  43.433  67.869  0.00  0.00     0.196 C 
ATOM     27  O27 G71 d   1      19.204  42.587  67.971  0.00  0.00    -0.646 OA
ATOM     28  O28 G71 d   1      18.071  43.982  66.747  0.00  0.00    -0.646 OA
ENDBRANCH  15  26
ENDBRANCH  13  15
ENDBRANCH   6  11
ENDBRANCH   1   4
BRANCH   1  29
ATOM     29  C31 G71 d   1      12.689  49.148  65.487  0.00  0.00    -0.061 C 
ATOM     30  H18 G71 d   1      11.977  49.901  65.119  0.00  0.00     0.033 H 
ATOM     31  H19 G71 d   1      13.676  49.324  65.034  0.00  0.00     0.033 H 
BRANCH  29  32
ATOM     32  C30 G71 d   1      12.207  47.786  65.088  0.00  0.00    -0.060 C 
ATOM     33  H16 G71 d   1      13.068  47.103  65.053  0.00  0.00     0.033 H 
ATOM     34  H17 G71 d   1      11.488  47.431  65.841  0.00  0.00     0.033 H 
BRANCH  32  35
ATOM     35  C29 G71 d   1      11.536  47.787  63.743  0.00  0.00    -0.027 C 
ATOM     36  H14 G71 d   1      11.254  46.757  63.482  0.00  0.00     0.042 H 
ATOM     37  H15 G71 d   1      10.633  48.413  63.793  0.00  0.00     0.042 H 
BRANCH  35  38
ATOM     38  C6  G71 d   1      12.445  48.325  62.689  0.00  0.00     0.012 A 
ATOM     39  N5  G71 d   1      13.548  47.715  62.235  0.00  0.00    -0.343 N 
ATOM     40  C9  G71 d   1      14.141  48.469  61.315  0.00  0.00     0.161 A 
ATOM     41  H2  G71 d   1      13.887  46.796  62.553  0.00  0.00     0.167 HD
ATOM     42  N1  G71 d   1      15.260  48.260  60.604  0.00  0.00    -0.046 NA
ATOM     43  C8  G71 d   1      13.394  49.643  61.133  0.00  0.00     0.067 A 
ATOM     44  C2  G71 d   1      15.682  49.163  59.713  0.00  0.00     0.702 A 
ATOM     45  N3  G71 d   1      14.991  50.297  59.517  0.00  0.00    -0.165 N 
ATOM     46  C4  G71 d   1      13.861  50.577  60.198  0.00  0.00     0.207 A 
ATOM     47  H1  G71 d   1      15.335  50.976  58.823  0.00  0.00     0.186 HD
ATOM     48  O10 G71 d   1      13.208  51.768  59.948  0.00  0.00    -0.171 OA
ATOM     49  C7  G71 d   1      12.308  49.546  62.015  0.00  0.00    -0.043 A 
ATOM     50  H3  G71 d   1      11.513  50.278  62.150  0.00  0.00     0.088 H 
BRANCH  44  51
ATOM     51  N11 G71 d   1      16.874  48.920  58.967  0.00  0.00    -0.233 N 
ATOM     52  H4  G71 d   1      17.406  48.051  59.115  0.00  0.00     0.174 HD
ATOM     53  H5  G71 d   1      17.202  49.614  58.280  0.00  0.00     0.174 HD
ENDBRANCH  44  51
ENDBRANCH  35  38
ENDBRANCH  32  35
ENDBRANCH  29  32
ENDBRANCH   1  29
TORSDOF 12
