REMARK  11 active torsions:
REMARK  status: ('A' for Active; 'I' for Inactive)
REMARK    1  A    between atoms: C2_2  and  N11_11 
REMARK    2  A    between atoms: C29_29  and  C6_6 
REMARK    3  A    between atoms: C13_13  and  C17_17 
REMARK    4  A    between atoms: C31_31  and  C16_16 
REMARK       I    between atoms: C17_17  and  N19_19 
REMARK    5  A    between atoms: N19_19  and  C20_20 
REMARK    6  A    between atoms: C20_20  and  C21_21 
REMARK    7  A    between atoms: C20_20  and  C26_26 
REMARK    8  A    between atoms: C21_21  and  C22_22 
REMARK    9  A    between atoms: C22_22  and  C23_23 
REMARK   10  A    between atoms: C30_30  and  C29_29 
REMARK   11  A    between atoms: C30_30  and  C31_31 
ROOT
ATOM      1  S12 G94 d   1      10.611  76.383 134.305  0.00  0.00    -0.089 SA
ATOM      2  C13 G94 d   1      11.739  75.924 135.513  0.00  0.00     0.073 A 
ATOM      3  C14 G94 d   1      12.930  76.632 135.186  0.00  0.00    -0.060 A 
ATOM      4  C15 G94 d   1      12.846  77.476 134.022  0.00  0.00    -0.069 A 
ATOM      5  C16 G94 d   1      11.574  77.445 133.399  0.00  0.00    -0.017 A 
ATOM      6  H6  G94 d   1      13.841  76.542 135.775  0.00  0.00     0.085 H 
ATOM      7  H7  G94 d   1      13.677  78.078 133.657  0.00  0.00     0.085 H 
ENDROOT
BRANCH   5   8
ATOM      8  C31 G94 d   1      11.230  78.235 132.161  0.00  0.00    -0.035 C 
ATOM      9  H18 G94 d   1      11.579  77.675 131.281  0.00  0.00     0.040 H 
ATOM     10  H19 G94 d   1      11.749  79.204 132.209  0.00  0.00     0.040 H 
BRANCH   8  11
ATOM     11  C30 G94 d   1       9.732  78.494 132.008  0.00  0.00    -0.056 C 
ATOM     12  H16 G94 d   1       9.188  77.562 132.218  0.00  0.00     0.034 H 
ATOM     13  H17 G94 d   1       9.430  79.266 132.731  0.00  0.00     0.034 H 
BRANCH  11  14
ATOM     14  C29 G94 d   1       9.362  78.981 130.563  0.00  0.00    -0.026 C 
ATOM     15  H14 G94 d   1       8.371  78.584 130.298  0.00  0.00     0.042 H 
ATOM     16  H15 G94 d   1       9.331  80.081 130.557  0.00  0.00     0.042 H 
BRANCH  14  17
ATOM     17  C6  G94 d   1      10.393  78.503 129.502  0.00  0.00     0.012 A 
ATOM     18  N5  G94 d   1      10.442  77.268 129.002  0.00  0.00    -0.343 N 
ATOM     19  C9  G94 d   1      11.434  77.167 128.125  0.00  0.00     0.161 A 
ATOM     20  H2  G94 d   1       9.803  76.502 129.259  0.00  0.00     0.167 HD
ATOM     21  N1  G94 d   1      11.860  76.127 127.381  0.00  0.00    -0.046 NA
ATOM     22  C8  G94 d   1      12.095  78.421 128.011  0.00  0.00     0.067 A 
ATOM     23  C2  G94 d   1      12.889  76.254 126.556  0.00  0.00     0.702 A 
ATOM     24  N3  G94 d   1      13.545  77.422 126.411  0.00  0.00    -0.165 N 
ATOM     25  C4  G94 d   1      13.196  78.515 127.110  0.00  0.00     0.207 A 
ATOM     26  H1  G94 d   1      14.309  77.477 125.768  0.00  0.00     0.186 HD
ATOM     27  O10 G94 d   1      13.937  79.734 126.931  0.00  0.00    -0.171 OA
ATOM     28  C7  G94 d   1      11.415  79.296 128.915  0.00  0.00    -0.043 A 
ATOM     29  H3  G94 d   1      11.634  80.345 129.111  0.00  0.00     0.088 H 
BRANCH  23  30
ATOM     30  N11 G94 d   1      13.315  75.155 125.795  0.00  0.00    -0.233 N 
ATOM     31  H4  G94 d   1      12.833  74.249 125.884  0.00  0.00     0.174 HD
ATOM     32  H5  G94 d   1      14.110  75.254 125.147  0.00  0.00     0.174 HD
ENDBRANCH  23  30
ENDBRANCH  14  17
ENDBRANCH  11  14
ENDBRANCH   8  11
ENDBRANCH   5   8
BRANCH   2  33
ATOM     33  C17 G94 d   1      11.710  74.986 136.769  0.00  0.00     0.259 C 
ATOM     34  O18 G94 d   1      12.779  74.906 137.409  0.00  0.00    -0.267 OA
ATOM     35  N19 G94 d   1      10.639  74.198 137.349  0.00  0.00    -0.342 N 
ATOM     36  H8  G94 d   1      10.887  73.702 138.181  0.00  0.00     0.163 HD
BRANCH  35  37
ATOM     37  C20 G94 d   1       9.283  74.015 136.922  0.00  0.00     0.097 C 
ATOM     38  H9  G94 d   1       9.072  74.610 136.021  0.00  0.00     0.089 H 
BRANCH  37  39
ATOM     39  C21 G94 d   1       9.108  72.562 136.663  0.00  0.00    -0.028 C 
ATOM     40  H10 G94 d   1       8.259  72.202 137.262  0.00  0.00     0.037 H 
ATOM     41  H11 G94 d   1      10.025  72.040 136.975  0.00  0.00     0.037 H 
BRANCH  39  42
ATOM     42  C22 G94 d   1       8.840  72.232 135.203  0.00  0.00     0.018 C 
ATOM     43  H12 G94 d   1       8.204  73.028 134.788  0.00  0.00     0.049 H 
ATOM     44  H13 G94 d   1       8.299  71.275 135.167  0.00  0.00     0.049 H 
BRANCH  42  45
ATOM     45  C23 G94 d   1      10.093  72.104 134.297  0.00  0.00     0.172 C 
ATOM     46  O24 G94 d   1      10.006  71.484 133.170  0.00  0.00    -0.648 OA
ATOM     47  O25 G94 d   1      11.234  72.627 134.672  0.00  0.00    -0.648 OA
ENDBRANCH  42  45
ENDBRANCH  39  42
ENDBRANCH  37  39
BRANCH  37  48
ATOM     48  C26 G94 d   1       8.326  74.399 138.066  0.00  0.00     0.196 C 
ATOM     49  O27 G94 d   1       8.025  75.649 138.306  0.00  0.00    -0.646 OA
ATOM     50  O28 G94 d   1       7.820  73.470 138.794  0.00  0.00    -0.646 OA
ENDBRANCH  37  48
ENDBRANCH  35  37
ENDBRANCH   2  33
TORSDOF 11
