REMARK  12 active torsions:
REMARK  status: ('A' for Active; 'I' for Inactive)
REMARK    1  A    between atoms: C2_2  and  N11_11 
REMARK    2  A    between atoms: C29_29  and  C6_6 
REMARK    3  A    between atoms: C13_13  and  C17_17 
REMARK    4  A    between atoms: C32_32  and  C16_16 
REMARK       I    between atoms: C17_17  and  N19_19 
REMARK    5  A    between atoms: N19_19  and  C20_20 
REMARK    6  A    between atoms: C20_20  and  C21_21 
REMARK    7  A    between atoms: C20_20  and  C26_26 
REMARK    8  A    between atoms: C21_21  and  C22_22 
REMARK    9  A    between atoms: C22_22  and  C23_23 
REMARK   10  A    between atoms: C30_30  and  C29_29 
REMARK   11  A    between atoms: C31_31  and  C30_30 
REMARK   12  A    between atoms: C31_31  and  C32_32 
ROOT
ATOM      1  C32 3YB d   1     -25.144  16.166  17.668  0.00  0.00    -0.040 C 
ATOM      2  H21 3YB d   1     -25.631  15.203  17.882  0.00  0.00     0.040 H 
ATOM      3  H22 3YB d   1     -25.754  16.734  16.950  0.00  0.00     0.040 H 
ENDROOT
BRANCH   1   4
ATOM      4  C16 3YB d   1     -23.781  15.938  17.113  0.00  0.00    -0.050 A 
ATOM      5  C12 3YB d   1     -22.964  17.015  16.682  0.00  0.00    -0.054 A 
ATOM      6  C13 3YB d   1     -21.731  16.691  16.204  0.00  0.00     0.073 A 
ATOM      7  H7  3YB d   1     -23.306  18.048  16.731  0.00  0.00     0.086 H 
ATOM      8  S14 3YB d   1     -21.662  14.993  16.334  0.00  0.00    -0.096 SA
ATOM      9  C15 3YB d   1     -23.209  14.707  17.002  0.00  0.00    -0.038 A 
ATOM     10  H8  3YB d   1     -23.643  13.748  17.279  0.00  0.00     0.095 H 
BRANCH   6  11
ATOM     11  C17 3YB d   1     -20.703  17.586  15.716  0.00  0.00     0.259 C 
ATOM     12  O18 3YB d   1     -19.716  17.105  15.182  0.00  0.00    -0.267 OA
ATOM     13  N19 3YB d   1     -20.832  19.006  15.888  0.00  0.00    -0.342 N 
ATOM     14  H9  3YB d   1     -21.648  19.367  16.339  0.00  0.00     0.163 HD
BRANCH  13  15
ATOM     15  C20 3YB d   1     -19.883  19.871  15.458  0.00  0.00     0.097 C 
ATOM     16  H10 3YB d   1     -19.194  19.331  14.792  0.00  0.00     0.089 H 
BRANCH  15  17
ATOM     17  C21 3YB d   1     -20.457  20.959  14.756  0.00  0.00    -0.028 C 
ATOM     18  H11 3YB d   1     -19.724  21.341  14.030  0.00  0.00     0.037 H 
ATOM     19  H12 3YB d   1     -20.710  21.753  15.474  0.00  0.00     0.037 H 
BRANCH  17  20
ATOM     20  C22 3YB d   1     -21.691  20.556  14.028  0.00  0.00     0.018 C 
ATOM     21  H13 3YB d   1     -22.381  20.054  14.722  0.00  0.00     0.049 H 
ATOM     22  H14 3YB d   1     -21.428  19.869  13.211  0.00  0.00     0.049 H 
BRANCH  20  23
ATOM     23  C23 3YB d   1     -22.348  21.774  13.465  0.00  0.00     0.172 C 
ATOM     24  O24 3YB d   1     -22.202  22.896  14.029  0.00  0.00    -0.648 OA
ATOM     25  O25 3YB d   1     -23.050  21.674  12.424  0.00  0.00    -0.648 OA
ENDBRANCH  20  23
ENDBRANCH  17  20
ENDBRANCH  15  17
BRANCH  15  26
ATOM     26  C26 3YB d   1     -19.157  20.411  16.546  0.00  0.00     0.196 C 
ATOM     27  O27 3YB d   1     -17.967  20.788  16.371  0.00  0.00    -0.646 OA
ATOM     28  O28 3YB d   1     -19.677  20.540  17.691  0.00  0.00    -0.646 OA
ENDBRANCH  15  26
ENDBRANCH  13  15
ENDBRANCH   6  11
ENDBRANCH   1   4
BRANCH   1  29
ATOM     29  C31 3YB d   1     -24.975  16.951  18.935  0.00  0.00    -0.061 C 
ATOM     30  H19 3YB d   1     -24.270  16.427  19.597  0.00  0.00     0.033 H 
ATOM     31  H20 3YB d   1     -24.580  17.949  18.695  0.00  0.00     0.033 H 
BRANCH  29  32
ATOM     32  C30 3YB d   1     -26.284  17.092  19.623  0.00  0.00    -0.060 C 
ATOM     33  H17 3YB d   1     -26.990  17.617  18.962  0.00  0.00     0.033 H 
ATOM     34  H18 3YB d   1     -26.680  16.095  19.864  0.00  0.00     0.033 H 
BRANCH  32  35
ATOM     35  C29 3YB d   1     -26.106  17.878  20.888  0.00  0.00    -0.027 C 
ATOM     36  H15 3YB d   1     -25.684  18.865  20.649  0.00  0.00     0.042 H 
ATOM     37  H16 3YB d   1     -27.082  18.006  21.380  0.00  0.00     0.042 H 
BRANCH  35  38
ATOM     38  C6  3YB d   1     -25.180  17.152  21.805  0.00  0.00     0.012 A 
ATOM     39  N5  3YB d   1     -24.028  17.657  22.289  0.00  0.00    -0.345 N 
ATOM     40  C9  3YB d   1     -23.439  16.775  23.076  0.00  0.00     0.137 A 
ATOM     41  H3  3YB d   1     -23.660  18.595  22.076  0.00  0.00     0.167 HD
ATOM     42  N1  3YB d   1     -22.279  16.858  23.754  0.00  0.00    -0.176 N 
ATOM     43  C8  3YB d   1     -24.228  15.615  23.152  0.00  0.00     0.079 A 
ATOM     44  C2  3YB d   1     -21.859  15.835  24.500  0.00  0.00     0.680 A 
ATOM     45  H1  3YB d   1     -21.712  17.716  23.696  0.00  0.00     0.186 HD
ATOM     46  N3  3YB d   1     -22.588  14.710  24.602  0.00  0.00    -0.156 N 
ATOM     47  C4  3YB d   1     -23.762  14.557  23.940  0.00  0.00     0.273 A 
ATOM     48  H2  3YB d   1     -22.256  13.966  25.182  0.00  0.00     0.187 HD
ATOM     49  O10 3YB d   1     -24.366  13.488  24.079  0.00  0.00    -0.267 OA
ATOM     50  C7  3YB d   1     -25.352  15.876  22.336  0.00  0.00    -0.042 A 
ATOM     51  H4  3YB d   1     -26.192  15.207  22.157  0.00  0.00     0.088 H 
BRANCH  44  52
ATOM     52  N11 3YB d   1     -20.628  15.923  25.219  0.00  0.00    -0.234 N 
ATOM     53  H5  3YB d   1     -20.054  16.776  25.155  0.00  0.00     0.174 HD
ATOM     54  H6  3YB d   1     -20.314  15.134  25.802  0.00  0.00     0.174 HD
ENDBRANCH  44  52
ENDBRANCH  35  38
ENDBRANCH  32  35
ENDBRANCH  29  32
ENDBRANCH   1  29
TORSDOF 12
