REMARK  12 active torsions:
REMARK  status: ('A' for Active; 'I' for Inactive)
REMARK    1  A    between atoms: C2_2  and  N11_11 
REMARK    2  A    between atoms: C29_29  and  C6_6 
REMARK    3  A    between atoms: C13_13  and  C17_17 
REMARK    4  A    between atoms: C32_32  and  C16_16 
REMARK       I    between atoms: C17_17  and  N19_19 
REMARK    5  A    between atoms: N19_19  and  C20_20 
REMARK    6  A    between atoms: C20_20  and  C21_21 
REMARK    7  A    between atoms: C20_20  and  C26_26 
REMARK    8  A    between atoms: C21_21  and  C22_22 
REMARK    9  A    between atoms: C22_22  and  C23_23 
REMARK   10  A    between atoms: C30_30  and  C29_29 
REMARK   11  A    between atoms: C31_31  and  C30_30 
REMARK   12  A    between atoms: C31_31  and  C32_32 
ROOT
ATOM      1  C32 3YC d   1      26.761 -13.375  33.051  0.00  0.00    -0.035 C 
ATOM      2  H21 3YC d   1      26.136 -14.262  32.873  0.00  0.00     0.040 H 
ATOM      3  H22 3YC d   1      27.557 -13.625  33.768  0.00  0.00     0.040 H 
ENDROOT
BRANCH   1   4
ATOM      4  C16 3YC d   1      25.931 -12.258  33.574  0.00  0.00    -0.017 A 
ATOM      5  C12 3YC d   1      26.399 -11.047  33.971  0.00  0.00    -0.055 A 
ATOM      6  C13 3YC d   1      25.394 -10.161  34.415  0.00  0.00     0.039 A 
ATOM      7  H7  3YC d   1      27.455 -10.783  33.949  0.00  0.00     0.086 H 
ATOM      8  C14 3YC d   1      24.115 -10.634  34.374  0.00  0.00    -0.029 A 
ATOM      9  S15 3YC d   1      24.237 -12.221  33.752  0.00  0.00    -0.105 SA
ATOM     10  H8  3YC d   1      23.208 -10.111  34.674  0.00  0.00     0.096 H 
BRANCH   6  11
ATOM     11  C17 3YC d   1      25.721  -8.832  34.861  0.00  0.00     0.252 C 
ATOM     12  O18 3YC d   1      24.862  -8.140  35.387  0.00  0.00    -0.268 OA
ATOM     13  N19 3YC d   1      27.051  -8.335  34.649  0.00  0.00    -0.342 N 
ATOM     14  H9  3YC d   1      27.715  -8.936  34.204  0.00  0.00     0.163 HD
BRANCH  13  15
ATOM     15  C20 3YC d   1      27.453  -7.099  35.018  0.00  0.00     0.097 C 
ATOM     16  H10 3YC d   1      26.837  -6.749  35.860  0.00  0.00     0.089 H 
BRANCH  15  17
ATOM     17  C21 3YC d   1      28.815  -7.147  35.402  0.00  0.00    -0.028 C 
ATOM     18  H11 3YC d   1      29.300  -6.199  35.125  0.00  0.00     0.037 H 
ATOM     19  H12 3YC d   1      29.307  -7.978  34.876  0.00  0.00     0.037 H 
BRANCH  17  20
ATOM     20  C22 3YC d   1      28.953  -7.352  36.871  0.00  0.00     0.018 C 
ATOM     21  H13 3YC d   1      28.202  -8.078  37.214  0.00  0.00     0.049 H 
ATOM     22  H14 3YC d   1      28.803  -6.395  37.393  0.00  0.00     0.049 H 
BRANCH  20  23
ATOM     23  C23 3YC d   1      30.321  -7.872  37.162  0.00  0.00     0.172 C 
ATOM     24  O24 3YC d   1      31.336  -7.246  36.748  0.00  0.00    -0.648 OA
ATOM     25  O25 3YC d   1      30.459  -8.940  37.819  0.00  0.00    -0.648 OA
ENDBRANCH  20  23
ENDBRANCH  17  20
ENDBRANCH  15  17
BRANCH  15  26
ATOM     26  C26 3YC d   1      27.336  -6.198  33.934  0.00  0.00     0.196 C 
ATOM     27  O27 3YC d   1      26.870  -5.045  34.133  0.00  0.00    -0.646 OA
ATOM     28  O28 3YC d   1      27.699  -6.525  32.767  0.00  0.00    -0.646 OA
ENDBRANCH  15  26
ENDBRANCH  13  15
ENDBRANCH   6  11
ENDBRANCH   1   4
BRANCH   1  29
ATOM     29  C31 3YC d   1      27.355 -12.898  31.768  0.00  0.00    -0.061 C 
ATOM     30  H19 3YC d   1      26.605 -12.322  31.206  0.00  0.00     0.033 H 
ATOM     31  H20 3YC d   1      28.225 -12.259  31.980  0.00  0.00     0.033 H 
BRANCH  29  32
ATOM     32  C30 3YC d   1      27.784 -14.072  30.965  0.00  0.00    -0.060 C 
ATOM     33  H17 3YC d   1      28.508 -14.668  31.539  0.00  0.00     0.033 H 
ATOM     34  H18 3YC d   1      26.909 -14.693  30.721  0.00  0.00     0.033 H 
BRANCH  32  35
ATOM     35  C29 3YC d   1      28.420 -13.586  29.707  0.00  0.00    -0.027 C 
ATOM     36  H15 3YC d   1      29.106 -12.757  29.935  0.00  0.00     0.042 H 
ATOM     37  H16 3YC d   1      28.981 -14.406  29.235  0.00  0.00     0.042 H 
BRANCH  35  38
ATOM     38  C6  3YC d   1      27.353 -13.115  28.788  0.00  0.00     0.012 A 
ATOM     39  N5  3YC d   1      27.239 -11.871  28.316  0.00  0.00    -0.345 N 
ATOM     40  C9  3YC d   1      26.182 -11.774  27.523  0.00  0.00     0.137 A 
ATOM     41  H3  3YC d   1      27.881 -11.097  28.537  0.00  0.00     0.167 HD
ATOM     42  N1  3YC d   1      25.694 -10.730  26.837  0.00  0.00    -0.176 N 
ATOM     43  C8  3YC d   1      25.560 -13.024  27.451  0.00  0.00     0.079 A 
ATOM     44  C2  3YC d   1      24.599 -10.859  26.090  0.00  0.00     0.680 A 
ATOM     45  H1  3YC d   1      26.171  -9.819  26.888  0.00  0.00     0.186 HD
ATOM     46  N3  3YC d   1      23.976 -12.047  25.996  0.00  0.00    -0.156 N 
ATOM     47  C4  3YC d   1      24.418 -13.139  26.664  0.00  0.00     0.273 A 
ATOM     48  H2  3YC d   1      23.164 -12.126  25.417  0.00  0.00     0.187 HD
ATOM     49  O10 3YC d   1      23.812 -14.197  26.555  0.00  0.00    -0.267 OA
ATOM     50  C7  3YC d   1      26.315 -13.887  28.270  0.00  0.00    -0.042 A 
ATOM     51  H4  3YC d   1      26.126 -14.943  28.460  0.00  0.00     0.088 H 
BRANCH  44  52
ATOM     52  N11 3YC d   1      24.092  -9.733  25.372  0.00  0.00    -0.234 N 
ATOM     53  H5  3YC d   1      24.567  -8.822  25.442  0.00  0.00     0.174 HD
ATOM     54  H6  3YC d   1      23.252  -9.832  24.785  0.00  0.00     0.174 HD
ENDBRANCH  44  52
ENDBRANCH  35  38
ENDBRANCH  32  35
ENDBRANCH  29  32
ENDBRANCH   1  29
TORSDOF 12
