REMARK  13 active torsions:
REMARK  status: ('A' for Active; 'I' for Inactive)
REMARK    1  A    between atoms: C2_2  and  N11_11 
REMARK    2  A    between atoms: C29_29  and  C6_6 
REMARK    3  A    between atoms: C13_13  and  C12_12 
REMARK    4  A    between atoms: C12_12  and  C17_17 
REMARK    5  A    between atoms: C14_14  and  C13_13 
REMARK    6  A    between atoms: C15_15  and  C14_14 
REMARK    7  A    between atoms: C16_16  and  C15_15 
REMARK    8  A    between atoms: C16_16  and  C29_29 
REMARK       I    between atoms: C17_17  and  N19_19 
REMARK    9  A    between atoms: N19_19  and  C20_20 
REMARK   10  A    between atoms: C20_20  and  C21_21 
REMARK   11  A    between atoms: C20_20  and  C26_26 
REMARK   12  A    between atoms: C21_21  and  C22_22 
REMARK   13  A    between atoms: C22_22  and  C23_23 
ROOT
ATOM      1  C14 3YD d   1     -24.369  17.532  17.556  0.00  0.00    -0.065 C 
ATOM      2  H11 3YD d   1     -25.138  16.916  17.067  0.00  0.00     0.033 H 
ATOM      3  H12 3YD d   1     -24.518  18.588  17.285  0.00  0.00     0.033 H 
ENDROOT
BRANCH   1   4
ATOM      4  C13 3YD d   1     -22.968  17.075  17.078  0.00  0.00    -0.057 C 
ATOM      5  H9  3YD d   1     -22.553  16.366  17.810  0.00  0.00     0.033 H 
ATOM      6  H10 3YD d   1     -23.067  16.578  16.102  0.00  0.00     0.033 H 
BRANCH   4   7
ATOM      7  C12 3YD d   1     -22.002  18.275  16.936  0.00  0.00     0.009 C 
ATOM      8  H7  3YD d   1     -21.524  18.484  17.904  0.00  0.00     0.047 H 
ATOM      9  H8  3YD d   1     -22.559  19.163  16.602  0.00  0.00     0.047 H 
BRANCH   7  10
ATOM     10  C17 3YD d   1     -20.921  17.910  15.887  0.00  0.00     0.218 C 
ATOM     11  O18 3YD d   1     -20.990  16.806  15.394  0.00  0.00    -0.274 OA
ATOM     12  N19 3YD d   1     -19.835  18.772  15.444  0.00  0.00    -0.347 N 
ATOM     13  H17 3YD d   1     -19.230  18.368  14.758  0.00  0.00     0.163 HD
BRANCH  12  14
ATOM     14  C20 3YD d   1     -19.491  20.126  15.841  0.00  0.00     0.096 C 
ATOM     15  H18 3YD d   1     -18.684  20.459  15.171  0.00  0.00     0.089 H 
BRANCH  14  16
ATOM     16  C21 3YD d   1     -20.634  21.093  15.685  0.00  0.00    -0.028 C 
ATOM     17  H19 3YD d   1     -20.435  21.977  16.308  0.00  0.00     0.037 H 
ATOM     18  H20 3YD d   1     -21.558  20.604  16.027  0.00  0.00     0.037 H 
BRANCH  16  19
ATOM     19  C22 3YD d   1     -20.827  21.546  14.242  0.00  0.00     0.018 C 
ATOM     20  H21 3YD d   1     -20.898  20.669  13.582  0.00  0.00     0.049 H 
ATOM     21  H22 3YD d   1     -19.978  22.172  13.930  0.00  0.00     0.049 H 
BRANCH  19  22
ATOM     22  C23 3YD d   1     -22.112  22.349  14.173  0.00  0.00     0.172 C 
ATOM     23  O24 3YD d   1     -23.186  21.787  13.823  0.00  0.00    -0.648 OA
ATOM     24  O25 3YD d   1     -22.111  23.573  14.468  0.00  0.00    -0.648 OA
ENDBRANCH  19  22
ENDBRANCH  16  19
ENDBRANCH  14  16
BRANCH  14  25
ATOM     25  C26 3YD d   1     -18.966  20.194  17.254  0.00  0.00     0.196 C 
ATOM     26  O27 3YD d   1     -17.820  19.758  17.516  0.00  0.00    -0.646 OA
ATOM     27  O28 3YD d   1     -19.665  20.709  18.170  0.00  0.00    -0.646 OA
ENDBRANCH  14  25
ENDBRANCH  12  14
ENDBRANCH   7  10
ENDBRANCH   4   7
ENDBRANCH   1   4
BRANCH   1  28
ATOM     28  C15 3YD d   1     -24.490  17.378  19.080  0.00  0.00    -0.065 C 
ATOM     29  H13 3YD d   1     -24.079  18.273  19.571  0.00  0.00     0.033 H 
ATOM     30  H14 3YD d   1     -23.925  16.491  19.403  0.00  0.00     0.033 H 
BRANCH  28  31
ATOM     31  C16 3YD d   1     -25.971  17.213  19.475  0.00  0.00    -0.060 C 
ATOM     32  H15 3YD d   1     -26.235  16.145  19.450  0.00  0.00     0.033 H 
ATOM     33  H16 3YD d   1     -26.600  17.763  18.759  0.00  0.00     0.033 H 
BRANCH  31  34
ATOM     34  C29 3YD d   1     -26.218  17.762  20.890  0.00  0.00    -0.027 C 
ATOM     35  H23 3YD d   1     -26.047  18.849  20.897  0.00  0.00     0.042 H 
ATOM     36  H24 3YD d   1     -27.256  17.553  21.189  0.00  0.00     0.042 H 
BRANCH  34  37
ATOM     37  C6  3YD d   1     -25.253  17.084  21.879  0.00  0.00     0.012 A 
ATOM     38  N5  3YD d   1     -24.212  17.577  22.345  0.00  0.00    -0.345 N 
ATOM     39  C9  3YD d   1     -23.490  16.811  23.203  0.00  0.00     0.137 A 
ATOM     40  H3  3YD d   1     -23.909  18.528  22.091  0.00  0.00     0.167 HD
ATOM     41  N1  3YD d   1     -22.371  16.952  23.890  0.00  0.00    -0.176 N 
ATOM     42  C8  3YD d   1     -24.340  15.589  23.237  0.00  0.00     0.079 A 
ATOM     43  C2  3YD d   1     -21.959  15.888  24.674  0.00  0.00     0.680 A 
ATOM     44  H1  3YD d   1     -21.824  17.823  23.844  0.00  0.00     0.186 HD
ATOM     45  N3  3YD d   1     -22.753  14.712  24.769  0.00  0.00    -0.156 N 
ATOM     46  C4  3YD d   1     -23.909  14.564  24.016  0.00  0.00     0.273 A 
ATOM     47  H2  3YD d   1     -22.473  13.979  25.389  0.00  0.00     0.187 HD
ATOM     48  O10 3YD d   1     -24.503  13.504  24.135  0.00  0.00    -0.267 OA
ATOM     49  C7  3YD d   1     -25.406  15.912  22.358  0.00  0.00    -0.042 A 
ATOM     50  H4  3YD d   1     -26.239  15.251  22.125  0.00  0.00     0.088 H 
BRANCH  43  51
ATOM     51  N11 3YD d   1     -20.762  15.981  25.438  0.00  0.00    -0.234 N 
ATOM     52  H5  3YD d   1     -20.178  16.827  25.379  0.00  0.00     0.174 HD
ATOM     53  H6  3YD d   1     -20.480  15.202  26.050  0.00  0.00     0.174 HD
ENDBRANCH  43  51
ENDBRANCH  34  37
ENDBRANCH  31  34
ENDBRANCH  28  31
ENDBRANCH   1  28
TORSDOF 13
