REMARK  14 active torsions:
REMARK  status: ('A' for Active; 'I' for Inactive)
REMARK    1  A    between atoms: C2_2  and  N11_11 
REMARK    2  A    between atoms: C29_27  and  C6_6 
REMARK    3  A    between atoms: C13_13  and  C12_12 
REMARK    4  A    between atoms: C12_12  and  C17_15 
REMARK    5  A    between atoms: C14_14  and  C13_13 
REMARK    6  A    between atoms: C15_30  and  C14_14 
REMARK       I    between atoms: C17_15  and  N19_17 
REMARK    7  A    between atoms: N19_17  and  C20_18 
REMARK    8  A    between atoms: C20_18  and  C21_19 
REMARK    9  A    between atoms: C20_18  and  C26_24 
REMARK   10  A    between atoms: C21_19  and  C22_20 
REMARK   11  A    between atoms: C22_20  and  C23_21 
REMARK   12  A    between atoms: C30_28  and  C29_27 
REMARK   13  A    between atoms: C16_29  and  C30_28 
REMARK   14  A    between atoms: C16_29  and  C15_30 
ROOT
ATOM      1  C15 3YE d   1     -24.170  16.633 -32.721  0.00  0.00    -0.065 C 
ATOM      2  H25 3YE d   1     -23.790  15.637 -32.451  0.00  0.00     0.033 H 
ATOM      3  H26 3YE d   1     -25.076  16.526 -33.336  0.00  0.00     0.033 H 
ENDROOT
BRANCH   1   4
ATOM      4  C14 3YE d   1     -23.084  17.422 -33.507  0.00  0.00    -0.065 C 
ATOM      5  H11 3YE d   1     -23.572  18.159 -34.162  0.00  0.00     0.033 H 
ATOM      6  H12 3YE d   1     -22.426  17.943 -32.796  0.00  0.00     0.033 H 
BRANCH   4   7
ATOM      7  C13 3YE d   1     -22.244  16.452 -34.365  0.00  0.00    -0.057 C 
ATOM      8  H9  3YE d   1     -21.299  16.219 -33.852  0.00  0.00     0.033 H 
ATOM      9  H10 3YE d   1     -22.806  15.522 -34.538  0.00  0.00     0.033 H 
BRANCH   7  10
ATOM     10  C12 3YE d   1     -21.954  17.151 -35.711  0.00  0.00     0.009 C 
ATOM     11  H7  3YE d   1     -22.875  17.623 -36.083  0.00  0.00     0.047 H 
ATOM     12  H8  3YE d   1     -21.604  16.406 -36.441  0.00  0.00     0.047 H 
BRANCH  10  13
ATOM     13  C17 3YE d   1     -20.873  18.225 -35.521  0.00  0.00     0.218 C 
ATOM     14  O18 3YE d   1     -20.842  19.182 -36.296  0.00  0.00    -0.274 OA
ATOM     15  N19 3YE d   1     -19.922  18.074 -34.429  0.00  0.00    -0.347 N 
ATOM     16  H13 3YE d   1     -20.012  17.269 -33.842  0.00  0.00     0.163 HD
BRANCH  15  17
ATOM     17  C20 3YE d   1     -18.851  19.011 -34.132  0.00  0.00     0.096 C 
ATOM     18  H14 3YE d   1     -18.253  18.593 -33.308  0.00  0.00     0.089 H 
BRANCH  17  19
ATOM     19  C21 3YE d   1     -17.937  19.179 -35.329  0.00  0.00    -0.028 C 
ATOM     20  H15 3YE d   1     -17.040  19.740 -35.030  0.00  0.00     0.037 H 
ATOM     21  H16 3YE d   1     -18.466  19.729 -36.121  0.00  0.00     0.037 H 
BRANCH  19  22
ATOM     22  C22 3YE d   1     -17.529  17.806 -35.848  0.00  0.00     0.018 C 
ATOM     23  H17 3YE d   1     -18.166  17.038 -35.386  0.00  0.00     0.049 H 
ATOM     24  H18 3YE d   1     -16.477  17.616 -35.588  0.00  0.00     0.049 H 
BRANCH  22  25
ATOM     25  C23 3YE d   1     -17.690  17.753 -37.345  0.00  0.00     0.172 C 
ATOM     26  O24 3YE d   1     -17.979  18.809 -37.992  0.00  0.00    -0.648 OA
ATOM     27  O25 3YE d   1     -17.534  16.649 -37.966  0.00  0.00    -0.648 OA
ENDBRANCH  22  25
ENDBRANCH  19  22
ENDBRANCH  17  19
BRANCH  17  28
ATOM     28  C26 3YE d   1     -19.409  20.336 -33.671  0.00  0.00     0.196 C 
ATOM     29  O27 3YE d   1     -19.205  20.726 -32.477  0.00  0.00    -0.646 OA
ATOM     30  O28 3YE d   1     -20.077  21.055 -34.458  0.00  0.00    -0.646 OA
ENDBRANCH  17  28
ENDBRANCH  15  17
ENDBRANCH  10  13
ENDBRANCH   7  10
ENDBRANCH   4   7
ENDBRANCH   1   4
BRANCH   1  31
ATOM     31  C16 3YE d   1     -24.490  17.439 -31.446  0.00  0.00    -0.065 C 
ATOM     32  H23 3YE d   1     -23.738  17.218 -30.675  0.00  0.00     0.033 H 
ATOM     33  H24 3YE d   1     -24.472  18.514 -31.678  0.00  0.00     0.033 H 
BRANCH  31  34
ATOM     34  C30 3YE d   1     -25.855  17.059 -30.938  0.00  0.00    -0.060 C 
ATOM     35  H21 3YE d   1     -26.624  17.435 -31.628  0.00  0.00     0.033 H 
ATOM     36  H22 3YE d   1     -25.931  15.964 -30.866  0.00  0.00     0.033 H 
BRANCH  34  37
ATOM     37  C29 3YE d   1     -26.053  17.669 -29.581  0.00  0.00    -0.027 C 
ATOM     38  H19 3YE d   1     -25.883  18.754 -29.640  0.00  0.00     0.042 H 
ATOM     39  H20 3YE d   1     -27.081  17.477 -29.241  0.00  0.00     0.042 H 
BRANCH  37  40
ATOM     40  C6  3YE d   1     -25.065  17.053 -28.584  0.00  0.00     0.012 A 
ATOM     41  N5  3YE d   1     -23.989  17.672 -28.116  0.00  0.00    -0.345 N 
ATOM     42  C9  3YE d   1     -23.329  16.793 -27.218  0.00  0.00     0.137 A 
ATOM     43  H3  3YE d   1     -23.685  18.625 -28.362  0.00  0.00     0.167 HD
ATOM     44  N1  3YE d   1     -22.213  16.911 -26.485  0.00  0.00    -0.176 N 
ATOM     45  C8  3YE d   1     -24.136  15.613 -27.187  0.00  0.00     0.079 A 
ATOM     46  C2  3YE d   1     -21.798  15.874 -25.685  0.00  0.00     0.680 A 
ATOM     47  H1  3YE d   1     -21.665  17.782 -26.522  0.00  0.00     0.186 HD
ATOM     48  N3  3YE d   1     -22.537  14.709 -25.607  0.00  0.00    -0.156 N 
ATOM     49  C4  3YE d   1     -23.693  14.565 -26.354  0.00  0.00     0.273 A 
ATOM     50  H2  3YE d   1     -22.235  13.967 -25.008  0.00  0.00     0.187 HD
ATOM     51  O10 3YE d   1     -24.288  13.509 -26.237  0.00  0.00    -0.267 OA
ATOM     52  C7  3YE d   1     -25.176  15.867 -28.051  0.00  0.00    -0.042 A 
ATOM     53  H4  3YE d   1     -25.985  15.170 -28.262  0.00  0.00     0.088 H 
BRANCH  46  54
ATOM     54  N11 3YE d   1     -20.625  16.009 -24.921  0.00  0.00    -0.234 N 
ATOM     55  H5  3YE d   1     -20.071  16.876 -24.976  0.00  0.00     0.174 HD
ATOM     56  H6  3YE d   1     -20.320  15.241 -24.306  0.00  0.00     0.174 HD
ENDBRANCH  46  54
ENDBRANCH  37  40
ENDBRANCH  34  37
ENDBRANCH  31  34
ENDBRANCH   1  31
TORSDOF 14
