REMARK  11 active torsions:
REMARK  status: ('A' for Active; 'I' for Inactive)
REMARK    1  A    between atoms: C2_2  and  N11_11 
REMARK    2  A    between atoms: C29_29  and  C6_6 
REMARK    3  A    between atoms: C13_13  and  C17_17 
REMARK    4  A    between atoms: C31_31  and  C16_16 
REMARK       I    between atoms: C17_17  and  N19_19 
REMARK    5  A    between atoms: N19_19  and  C20_20 
REMARK    6  A    between atoms: C20_20  and  C21_21 
REMARK    7  A    between atoms: C20_20  and  C26_26 
REMARK    8  A    between atoms: C21_21  and  C22_22 
REMARK    9  A    between atoms: C22_22  and  C23_23 
REMARK   10  A    between atoms: C30_30  and  C29_29 
REMARK   11  A    between atoms: C30_30  and  C31_31 
ROOT
ATOM      1  C31 3YF d   1      26.425 -13.423 -19.226  0.00  0.00    -0.040 C 
ATOM      2  H19 3YF d   1      25.855 -13.180 -20.134  0.00  0.00     0.040 H 
ATOM      3  H20 3YF d   1      26.358 -14.503 -19.029  0.00  0.00     0.040 H 
ENDROOT
BRANCH   1   4
ATOM      4  C16 3YF d   1      25.742 -12.707 -18.057  0.00  0.00    -0.050 A 
ATOM      5  C12 3YF d   1      26.133 -11.431 -17.581  0.00  0.00    -0.054 A 
ATOM      6  C13 3YF d   1      25.400 -10.925 -16.539  0.00  0.00     0.073 A 
ATOM      7  H7  3YF d   1      26.967 -10.884 -18.018  0.00  0.00     0.086 H 
ATOM      8  S14 3YF d   1      24.206 -12.079 -16.190  0.00  0.00    -0.096 SA
ATOM      9  C15 3YF d   1      24.663 -13.221 -17.381  0.00  0.00    -0.038 A 
ATOM     10  H8  3YF d   1      24.185 -14.181 -17.568  0.00  0.00     0.095 H 
BRANCH   6  11
ATOM     11  C17 3YF d   1      25.564  -9.668 -15.857  0.00  0.00     0.259 C 
ATOM     12  O18 3YF d   1      24.673  -9.263 -15.088  0.00  0.00    -0.267 OA
ATOM     13  N19 3YF d   1      26.756  -8.920 -16.090  0.00  0.00    -0.342 N 
ATOM     14  H9  3YF d   1      27.462  -9.266 -16.708  0.00  0.00     0.163 HD
BRANCH  13  15
ATOM     15  C20 3YF d   1      26.924  -7.664 -15.422  0.00  0.00     0.097 C 
ATOM     16  H10 3YF d   1      26.046  -7.448 -14.796  0.00  0.00     0.089 H 
BRANCH  15  17
ATOM     17  C21 3YF d   1      28.135  -7.721 -14.571  0.00  0.00    -0.028 C 
ATOM     18  H11 3YF d   1      28.428  -6.698 -14.293  0.00  0.00     0.037 H 
ATOM     19  H12 3YF d   1      28.950  -8.195 -15.137  0.00  0.00     0.037 H 
BRANCH  17  20
ATOM     20  C22 3YF d   1      27.874  -8.525 -13.305  0.00  0.00     0.018 C 
ATOM     21  H13 3YF d   1      27.284  -9.415 -13.568  0.00  0.00     0.049 H 
ATOM     22  H14 3YF d   1      27.303  -7.901 -12.602  0.00  0.00     0.049 H 
BRANCH  20  23
ATOM     23  C23 3YF d   1      29.180  -8.983 -12.613  0.00  0.00     0.172 C 
ATOM     24  O24 3YF d   1      29.234 -10.128 -12.033  0.00  0.00    -0.648 OA
ATOM     25  O25 3YF d   1      30.229  -8.200 -12.618  0.00  0.00    -0.648 OA
ENDBRANCH  20  23
ENDBRANCH  17  20
ENDBRANCH  15  17
BRANCH  15  26
ATOM     26  C26 3YF d   1      27.069  -6.590 -16.501  0.00  0.00     0.196 C 
ATOM     27  O27 3YF d   1      26.682  -5.374 -16.254  0.00  0.00    -0.646 OA
ATOM     28  O28 3YF d   1      27.559  -6.895 -17.648  0.00  0.00    -0.646 OA
ENDBRANCH  15  26
ENDBRANCH  13  15
ENDBRANCH   6  11
ENDBRANCH   1   4
BRANCH   1  29
ATOM     29  C30 3YF d   1      27.907 -13.103 -19.518  0.00  0.00    -0.056 C 
ATOM     30  H17 3YF d   1      28.032 -12.010 -19.529  0.00  0.00     0.034 H 
ATOM     31  H18 3YF d   1      28.522 -13.534 -18.714  0.00  0.00     0.034 H 
BRANCH  29  32
ATOM     32  C29 3YF d   1      28.416 -13.683 -20.908  0.00  0.00    -0.026 C 
ATOM     33  H15 3YF d   1      29.388 -13.245 -21.178  0.00  0.00     0.042 H 
ATOM     34  H16 3YF d   1      28.507 -14.778 -20.861  0.00  0.00     0.042 H 
BRANCH  32  35
ATOM     35  C6  3YF d   1      27.331 -13.270 -21.927  0.00  0.00     0.012 A 
ATOM     36  N5  3YF d   1      27.201 -12.027 -22.382  0.00  0.00    -0.345 N 
ATOM     37  C9  3YF d   1      26.159 -11.932 -23.196  0.00  0.00     0.137 A 
ATOM     38  H3  3YF d   1      27.825 -11.245 -22.136  0.00  0.00     0.167 HD
ATOM     39  N1  3YF d   1      25.652 -10.874 -23.871  0.00  0.00    -0.176 N 
ATOM     40  C8  3YF d   1      25.536 -13.200 -23.304  0.00  0.00     0.079 A 
ATOM     41  C2  3YF d   1      24.582 -11.017 -24.644  0.00  0.00     0.680 A 
ATOM     42  H1  3YF d   1      26.100  -9.950 -23.784  0.00  0.00     0.186 HD
ATOM     43  N3  3YF d   1      23.947 -12.196 -24.773  0.00  0.00    -0.156 N 
ATOM     44  C4  3YF d   1      24.383 -13.307 -24.140  0.00  0.00     0.273 A 
ATOM     45  H2  3YF d   1      23.133 -12.251 -25.351  0.00  0.00     0.187 HD
ATOM     46  O10 3YF d   1      23.801 -14.386 -24.270  0.00  0.00    -0.267 OA
ATOM     47  C7  3YF d   1      26.309 -14.072 -22.485  0.00  0.00    -0.042 A 
ATOM     48  H4  3YF d   1      26.146 -15.136 -22.322  0.00  0.00     0.088 H 
BRANCH  41  49
ATOM     49  N11 3YF d   1      24.079  -9.906 -25.325  0.00  0.00    -0.234 N 
ATOM     50  H5  3YF d   1      24.549  -8.994 -25.240  0.00  0.00     0.174 HD
ATOM     51  H6  3YF d   1      23.238  -9.999 -25.912  0.00  0.00     0.174 HD
ENDBRANCH  41  49
ENDBRANCH  32  35
ENDBRANCH  29  32
ENDBRANCH   1  29
TORSDOF 11
