REMARK  11 active torsions:
REMARK  status: ('A' for Active; 'I' for Inactive)
REMARK    1  A    between atoms: C2_2  and  N11_11 
REMARK    2  A    between atoms: C29_29  and  C6_5 
REMARK    3  A    between atoms: C13_13  and  C17_17 
REMARK    4  A    between atoms: C31_31  and  C16_16 
REMARK       I    between atoms: C17_17  and  N19_19 
REMARK    5  A    between atoms: N19_19  and  C20_20 
REMARK    6  A    between atoms: C20_20  and  C21_21 
REMARK    7  A    between atoms: C20_20  and  C26_26 
REMARK    8  A    between atoms: C21_21  and  C22_22 
REMARK    9  A    between atoms: C22_22  and  C23_23 
REMARK   10  A    between atoms: C30_30  and  C29_29 
REMARK   11  A    between atoms: C30_30  and  C31_31 
ROOT
ATOM      1  C31 3YG d   1      49.006  13.415  31.418  0.00  0.00    -0.035 C 
ATOM      2  H19 3YG d   1      49.599  13.254  30.505  0.00  0.00     0.040 H 
ATOM      3  H20 3YG d   1      49.060  14.475  31.708  0.00  0.00     0.040 H 
ENDROOT
BRANCH   1   4
ATOM      4  C16 3YG d   1      49.634  12.609  32.518  0.00  0.00    -0.017 A 
ATOM      5  C12 3YG d   1      49.281  11.371  32.968  0.00  0.00    -0.055 A 
ATOM      6  C13 3YG d   1      50.099  10.874  34.016  0.00  0.00     0.039 A 
ATOM      7  H7  3YG d   1      48.442  10.811  32.558  0.00  0.00     0.086 H 
ATOM      8  C14 3YG d   1      51.113  11.687  34.421  0.00  0.00    -0.029 A 
ATOM      9  S15 3YG d   1      50.984  13.076  33.441  0.00  0.00    -0.105 SA
ATOM     10  H8  3YG d   1      51.847  11.492  35.202  0.00  0.00     0.096 H 
BRANCH   6  11
ATOM     11  C17 3YG d   1      49.883   9.587  34.624  0.00  0.00     0.252 C 
ATOM     12  O18 3YG d   1      50.756   9.076  35.360  0.00  0.00    -0.268 OA
ATOM     13  N19 3YG d   1      48.657   8.876  34.383  0.00  0.00    -0.342 N 
ATOM     14  H9  3YG d   1      47.955   9.280  33.796  0.00  0.00     0.163 HD
BRANCH  13  15
ATOM     15  C20 3YG d   1      48.434   7.589  34.981  0.00  0.00     0.097 C 
ATOM     16  H10 3YG d   1      49.294   7.332  35.617  0.00  0.00     0.089 H 
BRANCH  15  17
ATOM     17  C21 3YG d   1      47.198   7.606  35.803  0.00  0.00    -0.028 C 
ATOM     18  H11 3YG d   1      47.119   6.651  36.344  0.00  0.00     0.037 H 
ATOM     19  H12 3YG d   1      46.331   7.723  35.136  0.00  0.00     0.037 H 
BRANCH  17  20
ATOM     20  C22 3YG d   1      47.196   8.744  36.814  0.00  0.00     0.018 C 
ATOM     21  H13 3YG d   1      47.294   9.698  36.275  0.00  0.00     0.049 H 
ATOM     22  H14 3YG d   1      48.051   8.617  37.494  0.00  0.00     0.049 H 
BRANCH  20  23
ATOM     23  C23 3YG d   1      45.893   8.775  37.651  0.00  0.00     0.172 C 
ATOM     24  O24 3YG d   1      45.381   7.677  38.073  0.00  0.00    -0.648 OA
ATOM     25  O25 3YG d   1      45.311   9.916  37.923  0.00  0.00    -0.648 OA
ENDBRANCH  20  23
ENDBRANCH  17  20
ENDBRANCH  15  17
BRANCH  15  26
ATOM     26  C26 3YG d   1      48.272   6.532  33.883  0.00  0.00     0.196 C 
ATOM     27  O27 3YG d   1      48.564   5.292  34.148  0.00  0.00    -0.646 OA
ATOM     28  O28 3YG d   1      47.848   6.872  32.719  0.00  0.00    -0.646 OA
ENDBRANCH  15  26
ENDBRANCH  13  15
ENDBRANCH   6  11
ENDBRANCH   1   4
BRANCH   1  29
ATOM     29  C30 3YG d   1      47.541  13.097  31.085  0.00  0.00    -0.056 C 
ATOM     30  H17 3YG d   1      47.418  12.007  31.001  0.00  0.00     0.034 H 
ATOM     31  H18 3YG d   1      46.897  13.477  31.891  0.00  0.00     0.034 H 
BRANCH  29  32
ATOM     32  C29 3YG d   1      47.119  13.774  29.720  0.00  0.00    -0.026 C 
ATOM     33  H15 3YG d   1      46.128  13.414  29.407  0.00  0.00     0.042 H 
ATOM     34  H16 3YG d   1      47.094  14.868  29.829  0.00  0.00     0.042 H 
BRANCH  32  35
ATOM     35  C6  3YG d   1      48.193  13.362  28.680  0.00  0.00     0.012 A 
ATOM     36  N5  3YG d   1      48.307  12.117  28.198  0.00  0.00    -0.345 N 
ATOM     37  C9  3YG d   1      49.332  12.056  27.351  0.00  0.00     0.137 A 
ATOM     38  H3  3YG d   1      47.694  11.327  28.445  0.00  0.00     0.167 HD
ATOM     39  N1  3YG d   1      49.818  11.011  26.643  0.00  0.00    -0.176 N 
ATOM     40  C8  3YG d   1      49.958  13.329  27.262  0.00  0.00     0.079 A 
ATOM     41  C2  3YG d   1      50.870  11.169  25.856  0.00  0.00     0.680 A 
ATOM     42  H1  3YG d   1      49.367  10.088  26.717  0.00  0.00     0.186 HD
ATOM     43  N3  3YG d   1      51.504  12.352  25.739  0.00  0.00    -0.156 N 
ATOM     44  C4  3YG d   1      51.097  13.449  26.403  0.00  0.00     0.273 A 
ATOM     45  H2  3YG d   1      52.302  12.417  25.140  0.00  0.00     0.187 HD
ATOM     46  O10 3YG d   1      51.699  14.517  26.272  0.00  0.00    -0.267 OA
ATOM     47  C7  3YG d   1      49.207  14.182  28.126  0.00  0.00    -0.042 A 
ATOM     48  H4  3YG d   1      49.378  15.240  28.319  0.00  0.00     0.088 H 
BRANCH  41  49
ATOM     49  N11 3YG d   1      51.353  10.070  25.137  0.00  0.00    -0.234 N 
ATOM     50  H5  3YG d   1      50.882   9.157  25.213  0.00  0.00     0.174 HD
ATOM     51  H6  3YG d   1      52.180  10.174  24.531  0.00  0.00     0.174 HD
ENDBRANCH  41  49
ENDBRANCH  32  35
ENDBRANCH  29  32
ENDBRANCH   1  29
TORSDOF 11
