REMARK  10 active torsions:
REMARK  status: ('A' for Active; 'I' for Inactive)
REMARK    1  A    between atoms: C1_1  and  C7_7 
REMARK    2  A    between atoms: C4_4  and  C20_20 
REMARK    3  A    between atoms: C7_7  and  C8_8 
REMARK    4  A    between atoms: C8_8  and  C9_9 
REMARK    5  A    between atoms: C17_17  and  N19_19 
REMARK       I    between atoms: C20_20  and  N22_22 
REMARK    6  A    between atoms: N22_22  and  C23_23 
REMARK    7  A    between atoms: C23_23  and  C24_24 
REMARK    8  A    between atoms: C23_23  and  C29_29 
REMARK    9  A    between atoms: C24_24  and  C25_25 
REMARK   10  A    between atoms: C25_25  and  C26_26 
ROOT
ATOM      1  C1  4DW d   1      62.197  48.207  18.685  0.00  0.00    -0.058 A 
ATOM      2  C2  4DW d   1      61.011  48.911  18.852  0.00  0.00    -0.076 A 
ATOM      3  C3  4DW d   1      59.867  48.533  18.159  0.00  0.00    -0.067 A 
ATOM      4  C4  4DW d   1      59.937  47.444  17.300  0.00  0.00     0.032 A 
ATOM      5  C5  4DW d   1      61.117  46.732  17.124  0.00  0.00    -0.067 A 
ATOM      6  C6  4DW d   1      62.257  47.119  17.821  0.00  0.00    -0.076 A 
ATOM      7  H1  4DW d   1      60.978  49.759  19.526  0.00  0.00     0.084 H 
ATOM      8  H2  4DW d   1      58.938  49.078  18.287  0.00  0.00     0.085 H 
ATOM      9  H3  4DW d   1      61.149  45.883  16.450  0.00  0.00     0.085 H 
ATOM     10  H4  4DW d   1      63.186  46.576  17.692  0.00  0.00     0.084 H 
ENDROOT
BRANCH   1  11
ATOM     11  C7  4DW d   1      63.407  48.670  19.468  0.00  0.00    -0.037 C 
ATOM     12  H5  4DW d   1      63.559  49.732  19.223  0.00  0.00     0.040 H 
ATOM     13  H6  4DW d   1      64.265  48.084  19.106  0.00  0.00     0.040 H 
BRANCH  11  14
ATOM     14  C8  4DW d   1      63.408  48.563  20.979  0.00  0.00    -0.035 C 
ATOM     15  H7  4DW d   1      63.283  49.573  21.396  0.00  0.00     0.040 H 
ATOM     16  H8  4DW d   1      64.378  48.153  21.295  0.00  0.00     0.040 H 
BRANCH  14  17
ATOM     17  C9  4DW d   1      62.313  47.679  21.540  0.00  0.00    -0.023 A 
ATOM     18  C10 4DW d   1      62.141  46.327  21.280  0.00  0.00    -0.014 A 
ATOM     19  N11 4DW d   1      61.062  45.918  21.963  0.00  0.00    -0.350 N 
ATOM     20  H9  4DW d   1      62.768  45.710  20.638  0.00  0.00     0.112 H 
ATOM     21  C12 4DW d   1      60.540  46.945  22.648  0.00  0.00     0.137 A 
ATOM     22  H10 4DW d   1      60.690  44.958  21.962  0.00  0.00     0.166 HD
ATOM     23  C13 4DW d   1      61.302  48.075  22.406  0.00  0.00     0.085 A 
ATOM     24  N18 4DW d   1      59.480  47.027  23.462  0.00  0.00    -0.176 N 
ATOM     25  C14 4DW d   1      60.945  49.267  23.019  0.00  0.00     0.274 A 
ATOM     26  O15 4DW d   1      61.594  50.283  22.829  0.00  0.00    -0.267 OA
ATOM     27  N16 4DW d   1      59.875  49.302  23.825  0.00  0.00    -0.155 N 
ATOM     28  C17 4DW d   1      59.152  48.192  24.043  0.00  0.00     0.680 A 
ATOM     29  H11 4DW d   1      59.614  50.160  24.267  0.00  0.00     0.187 HD
ATOM     30  H12 4DW d   1      58.911  46.188  23.644  0.00  0.00     0.186 HD
BRANCH  28  31
ATOM     31  N19 4DW d   1      58.021  48.233  24.898  0.00  0.00    -0.234 N 
ATOM     32  H13 4DW d   1      57.752  49.117  25.354  0.00  0.00     0.174 HD
ATOM     33  H14 4DW d   1      57.469  47.379  25.063  0.00  0.00     0.174 HD
ENDBRANCH  28  31
ENDBRANCH  14  17
ENDBRANCH  11  14
ENDBRANCH   1  11
BRANCH   4  34
ATOM     34  C20 4DW d   1      58.653  47.050  16.549  0.00  0.00     0.252 C 
ATOM     35  O21 4DW d   1      57.669  47.754  16.649  0.00  0.00    -0.268 OA
ATOM     36  N22 4DW d   1      58.662  45.870  15.762  0.00  0.00    -0.342 N 
ATOM     37  H15 4DW d   1      59.485  45.306  15.690  0.00  0.00     0.163 HD
BRANCH  36  38
ATOM     38  C23 4DW d   1      57.470  45.512  15.080  0.00  0.00     0.097 C 
ATOM     39  H16 4DW d   1      56.832  46.399  14.955  0.00  0.00     0.089 H 
BRANCH  38  40
ATOM     40  C24 4DW d   1      57.744  44.900  13.722  0.00  0.00    -0.028 C 
ATOM     41  H17 4DW d   1      57.771  45.719  12.989  0.00  0.00     0.037 H 
ATOM     42  H18 4DW d   1      56.907  44.226  13.488  0.00  0.00     0.037 H 
BRANCH  40  43
ATOM     43  C25 4DW d   1      59.023  44.109  13.568  0.00  0.00     0.018 C 
ATOM     44  H19 4DW d   1      59.152  43.515  14.485  0.00  0.00     0.049 H 
ATOM     45  H20 4DW d   1      59.847  44.833  13.482  0.00  0.00     0.049 H 
BRANCH  43  46
ATOM     46  C26 4DW d   1      59.136  43.158  12.396  0.00  0.00     0.172 C 
ATOM     47  O27 4DW d   1      58.200  43.085  11.558  0.00  0.00    -0.648 OA
ATOM     48  O28 4DW d   1      60.164  42.443  12.264  0.00  0.00    -0.648 OA
ENDBRANCH  43  46
ENDBRANCH  40  43
ENDBRANCH  38  40
BRANCH  38  49
ATOM     49  C29 4DW d   1      56.781  44.482  15.950  0.00  0.00     0.196 C 
ATOM     50  O30 4DW d   1      56.246  44.872  17.022  0.00  0.00    -0.646 OA
ATOM     51  O31 4DW d   1      56.748  43.271  15.607  0.00  0.00    -0.646 OA
ENDBRANCH  38  49
ENDBRANCH  36  38
ENDBRANCH   4  34
TORSDOF 10
