REMARK  3 active torsions:
REMARK  status: ('A' for Active; 'I' for Inactive)
REMARK    1  A    between atoms: C20_8  and  N16_9 
REMARK    2  A    between atoms: C13_14  and  N10_15 
REMARK    3  A    between atoms: C4_25  and  C6_26 
REMARK       I    between atoms: C6_26  and  N19_28 
ROOT
ATOM      1  N16 D7N d   1      20.304  13.722  76.647  0.00  0.00    -0.067 N 
ATOM      2  C15 D7N d   1      20.843  14.188  75.360  0.00  0.00     0.086 C 
ATOM      3  C14 D7N d   1      21.900  15.244  75.641  0.00  0.00    -0.023 C 
ATOM      4  C17 D7N d   1      19.557  14.809  77.296  0.00  0.00     0.086 C 
ATOM      5  C18 D7N d   1      20.494  15.933  77.681  0.00  0.00    -0.023 C 
ATOM      6  C13 D7N d   1      21.310  16.410  76.471  0.00  0.00     0.018 C 
ATOM      7  H10 D7N d   1      21.102  13.518  77.228  0.00  0.00     0.280 HD
ATOM      8  H11 D7N d   1      20.035  14.623  74.753  0.00  0.00     0.076 H 
ATOM      9  H12 D7N d   1      21.295  13.344  74.818  0.00  0.00     0.076 H 
ATOM     10  H13 D7N d   1      22.279  15.637  74.686  0.00  0.00     0.038 H 
ATOM     11  H14 D7N d   1      22.727  14.785  76.202  0.00  0.00     0.038 H 
ATOM     12  H15 D7N d   1      19.064  14.421  78.200  0.00  0.00     0.076 H 
ATOM     13  H16 D7N d   1      18.797  15.193  76.600  0.00  0.00     0.076 H 
ATOM     14  H17 D7N d   1      21.183  15.576  78.461  0.00  0.00     0.038 H 
ATOM     15  H18 D7N d   1      19.904  16.775  78.071  0.00  0.00     0.038 H 
ATOM     16  H19 D7N d   1      20.633  16.974  75.812  0.00  0.00     0.073 H 
ENDROOT
BRANCH   6  17
ATOM     17  N10 D7N d   1      22.385  17.333  76.929  0.00  0.00    -0.339 N 
ATOM     18  C9  D7N d   1      23.181  17.247  78.155  0.00  0.00     0.023 A 
ATOM     19  C8  D7N d   1      23.998  18.368  78.104  0.00  0.00    -0.021 A 
ATOM     20  H20 D7N d   1      23.782  16.326  78.167  0.00  0.00     0.071 H 
ATOM     21  H21 D7N d   1      22.534  17.275  79.044  0.00  0.00     0.071 H 
ATOM     22  C7  D7N d   1      23.786  19.060  76.952  0.00  0.00     0.056 A 
ATOM     23  C3  D7N d   1      24.883  18.770  79.016  0.00  0.00    -0.037 A 
ATOM     24  C11 D7N d   1      22.830  18.399  76.277  0.00  0.00     0.256 A 
ATOM     25  C4  D7N d   1      24.482  20.206  76.696  0.00  0.00     0.051 A 
ATOM     26  O12 D7N d   1      22.338  18.764  75.211  0.00  0.00    -0.267 OA
ATOM     27  C1  D7N d   1      25.420  20.637  77.632  0.00  0.00    -0.029 A 
ATOM     28  C2  D7N d   1      25.622  19.919  78.798  0.00  0.00     0.117 A 
ATOM     29  H23 D7N d   1      25.994  21.538  77.446  0.00  0.00     0.089 H 
ATOM     30  F5  D7N d   1      26.466  20.311  79.644  0.00  0.00    -0.206 F 
ATOM     31  H22 D7N d   1      25.023  18.198  79.926  0.00  0.00     0.089 H 
BRANCH  25  32
ATOM     32  C6  D7N d   1      24.377  21.019  75.545  0.00  0.00     0.250 C 
ATOM     33  O28 D7N d   1      25.311  21.748  75.219  0.00  0.00    -0.268 OA
ATOM     34  N19 D7N d   1      23.252  20.988  74.843  0.00  0.00    -0.366 N 
ATOM     35  H24 D7N d   1      23.157  21.556  74.025  0.00  0.00     0.159 HD
ATOM     36  H25 D7N d   1      22.499  20.397  75.132  0.00  0.00     0.159 HD
ENDBRANCH  25  32
ENDBRANCH   6  17
BRANCH   1  37
ATOM     37  C20 D7N d   1      19.501  12.490  76.614  0.00  0.00     0.104 C 
ATOM     38  C25 D7N d   1      20.185  11.334  75.863  0.00  0.00    -0.033 C 
ATOM     39  C24 D7N d   1      19.397  10.037  76.126  0.00  0.00    -0.002 C 
ATOM     40  H1  D7N d   1      20.195  11.549  74.784  0.00  0.00     0.036 H 
ATOM     41  H2  D7N d   1      21.218  11.219  76.223  0.00  0.00     0.036 H 
ATOM     42  C23 D7N d   1      17.916  10.222  75.738  0.00  0.00     0.243 C 
ATOM     43  H3  D7N d   1      19.463   9.783  77.194  0.00  0.00     0.042 H 
ATOM     44  H4  D7N d   1      19.830   9.222  75.527  0.00  0.00     0.042 H 
ATOM     45  F26 D7N d   1      17.244   9.197  76.180  0.00  0.00    -0.206 F 
ATOM     46  F27 D7N d   1      17.845  10.363  74.355  0.00  0.00    -0.206 F 
ATOM     47  C22 D7N d   1      17.284  11.447  76.421  0.00  0.00    -0.002 C 
ATOM     48  C21 D7N d   1      18.079  12.696  76.077  0.00  0.00    -0.033 C 
ATOM     49  H5  D7N d   1      17.289  11.300  77.511  0.00  0.00     0.042 H 
ATOM     50  H6  D7N d   1      16.248  11.566  76.071  0.00  0.00     0.042 H 
ATOM     51  H7  D7N d   1      17.621  13.577  76.551  0.00  0.00     0.036 H 
ATOM     52  H8  D7N d   1      18.105  12.838  74.987  0.00  0.00     0.036 H 
ATOM     53  H9  D7N d   1      19.398  12.168  77.661  0.00  0.00     0.084 H 
ENDBRANCH   1  37
TORSDOF 3
