REMARK  8 active torsions:
REMARK  status: ('A' for Active; 'I' for Inactive)
REMARK    1  A    between atoms: C1_1  and  C7_7 
REMARK    2  A    between atoms: N2_2  and  C30_30 
REMARK    3  A    between atoms: N4_4  and  C18_18 
REMARK    4  A    between atoms: C5_5  and  C28_28 
REMARK    5  A    between atoms: C6_6  and  C15_15 
REMARK    6  A    between atoms: C15_15  and  C17_17 
REMARK    7  A    between atoms: C20_20  and  C24_24 
REMARK    8  A    between atoms: C30_30  and  C31_31 
ROOT
ATOM      1  C7  JJD d   1      -5.932  35.686  -5.853  0.00  0.00    -0.030 A 
ATOM      2  C8  JJD d   1      -5.720  36.095  -7.172  0.00  0.00    -0.073 A 
ATOM      3  C9  JJD d   1      -6.713  35.972  -8.156  0.00  0.00    -0.062 A 
ATOM      4  C10 JJD d   1      -7.949  35.412  -7.794  0.00  0.00     0.044 A 
ATOM      5  C11 JJD d   1      -8.176  35.012  -6.477  0.00  0.00    -0.062 A 
ATOM      6  C12 JJD d   1      -7.176  35.139  -5.502  0.00  0.00    -0.073 A 
ATOM      7  C13 JJD d   1      -8.877  35.310  -8.676  0.00  0.00     0.099 C 
ATOM      8  N14 JJD d   1      -9.757  35.283  -9.430  0.00  0.00    -0.191 NA
ATOM      9  H2  JJD d   1      -4.760  36.520  -7.443  0.00  0.00     0.084 H 
ATOM     10  H3  JJD d   1      -6.530  36.302  -9.172  0.00  0.00     0.085 H 
ATOM     11  H4  JJD d   1      -9.139  34.597  -6.203  0.00  0.00     0.085 H 
ATOM     12  H5  JJD d   1      -7.363  34.817  -4.484  0.00  0.00     0.084 H 
ENDROOT
BRANCH   1  13
ATOM     13  C1  JJD d   1      -4.858  35.903  -4.825  0.00  0.00     0.073 C 
ATOM     14  N2  JJD d   1      -5.261  37.014  -3.938  0.00  0.00    -0.310 N 
ATOM     15  C3  JJD d   1      -5.926  36.800  -2.784  0.00  0.00     0.331 C 
ATOM     16  N4  JJD d   1      -5.903  35.567  -2.248  0.00  0.00    -0.268 N 
ATOM     17  O29 JJD d   1      -6.568  37.713  -2.208  0.00  0.00    -0.246 OA
ATOM     18  C5  JJD d   1      -5.063  34.590  -2.733  0.00  0.00     0.030 C 
ATOM     19  C6  JJD d   1      -4.521  34.706  -3.987  0.00  0.00     0.037 C 
ATOM     20  H1  JJD d   1      -3.944  36.196  -5.362  0.00  0.00     0.088 H 
BRANCH  14  21
ATOM     21  C30 JJD d   1      -5.281  38.388  -4.414  0.00  0.00     0.080 C 
ATOM     22  H16 JJD d   1      -5.831  39.011  -3.694  0.00  0.00     0.081 H 
ATOM     23  H17 JJD d   1      -5.785  38.424  -5.391  0.00  0.00     0.081 H 
BRANCH  21  24
ATOM     24  C31 JJD d   1      -3.862  38.930  -4.563  0.00  0.00     0.191 C 
ATOM     25  O32 JJD d   1      -2.920  38.370  -3.958  0.00  0.00    -0.647 OA
ATOM     26  O33 JJD d   1      -3.682  39.909  -5.312  0.00  0.00    -0.647 OA
ENDBRANCH  21  24
ENDBRANCH  14  21
BRANCH  16  27
ATOM     27  C18 JJD d   1      -6.593  35.407  -0.998  0.00  0.00     0.044 A 
ATOM     28  C19 JJD d   1      -7.857  34.829  -1.003  0.00  0.00    -0.042 A 
ATOM     29  C20 JJD d   1      -8.555  34.639   0.179  0.00  0.00     0.050 A 
ATOM     30  H9  JJD d   1      -8.302  34.523  -1.943  0.00  0.00     0.088 H 
ATOM     31  C21 JJD d   1      -8.008  35.013   1.418  0.00  0.00    -0.068 A 
ATOM     32  C22 JJD d   1      -6.716  35.580   1.452  0.00  0.00    -0.080 A 
ATOM     33  H10 JJD d   1      -8.570  34.868   2.334  0.00  0.00     0.084 H 
ATOM     34  C23 JJD d   1      -6.041  35.776   0.231  0.00  0.00    -0.057 A 
ATOM     35  H11 JJD d   1      -6.255  35.858   2.393  0.00  0.00     0.083 H 
ATOM     36  H12 JJD d   1      -5.057  36.230   0.246  0.00  0.00     0.086 H 
BRANCH  29  37
ATOM     37  C24 JJD d   1      -9.929  34.057   0.076  0.00  0.00     0.417 C 
ATOM     38  F25 JJD d   1     -10.156  33.345   1.164  0.00  0.00    -0.166 F 
ATOM     39  F26 JJD d   1     -10.751  35.101  -0.017  0.00  0.00    -0.166 F 
ATOM     40  F27 JJD d   1     -10.066  33.293  -0.998  0.00  0.00    -0.166 F 
ENDBRANCH  29  37
ENDBRANCH  16  27
BRANCH  18  41
ATOM     41  C28 JJD d   1      -4.754  33.413  -1.857  0.00  0.00    -0.036 C 
ATOM     42  H13 JJD d   1      -4.074  32.730  -2.387  0.00  0.00     0.035 H 
ATOM     43  H14 JJD d   1      -5.687  32.884  -1.611  0.00  0.00     0.035 H 
ATOM     44  H15 JJD d   1      -4.274  33.761  -0.930  0.00  0.00     0.035 H 
ENDBRANCH  18  41
BRANCH  19  45
ATOM     45  C15 JJD d   1      -3.581  33.793  -4.634  0.00  0.00     0.156 C 
ATOM     46  O16 JJD d   1      -3.072  32.911  -3.941  0.00  0.00    -0.293 OA
BRANCH  45  47
ATOM     47  C17 JJD d   1      -3.291  33.862  -6.089  0.00  0.00    -0.017 C 
ATOM     48  H6  JJD d   1      -2.559  33.085  -6.354  0.00  0.00     0.038 H 
ATOM     49  H7  JJD d   1      -2.879  34.852  -6.334  0.00  0.00     0.038 H 
ATOM     50  H8  JJD d   1      -4.220  33.700  -6.656  0.00  0.00     0.038 H 
ENDBRANCH  45  47
ENDBRANCH  19  45
ENDBRANCH   1  13
TORSDOF 8
