REMARK  6 active torsions:
REMARK  status: ('A' for Active; 'I' for Inactive)
REMARK    1  A    between atoms: C24_2  and  C20_5 
REMARK    2  A    between atoms: C18_10  and  N4_11 
REMARK    3  A    between atoms: C5_14  and  C28_15 
REMARK    4  A    between atoms: C6_16  and  C15_17 
REMARK    5  A    between atoms: C15_17  and  C17_19 
REMARK    6  A    between atoms: C1_20  and  C7_22 
ROOT
ATOM      1  C7  JJS d   1      -6.050  35.827  -5.664  0.00  0.00    -0.013 A 
ATOM      2  C8  JJS d   1      -5.999  36.527  -6.872  0.00  0.00     0.012 A 
ATOM      3  N9  JJS d   1      -7.062  36.481  -7.793  0.00  0.00    -0.249 NA
ATOM      4  C10 JJS d   1      -8.168  35.689  -7.481  0.00  0.00     0.136 A 
ATOM      5  C13 JJS d   1      -9.142  35.640  -8.330  0.00  0.00     0.119 C 
ATOM      6  N14 JJS d   1     -10.005  35.604  -9.101  0.00  0.00    -0.190 NA
ATOM      7  C11 JJS d   1      -8.209  34.965  -6.283  0.00  0.00    -0.044 A 
ATOM      8  C12 JJS d   1      -7.169  35.035  -5.372  0.00  0.00    -0.070 A 
ATOM      9  H13 JJS d   1      -5.121  37.119  -7.105  0.00  0.00     0.115 H 
ATOM     10  H14 JJS d   1      -9.068  34.340  -6.066  0.00  0.00     0.088 H 
ATOM     11  H15 JJS d   1      -7.220  34.482  -4.441  0.00  0.00     0.084 H 
ENDROOT
BRANCH   1  12
ATOM     12  C1  JJS d   1      -4.910  35.967  -4.702  0.00  0.00     0.071 C 
ATOM     13  C6  JJS d   1      -4.614  34.726  -3.914  0.00  0.00     0.037 C 
ATOM     14  C5  JJS d   1      -5.138  34.592  -2.665  0.00  0.00     0.030 C 
ATOM     15  N4  JJS d   1      -5.916  35.581  -2.127  0.00  0.00    -0.268 N 
ATOM     16  C3  JJS d   1      -5.938  36.823  -2.653  0.00  0.00     0.328 C 
ATOM     17  O29 JJS d   1      -6.558  37.701  -2.083  0.00  0.00    -0.246 OA
ATOM     18  N2  JJS d   1      -5.284  37.074  -3.805  0.00  0.00    -0.329 N 
ATOM     19  H12 JJS d   1      -5.052  38.015  -4.051  0.00  0.00     0.165 HD
ATOM     20  H11 JJS d   1      -4.003  36.236  -5.262  0.00  0.00     0.088 H 
BRANCH  13  21
ATOM     21  C15 JJS d   1      -3.744  33.724  -4.587  0.00  0.00     0.156 C 
ATOM     22  O16 JJS d   1      -3.265  32.774  -3.979  0.00  0.00    -0.293 OA
BRANCH  21  23
ATOM     23  C17 JJS d   1      -3.441  33.897  -6.061  0.00  0.00    -0.017 C 
ATOM     24  H8  JJS d   1      -2.790  33.078  -6.400  0.00  0.00     0.038 H 
ATOM     25  H9  JJS d   1      -2.933  34.859  -6.220  0.00  0.00     0.038 H 
ATOM     26  H10 JJS d   1      -4.380  33.879  -6.633  0.00  0.00     0.038 H 
ENDBRANCH  21  23
ENDBRANCH  13  21
BRANCH  14  27
ATOM     27  C28 JJS d   1      -4.874  33.357  -1.823  0.00  0.00    -0.036 C 
ATOM     28  H5  JJS d   1      -4.239  32.658  -2.386  0.00  0.00     0.035 H 
ATOM     29  H6  JJS d   1      -5.829  32.869  -1.579  0.00  0.00     0.035 H 
ATOM     30  H7  JJS d   1      -4.363  33.649  -0.894  0.00  0.00     0.035 H 
ENDBRANCH  14  27
BRANCH  15  31
ATOM     31  C18 JJS d   1      -6.644  35.396  -0.906  0.00  0.00     0.044 A 
ATOM     32  C23 JJS d   1      -6.095  35.778   0.334  0.00  0.00    -0.057 A 
ATOM     33  C22 JJS d   1      -6.796  35.561   1.522  0.00  0.00    -0.080 A 
ATOM     34  H3  JJS d   1      -5.117  36.246   0.366  0.00  0.00     0.086 H 
ATOM     35  C21 JJS d   1      -8.067  34.983   1.448  0.00  0.00    -0.068 A 
ATOM     36  H2  JJS d   1      -6.365  35.834   2.478  0.00  0.00     0.083 H 
ATOM     37  C20 JJS d   1      -8.638  34.620   0.222  0.00  0.00     0.050 A 
ATOM     38  H1  JJS d   1      -8.624  34.812   2.362  0.00  0.00     0.084 H 
ATOM     39  C19 JJS d   1      -7.927  34.810  -0.955  0.00  0.00    -0.042 A 
ATOM     40  H4  JJS d   1      -8.354  34.510  -1.905  0.00  0.00     0.088 H 
BRANCH  37  41
ATOM     41  C24 JJS d   1     -10.043  34.021   0.174  0.00  0.00     0.417 C 
ATOM     42  F25 JJS d   1     -10.305  33.302   1.254  0.00  0.00    -0.166 F 
ATOM     43  F27 JJS d   1     -10.916  35.011   0.060  0.00  0.00    -0.166 F 
ATOM     44  F26 JJS d   1     -10.192  33.245  -0.868  0.00  0.00    -0.166 F 
ENDBRANCH  37  41
ENDBRANCH  15  31
ENDBRANCH   1  12
TORSDOF 6
