REMARK  9 active torsions:
REMARK  status: ('A' for Active; 'I' for Inactive)
REMARK    1  A    between atoms: N35_3  and  C38_4 
REMARK    2  A    between atoms: C38_4  and  C40_5 
REMARK    3  A    between atoms: C38_4  and  C39_6 
REMARK       I    between atoms: N31_9  and  C30_10 
REMARK    4  A    between atoms: C30_10  and  C29_12 
REMARK    5  A    between atoms: C29_12  and  N12_13 
REMARK    6  A    between atoms: C7_16  and  C3_17 
REMARK    7  A    between atoms: C9_28  and  C22_29 
REMARK    8  A    between atoms: N10_30  and  C13_31 
REMARK    9  A    between atoms: C17_36  and  C23_37 
ROOT
ATOM      1  C3  JJX d   1     -10.650  -2.611  23.986  0.00  0.00    -0.030 A 
ATOM      2  C2  JJX d   1     -11.236  -1.693  24.870  0.00  0.00    -0.073 A 
ATOM      3  C1  JJX d   1     -12.049  -2.105  25.954  0.00  0.00    -0.062 A 
ATOM      4  C6  JJX d   1     -12.292  -3.454  26.148  0.00  0.00     0.044 A 
ATOM      5  C19 JJX d   1     -13.119  -3.840  27.250  0.00  0.00     0.099 C 
ATOM      6  N20 JJX d   1     -13.775  -4.154  28.124  0.00  0.00    -0.191 NA
ATOM      7  C5  JJX d   1     -11.743  -4.417  25.266  0.00  0.00    -0.062 A 
ATOM      8  C4  JJX d   1     -10.923  -3.978  24.208  0.00  0.00    -0.073 A 
ATOM      9  H20 JJX d   1     -11.061  -0.634  24.719  0.00  0.00     0.084 H 
ATOM     10  H21 JJX d   1     -12.477  -1.370  26.626  0.00  0.00     0.085 H 
ATOM     11  H22 JJX d   1     -11.950  -5.472  25.403  0.00  0.00     0.085 H 
ATOM     12  H23 JJX d   1     -10.487  -4.714  23.542  0.00  0.00     0.084 H 
ENDROOT
BRANCH   1  13
ATOM     13  C7  JJX d   1      -9.686  -2.106  22.844  0.00  0.00     0.079 C 
ATOM     14  N12 JJX d   1      -8.553  -3.032  22.960  0.00  0.00    -0.311 N 
ATOM     15  C11 JJX d   1      -8.333  -4.066  22.032  0.00  0.00     0.331 C 
ATOM     16  O21 JJX d   1      -7.410  -4.850  22.269  0.00  0.00    -0.246 OA
ATOM     17  N10 JJX d   1      -9.084  -4.171  20.887  0.00  0.00    -0.267 N 
ATOM     18  C9  JJX d   1     -10.111  -3.221  20.631  0.00  0.00     0.037 C 
ATOM     19  C8  JJX d   1     -10.344  -2.144  21.493  0.00  0.00     0.072 C 
ATOM     20  C27 JJX d   1     -11.370  -1.191  21.242  0.00  0.00     0.099 C 
ATOM     21  N28 JJX d   1     -12.202  -0.433  21.031  0.00  0.00    -0.192 NA
ATOM     22  H19 JJX d   1      -9.359  -1.075  23.043  0.00  0.00     0.089 H 
BRANCH  14  23
ATOM     23  C29 JJX d   1      -7.604  -2.909  24.109  0.00  0.00     0.074 C 
ATOM     24  H17 JJX d   1      -8.162  -2.783  25.049  0.00  0.00     0.079 H 
ATOM     25  H18 JJX d   1      -6.972  -3.807  24.175  0.00  0.00     0.079 H 
BRANCH  23  26
ATOM     26  C30 JJX d   1      -6.707  -1.630  23.831  0.00  0.00     0.237 C 
ATOM     27  N31 JJX d   1      -5.802  -1.182  24.731  0.00  0.00    -0.348 N 
ATOM     28  C33 JJX d   1      -5.614  -1.869  26.052  0.00  0.00     0.020 C 
ATOM     29  C37 JJX d   1      -4.964   0.022  24.511  0.00  0.00     0.020 C 
ATOM     30  C34 JJX d   1      -5.762  -0.878  27.220  0.00  0.00     0.099 C 
ATOM     31  H1  JJX d   1      -6.370  -2.661  26.155  0.00  0.00     0.066 H 
ATOM     32  H2  JJX d   1      -4.609  -2.315  26.085  0.00  0.00     0.066 H 
ATOM     33  N35 JJX d   1      -4.755   0.192  27.019  0.00  0.00    -0.065 N 
ATOM     34  H3  JJX d   1      -5.580  -1.392  28.175  0.00  0.00     0.078 H 
ATOM     35  H4  JJX d   1      -6.774  -0.447  27.222  0.00  0.00     0.078 H 
ATOM     36  C36 JJX d   1      -5.069   0.973  25.766  0.00  0.00     0.099 C 
ATOM     37  H5  JJX d   1      -3.868  -0.253  26.845  0.00  0.00     0.280 HD
ATOM     38  H13 JJX d   1      -4.351   1.800  25.660  0.00  0.00     0.078 H 
ATOM     39  H14 JJX d   1      -6.089   1.379  25.833  0.00  0.00     0.078 H 
ATOM     40  H15 JJX d   1      -3.917  -0.282  24.368  0.00  0.00     0.066 H 
ATOM     41  H16 JJX d   1      -5.317   0.556  23.616  0.00  0.00     0.066 H 
ATOM     42  O32 JJX d   1      -6.823  -1.003  22.767  0.00  0.00    -0.272 OA
BRANCH  33  43
ATOM     43  C38 JJX d   1      -4.593   0.942  28.319  0.00  0.00     0.097 C 
ATOM     44  H6  JJX d   1      -4.565   0.188  29.119  0.00  0.00     0.083 H 
BRANCH  43  45
ATOM     45  C40 JJX d   1      -5.756   1.906  28.660  0.00  0.00    -0.050 C 
ATOM     46  H7  JJX d   1      -5.550   2.404  29.619  0.00  0.00     0.030 H 
ATOM     47  H8  JJX d   1      -6.694   1.336  28.737  0.00  0.00     0.030 H 
ATOM     48  H9  JJX d   1      -5.850   2.662  27.867  0.00  0.00     0.030 H 
ENDBRANCH  43  45
BRANCH  43  49
ATOM     49  C39 JJX d   1      -3.249   1.682  28.335  0.00  0.00    -0.050 C 
ATOM     50  H10 JJX d   1      -3.141   2.225  29.285  0.00  0.00     0.030 H 
ATOM     51  H11 JJX d   1      -3.213   2.396  27.499  0.00  0.00     0.030 H 
ATOM     52  H12 JJX d   1      -2.429   0.956  28.232  0.00  0.00     0.030 H 
ENDBRANCH  43  49
ENDBRANCH  33  43
ENDBRANCH  23  26
ENDBRANCH  14  23
BRANCH  17  53
ATOM     53  C13 JJX d   1      -8.926  -5.290  20.028  0.00  0.00     0.044 A 
ATOM     54  C18 JJX d   1      -9.714  -6.440  20.320  0.00  0.00    -0.042 A 
ATOM     55  C17 JJX d   1      -9.643  -7.598  19.527  0.00  0.00     0.050 A 
ATOM     56  H27 JJX d   1     -10.383  -6.422  21.173  0.00  0.00     0.088 H 
ATOM     57  C16 JJX d   1      -8.764  -7.607  18.460  0.00  0.00    -0.068 A 
ATOM     58  C15 JJX d   1      -8.002  -6.481  18.140  0.00  0.00    -0.080 A 
ATOM     59  H30 JJX d   1      -8.664  -8.505  17.860  0.00  0.00     0.084 H 
ATOM     60  C14 JJX d   1      -8.068  -5.308  18.928  0.00  0.00    -0.057 A 
ATOM     61  H29 JJX d   1      -7.350  -6.506  17.274  0.00  0.00     0.083 H 
ATOM     62  H28 JJX d   1      -7.465  -4.441  18.682  0.00  0.00     0.086 H 
BRANCH  55  63
ATOM     63  C23 JJX d   1     -10.419  -8.906  19.871  0.00  0.00     0.417 C 
ATOM     64  F25 JJX d   1     -10.701  -9.629  18.759  0.00  0.00    -0.166 F 
ATOM     65  F26 JJX d   1     -11.484  -8.654  20.646  0.00  0.00    -0.166 F 
ATOM     66  F24 JJX d   1      -9.613  -9.618  20.642  0.00  0.00    -0.166 F 
ENDBRANCH  55  63
ENDBRANCH  17  53
BRANCH  18  67
ATOM     67  C22 JJX d   1     -10.907  -3.330  19.343  0.00  0.00    -0.036 C 
ATOM     68  H24 JJX d   1     -11.654  -2.524  19.305  0.00  0.00     0.035 H 
ATOM     69  H25 JJX d   1     -11.416  -4.304  19.308  0.00  0.00     0.035 H 
ATOM     70  H26 JJX d   1     -10.227  -3.241  18.483  0.00  0.00     0.035 H 
ENDBRANCH  18  67
ENDBRANCH   1  13
TORSDOF 9
