REMARK  6 active torsions:
REMARK  status: ('A' for Active; 'I' for Inactive)
REMARK    1  A    between atoms: C28_1  and  S26_2 
REMARK    2  A    between atoms: S26_2  and  C4_5 
REMARK    3  A    between atoms: C6_12  and  C22_13 
REMARK    4  A    between atoms: C11_15  and  C25_16 
REMARK    5  A    between atoms: N10_22  and  C12_23 
REMARK    6  A    between atoms: C15_28  and  C18_29 
ROOT
ATOM      1  C4  JJV d   1      23.827  12.339  12.429  0.00  0.00     0.069 A 
ATOM      2  C2  JJV d   1      24.764  12.686  11.434  0.00  0.00    -0.041 A 
ATOM      3  C1  JJV d   1      24.391  12.520  10.100  0.00  0.00     0.046 A 
ATOM      4  C31 JJV d   1      25.241  12.832   9.021  0.00  0.00     0.099 C 
ATOM      5  N30 JJV d   1      25.916  13.052   8.152  0.00  0.00    -0.191 NA
ATOM      6  C3  JJV d   1      23.156  12.031   9.798  0.00  0.00    -0.062 A 
ATOM      7  C5  JJV d   1      22.210  11.749  10.759  0.00  0.00    -0.072 A 
ATOM      8  C6  JJV d   1      22.525  11.907  12.117  0.00  0.00    -0.009 A 
ATOM      9  H4  JJV d   1      25.743  13.070  11.697  0.00  0.00     0.088 H 
ATOM     10  H5  JJV d   1      22.907  11.856   8.758  0.00  0.00     0.085 H 
ATOM     11  H6  JJV d   1      21.224  11.406  10.466  0.00  0.00     0.084 H 
ENDROOT
BRANCH   1  12
ATOM     12  S26 JJV d   1      24.375  12.569  14.112  0.00  0.00     0.172 S 
ATOM     13  O27 JJV d   1      25.764  13.156  14.045  0.00  0.00    -0.223 OA
ATOM     14  O29 JJV d   1      24.808  11.135  14.566  0.00  0.00    -0.223 OA
BRANCH  12  15
ATOM     15  C28 JJV d   1      23.147  12.982  14.997  0.00  0.00     0.020 C 
ATOM     16  H1  JJV d   1      22.810  13.989  14.709  0.00  0.00     0.049 H 
ATOM     17  H2  JJV d   1      23.443  12.983  16.056  0.00  0.00     0.049 H 
ATOM     18  H3  JJV d   1      22.328  12.264  14.846  0.00  0.00     0.049 H 
ENDBRANCH  12  15
ENDBRANCH   1  12
BRANCH   8  19
ATOM     19  C22 JJV d   1      21.356  11.620  13.148  0.00  0.00     0.078 C 
ATOM     20  C9  JJV d   1      20.647  10.291  12.998  0.00  0.00     0.072 C 
ATOM     21  C11 JJV d   1      19.426  10.203  12.439  0.00  0.00     0.037 C 
ATOM     22  C24 JJV d   1      21.435   9.213  13.359  0.00  0.00     0.099 C 
ATOM     23  N10 JJV d   1      18.718  11.316  12.152  0.00  0.00    -0.267 N 
ATOM     24  C8  JJV d   1      19.240  12.595  12.277  0.00  0.00     0.328 C 
ATOM     25  N7  JJV d   1      20.434  12.770  12.889  0.00  0.00    -0.329 N 
ATOM     26  O23 JJV d   1      18.496  13.537  12.037  0.00  0.00    -0.246 OA
ATOM     27  H11 JJV d   1      20.707  13.689  13.175  0.00  0.00     0.165 HD
ATOM     28  N32 JJV d   1      22.068   8.322  13.637  0.00  0.00    -0.192 NA
ATOM     29  H7  JJV d   1      21.752  11.670  14.173  0.00  0.00     0.089 H 
BRANCH  21  30
ATOM     30  C25 JJV d   1      18.777   8.805  12.252  0.00  0.00    -0.036 C 
ATOM     31  H8  JJV d   1      19.499   8.025  12.534  0.00  0.00     0.035 H 
ATOM     32  H9  JJV d   1      18.487   8.673  11.199  0.00  0.00     0.035 H 
ATOM     33  H10 JJV d   1      17.885   8.726  12.891  0.00  0.00     0.035 H 
ENDBRANCH  21  30
BRANCH  23  34
ATOM     34  C12 JJV d   1      17.540  11.266  11.430  0.00  0.00     0.044 C 
ATOM     35  C13 JJV d   1      17.667  11.100  10.056  0.00  0.00    -0.042 C 
ATOM     36  C15 JJV d   1      16.553  11.013   9.195  0.00  0.00     0.050 C 
ATOM     37  H12 JJV d   1      18.661  11.035   9.629  0.00  0.00     0.088 H 
ATOM     38  C17 JJV d   1      15.279  11.152   9.755  0.00  0.00    -0.068 C 
ATOM     39  C16 JJV d   1      15.188  11.389  11.160  0.00  0.00    -0.080 C 
ATOM     40  H15 JJV d   1      14.388  11.082   9.141  0.00  0.00     0.084 H 
ATOM     41  C14 JJV d   1      16.281  11.363  11.982  0.00  0.00    -0.057 C 
ATOM     42  H14 JJV d   1      14.216  11.598  11.592  0.00  0.00     0.083 H 
ATOM     43  H13 JJV d   1      16.158  11.418  13.058  0.00  0.00     0.086 H 
BRANCH  36  44
ATOM     44  C18 JJV d   1      16.710  10.852   7.680  0.00  0.00     0.417 C 
ATOM     45  F20 JJV d   1      15.623  10.257   7.173  0.00  0.00    -0.166 F 
ATOM     46  F21 JJV d   1      16.707  12.002   7.053  0.00  0.00    -0.166 F 
ATOM     47  F19 JJV d   1      17.787  10.210   7.276  0.00  0.00    -0.166 F 
ENDBRANCH  36  44
ENDBRANCH  23  34
ENDBRANCH   8  19
TORSDOF 6
