REMARK WARNING: 32 MAX_TORS EXCEEDED!!!
REMARK  44 active torsions:
REMARK  status: ('A' for Active; 'I' for Inactive)
REMARK    1  A    between atoms: CA_2  and  CB_3 
REMARK    2  A    between atoms: N_6  and  CN_7 
REMARK    3  A    between atoms: CA_8  and  CB_9 
REMARK    4  A    between atoms: CB_9  and  CG_10 
REMARK    5  A    between atoms: CG_10  and  CD1_11 
REMARK    6  A    between atoms: CG_10  and  CD2_12 
REMARK    7  A    between atoms: N_15  and  CN_16 
REMARK    8  A    between atoms: CA_17  and  CB_18 
REMARK    9  A    between atoms: CB_18  and  CG_19 
REMARK   10  A    between atoms: CG_19  and  CD1_20 
REMARK   11  A    between atoms: CG_19  and  CD2_21 
REMARK   12  A    between atoms: N_24  and  CN_25 
REMARK   13  A    between atoms: CA_26  and  CB_27 
REMARK   14  A    between atoms: CB_27  and  CG1_28 
REMARK   15  A    between atoms: CB_27  and  CG2_29 
REMARK   16  A    between atoms: N_33  and  CN_39 
REMARK   17  A    between atoms: CB_36  and  CA_35 
REMARK   18  A    between atoms: CB_36  and  OG1_55 
REMARK   19  A    between atoms: CG2_56  and  CB_36 
REMARK   20  A    between atoms: CE_37  and  CZ_40 
REMARK   21  A    between atoms: CD2_54  and  CE_37 
REMARK   22  A    between atoms: CZ_40  and  CH_38 
REMARK   23  A    between atoms: CH_38  and  CAA_41 
REMARK   24  A    between atoms: CAA_41  and  CAI_49 
REMARK   25  A    between atoms: CAI_49  and  NAL_52 
REMARK   26  A    between atoms: CG2_56  and  CD1_53 
REMARK   27  A    between atoms: CD2_54  and  CG2_56 
REMARK   28  A    between atoms: CA_58  and  CB_61 
REMARK   29  A    between atoms: CB_61  and  CG_62 
REMARK   30  A    between atoms: N_63  and  CN_67 
REMARK   31  A    between atoms: N_68  and  CN_69 
REMARK   32  A    between atoms: CA_70  and  CB_71 
REMARK   33  A    between atoms: CB_71  and  CG_72 
REMARK   34  A    between atoms: CG_72  and  CD1_73 
REMARK   35  A    between atoms: CG_72  and  CD2_74 
REMARK   36  A    between atoms: CA_78  and  CB_81 
REMARK   37  A    between atoms: CB_81  and  CG1_82 
REMARK   38  A    between atoms: CB_81  and  CG2_83 
REMARK   39  A    between atoms: N_84  and  CN_85 
REMARK   40  A    between atoms: CA_86  and  CB_87 
REMARK   41  A    between atoms: CB_87  and  CG_88 
REMARK   42  A    between atoms: CG_88  and  CD1_89 
REMARK   43  A    between atoms: CG_88  and  CD2_90 
REMARK   44  A    between atoms: CA_94  and  CB_97 
ROOT
ATOM      1  N   DAL d   1      -8.467   0.432  26.942  0.00  0.00    -0.077 NA
ATOM      2  CA  DAL d   1      -7.999   0.238  25.568  0.00  0.00     0.245 A 
ATOM      3  C   DAL d   1      -8.002  -1.238  25.315  0.00  0.00     0.274 C 
ATOM      4  O   DAL d   1      -8.984  -1.920  25.653  0.00  0.00    -0.268 OA
ATOM      5  N   MLE d   1      -6.921  -1.751  24.699  0.00  0.00    -0.339 N 
ATOM      6  CA  MLE d   1      -7.001  -3.160  24.250  0.00  0.00     0.092 C 
ATOM      7  C   MLE d   1      -5.752  -3.840  24.775  0.00  0.00     0.243 C 
ATOM      8  O   MLE d   1      -4.851  -4.190  23.987  0.00  0.00    -0.271 OA
ATOM      9  N   MLE d   1      -5.624  -4.054  26.143  0.00  0.00    -0.341 N 
ATOM     10  CA  MLE d   1      -4.431  -4.719  26.592  0.00  0.00     0.091 C 
ATOM     11  C   MLE d   1      -4.720  -6.144  27.129  0.00  0.00     0.243 C 
ATOM     12  O   MLE d   1      -5.905  -6.446  27.285  0.00  0.00    -0.271 OA
ATOM     13  N   MLE d   1      -3.852  -6.143  36.989  0.00  0.00    -0.342 N 
ATOM     14  CA  MLE d   1      -4.356  -4.741  36.832  0.00  0.00     0.091 C 
ATOM     15  C   MLE d   1      -4.945  -4.622  35.460  0.00  0.00     0.241 C 
ATOM     16  O   MLE d   1      -4.194  -4.420  34.496  0.00  0.00    -0.271 OA
ATOM     17  N   MLE d   1      -6.514  -2.983  32.311  0.00  0.00    -0.341 N 
ATOM     18  CA  MLE d   1      -6.398  -1.549  31.943  0.00  0.00     0.091 C 
ATOM     19  C   MLE d   1      -7.345  -1.281  30.730  0.00  0.00     0.241 C 
ATOM     20  O   MLE d   1      -7.951  -2.185  30.148  0.00  0.00    -0.271 OA
ATOM     21  H7  MLE d   1      -7.885  -3.633  24.703  0.00  0.00     0.087 H 
ATOM     22  H20 MLE d   1      -3.753  -4.805  25.730  0.00  0.00     0.087 H 
ATOM     23  H84 MLE d   1      -5.175  -4.611  37.555  0.00  0.00     0.087 H 
ATOM     24 6H10 MLE d   1      -6.734  -0.949  32.801  0.00  0.00     0.087 H 
ATOM     25  N   MVA d   1      -3.713  -7.002  27.339  0.00  0.00    -0.341 N 
ATOM     26  CA  MVA d   1      -4.017  -8.354  27.855  0.00  0.00     0.094 C 
ATOM     27  C   MVA d   1      -3.256  -8.611  29.141  0.00  0.00     0.243 C 
ATOM     28  O   MVA d   1      -2.162  -9.173  29.112  0.00  0.00    -0.271 OA
ATOM     29  H33 MVA d   1      -5.091  -8.378  28.091  0.00  0.00     0.088 H 
ATOM     30  C   AUX d   1      -3.553  -9.224  32.509  0.00  0.00     0.243 C 
ATOM     31  N   AUX d   1      -3.781  -8.147  30.282  0.00  0.00    -0.339 N 
ATOM     32  O   AUX d   1      -4.677  -9.707  32.347  0.00  0.00    -0.271 OA
ATOM     33  CA  AUX d   1      -2.972  -8.229  31.480  0.00  0.00     0.116 C 
ATOM     34  H41 AUX d   1      -1.999  -8.632  31.161  0.00  0.00     0.091 H 
ATOM     35  N   ABA d   1      -2.735  -9.458  33.531  0.00  0.00    -0.346 N 
ATOM     36  CA  ABA d   1      -3.004 -10.493  34.555  0.00  0.00     0.089 C 
ATOM     37  C   ABA d   1      -3.046  -9.834  35.934  0.00  0.00     0.242 C 
ATOM     38  O   ABA d   1      -1.968  -9.831  36.605  0.00  0.00    -0.271 OA
ATOM     39  H69 ABA d   1      -1.902  -8.911  33.611  0.00  0.00     0.163 HD
ATOM     40  H70 ABA d   1      -3.978 -10.964  34.355  0.00  0.00     0.087 H 
ATOM     41  N   SAR d   1      -4.150  -9.141  36.301  0.00  0.00    -0.346 N 
ATOM     42  CA  SAR d   1      -4.206  -8.460  37.629  0.00  0.00     0.071 C 
ATOM     43  C   SAR d   1      -4.598  -7.029  37.515  0.00  0.00     0.238 C 
ATOM     44  O   SAR d   1      -5.752  -6.726  37.949  0.00  0.00    -0.272 OA
ATOM     45  H76 SAR d   1      -3.213  -8.518  38.098  0.00  0.00     0.079 H 
ATOM     46  H77 SAR d   1      -4.941  -8.979  38.262  0.00  0.00     0.079 H 
ATOM     47  N   VAL d   1      -6.264  -4.755  35.311  0.00  0.00    -0.346 N 
ATOM     48  CA  VAL d   1      -6.851  -4.754  34.044  0.00  0.00     0.092 C 
ATOM     49  C   VAL d   1      -7.000  -3.354  33.464  0.00  0.00     0.243 C 
ATOM     50  O   VAL d   1      -7.477  -2.468  34.235  0.00  0.00    -0.271 OA
ATOM     51  H94 VAL d   1      -6.842  -4.857  36.120  0.00  0.00     0.163 HD
ATOM     52  H95 VAL d   1      -6.250  -5.372  33.361  0.00  0.00     0.088 H 
ATOM     53  N   ALA d   1      -7.518   0.002  30.438  0.00  0.00    -0.347 N 
ATOM     54  CA  ALA d   1      -8.316   0.446  29.332  0.00  0.00     0.083 C 
ATOM     55  C   ALA d   1      -7.674   0.204  27.975  0.00  0.00     0.248 C 
ATOM     56  O   ALA d   1      -6.565  -0.212  27.860  0.00  0.00    -0.275 OA
ATOM     57  OXT ALA d   1      -8.245   0.417  26.953  0.00  0.00    -0.253 OA
ATOM     58 6H11 ALA d   1      -7.073   0.688  31.014  0.00  0.00     0.163 HD
ATOM     59 7H11 ALA d   1      -9.256  -0.125  29.351  0.00  0.00     0.086 H 
ENDROOT
BRANCH  33  60
ATOM     60  CB  AUX d   1      -2.675  -6.853  32.164  0.00  0.00     0.067 C 
ATOM     61  H42 AUX d   1      -1.898  -6.979  32.932  0.00  0.00     0.087 H 
BRANCH  60  62
ATOM     62  OG1 AUX d   1      -3.883  -6.433  32.784  0.00  0.00    -0.393 OA
ATOM     63  H67 AUX d   1      -3.744  -5.597  33.213  0.00  0.00     0.210 HD
ENDBRANCH  60  62
BRANCH  60  64
ATOM     64  CG2 AUX d   1      -2.176  -5.859  31.125  0.00  0.00    -0.027 C 
ATOM     65  H68 AUX d   1      -2.957  -5.746  30.359  0.00  0.00     0.043 H 
BRANCH  64  66
ATOM     66  CD1 AUX d   1      -0.918  -6.386  30.431  0.00  0.00    -0.070 C 
ATOM     67  H62 AUX d   1      -0.576  -5.653  29.686  0.00  0.00     0.028 H 
ATOM     68  H63 AUX d   1      -1.147  -7.338  29.930  0.00  0.00     0.028 H 
ATOM     69  H64 AUX d   1      -0.127  -6.546  31.178  0.00  0.00     0.028 H 
ENDBRANCH  64  66
BRANCH  64  70
ATOM     70  CD2 AUX d   1      -1.957  -4.522  31.751  0.00  0.00    -0.045 C 
ATOM     71  H65 AUX d   1      -1.796  -3.788  30.948  0.00  0.00     0.039 H 
ATOM     72  H66 AUX d   1      -2.862  -4.255  32.317  0.00  0.00     0.039 H 
BRANCH  70  73
ATOM     73  CE  AUX d   1      -0.771  -4.460  32.695  0.00  0.00    -0.106 C 
ATOM     74  H43 AUX d   1       0.202  -4.694  32.265  0.00  0.00     0.076 H 
BRANCH  73  75
ATOM     75  CZ  AUX d   1      -0.784  -4.181  33.867  0.00  0.00    -0.106 C 
ATOM     76  H49 AUX d   1      -1.748  -3.974  34.330  0.00  0.00     0.076 H 
BRANCH  75  77
ATOM     77  CH  AUX d   1       0.464  -4.098  34.747  0.00  0.00    -0.049 C 
ATOM     78  H44 AUX d   1       0.468  -5.007  35.366  0.00  0.00     0.038 H 
ATOM     79  H45 AUX d   1       0.331  -3.216  35.392  0.00  0.00     0.038 H 
BRANCH  77  80
ATOM     80  CAA AUX d   1       1.841  -3.984  34.150  0.00  0.00    -0.047 C 
ATOM     81  H50 AUX d   1       2.004  -4.784  33.413  0.00  0.00     0.035 H 
ATOM     82  H51 AUX d   1       2.605  -4.051  34.939  0.00  0.00     0.035 H 
BRANCH  80  83
ATOM     83  CAI AUX d   1       1.899  -2.660  33.491  0.00  0.00    -0.004 C 
ATOM     84  H60 AUX d   1       2.129  -1.917  34.269  0.00  0.00     0.064 H 
ATOM     85  H61 AUX d   1       0.901  -2.457  33.074  0.00  0.00     0.064 H 
BRANCH  83  86
ATOM     86  NAL AUX d   1       2.925  -2.465  32.348  0.00  0.00    -0.377 N 
ATOM     87  CAD AUX d   1       2.528  -2.594  31.061  0.00  0.00     0.010 C 
ATOM     88  CAB AUX d   1       3.429  -2.436  29.956  0.00  0.00    -0.085 C 
ATOM     89  H54 AUX d   1       2.109  -3.607  30.971  0.00  0.00     0.070 H 
ATOM     90  H55 AUX d   1       1.729  -1.852  30.912  0.00  0.00     0.070 H 
ATOM     91  CAC AUX d   1       4.742  -2.098  30.266  0.00  0.00    -0.073 C 
ATOM     92  H52 AUX d   1       3.102  -2.574  28.927  0.00  0.00     0.079 H 
ATOM     93  CAJ AUX d   1       5.143  -1.950  31.594  0.00  0.00    -0.010 A 
ATOM     94  H53 AUX d   1       5.464  -1.948  29.465  0.00  0.00     0.084 H 
ATOM     95  CAG AUX d   1       6.502  -1.576  31.828  0.00  0.00    -0.071 A 
ATOM     96  CAK AUX d   1       4.260  -2.250  32.600  0.00  0.00     0.040 A 
ATOM     97  CAE AUX d   1       6.850  -1.530  33.147  0.00  0.00    -0.082 A 
ATOM     98  H58 AUX d   1       7.197  -1.349  31.027  0.00  0.00     0.084 H 
ATOM     99  CAF AUX d   1       5.979  -1.817  34.170  0.00  0.00    -0.081 A 
ATOM    100  H56 AUX d   1       7.867  -1.252  33.401  0.00  0.00     0.083 H 
ATOM    101  CAH AUX d   1       4.644  -2.131  33.941  0.00  0.00    -0.057 A 
ATOM    102  H57 AUX d   1       6.345  -1.798  35.190  0.00  0.00     0.083 H 
ATOM    103  H59 AUX d   1       3.941  -2.275  34.754  0.00  0.00     0.086 H 
ENDBRANCH  83  86
ENDBRANCH  80  83
ENDBRANCH  77  80
ENDBRANCH  75  77
ENDBRANCH  73  75
ENDBRANCH  70  73
ENDBRANCH  64  70
ENDBRANCH  60  64
ENDBRANCH  33  60
BRANCH  31 104
ATOM    104  CN  AUX d   1      -5.175  -7.611  30.358  0.00  0.00    -0.015 C 
ATOM    105  H46 AUX d   1      -5.629  -7.626  29.356  0.00  0.00     0.056 H 
ATOM    106  H47 AUX d   1      -5.151  -6.578  30.734  0.00  0.00     0.056 H 
ATOM    107  H48 AUX d   1      -5.771  -8.235  31.040  0.00  0.00     0.056 H 
ENDBRANCH  31 104
BRANCH  36 108
ATOM    108  CB  ABA d   1      -1.939 -11.530  34.477  0.00  0.00    -0.041 C 
ATOM    109  H71 ABA d   1      -2.119 -12.274  35.267  0.00  0.00     0.036 H 
ATOM    110  H72 ABA d   1      -0.967 -11.044  34.646  0.00  0.00     0.036 H 
BRANCH 108 111
ATOM    111  CG  ABA d   1      -1.893 -12.233  33.169  0.00  0.00    -0.074 C 
ATOM    112  H73 ABA d   1      -1.087 -12.981  33.183  0.00  0.00     0.027 H 
ATOM    113  H74 ABA d   1      -1.703 -11.504  32.367  0.00  0.00     0.027 H 
ATOM    114  H75 ABA d   1      -2.855 -12.734  32.988  0.00  0.00     0.027 H 
ENDBRANCH 108 111
ENDBRANCH  36 108
BRANCH  26 115
ATOM    115  CB  MVA d   1      -3.752  -9.477  26.829  0.00  0.00    -0.033 C 
ATOM    116  H34 MVA d   1      -2.670  -9.659  26.751  0.00  0.00     0.042 H 
BRANCH 115 117
ATOM    117  CG1 MVA d   1      -4.442 -10.718  27.376  0.00  0.00    -0.071 C 
ATOM    118  H35 MVA d   1      -4.288 -11.559  26.683  0.00  0.00     0.028 H 
ATOM    119  H36 MVA d   1      -5.519 -10.522  27.481  0.00  0.00     0.028 H 
ATOM    120  H37 MVA d   1      -4.018 -10.970  28.359  0.00  0.00     0.028 H 
ENDBRANCH 115 117
BRANCH 115 121
ATOM    121  CG2 MVA d   1      -4.283  -9.109  25.452  0.00  0.00    -0.071 C 
ATOM    122  H38 MVA d   1      -3.764  -8.210  25.087  0.00  0.00     0.028 H 
ATOM    123  H39 MVA d   1      -5.363  -8.908  25.517  0.00  0.00     0.028 H 
ATOM    124  H40 MVA d   1      -4.106  -9.942  24.756  0.00  0.00     0.028 H 
ENDBRANCH 115 121
ENDBRANCH  26 115
BRANCH  25 125
ATOM    125  CN  MVA d   1      -2.311  -6.756  26.989  0.00  0.00    -0.015 C 
ATOM    126  H30 MVA d   1      -2.201  -5.726  26.619  0.00  0.00     0.056 H 
ATOM    127  H31 MVA d   1      -1.999  -7.462  26.206  0.00  0.00     0.056 H 
ATOM    128  H32 MVA d   1      -1.681  -6.895  27.880  0.00  0.00     0.056 H 
ENDBRANCH  25 125
BRANCH  41 129
ATOM    129  CN  SAR d   1      -5.355  -8.952  35.505  0.00  0.00    -0.015 C 
ATOM    130  H78 SAR d   1      -5.246  -9.477  34.545  0.00  0.00     0.056 H 
ATOM    131  H79 SAR d   1      -5.508  -7.878  35.320  0.00  0.00     0.056 H 
ATOM    132  H80 SAR d   1      -6.221  -9.357  36.049  0.00  0.00     0.056 H 
ENDBRANCH  41 129
BRANCH  10 133
ATOM    133  CB  MLE d   1      -3.712  -3.923  27.698  0.00  0.00    -0.035 C 
ATOM    134  H21 MLE d   1      -2.796  -4.454  27.996  0.00  0.00     0.037 H 
ATOM    135  H22 MLE d   1      -4.377  -3.821  28.569  0.00  0.00     0.037 H 
BRANCH 133 136
ATOM    136  CG  MLE d   1      -3.348  -2.534  27.167  0.00  0.00    -0.059 C 
ATOM    137  H23 MLE d   1      -4.279  -2.003  26.919  0.00  0.00     0.038 H 
BRANCH 136 138
ATOM    138  CD1 MLE d   1      -2.438  -2.478  25.946  0.00  0.00    -0.073 C 
ATOM    139  H24 MLE d   1      -2.257  -1.428  25.671  0.00  0.00     0.028 H 
ATOM    140  H25 MLE d   1      -2.920  -2.999  25.106  0.00  0.00     0.028 H 
ATOM    141  H26 MLE d   1      -1.480  -2.966  26.180  0.00  0.00     0.028 H 
ENDBRANCH 136 138
BRANCH 136 142
ATOM    142  CD2 MLE d   1      -2.624  -1.824  28.335  0.00  0.00    -0.073 C 
ATOM    143  H27 MLE d   1      -3.261  -1.850  29.231  0.00  0.00     0.028 H 
ATOM    144  H28 MLE d   1      -2.422  -0.778  28.060  0.00  0.00     0.028 H 
ATOM    145  H29 MLE d   1      -1.675  -2.338  28.545  0.00  0.00     0.028 H 
ENDBRANCH 136 142
ENDBRANCH 133 136
ENDBRANCH  10 133
BRANCH   9 146
ATOM    146  CN  MLE d   1      -6.618  -3.597  27.120  0.00  0.00    -0.015 C 
ATOM    147  H17 MLE d   1      -7.455  -3.115  26.593  0.00  0.00     0.056 H 
ATOM    148  H18 MLE d   1      -6.152  -2.875  27.806  0.00  0.00     0.056 H 
ATOM    149  H19 MLE d   1      -6.992  -4.458  27.693  0.00  0.00     0.056 H 
ENDBRANCH   9 146
BRANCH  13 150
ATOM    150  CN  MLE d   1      -2.550  -6.509  36.362  0.00  0.00    -0.015 C 
ATOM    151  H81 MLE d   1      -2.327  -7.566  36.570  0.00  0.00     0.056 H 
ATOM    152  H82 MLE d   1      -1.752  -5.877  36.779  0.00  0.00     0.056 H 
ATOM    153  H83 MLE d   1      -2.610  -6.354  35.275  0.00  0.00     0.056 H 
ENDBRANCH  13 150
BRANCH  14 154
ATOM    154  CB  MLE d   1      -3.366  -3.669  37.139  0.00  0.00    -0.035 C 
ATOM    155  H85 MLE d   1      -3.868  -2.693  37.065  0.00  0.00     0.037 H 
ATOM    156  H86 MLE d   1      -2.551  -3.719  36.402  0.00  0.00     0.037 H 
BRANCH 154 157
ATOM    157  CG  MLE d   1      -2.777  -3.808  38.525  0.00  0.00    -0.059 C 
ATOM    158  H87 MLE d   1      -2.181  -4.733  38.539  0.00  0.00     0.038 H 
BRANCH 157 159
ATOM    159  CD1 MLE d   1      -3.855  -3.935  39.626  0.00  0.00    -0.073 C 
ATOM    160  H88 MLE d   1      -3.367  -4.033  40.607  0.00  0.00     0.028 H 
ATOM    161  H89 MLE d   1      -4.473  -4.825  39.434  0.00  0.00     0.028 H 
ATOM    162  H90 MLE d   1      -4.492  -3.038  39.621  0.00  0.00     0.028 H 
ENDBRANCH 157 159
BRANCH 157 163
ATOM    163  CD2 MLE d   1      -1.839  -2.640  38.826  0.00  0.00    -0.073 C 
ATOM    164  H91 MLE d   1      -1.080  -2.566  38.033  0.00  0.00     0.028 H 
ATOM    165  H92 MLE d   1      -1.343  -2.808  39.794  0.00  0.00     0.028 H 
ATOM    166  H93 MLE d   1      -2.418  -1.706  38.868  0.00  0.00     0.028 H 
ENDBRANCH 157 163
ENDBRANCH 154 157
ENDBRANCH  14 154
BRANCH   6 167
ATOM    167  CB  MLE d   1      -7.136  -3.275  22.722  0.00  0.00    -0.035 C 
ATOM    168  H8  MLE d   1      -7.100  -4.341  22.453  0.00  0.00     0.037 H 
ATOM    169  H9  MLE d   1      -6.285  -2.752  22.262  0.00  0.00     0.037 H 
BRANCH 167 170
ATOM    170  CG  MLE d   1      -8.425  -2.683  22.151  0.00  0.00    -0.059 C 
ATOM    171  H10 MLE d   1      -8.476  -1.634  22.479  0.00  0.00     0.038 H 
BRANCH 170 172
ATOM    172  CD1 MLE d   1      -9.691  -3.357  22.644  0.00  0.00    -0.073 C 
ATOM    173  H11 MLE d   1     -10.566  -2.872  22.187  0.00  0.00     0.028 H 
ATOM    174  H12 MLE d   1      -9.752  -3.267  23.739  0.00  0.00     0.028 H 
ATOM    175  H13 MLE d   1      -9.673  -4.421  22.364  0.00  0.00     0.028 H 
ENDBRANCH 170 172
BRANCH 170 176
ATOM    176  CD2 MLE d   1      -8.337  -2.692  20.562  0.00  0.00    -0.073 C 
ATOM    177  H14 MLE d   1      -7.408  -2.196  20.243  0.00  0.00     0.028 H 
ATOM    178  H15 MLE d   1      -9.201  -2.155  20.144  0.00  0.00     0.028 H 
ATOM    179  H16 MLE d   1      -8.341  -3.731  20.200  0.00  0.00     0.028 H 
ENDBRANCH 170 176
ENDBRANCH 167 170
ENDBRANCH   6 167
BRANCH   5 180
ATOM    180  CN  MLE d   1      -5.732  -0.960  24.232  0.00  0.00    -0.015 C 
ATOM    181  H4  MLE d   1      -5.792   0.063  24.632  0.00  0.00     0.056 H 
ATOM    182  H5  MLE d   1      -5.724  -0.924  23.133  0.00  0.00     0.056 H 
ATOM    183  H6  MLE d   1      -4.809  -1.440  24.589  0.00  0.00     0.056 H 
ENDBRANCH   5 180
BRANCH  48 184
ATOM    184  CB  VAL d   1      -8.243  -5.325  34.195  0.00  0.00    -0.033 C 
ATOM    185  H96 VAL d   1      -8.784  -4.665  34.889  0.00  0.00     0.042 H 
BRANCH 184 186
ATOM    186  CG1 VAL d   1      -8.983  -5.304  32.868  0.00  0.00    -0.071 C 
ATOM    187  H97 VAL d   1      -9.991  -5.723  33.004  0.00  0.00     0.028 H 
ATOM    188  H98 VAL d   1      -8.431  -5.906  32.131  0.00  0.00     0.028 H 
ATOM    189  H99 VAL d   1      -9.063  -4.267  32.509  0.00  0.00     0.028 H 
ENDBRANCH 184 186
BRANCH 184 190
ATOM    190  CG2 VAL d   1      -8.284  -6.692  34.776  0.00  0.00    -0.071 C 
ATOM    191 0H10 VAL d   1      -7.747  -6.699  35.736  0.00  0.00     0.028 H 
ATOM    192 1H10 VAL d   1      -7.806  -7.399  34.083  0.00  0.00     0.028 H 
ATOM    193 2H10 VAL d   1      -9.330  -6.990  34.940  0.00  0.00     0.028 H 
ENDBRANCH 184 190
ENDBRANCH  48 184
BRANCH   2 194
ATOM    194  CB  DAL d   1      -8.877   0.999  24.618  0.00  0.00    -0.022 C 
ATOM    195  H1  DAL d   1      -8.520   0.849  23.588  0.00  0.00     0.034 H 
ATOM    196  H2  DAL d   1      -8.843   2.070  24.865  0.00  0.00     0.034 H 
ATOM    197  H3  DAL d   1      -9.912   0.636  24.704  0.00  0.00     0.034 H 
ENDBRANCH   2 194
BRANCH  17 198
ATOM    198  CN  MLE d   1      -5.966  -3.992  31.364  0.00  0.00    -0.015 C 
ATOM    199 3H10 MLE d   1      -6.125  -5.001  31.771  0.00  0.00     0.056 H 
ATOM    200 4H10 MLE d   1      -4.889  -3.818  31.226  0.00  0.00     0.056 H 
ATOM    201 5H10 MLE d   1      -6.479  -3.902  30.395  0.00  0.00     0.056 H 
ENDBRANCH  17 198
BRANCH  18 202
ATOM    202  CB  MLE d   1      -4.960  -1.093  31.577  0.00  0.00    -0.035 C 
ATOM    203 7H10 MLE d   1      -4.945  -0.004  31.426  0.00  0.00     0.037 H 
ATOM    204 8H10 MLE d   1      -4.636  -1.596  30.654  0.00  0.00     0.037 H 
BRANCH 202 205
ATOM    205  CG  MLE d   1      -4.002  -1.472  32.742  0.00  0.00    -0.059 C 
ATOM    206 9H10 MLE d   1      -4.064  -2.563  32.865  0.00  0.00     0.038 H 
BRANCH 205 207
ATOM    207  CD1 MLE d   1      -4.356  -0.885  34.046  0.00  0.00    -0.073 C 
ATOM    208 0H11 MLE d   1      -3.626  -1.207  34.803  0.00  0.00     0.028 H 
ATOM    209 1H11 MLE d   1      -5.361  -1.222  34.339  0.00  0.00     0.028 H 
ATOM    210 2H11 MLE d   1      -4.345   0.212  33.969  0.00  0.00     0.028 H 
ENDBRANCH 205 207
BRANCH 205 211
ATOM    211  CD2 MLE d   1      -2.575  -1.138  32.344  0.00  0.00    -0.073 C 
ATOM    212 3H11 MLE d   1      -2.350  -1.593  31.368  0.00  0.00     0.028 H 
ATOM    213 4H11 MLE d   1      -1.881  -1.533  33.101  0.00  0.00     0.028 H 
ATOM    214 5H11 MLE d   1      -2.460  -0.046  32.275  0.00  0.00     0.028 H 
ENDBRANCH 205 211
ENDBRANCH 202 205
ENDBRANCH  18 202
BRANCH  54 215
ATOM    215  CB  ALA d   1      -8.659   1.936  29.533  0.00  0.00    -0.050 C 
ATOM    216 8H11 ALA d   1      -9.272   2.288  28.690  0.00  0.00     0.030 H 
ATOM    217 9H11 ALA d   1      -7.730   2.523  29.581  0.00  0.00     0.030 H 
ATOM    218 0H12 ALA d   1      -9.220   2.060  30.471  0.00  0.00     0.030 H 
ENDBRANCH  54 215
TORSDOF 44
