REMARK  9 active torsions:
REMARK  status: ('A' for Active; 'I' for Inactive)
REMARK    1  A    between atoms: N20_36  and  C04_3 
REMARK    2  A    between atoms: C07_5  and  O08_6 
REMARK    3  A    between atoms: O08_6  and  C09_7 
REMARK    4  A    between atoms: C13_11  and  N17_12 
REMARK       I    between atoms: C18_13  and  N19_14 
REMARK       I    between atoms: C18_13  and  N20_36 
REMARK    5  A    between atoms: N19_14  and  C20_15 
REMARK    6  A    between atoms: C23_18  and  C30_25 
REMARK    7  A    between atoms: C24_19  and  C25_20 
REMARK    8  A    between atoms: C30_25  and  N31_26 
REMARK    9  A    between atoms: N34_30  and  C37_34 
ROOT
ATOM      1  C20 LQ5 d   1      30.524   3.392  12.312  0.00  0.00     0.037 A 
ATOM      2  C21 LQ5 d   1      31.551   3.213  13.264  0.00  0.00    -0.057 A 
ATOM      3  C22 LQ5 d   1      31.221   2.716  14.525  0.00  0.00    -0.072 A 
ATOM      4  C23 LQ5 d   1      29.885   2.430  14.868  0.00  0.00    -0.017 A 
ATOM      5  C24 LQ5 d   1      28.849   2.627  13.914  0.00  0.00     0.058 A 
ATOM      6  C29 LQ5 d   1      29.181   3.110  12.647  0.00  0.00    -0.042 A 
ATOM      7  H9  LQ5 d   1      32.578   3.458  13.019  0.00  0.00     0.086 H 
ATOM      8  H10 LQ5 d   1      32.006   2.547  15.253  0.00  0.00     0.084 H 
ATOM      9  H11 LQ5 d   1      28.400   3.270  11.912  0.00  0.00     0.088 H 
ENDROOT
BRANCH   1  10
ATOM     10  N19 LQ5 d   1      30.913   3.927  11.067  0.00  0.00    -0.309 N 
ATOM     11  C18 LQ5 d   1      30.113   4.656  10.262  0.00  0.00     0.325 C 
ATOM     12  O39 LQ5 d   1      28.919   4.866  10.511  0.00  0.00    -0.247 OA
ATOM     13  N20 LQ5 d   1      30.720   5.171   9.175  0.00  0.00    -0.309 N 
ATOM     14  H28 LQ5 d   1      31.704   5.016   9.085  0.00  0.00     0.170 HD
ATOM     15  H8  LQ5 d   1      31.848   3.754  10.759  0.00  0.00     0.170 HD
BRANCH  13  16
ATOM     16  C04 LQ5 d   1      30.088   5.912   8.150  0.00  0.00     0.036 A 
ATOM     17  C03 LQ5 d   1      30.733   5.991   6.900  0.00  0.00    -0.054 A 
ATOM     18  C02 LQ5 d   1      30.151   6.671   5.840  0.00  0.00    -0.048 A 
ATOM     19  H2  LQ5 d   1      31.697   5.514   6.765  0.00  0.00     0.087 H 
ATOM     20  C07 LQ5 d   1      28.925   7.294   6.053  0.00  0.00     0.078 A 
ATOM     21  H1  LQ5 d   1      30.638   6.716   4.872  0.00  0.00     0.087 H 
ATOM     22  C06 LQ5 d   1      28.264   7.234   7.292  0.00  0.00    -0.048 A 
ATOM     23  C26 LQ5 d   1      28.852   6.529   8.347  0.00  0.00    -0.054 A 
ATOM     24  H3  LQ5 d   1      27.309   7.729   7.428  0.00  0.00     0.087 H 
ATOM     25  H20 LQ5 d   1      28.353   6.463   9.307  0.00  0.00     0.087 H 
BRANCH  20  26
ATOM     26  O08 LQ5 d   1      28.348   7.994   5.004  0.00  0.00    -0.291 OA
BRANCH  26  27
ATOM     27  C09 LQ5 d   1      27.216   7.473   4.394  0.00  0.00     0.190 A 
ATOM     28  C10 LQ5 d   1      26.881   6.102   4.406  0.00  0.00    -0.013 A 
ATOM     29  C11 LQ5 d   1      25.718   5.707   3.728  0.00  0.00     0.025 A 
ATOM     30  H4  LQ5 d   1      27.502   5.378   4.922  0.00  0.00     0.092 H 
ATOM     31  N12 LQ5 d   1      24.979   6.669   3.101  0.00  0.00    -0.075 NA
ATOM     32  H5  LQ5 d   1      25.414   4.667   3.703  0.00  0.00     0.115 H 
ATOM     33  C13 LQ5 d   1      25.333   7.974   3.110  0.00  0.00     0.722 A 
ATOM     34  N30 LQ5 d   1      26.448   8.370   3.752  0.00  0.00    -0.038 NA
BRANCH  33  35
ATOM     35  N17 LQ5 d   1      24.595   8.918   2.504  0.00  0.00    -0.231 N 
ATOM     36  H6  LQ5 d   1      23.735   8.656   2.002  0.00  0.00     0.174 HD
ATOM     37  H7  LQ5 d   1      24.889   9.904   2.541  0.00  0.00     0.174 HD
ENDBRANCH  33  35
ENDBRANCH  26  27
ENDBRANCH  20  26
ENDBRANCH  13  16
ENDBRANCH   1  10
BRANCH   5  38
ATOM     38  C25 LQ5 d   1      27.368   2.334  14.243  0.00  0.00     0.418 C 
ATOM     39  F26 LQ5 d   1      26.913   3.215  15.170  0.00  0.00    -0.166 F 
ATOM     40  F27 LQ5 d   1      27.260   1.067  14.708  0.00  0.00    -0.166 F 
ATOM     41  F28 LQ5 d   1      26.529   2.470  13.200  0.00  0.00    -0.166 F 
ENDBRANCH   5  38
BRANCH   4  42
ATOM     42  C30 LQ5 d   1      29.634   1.880  16.304  0.00  0.00     0.108 C 
ATOM     43  H12 LQ5 d   1      29.994   0.842  16.350  0.00  0.00     0.083 H 
ATOM     44  H13 LQ5 d   1      28.553   1.902  16.504  0.00  0.00     0.083 H 
BRANCH  42  45
ATOM     45  N31 LQ5 d   1      30.326   2.668  17.355  0.00  0.00    -0.064 N 
ATOM     46  C32 LQ5 d   1      29.987   4.124  17.473  0.00  0.00     0.106 C 
ATOM     47  C33 LQ5 d   1      31.000   4.783  18.451  0.00  0.00     0.105 C 
ATOM     48  H15 LQ5 d   1      28.965   4.238  17.864  0.00  0.00     0.078 H 
ATOM     49  H16 LQ5 d   1      30.058   4.604  16.486  0.00  0.00     0.078 H 
ATOM     50  N34 LQ5 d   1      31.000   4.068  19.769  0.00  0.00    -0.072 N 
ATOM     51  H17 LQ5 d   1      30.718   5.834  18.610  0.00  0.00     0.078 H 
ATOM     52  H18 LQ5 d   1      32.008   4.736  18.014  0.00  0.00     0.078 H 
ATOM     53  C35 LQ5 d   1      31.427   2.655  19.599  0.00  0.00     0.105 C 
ATOM     54  H19 LQ5 d   1      30.060   4.069  20.134  0.00  0.00     0.279 HD
ATOM     55  C36 LQ5 d   1      30.421   1.937  18.655  0.00  0.00     0.106 C 
ATOM     56  H21 LQ5 d   1      31.439   2.152  20.577  0.00  0.00     0.078 H 
ATOM     57  H22 LQ5 d   1      32.434   2.624  19.158  0.00  0.00     0.078 H 
ATOM     58  H23 LQ5 d   1      30.766   0.909  18.470  0.00  0.00     0.078 H 
ATOM     59  H24 LQ5 d   1      29.430   1.911  19.131  0.00  0.00     0.078 H 
ATOM     60  H14 LQ5 d   1      31.279   2.692  17.028  0.00  0.00     0.280 HD
BRANCH  50  61
ATOM     61  C37 LQ5 d   1      31.877   4.796  20.732  0.00  0.00     0.066 C 
ATOM     62  H25 LQ5 d   1      31.530   5.835  20.831  0.00  0.00     0.068 H 
ATOM     63  H26 LQ5 d   1      32.913   4.789  20.362  0.00  0.00     0.068 H 
ATOM     64  H27 LQ5 d   1      31.835   4.301  21.713  0.00  0.00     0.068 H 
ENDBRANCH  50  61
ENDBRANCH  42  45
ENDBRANCH   4  42
TORSDOF 9
