REMARK  20 active torsions:
REMARK  status: ('A' for Active; 'I' for Inactive)
REMARK    1  A    between atoms: N_1  and  CA_2 
REMARK    2  A    between atoms: CA_2  and  C_3 
REMARK    3  A    between atoms: CA_2  and  CB_5 
REMARK       I    between atoms: C_3  and  N_6 
REMARK    4  A    between atoms: CA_7  and  C_8 
REMARK       I    between atoms: C_8  and  N_13 
REMARK    5  A    between atoms: N_13  and  CA_14 
REMARK    6  A    between atoms: CA_14  and  C_15 
REMARK    7  A    between atoms: CA_14  and  CB_17 
REMARK       I    between atoms: C_15  and  N_21 
REMARK    8  A    between atoms: CB_17  and  CG_18 
REMARK    9  A    between atoms: N_21  and  CA_22 
REMARK   10  A    between atoms: CA_22  and  C_23 
REMARK   11  A    between atoms: CA_22  and  CB_25 
REMARK       I    between atoms: C_23  and  N_28 
REMARK   12  A    between atoms: CB_25  and  OG1_26 
REMARK   13  A    between atoms: CB_25  and  CG2_27 
REMARK   14  A    between atoms: N_28  and  CA_29 
REMARK   15  A    between atoms: CA_29  and  C_30 
REMARK   16  A    between atoms: CA_29  and  CB_32 
REMARK       I    between atoms: C_30  and  N_39 
REMARK   17  A    between atoms: CB_32  and  CG_33 
REMARK   18  A    between atoms: CG_33  and  CD_34 
REMARK   19  A    between atoms: CD_34  and  NE_35 
REMARK       I    between atoms: NE_35  and  CZ_36 
REMARK       I    between atoms: CZ_36  and  NH1_37 
REMARK   20  A    between atoms: CA_40  and  C_41 
ROOT
ATOM      1  CA  THR d   1      -3.691   7.395   9.109  0.00  0.00     0.113 C 
ATOM      2  H20 THR d   1      -2.693   6.995   8.877  0.00  0.00     0.091 H 
ENDROOT
BRANCH   1   3
ATOM      3  N   THR d   1      -4.153   6.754  10.340  0.00  0.00    -0.344 N 
ATOM      4  C   ASP d   1      -3.298   6.249  11.231  0.00  0.00     0.241 C 
ATOM      5  O   ASP d   1      -2.077   6.318  11.111  0.00  0.00    -0.271 OA
ATOM      6  H19 THR d   1      -5.135   6.693  10.518  0.00  0.00     0.163 HD
BRANCH   4   7
ATOM      7  CA  ASP d   1      -3.921   5.586  12.463  0.00  0.00     0.098 C 
ATOM      8  H16 ASP d   1      -4.975   5.890  12.541  0.00  0.00     0.088 H 
BRANCH   7   9
ATOM      9  N   ASP d   1      -3.865   4.139  12.312  0.00  0.00    -0.346 N 
ATOM     10  C   PRO d   1      -4.705   3.496  11.503  0.00  0.00     0.241 C 
ATOM     11  O   PRO d   1      -5.573   4.084  10.839  0.00  0.00    -0.271 OA
ATOM     12  H15 ASP d   1      -3.183   3.618  12.825  0.00  0.00     0.163 HD
BRANCH  10  13
ATOM     13  CA  PRO d   1      -4.636   1.968  11.419  0.00  0.00     0.091 C 
ATOM     14  N   PRO d   1      -5.211   1.516  10.159  0.00  0.00    -0.337 N 
ATOM     15  C   ALA d   1      -6.514   1.392  10.009  0.00  0.00     0.250 C 
ATOM     16  CD  PRO d   1      -4.161   1.250   9.155  0.00  0.00    -0.001 C 
ATOM     17  O   ALA d   1      -7.311   1.492  10.885  0.00  0.00    -0.271 OA
ATOM     18  CG  PRO d   1      -2.883   1.542   9.891  0.00  0.00    -0.048 C 
ATOM     19  H13 PRO d   1      -4.273   1.913   8.285  0.00  0.00     0.064 H 
ATOM     20  H14 PRO d   1      -4.192   0.202   8.823  0.00  0.00     0.064 H 
ATOM     21  CB  PRO d   1      -3.214   1.441  11.344  0.00  0.00    -0.036 C 
ATOM     22  H11 PRO d   1      -2.111   0.806   9.623  0.00  0.00     0.035 H 
ATOM     23  H12 PRO d   1      -2.525   2.554   9.650  0.00  0.00     0.035 H 
ATOM     24  H9  PRO d   1      -3.163   0.397  11.688  0.00  0.00     0.036 H 
ATOM     25  H10 PRO d   1      -2.533   2.060  11.947  0.00  0.00     0.036 H 
ATOM     26  H8  PRO d   1      -5.166   1.533  12.279  0.00  0.00     0.087 H 
BRANCH  15  27
ATOM     27  CA  ALA d   1      -6.989   1.082   8.603  0.00  0.00     0.172 C 
ATOM     28  H4  ALA d   1      -6.305   0.357   8.137  0.00  0.00     0.098 H 
BRANCH  27  29
ATOM     29  N   ALA d   1      -8.339   0.527   8.626  0.00  0.00    -0.067 N 
ATOM     30  H1  ALA d   1      -8.636   0.328   7.684  0.00  0.00     0.275 HD
ATOM     31  H2  ALA d   1      -8.969   1.194   9.043  0.00  0.00     0.275 HD
ATOM     32  H3  ALA d   1      -8.343  -0.324   9.167  0.00  0.00     0.275 HD
ENDBRANCH  27  29
BRANCH  27  33
ATOM     33  CB  ALA d   1      -6.999   2.369   7.798  0.00  0.00    -0.042 C 
ATOM     34  H5  ALA d   1      -5.985   2.795   7.775  0.00  0.00     0.030 H 
ATOM     35  H6  ALA d   1      -7.688   3.088   8.265  0.00  0.00     0.030 H 
ATOM     36  H7  ALA d   1      -7.331   2.157   6.771  0.00  0.00     0.030 H 
ENDBRANCH  27  33
ENDBRANCH  15  27
ENDBRANCH  10  13
ENDBRANCH   7   9
BRANCH   7  37
ATOM     37  CB  ASP d   1      -3.187   6.056  13.709  0.00  0.00     0.043 C 
ATOM     38  H17 ASP d   1      -2.107   5.922  13.550  0.00  0.00     0.052 H 
ATOM     39  H18 ASP d   1      -3.512   5.439  14.560  0.00  0.00     0.052 H 
BRANCH  37  40
ATOM     40  CG  ASP d   1      -3.446   7.500  14.040  0.00  0.00     0.175 C 
ATOM     41  OD1 ASP d   1      -4.203   8.194  13.306  0.00  0.00    -0.648 OA
ATOM     42  OD2 ASP d   1      -2.877   7.964  15.049  0.00  0.00    -0.648 OA
ENDBRANCH  37  40
ENDBRANCH   7  37
ENDBRANCH   4   7
ENDBRANCH   1   3
BRANCH   1  43
ATOM     43  C   THR d   1      -3.570   8.914   9.238  0.00  0.00     0.243 C 
ATOM     44  O   THR d   1      -3.311   9.619   8.239  0.00  0.00    -0.271 OA
ATOM     45  N   ARG d   1      -3.709   9.457  10.440  0.00  0.00    -0.346 N 
ATOM     46  H26 ARG d   1      -3.903   8.887  11.239  0.00  0.00     0.163 HD
BRANCH  45  47
ATOM     47  CA  ARG d   1      -3.573  10.907  10.572  0.00  0.00     0.089 C 
ATOM     48  H27 ARG d   1      -4.256  11.395   9.862  0.00  0.00     0.087 H 
BRANCH  47  49
ATOM     49  C   ARG d   1      -2.131  11.302  10.238  0.00  0.00     0.243 C 
ATOM     50  O   ARG d   1      -1.187  10.716  10.767  0.00  0.00    -0.271 OA
ATOM     51  N   PRO d   1      -1.951  12.290   9.337  0.00  0.00    -0.336 N 
ATOM     52  CA  PRO d   1      -0.588  12.677   8.996  0.00  0.00     0.098 C 
ATOM     53  CD  PRO d   1      -2.965  12.980   8.513  0.00  0.00    -0.001 C 
ATOM     54  CB  PRO d   1      -0.791  13.894   8.088  0.00  0.00    -0.035 C 
ATOM     55  H39 PRO d   1      -0.075  11.865   8.459  0.00  0.00     0.089 H 
ATOM     56  CG  PRO d   1      -2.136  13.686   7.462  0.00  0.00    -0.048 C 
ATOM     57  H40 PRO d   1      -0.008  13.937   7.317  0.00  0.00     0.036 H 
ATOM     58  H41 PRO d   1      -0.777  14.823   8.677  0.00  0.00     0.036 H 
ATOM     59  H42 PRO d   1      -2.048  13.063   6.559  0.00  0.00     0.035 H 
ATOM     60  H43 PRO d   1      -2.591  14.652   7.198  0.00  0.00     0.035 H 
ATOM     61  H44 PRO d   1      -3.537  13.702   9.114  0.00  0.00     0.064 H 
ATOM     62  H45 PRO d   1      -3.655  12.259   8.052  0.00  0.00     0.064 H 
BRANCH  52  63
ATOM     63  C   PRO d   1       0.233  13.060  10.245  0.00  0.00     0.196 C 
ATOM     64  O   PRO d   1      -0.285  13.781  11.086  0.00  0.00    -0.646 OA
ATOM     65  OXT PRO d   1       1.373  12.629  10.350  0.00  0.00    -0.646 OA
ENDBRANCH  52  63
ENDBRANCH  47  49
BRANCH  47  66
ATOM     66  CB  ARG d   1      -3.916  11.367  11.970  0.00  0.00    -0.036 C 
ATOM     67  H28 ARG d   1      -3.282  10.829  12.690  0.00  0.00     0.036 H 
ATOM     68  H29 ARG d   1      -4.973  11.141  12.172  0.00  0.00     0.036 H 
BRANCH  66  69
ATOM     69  CG  ARG d   1      -3.689  12.868  12.132  0.00  0.00    -0.048 C 
ATOM     70  H30 ARG d   1      -4.388  13.411  11.479  0.00  0.00     0.035 H 
ATOM     71  H31 ARG d   1      -2.655  13.109  11.844  0.00  0.00     0.035 H 
BRANCH  69  72
ATOM     72  CD  ARG d   1      -3.914  13.293  13.552  0.00  0.00     0.009 C 
ATOM     73  H32 ARG d   1      -3.411  14.253  13.738  0.00  0.00     0.064 H 
ATOM     74  H33 ARG d   1      -3.514  12.531  14.237  0.00  0.00     0.064 H 
BRANCH  72  75
ATOM     75  NE  ARG d   1      -5.328  13.437  13.756  0.00  0.00    -0.227 N 
ATOM     76  CZ  ARG d   1      -6.031  14.541  13.487  0.00  0.00     0.665 C 
ATOM     77  NH1 ARG d   1      -5.447  15.633  12.992  0.00  0.00    -0.235 N 
ATOM     78  NH2 ARG d   1      -7.338  14.545  13.715  0.00  0.00    -0.235 N 
ATOM     79  H35 ARG d   1      -6.010  16.472  12.793  0.00  0.00     0.174 HD
ATOM     80  H36 ARG d   1      -4.433  15.637  12.809  0.00  0.00     0.174 HD
ATOM     81  H37 ARG d   1      -7.797  13.706  14.097  0.00  0.00     0.174 HD
ATOM     82  H38 ARG d   1      -7.894  15.387  13.510  0.00  0.00     0.174 HD
ATOM     83  H34 ARG d   1      -5.839  12.629  14.139  0.00  0.00     0.177 HD
ENDBRANCH  72  75
ENDBRANCH  69  72
ENDBRANCH  66  69
ENDBRANCH  47  66
ENDBRANCH  45  47
ENDBRANCH   1  43
BRANCH   1  84
ATOM     84  CB  THR d   1      -4.645   7.049   7.933  0.00  0.00     0.060 C 
ATOM     85  H21 THR d   1      -4.301   7.558   7.021  0.00  0.00     0.086 H 
BRANCH  84  86
ATOM     86  OG1 THR d   1      -5.960   7.497   8.267  0.00  0.00    -0.393 OA
ATOM     87  H22 THR d   1      -5.947   8.436   8.408  0.00  0.00     0.210 HD
ENDBRANCH  84  86
BRANCH  84  88
ATOM     88  CG2 THR d   1      -4.668   5.554   7.693  0.00  0.00    -0.050 C 
ATOM     89  H23 THR d   1      -5.348   5.327   6.858  0.00  0.00     0.031 H 
ATOM     90  H24 THR d   1      -5.019   5.042   8.601  0.00  0.00     0.031 H 
ATOM     91  H25 THR d   1      -3.654   5.207   7.445  0.00  0.00     0.031 H 
ENDBRANCH  84  88
ENDBRANCH   1  84
TORSDOF 20
