REMARK  20 active torsions:
REMARK  status: ('A' for Active; 'I' for Inactive)
REMARK    1  A    between atoms: N_1  and  CA_2 
REMARK    2  A    between atoms: CA_2  and  C_3 
REMARK    3  A    between atoms: CA_2  and  CB_5 
REMARK       I    between atoms: C_3  and  N_6 
REMARK    4  A    between atoms: CA_7  and  C_8 
REMARK       I    between atoms: C_8  and  N_13 
REMARK    5  A    between atoms: N_13  and  CA_14 
REMARK    6  A    between atoms: CA_14  and  C_15 
REMARK    7  A    between atoms: CA_14  and  CB_17 
REMARK       I    between atoms: C_15  and  N_21 
REMARK    8  A    between atoms: CB_17  and  CG_18 
REMARK    9  A    between atoms: N_21  and  CA_22 
REMARK   10  A    between atoms: CA_22  and  C_23 
REMARK   11  A    between atoms: CA_22  and  CB_25 
REMARK       I    between atoms: C_23  and  N_28 
REMARK   12  A    between atoms: CB_25  and  OG1_26 
REMARK   13  A    between atoms: CB_25  and  CG2_27 
REMARK   14  A    between atoms: N_28  and  CA_29 
REMARK   15  A    between atoms: CA_29  and  C_30 
REMARK   16  A    between atoms: CA_29  and  CB_32 
REMARK       I    between atoms: C_30  and  N_39 
REMARK   17  A    between atoms: CB_32  and  CG_33 
REMARK   18  A    between atoms: CG_33  and  CD_34 
REMARK   19  A    between atoms: CD_34  and  NE_35 
REMARK       I    between atoms: NE_35  and  CZ_36 
REMARK       I    between atoms: CZ_36  and  NH1_37 
REMARK   20  A    between atoms: CA_40  and  C_41 
ROOT
ATOM      1  CA  THR d   1      19.236  10.473   3.539  0.00  0.00     0.113 C 
ATOM      2  H20 THR d   1      18.888   9.430   3.563  0.00  0.00     0.091 H 
ENDROOT
BRANCH   1   3
ATOM      3  N   THR d   1      18.570  11.193   4.630  0.00  0.00    -0.344 N 
ATOM      4  C   ASP d   1      18.235  10.603   5.770  0.00  0.00     0.241 C 
ATOM      5  O   ASP d   1      18.471   9.411   6.036  0.00  0.00    -0.271 OA
ATOM      6  H19 THR d   1      18.361  12.164   4.510  0.00  0.00     0.163 HD
BRANCH   4   7
ATOM      7  CA  ASP d   1      17.555  11.511   6.779  0.00  0.00     0.098 C 
ATOM      8  H16 ASP d   1      17.921  12.539   6.642  0.00  0.00     0.088 H 
BRANCH   7   9
ATOM      9  N   ASP d   1      16.115  11.506   6.555  0.00  0.00    -0.346 N 
ATOM     10  C   PRO d   1      15.555  12.198   5.566  0.00  0.00     0.241 C 
ATOM     11  O   PRO d   1      16.228  12.916   4.774  0.00  0.00    -0.271 OA
ATOM     12  H15 ASP d   1      15.531  10.967   7.162  0.00  0.00     0.163 HD
BRANCH  10  13
ATOM     13  CA  PRO d   1      14.019  12.129   5.419  0.00  0.00     0.091 C 
ATOM     14  N   PRO d   1      13.644  12.473   4.026  0.00  0.00    -0.337 N 
ATOM     15  C   ALA d   1      13.635  13.807   3.701  0.00  0.00     0.250 C 
ATOM     16  CD  PRO d   1      13.257  11.263   3.279  0.00  0.00    -0.001 C 
ATOM     17  O   ALA d   1      13.543  14.684   4.537  0.00  0.00    -0.271 OA
ATOM     18  CG  PRO d   1      13.579  10.118   4.234  0.00  0.00    -0.048 C 
ATOM     19  H13 PRO d   1      13.841  11.173   2.351  0.00  0.00     0.064 H 
ATOM     20  H14 PRO d   1      12.184  11.280   3.037  0.00  0.00     0.064 H 
ATOM     21  CB  PRO d   1      13.463  10.706   5.598  0.00  0.00    -0.036 C 
ATOM     22  H11 PRO d   1      12.861   9.295   4.106  0.00  0.00     0.035 H 
ATOM     23  H12 PRO d   1      14.599   9.745   4.060  0.00  0.00     0.035 H 
ATOM     24  H9  PRO d   1      12.414  10.732   5.928  0.00  0.00     0.036 H 
ATOM     25  H10 PRO d   1      14.062  10.137   6.324  0.00  0.00     0.036 H 
ATOM     26  H8  PRO d   1      13.553  12.818   6.139  0.00  0.00     0.087 H 
BRANCH  15  27
ATOM     27  CA  ALA d   1      13.796  14.266   2.241  0.00  0.00     0.172 C 
ATOM     28  H4  ALA d   1      14.735  14.839   2.233  0.00  0.00     0.098 H 
BRANCH  27  29
ATOM     29  N   ALA d   1      13.959  13.281   1.180  0.00  0.00    -0.067 N 
ATOM     30  H1  ALA d   1      14.050  13.753   0.294  0.00  0.00     0.275 HD
ATOM     31  H2  ALA d   1      13.153  12.676   1.157  0.00  0.00     0.275 HD
ATOM     32  H3  ALA d   1      14.787  12.733   1.355  0.00  0.00     0.275 HD
ENDBRANCH  27  29
BRANCH  27  33
ATOM     33  CB  ALA d   1      12.693  15.239   1.882  0.00  0.00    -0.042 C 
ATOM     34  H5  ALA d   1      12.579  15.977   2.689  0.00  0.00     0.030 H 
ATOM     35  H6  ALA d   1      11.749  14.691   1.750  0.00  0.00     0.030 H 
ATOM     36  H7  ALA d   1      12.950  15.756   0.946  0.00  0.00     0.030 H 
ENDBRANCH  27  33
ENDBRANCH  15  27
ENDBRANCH  10  13
ENDBRANCH   7   9
BRANCH   7  37
ATOM     37  CB  ASP d   1      17.933  11.047   8.171  0.00  0.00     0.043 C 
ATOM     38  H17 ASP d   1      17.757   9.964   8.243  0.00  0.00     0.052 H 
ATOM     39  H18 ASP d   1      17.301  11.571   8.903  0.00  0.00     0.052 H 
BRANCH  37  40
ATOM     40  CG  ASP d   1      19.396  11.329   8.495  0.00  0.00     0.175 C 
ATOM     41  OD1 ASP d   1      20.091  11.889   7.614  0.00  0.00    -0.648 OA
ATOM     42  OD2 ASP d   1      19.844  11.005   9.610  0.00  0.00    -0.648 OA
ENDBRANCH  37  40
ENDBRANCH   7  37
ENDBRANCH   4   7
ENDBRANCH   1   3
BRANCH   1  43
ATOM     43  C   THR d   1      20.761  10.465   3.655  0.00  0.00     0.243 C 
ATOM     44  O   THR d   1      21.449  10.080   2.706  0.00  0.00    -0.271 OA
ATOM     45  N   ARG d   1      21.303  10.897   4.787  0.00  0.00    -0.346 N 
ATOM     46  H26 ARG d   1      20.720  11.261   5.513  0.00  0.00     0.163 HD
BRANCH  45  47
ATOM     47  CA  ARG d   1      22.736  10.842   4.971  0.00  0.00     0.089 C 
ATOM     48  H27 ARG d   1      23.213  11.387   4.143  0.00  0.00     0.087 H 
BRANCH  47  49
ATOM     49  C   ARG d   1      23.209   9.397   4.945  0.00  0.00     0.243 C 
ATOM     50  O   ARG d   1      22.648   8.550   5.630  0.00  0.00    -0.271 OA
ATOM     51  N   PRO d   1      24.273   9.102   4.165  0.00  0.00    -0.336 N 
ATOM     52  CA  PRO d   1      24.781   7.723   4.117  0.00  0.00     0.098 C 
ATOM     53  CD  PRO d   1      24.957   9.967   3.189  0.00  0.00    -0.001 C 
ATOM     54  CB  PRO d   1      25.955   7.814   3.117  0.00  0.00    -0.035 C 
ATOM     55  H39 PRO d   1      23.995   7.066   3.715  0.00  0.00     0.089 H 
ATOM     56  CG  PRO d   1      26.255   9.261   2.981  0.00  0.00    -0.048 C 
ATOM     57  H40 PRO d   1      25.665   7.389   2.145  0.00  0.00     0.036 H 
ATOM     58  H41 PRO d   1      26.832   7.275   3.505  0.00  0.00     0.036 H 
ATOM     59  H42 PRO d   1      26.652   9.477   1.978  0.00  0.00     0.035 H 
ATOM     60  H43 PRO d   1      26.987   9.573   3.740  0.00  0.00     0.035 H 
ATOM     61  H44 PRO d   1      25.115  10.977   3.596  0.00  0.00     0.064 H 
ATOM     62  H45 PRO d   1      24.387  10.035   2.251  0.00  0.00     0.064 H 
BRANCH  52  63
ATOM     63  C   PRO d   1      25.239   7.124   5.464  0.00  0.00     0.196 C 
ATOM     64  O   PRO d   1      25.888   7.813   6.261  0.00  0.00    -0.646 OA
ATOM     65  OXT PRO d   1      24.958   5.953   5.750  0.00  0.00    -0.646 OA
ENDBRANCH  52  63
ENDBRANCH  47  49
BRANCH  47  66
ATOM     66  CB  ARG d   1      23.161  11.487   6.284  0.00  0.00    -0.036 C 
ATOM     67  H28 ARG d   1      22.578  11.042   7.104  0.00  0.00     0.036 H 
ATOM     68  H29 ARG d   1      22.956  12.566   6.232  0.00  0.00     0.036 H 
BRANCH  66  69
ATOM     69  CG  ARG d   1      24.646  11.280   6.567  0.00  0.00    -0.048 C 
ATOM     70  H30 ARG d   1      25.234  11.793   5.792  0.00  0.00     0.035 H 
ATOM     71  H31 ARG d   1      24.869  10.203   6.544  0.00  0.00     0.035 H 
BRANCH  69  72
ATOM     72  CD  ARG d   1      25.026  11.832   7.918  0.00  0.00     0.009 C 
ATOM     73  H32 ARG d   1      25.995  11.416   8.232  0.00  0.00     0.064 H 
ATOM     74  H33 ARG d   1      24.256  11.568   8.658  0.00  0.00     0.064 H 
BRANCH  72  75
ATOM     75  NE  ARG d   1      25.124  13.268   7.805  0.00  0.00    -0.227 N 
ATOM     76  CZ  ARG d   1      26.261  13.958   7.761  0.00  0.00     0.665 C 
ATOM     77  NH1 ARG d   1      27.443  13.355   7.869  0.00  0.00    -0.235 N 
ATOM     78  NH2 ARG d   1      26.199  15.279   7.632  0.00  0.00    -0.235 N 
ATOM     79  H35 ARG d   1      28.310  13.910   7.832  0.00  0.00     0.174 HD
ATOM     80  H36 ARG d   1      27.491  12.333   7.989  0.00  0.00     0.174 HD
ATOM     81  H37 ARG d   1      25.285  15.746   7.548  0.00  0.00     0.174 HD
ATOM     82  H38 ARG d   1      27.065  15.836   7.616  0.00  0.00     0.174 HD
ATOM     83  H34 ARG d   1      24.244  13.801   7.754  0.00  0.00     0.177 HD
ENDBRANCH  72  75
ENDBRANCH  69  72
ENDBRANCH  66  69
ENDBRANCH  47  66
ENDBRANCH  45  47
ENDBRANCH   1  43
BRANCH   1  84
ATOM     84  CB  THR d   1      18.845  11.089   2.199  0.00  0.00     0.060 C 
ATOM     85  H21 THR d   1      19.538  10.735   1.421  0.00  0.00     0.086 H 
BRANCH  84  86
ATOM     86  OG1 THR d   1      18.905  12.531   2.278  0.00  0.00    -0.393 OA
ATOM     87  H22 THR d   1      18.660  12.903   1.439  0.00  0.00     0.210 HD
ENDBRANCH  84  86
BRANCH  84  88
ATOM     88  CG2 THR d   1      17.419  10.678   1.837  0.00  0.00    -0.050 C 
ATOM     89  H23 THR d   1      17.143  11.125   0.871  0.00  0.00     0.031 H 
ATOM     90  H24 THR d   1      16.727  11.031   2.615  0.00  0.00     0.031 H 
ATOM     91  H25 THR d   1      17.360   9.582   1.764  0.00  0.00     0.031 H 
ENDBRANCH  84  88
ENDBRANCH   1  84
TORSDOF 20
