REMARK  5 active torsions:
REMARK  status: ('A' for Active; 'I' for Inactive)
REMARK    1  A    between atoms: C1_1  and  C2_2 
REMARK       I    between atoms: C1_1  and  N7_7 
REMARK    2  A    between atoms: C3_3  and  C15_15 
REMARK    3  A    between atoms: C4_4  and  C9_9 
REMARK    4  A    between atoms: N7_7  and  O8_8 
REMARK    5  A    between atoms: C18_18  and  C21_21 
ROOT
ATOM      1  C2  OTF d   1      -3.574 -15.299 -39.955  0.00  0.00     0.202 A 
ATOM      2  C3  OTF d   1      -4.832 -15.031 -40.805  0.00  0.00     0.027 A 
ATOM      3  C4  OTF d   1      -4.821 -16.140 -39.754  0.00  0.00     0.027 A 
ATOM      4  F5  OTF d   1      -3.399 -14.519 -38.914  0.00  0.00    -0.231 F 
ATOM      5  H1  OTF d   1      -4.905 -15.272 -41.876  0.00  0.00     0.054 H 
ATOM      6  H2  OTF d   1      -5.383 -16.042 -38.813  0.00  0.00     0.054 H 
ENDROOT
BRANCH   2   7
ATOM      7  C15 OTF d   1      -5.439 -13.699 -40.491  0.00  0.00    -0.049 A 
ATOM      8  C16 OTF d   1      -6.252 -13.463 -39.381  0.00  0.00    -0.075 A 
ATOM      9  C17 OTF d   1      -6.779 -12.197 -39.130  0.00  0.00    -0.069 A 
ATOM     10  H10 OTF d   1      -6.477 -14.278 -38.703  0.00  0.00     0.084 H 
ATOM     11  C18 OTF d   1      -6.511 -11.140 -39.989  0.00  0.00     0.012 A 
ATOM     12  H11 OTF d   1      -7.402 -12.037 -38.258  0.00  0.00     0.085 H 
ATOM     13  C19 OTF d   1      -5.694 -11.366 -41.092  0.00  0.00    -0.069 A 
ATOM     14  C20 OTF d   1      -5.170 -12.631 -41.336  0.00  0.00    -0.075 A 
ATOM     15  H12 OTF d   1      -5.464 -10.550 -41.767  0.00  0.00     0.085 H 
ATOM     16  H13 OTF d   1      -4.539 -12.786 -42.203  0.00  0.00     0.084 H 
BRANCH  11  17
ATOM     17  C21 OTF d   1      -7.059  -9.780 -39.722  0.00  0.00     0.159 A 
ATOM     18  N22 OTF d   1      -7.092  -8.844 -40.711  0.00  0.00    -0.238 NA
ATOM     19  C23 OTF d   1      -7.564  -7.612 -40.467  0.00  0.00     0.043 A 
ATOM     20  C24 OTF d   1      -8.013  -7.294 -39.185  0.00  0.00     0.151 A 
ATOM     21  H14 OTF d   1      -7.596  -6.871 -41.258  0.00  0.00     0.119 H 
ATOM     22  C25 OTF d   1      -7.955  -8.255 -38.178  0.00  0.00     0.043 A 
ATOM     23  F27 OTF d   1      -8.490  -6.069 -38.912  0.00  0.00    -0.203 F 
ATOM     24  N26 OTF d   1      -7.480  -9.472 -38.467  0.00  0.00    -0.238 NA
ATOM     25  H15 OTF d   1      -8.290  -8.020 -37.174  0.00  0.00     0.119 H 
ENDBRANCH  11  17
ENDBRANCH   2   7
BRANCH   1  26
ATOM     26  C1  OTF d   1      -2.299 -15.809 -40.607  0.00  0.00     0.282 C 
ATOM     27  O6  OTF d   1      -2.178 -16.280 -41.734  0.00  0.00    -0.268 OA
ATOM     28  N7  OTF d   1      -1.259 -15.586 -39.808  0.00  0.00    -0.234 N 
ATOM     29  H3  OTF d   1      -1.429 -15.262 -38.877  0.00  0.00     0.197 HD
BRANCH  28  30
ATOM     30  O8  OTF d   1       0.056 -15.785 -40.216  0.00  0.00    -0.287 OA
ATOM     31  H4  OTF d   1       0.644 -15.570 -39.502  0.00  0.00     0.244 HD
ENDBRANCH  28  30
ENDBRANCH   1  26
BRANCH   3  32
ATOM     32  C9  OTF d   1      -4.959 -17.509 -40.276  0.00  0.00    -0.050 A 
ATOM     33  C10 OTF d   1      -6.041 -17.802 -41.095  0.00  0.00    -0.076 A 
ATOM     34  C11 OTF d   1      -6.218 -19.091 -41.573  0.00  0.00    -0.082 A 
ATOM     35  H5  OTF d   1      -6.747 -17.023 -41.361  0.00  0.00     0.084 H 
ATOM     36  C12 OTF d   1      -5.328 -20.089 -41.196  0.00  0.00    -0.083 A 
ATOM     37  H6  OTF d   1      -7.045 -19.319 -42.236  0.00  0.00     0.083 H 
ATOM     38  C13 OTF d   1      -4.256 -19.801 -40.356  0.00  0.00    -0.082 A 
ATOM     39  H7  OTF d   1      -5.470 -21.101 -41.559  0.00  0.00     0.083 H 
ATOM     40  C14 OTF d   1      -4.080 -18.507 -39.886  0.00  0.00    -0.076 A 
ATOM     41  H8  OTF d   1      -3.562 -20.583 -40.070  0.00  0.00     0.083 H 
ATOM     42  H9  OTF d   1      -3.259 -18.278 -39.217  0.00  0.00     0.084 H 
ENDBRANCH   3  32
TORSDOF 5
