REMARK  10 active torsions:
REMARK  status: ('A' for Active; 'I' for Inactive)
REMARK    1  A    between atoms: C3A_3  and  O3A_8 
REMARK    2  A    between atoms: C4A_4  and  O4A_9 
REMARK    3  A    between atoms: C5A_5  and  C6A_6 
REMARK    4  A    between atoms: C6A_6  and  O6A_11 
REMARK    5  A    between atoms: O4A_9  and  C1B_12 
REMARK    6  A    between atoms: C2B_13  and  O2B_18 
REMARK    7  A    between atoms: C3B_14  and  O3B_19 
REMARK    8  A    between atoms: C4B_15  and  O4B_20 
REMARK    9  A    between atoms: C5B_16  and  C6B_17 
REMARK   10  A    between atoms: C6B_17  and  O6B_22 
ROOT
ATOM      1  C1B FFC d   1      61.213  46.367  36.641  0.00  0.00     0.159 C 
ATOM      2  C2B FFC d   1      61.464  47.837  36.290  0.00  0.00     0.110 C 
ATOM      3  C3B FFC d   1      60.908  48.685  37.448  0.00  0.00     0.092 C 
ATOM      4  C4B FFC d   1      59.401  48.410  37.504  0.00  0.00     0.090 C 
ATOM      5  C5B FFC d   1      59.235  46.903  37.852  0.00  0.00     0.089 C 
ATOM      6  O5B FFC d   1      59.842  46.191  36.765  0.00  0.00    -0.348 OA
ATOM      7  H11 FFC d   1      61.739  46.061  37.557  0.00  0.00     0.133 H 
ATOM      8  H12 FFC d   1      60.991  48.116  35.337  0.00  0.00     0.094 H 
ATOM      9  H13 FFC d   1      61.400  48.456  38.405  0.00  0.00     0.091 H 
ATOM     10  H14 FFC d   1      58.880  48.676  36.573  0.00  0.00     0.091 H 
ATOM     11  H15 FFC d   1      59.753  46.680  38.797  0.00  0.00     0.090 H 
ENDROOT
BRANCH   1  12
ATOM     12  O4A FFC d   1      61.679  45.644  35.485  0.00  0.00    -0.348 OA
BRANCH  12  13
ATOM     13  C4A FFC d   1      61.680  44.234  35.761  0.00  0.00     0.096 C 
ATOM     14  C3A FFC d   1      61.024  43.537  34.537  0.00  0.00     0.094 C 
ATOM     15  C2A FFC d   1      61.093  42.043  34.749  0.00  0.00     0.126 C 
ATOM     16  H4  FFC d   1      61.571  43.812  33.623  0.00  0.00     0.091 H 
ATOM     17  C1A FFC d   1      62.507  41.654  35.024  0.00  0.00     0.051 C 
ATOM     18  F2A FFC d   1      60.700  41.362  33.591  0.00  0.00    -0.244 F 
ATOM     19  H3  FFC d   1      60.446  41.759  35.592  0.00  0.00     0.099 H 
ATOM     20  O5A FFC d   1      63.155  42.341  36.081  0.00  0.00    -0.378 OA
ATOM     21  H1  FFC d   1      63.087  41.829  34.106  0.00  0.00     0.078 H 
ATOM     22  H2  FFC d   1      62.518  40.581  35.266  0.00  0.00     0.078 H 
ATOM     23  C5A FFC d   1      63.129  43.763  35.875  0.00  0.00     0.086 C 
ATOM     24  H6  FFC d   1      63.696  44.050  34.977  0.00  0.00     0.090 H 
ATOM     25  H5  FFC d   1      61.126  44.012  36.685  0.00  0.00     0.091 H 
BRANCH  14  26
ATOM     26  O3A FFC d   1      59.660  43.912  34.401  0.00  0.00    -0.390 OA
ATOM     27  H9  FFC d   1      59.285  43.472  33.647  0.00  0.00     0.210 HD
ENDBRANCH  14  26
BRANCH  23  28
ATOM     28  C6A FFC d   1      63.778  44.354  37.173  0.00  0.00     0.043 C 
ATOM     29  H7  FFC d   1      63.737  45.453  37.150  0.00  0.00     0.078 H 
ATOM     30  H8  FFC d   1      64.825  44.027  37.255  0.00  0.00     0.078 H 
BRANCH  28  31
ATOM     31  O6A FFC d   1      63.018  43.856  38.278  0.00  0.00    -0.398 OA
ATOM     32  H10 FFC d   1      63.055  42.907  38.284  0.00  0.00     0.209 HD
ENDBRANCH  28  31
ENDBRANCH  23  28
ENDBRANCH  12  13
ENDBRANCH   1  12
BRANCH   2  33
ATOM     33  O2B FFC d   1      62.861  47.971  36.224  0.00  0.00    -0.388 OA
ATOM     34  H18 FFC d   1      63.084  48.883  36.079  0.00  0.00     0.210 HD
ENDBRANCH   2  33
BRANCH   3  35
ATOM     35  O3B FFC d   1      61.105  50.079  37.054  0.00  0.00    -0.390 OA
ATOM     36  H19 FFC d   1      62.035  50.267  37.014  0.00  0.00     0.210 HD
ENDBRANCH   3  35
BRANCH   5  37
ATOM     37  C6B FFC d   1      57.778  46.479  37.972  0.00  0.00     0.043 C 
ATOM     38  H16 FFC d   1      57.291  47.016  38.800  0.00  0.00     0.078 H 
ATOM     39  H17 FFC d   1      57.709  45.395  38.147  0.00  0.00     0.078 H 
BRANCH  37  40
ATOM     40  O6B FFC d   1      57.165  46.818  36.738  0.00  0.00    -0.398 OA
ATOM     41  H21 FFC d   1      57.600  46.354  36.032  0.00  0.00     0.209 HD
ENDBRANCH  37  40
ENDBRANCH   5  37
BRANCH   4  42
ATOM     42  O4B FFC d   1      58.962  49.199  38.632  0.00  0.00    -0.390 OA
ATOM     43  H20 FFC d   1      58.049  49.009  38.814  0.00  0.00     0.210 HD
ENDBRANCH   4  42
TORSDOF 10
