REMARK  12 active torsions:
REMARK  status: ('A' for Active; 'I' for Inactive)
REMARK       I    between atoms: N01_1  and  C02_2 
REMARK    1  A    between atoms: C02_2  and  C03_3 
REMARK    2  A    between atoms: C07_7  and  C08_8 
REMARK    3  A    between atoms: C08_8  and  N09_9 
REMARK    4  A    between atoms: N09_9  and  C10_10 
REMARK    5  A    between atoms: C10_10  and  C11_11 
REMARK       I    between atoms: C11_11  and  N12_12 
REMARK    6  A    between atoms: N12_12  and  C13_13 
REMARK    7  A    between atoms: N12_12  and  C15_15 
REMARK    8  A    between atoms: C13_13  and  C14_14 
REMARK    9  A    between atoms: C15_15  and  C16_16 
REMARK   10  A    between atoms: C16_16  and  N17_17 
REMARK   11  A    between atoms: N17_17  and  C18_18 
REMARK   12  A    between atoms: N17_17  and  C19_19 
ROOT
ATOM      1  C11 LQT d   1      80.661  63.562  13.252  0.00  0.00     0.245 C 
ATOM      2  N12 LQT d   1      79.959  63.097  14.436  0.00  0.00    -0.349 N 
ATOM      3  O20 LQT d   1      80.438  63.016  12.137  0.00  0.00    -0.272 OA
ENDROOT
BRANCH   1   4
ATOM      4  C10 LQT d   1      81.648  64.705  13.286  0.00  0.00     0.154 C 
ATOM      5  H9  LQT d   1      81.128  65.622  13.599  0.00  0.00     0.090 H 
ATOM      6  H10 LQT d   1      82.446  64.472  14.006  0.00  0.00     0.090 H 
BRANCH   4   7
ATOM      7  N09 LQT d   1      82.235  64.913  11.973  0.00  0.00    -0.062 N 
ATOM      8  H7  LQT d   1      81.569  64.643  11.266  0.00  0.00     0.278 HD
ATOM      9  H8  LQT d   1      82.464  65.888  11.864  0.00  0.00     0.278 HD
BRANCH   7  10
ATOM     10  C08 LQT d   1      83.452  64.113  11.816  0.00  0.00     0.121 C 
ATOM     11  H5  LQT d   1      83.338  63.145  12.326  0.00  0.00     0.085 H 
ATOM     12  H6  LQT d   1      83.659  63.944  10.749  0.00  0.00     0.085 H 
BRANCH  10  13
ATOM     13  C07 LQT d   1      84.598  64.921  12.459  0.00  0.00     0.060 A 
ATOM     14  N06 LQT d   1      84.447  66.285  12.356  0.00  0.00    -0.264 NA
ATOM     15  C05 LQT d   1      85.337  67.115  12.884  0.00  0.00     0.004 A 
ATOM     16  C04 LQT d   1      86.431  66.607  13.591  0.00  0.00    -0.051 A 
ATOM     17  H4  LQT d   1      85.216  68.186  12.767  0.00  0.00     0.114 H 
ATOM     18  C03 LQT d   1      86.607  65.187  13.714  0.00  0.00     0.035 A 
ATOM     19  H3  LQT d   1      87.145  67.284  14.046  0.00  0.00     0.087 H 
ATOM     20  C21 LQT d   1      85.662  64.329  13.159  0.00  0.00    -0.042 A 
ATOM     21  H27 LQT d   1      85.743  63.253  13.262  0.00  0.00     0.088 H 
BRANCH  18  22
ATOM     22  C02 LQT d   1      87.793  64.680  14.506  0.00  0.00     0.249 C 
ATOM     23  N01 LQT d   1      88.321  63.392  14.263  0.00  0.00    -0.366 N 
ATOM     24  H1  LQT d   1      89.105  63.065  14.791  0.00  0.00     0.159 HD
ATOM     25  H2  LQT d   1      87.911  62.807  13.563  0.00  0.00     0.159 HD
ATOM     26  O22 LQT d   1      88.269  65.385  15.405  0.00  0.00    -0.268 OA
ENDBRANCH  18  22
ENDBRANCH  10  13
ENDBRANCH   7  10
ENDBRANCH   4   7
ENDBRANCH   1   4
BRANCH   2  27
ATOM     27  C13 LQT d   1      80.181  63.678  15.747  0.00  0.00    -0.006 C 
ATOM     28  H11 LQT d   1      81.233  63.988  15.832  0.00  0.00     0.063 H 
ATOM     29  H12 LQT d   1      79.957  62.927  16.519  0.00  0.00     0.063 H 
BRANCH  27  30
ATOM     30  C14 LQT d   1      79.277  64.898  15.953  0.00  0.00    -0.061 C 
ATOM     31  H13 LQT d   1      79.459  65.325  16.951  0.00  0.00     0.029 H 
ATOM     32  H14 LQT d   1      78.224  64.592  15.871  0.00  0.00     0.029 H 
ATOM     33  H15 LQT d   1      79.500  65.653  15.185  0.00  0.00     0.029 H 
ENDBRANCH  27  30
ENDBRANCH   2  27
BRANCH   2  34
ATOM     34  C15 LQT d   1      78.974  61.987  14.313  0.00  0.00     0.020 C 
ATOM     35  H16 LQT d   1      78.305  62.183  13.462  0.00  0.00     0.066 H 
ATOM     36  H17 LQT d   1      78.381  61.919  15.237  0.00  0.00     0.066 H 
BRANCH  34  37
ATOM     37  C16 LQT d   1      79.723  60.657  14.083  0.00  0.00     0.097 C 
ATOM     38  H18 LQT d   1      79.820  60.144  15.051  0.00  0.00     0.078 H 
ATOM     39  H19 LQT d   1      80.724  60.889  13.689  0.00  0.00     0.078 H 
BRANCH  37  40
ATOM     40  N17 LQT d   1      79.076  59.768  13.168  0.00  0.00    -0.077 N 
ATOM     41  H20 LQT d   1      78.129  59.658  13.495  0.00  0.00     0.279 HD
BRANCH  40  42
ATOM     42  C18 LQT d   1      79.729  58.407  13.201  0.00  0.00     0.066 C 
ATOM     43  H21 LQT d   1      79.219  57.738  12.492  0.00  0.00     0.068 H 
ATOM     44  H22 LQT d   1      79.656  57.990  14.216  0.00  0.00     0.068 H 
ATOM     45  H23 LQT d   1      80.788  58.501  12.919  0.00  0.00     0.068 H 
ENDBRANCH  40  42
BRANCH  40  46
ATOM     46  C19 LQT d   1      78.989  60.265  11.762  0.00  0.00     0.066 C 
ATOM     47  H24 LQT d   1      78.512  61.256  11.752  0.00  0.00     0.068 H 
ATOM     48  H25 LQT d   1      78.390  59.564  11.162  0.00  0.00     0.068 H 
ATOM     49  H26 LQT d   1      80.001  60.341  11.337  0.00  0.00     0.068 H 
ENDBRANCH  40  46
ENDBRANCH  37  40
ENDBRANCH  34  37
ENDBRANCH   2  34
TORSDOF 12
