REMARK  9 active torsions:
REMARK  status: ('A' for Active; 'I' for Inactive)
REMARK    1  A    between atoms: C1_1  and  O1_8 
REMARK    2  A    between atoms: C2_2  and  O2_9 
REMARK    3  A    between atoms: C3_3  and  O3_10 
REMARK    4  A    between atoms: C4_4  and  O4_11 
REMARK    5  A    between atoms: C5_5  and  C6_6 
REMARK    6  A    between atoms: C6_6  and  N1_14 
REMARK    7  A    between atoms: O1_8  and  C7_7 
REMARK       I    between atoms: N1_14  and  C1_13 
REMARK    8  A    between atoms: C1_13  and  C2_16 
REMARK    9  A    between atoms: C3_17  and  C4_18 
ROOT
ATOM      1  C1  MMA d   1     -18.648 -11.605  21.463  0.00  0.00     0.158 C 
ATOM      2  C2  MMA d   1     -18.087 -10.767  20.308  0.00  0.00     0.110 C 
ATOM      3  C3  MMA d   1     -17.403 -11.581  19.228  0.00  0.00     0.092 C 
ATOM      4  C4  MMA d   1     -16.373 -12.502  19.822  0.00  0.00     0.089 C 
ATOM      5  C5  MMA d   1     -17.110 -13.361  20.854  0.00  0.00     0.084 C 
ATOM      6  O5  MMA d   1     -17.629 -12.511  21.903  0.00  0.00    -0.349 OA
ATOM      7  H1  MMA d   1     -18.971 -10.962  22.295  0.00  0.00     0.133 H 
ATOM      8  H2  MMA d   1     -18.926 -10.222  19.851  0.00  0.00     0.094 H 
ATOM      9  H3  MMA d   1     -18.159 -12.176  18.694  0.00  0.00     0.091 H 
ATOM     10  H4  MMA d   1     -15.594 -11.916  20.331  0.00  0.00     0.091 H 
ATOM     11  H5  MMA d   1     -17.940 -13.877  20.348  0.00  0.00     0.090 H 
ENDROOT
BRANCH   5  12
ATOM     12  C6  MMA d   1     -16.228 -14.391  21.524  0.00  0.00     0.022 C 
ATOM     13  H6  MMA d   1     -15.681 -13.943  22.367  0.00  0.00     0.068 H 
ATOM     14  H7  MMA d   1     -15.511 -14.814  20.805  0.00  0.00     0.068 H 
BRANCH  12  15
ATOM     15  N1  DH6 d   1     -17.152 -15.425  22.000  0.00  0.00    -0.355 N 
ATOM     16  C1  DH6 d   1     -16.931 -16.136  23.074  0.00  0.00     0.241 C 
ATOM     17  O1  DH6 d   1     -15.960 -15.906  23.794  0.00  0.00    -0.269 OA
ATOM     18  H14 MMA d   1     -17.989 -15.594  21.479  0.00  0.00     0.162 HD
BRANCH  16  19
ATOM     19  C2  DH6 d   1     -17.848 -17.225  23.437  0.00  0.00    -0.017 C 
ATOM     20  C3  DH6 d   1     -17.521 -18.038  24.470  0.00  0.00    -0.068 C 
ATOM     21  H16 MMA d   1     -16.665 -17.765  25.085  0.00  0.00     0.085 H 
ATOM     22  H15 MMA d   1     -18.775 -17.376  22.885  0.00  0.00     0.092 H 
BRANCH  20  23
ATOM     23  C4  DH6 d   1     -18.263 -19.284  24.815  0.00  0.00    -0.036 A 
ATOM     24  C5  DH6 d   1     -17.842 -20.028  25.926  0.00  0.00    -0.073 A 
ATOM     25  C6  DH6 d   1     -18.548 -21.179  26.290  0.00  0.00    -0.082 A 
ATOM     26  H17 MMA d   1     -16.977 -19.714  26.498  0.00  0.00     0.084 H 
ATOM     27  C7  DH6 d   1     -19.664 -21.543  25.546  0.00  0.00    -0.083 A 
ATOM     28  H18 MMA d   1     -18.231 -21.776  27.137  0.00  0.00     0.083 H 
ATOM     29  C8  DH6 d   1     -20.084 -20.789  24.474  0.00  0.00    -0.082 A 
ATOM     30  H19 MMA d   1     -20.214 -22.438  25.815  0.00  0.00     0.083 H 
ATOM     31  C9  DH6 d   1     -19.396 -19.648  24.112  0.00  0.00    -0.073 A 
ATOM     32  H20 MMA d   1     -20.959 -21.092  23.911  0.00  0.00     0.083 H 
ATOM     33  H21 MMA d   1     -19.742 -19.042  23.282  0.00  0.00     0.084 H 
ENDBRANCH  20  23
ENDBRANCH  16  19
ENDBRANCH  12  15
ENDBRANCH   5  12
BRANCH   4  34
ATOM     34  O4  MMA d   1     -15.760 -13.264  18.779  0.00  0.00    -0.390 OA
ATOM     35  H13 MMA d   1     -16.426 -13.758  18.315  0.00  0.00     0.210 HD
ENDBRANCH   4  34
BRANCH   3  36
ATOM     36  O3  MMA d   1     -16.740 -10.704  18.303  0.00  0.00    -0.390 OA
ATOM     37  H12 MMA d   1     -17.376 -10.114  17.917  0.00  0.00     0.210 HD
ENDBRANCH   3  36
BRANCH   1  38
ATOM     38  O1  MMA d   1     -19.762 -12.338  20.927  0.00  0.00    -0.363 OA
BRANCH  38  39
ATOM     39  C7  MMA d   1     -20.528 -12.943  21.986  0.00  0.00     0.007 C 
ATOM     40  H8  MMA d   1     -21.374 -13.498  21.555  0.00  0.00     0.066 H 
ATOM     41  H9  MMA d   1     -20.908 -12.159  22.658  0.00  0.00     0.066 H 
ATOM     42  H10 MMA d   1     -19.887 -13.634  22.554  0.00  0.00     0.066 H 
ENDBRANCH  38  39
ENDBRANCH   1  38
BRANCH   2  43
ATOM     43  O2  MMA d   1     -17.139  -9.837  20.792  0.00  0.00    -0.388 OA
ATOM     44  H11 MMA d   1     -17.536  -9.308  21.474  0.00  0.00     0.210 HD
ENDBRANCH   2  43
TORSDOF 9
