REMARK  12 active torsions:
REMARK  status: ('A' for Active; 'I' for Inactive)
REMARK    1  A    between atoms: C6_6  and  N6_7 
REMARK    2  A    between atoms: C1'_15  and  N9_10 
REMARK    3  A    between atoms: PA_11  and  O3A_30 
REMARK    4  A    between atoms: O5'_40  and  PA_11 
REMARK    5  A    between atoms: PB_12  and  C01_14 
REMARK    6  A    between atoms: O3A_30  and  PB_12 
REMARK    7  A    between atoms: C01_14  and  PG_13 
REMARK    8  A    between atoms: C2F_24  and  N2F_25 
REMARK    9  A    between atoms: C5'_39  and  C4'_34 
REMARK   10  A    between atoms: C4F_36  and  N4F_37 
REMARK   11  A    between atoms: C5'_39  and  O5'_40 
REMARK   12  A    between atoms: C6F_43  and  N6F_44 
ROOT
ATOM      1  C1' DL5 d   1      22.719  12.294  -6.381  0.00  0.00     0.140 A 
ATOM      2  C1F DL5 d   1      23.839  10.887  -3.427  0.00  0.00     0.247 A 
ATOM      3  C2' DL5 d   1      22.296  11.617  -5.056  0.00  0.00     0.112 A 
ATOM      4  O2' DL5 d   1      23.170  12.022  -3.961  0.00  0.00    -0.335 OA
ATOM      5  C2F DL5 d   1      23.339  10.719  -1.985  0.00  0.00     0.147 A 
ATOM      6  C3' DL5 d   1      22.483  10.112  -5.209  0.00  0.00     0.098 A 
ATOM      7  O3' DL5 d   1      23.459   9.737  -4.193  0.00  0.00    -0.337 OA
ATOM      8  C3F DL5 d   1      24.176  10.629  -0.915  0.00  0.00    -0.018 A 
ATOM      9  C4' DL5 d   1      23.033   9.922  -6.617  0.00  0.00     0.089 A 
ATOM     10  O4' DL5 d   1      23.145  11.267  -7.213  0.00  0.00    -0.353 OA
ATOM     11  C4F DL5 d   1      25.561  10.688  -0.959  0.00  0.00     0.103 A 
ATOM     12  C5F DL5 d   1      26.148  10.845  -2.132  0.00  0.00    -0.038 A 
ATOM     13  C6F DL5 d   1      25.391  10.970  -3.433  0.00  0.00     0.152 A 
ATOM     14  H7  DL5 d   1      23.510  13.035  -6.191  0.00  0.00     0.122 H 
ATOM     15  H8  DL5 d   1      21.249  11.863  -4.824  0.00  0.00     0.094 H 
ATOM     16  H9  DL5 d   1      21.542   9.558  -5.075  0.00  0.00     0.091 H 
ATOM     17  H10 DL5 d   1      23.717  10.499   0.064  0.00  0.00     0.090 H 
ATOM     18  H11 DL5 d   1      24.017   9.436  -6.542  0.00  0.00     0.090 H 
ATOM     19  H14 DL5 d   1      27.236  10.886  -2.163  0.00  0.00     0.084 H 
ATOM     20  H15 DL5 d   1      25.340  12.062  -3.311  0.00  0.00     0.098 H 
ENDROOT
BRANCH   9  21
ATOM     21  C5' DL5 d   1      22.185   9.162  -7.607  0.00  0.00     0.058 C 
ATOM     22  H12 DL5 d   1      22.847   8.694  -8.350  0.00  0.00     0.079 H 
ATOM     23  H13 DL5 d   1      21.513   9.872  -8.111  0.00  0.00     0.079 H 
BRANCH  21  24
ATOM     24  O5' DL5 d   1      21.384   8.129  -6.986  0.00  0.00    -0.287 OA
BRANCH  24  25
ATOM     25  PA  DL5 d   1      19.895   7.731  -7.612  0.00  0.00     0.416 P 
ATOM     26  O1A DL5 d   1      19.644   6.167  -7.536  0.00  0.00    -0.624 OA
ATOM     27  O2A DL5 d   1      19.617   8.432  -8.923  0.00  0.00    -0.624 OA
BRANCH  25  28
ATOM     28  O3A DL5 d   1      18.918   8.411  -6.499  0.00  0.00    -0.203 OA
BRANCH  28  29
ATOM     29  PB  DL5 d   1      17.684   9.389  -6.521  0.00  0.00     0.272 P 
ATOM     30  O1B DL5 d   1      17.734  10.161  -5.171  0.00  0.00    -0.646 OA
ATOM     31  O2B DL5 d   1      17.688  10.375  -7.670  0.00  0.00    -0.646 OA
BRANCH  29  32
ATOM     32  C01 DL5 d   1      16.162   8.418  -6.612  0.00  0.00     0.134 C 
ATOM     33  H5  DL5 d   1      15.547   8.684  -5.739  0.00  0.00     0.073 H 
ATOM     34  H6  DL5 d   1      16.443   7.356  -6.553  0.00  0.00     0.073 H 
BRANCH  32  35
ATOM     35  PG  DL5 d   1      15.146   8.624  -8.068  0.00  0.00     0.271 P 
ATOM     36  O1G DL5 d   1      15.513   9.960  -8.734  0.00  0.00    -0.639 OA
ATOM     37  O2G DL5 d   1      15.612   7.480  -9.064  0.00  0.00    -0.639 OA
ATOM     38  O3G DL5 d   1      13.689   8.467  -7.763  0.00  0.00    -0.639 OA
ENDBRANCH  32  35
ENDBRANCH  29  32
ENDBRANCH  28  29
ENDBRANCH  25  28
ENDBRANCH  24  25
ENDBRANCH  21  24
ENDBRANCH   9  21
BRANCH   1  39
ATOM     39  N9  DL5 d   1      21.591  12.913  -7.152  0.00  0.00    -0.294 N 
ATOM     40  C4  DL5 d   1      21.326  14.246  -7.268  0.00  0.00     0.167 A 
ATOM     41  N3  DL5 d   1      22.007  15.265  -6.726  0.00  0.00    -0.222 NA
ATOM     42  C5  DL5 d   1      20.193  14.337  -8.071  0.00  0.00     0.149 A 
ATOM     43  C2  DL5 d   1      21.461  16.436  -7.052  0.00  0.00     0.091 A 
ATOM     44  N1  DL5 d   1      20.390  16.698  -7.802  0.00  0.00    -0.222 NA
ATOM     45  H1  DL5 d   1      21.963  17.307  -6.646  0.00  0.00     0.146 H 
ATOM     46  C6  DL5 d   1      19.713  15.664  -8.340  0.00  0.00     0.155 A 
ATOM     47  N7  DL5 d   1      19.759  13.072  -8.446  0.00  0.00    -0.236 NA
ATOM     48  C8  DL5 d   1      20.622  12.288  -7.878  0.00  0.00     0.071 A 
ATOM     49  H4  DL5 d   1      20.575  11.204  -7.975  0.00  0.00     0.144 H 
BRANCH  46  50
ATOM     50  N6  DL5 d   1      18.627  15.903  -9.102  0.00  0.00    -0.382 N 
ATOM     51  H2  DL5 d   1      18.105  15.117  -9.516  0.00  0.00     0.157 HD
ATOM     52  H3  DL5 d   1      18.319  16.871  -9.270  0.00  0.00     0.157 HD
ENDBRANCH  46  50
ENDBRANCH   1  39
BRANCH   5  53
ATOM     53  N2F DL5 d   1      21.919  10.623  -1.663  0.00  0.00    -0.114 N 
ATOM     54  O2F DL5 d   1      21.622  10.479  -0.514  0.00  0.00    -0.532 OA
ATOM     55  O3F DL5 d   1      21.078  10.689  -2.548  0.00  0.00    -0.532 OA
ENDBRANCH   5  53
BRANCH  13  56
ATOM     56  N6F DL5 d   1      26.160  11.145  -4.742  0.00  0.00    -0.141 N 
ATOM     57  O6F DL5 d   1      27.407  11.193  -4.722  0.00  0.00    -0.536 OA
ATOM     58  O7F DL5 d   1      25.525  11.239  -5.770  0.00  0.00    -0.536 OA
ENDBRANCH  13  56
BRANCH  11  59
ATOM     59  N4F DL5 d   1      26.362  10.577   0.238  0.00  0.00    -0.116 N 
ATOM     60  O4F DL5 d   1      27.581  10.636   0.127  0.00  0.00    -0.532 OA
ATOM     61  O5F DL5 d   1      25.804  10.431   1.306  0.00  0.00    -0.532 OA
ENDBRANCH  11  59
TORSDOF 12
