REMARK  12 active torsions:
REMARK  status: ('A' for Active; 'I' for Inactive)
REMARK    1  A    between atoms: C6_6  and  N6_7 
REMARK    2  A    between atoms: C1'_15  and  N9_10 
REMARK    3  A    between atoms: PA_11  and  O3A_30 
REMARK    4  A    between atoms: O5'_40  and  PA_11 
REMARK    5  A    between atoms: PB_12  and  C01_14 
REMARK    6  A    between atoms: O3A_30  and  PB_12 
REMARK    7  A    between atoms: C01_14  and  PG_13 
REMARK    8  A    between atoms: C2F_24  and  N2F_25 
REMARK    9  A    between atoms: C5'_39  and  C4'_34 
REMARK   10  A    between atoms: C4F_36  and  N4F_37 
REMARK   11  A    between atoms: C5'_39  and  O5'_40 
REMARK   12  A    between atoms: C6F_43  and  N6F_44 
ROOT
ATOM      1  C1' DL5 d   1       3.188   5.727  12.932  0.00  0.00     0.140 A 
ATOM      2  C1F DL5 d   1       5.751   6.406  10.764  0.00  0.00     0.247 A 
ATOM      3  C2' DL5 d   1       3.649   5.665  11.444  0.00  0.00     0.112 A 
ATOM      4  O2' DL5 d   1       5.027   5.196  11.389  0.00  0.00    -0.335 OA
ATOM      5  C2F DL5 d   1       6.441   5.804   9.497  0.00  0.00     0.147 A 
ATOM      6  C3' DL5 d   1       3.516   7.137  10.849  0.00  0.00     0.098 A 
ATOM      7  O3' DL5 d   1       4.839   7.590  10.440  0.00  0.00    -0.337 OA
ATOM      8  C3F DL5 d   1       7.845   5.825   9.349  0.00  0.00    -0.018 A 
ATOM      9  C4' DL5 d   1       3.008   8.044  11.857  0.00  0.00     0.089 A 
ATOM     10  O4' DL5 d   1       2.874   7.086  12.981  0.00  0.00    -0.353 OA
ATOM     11  C4F DL5 d   1       8.789   6.348  10.226  0.00  0.00     0.103 A 
ATOM     12  C5F DL5 d   1       8.264   6.929  11.411  0.00  0.00    -0.038 A 
ATOM     13  C6F DL5 d   1       6.799   7.019  11.765  0.00  0.00     0.152 A 
ATOM     14  H7  DL5 d   1       4.004   5.446  13.614  0.00  0.00     0.122 H 
ATOM     15  H8  DL5 d   1       3.007   4.976  10.877  0.00  0.00     0.094 H 
ATOM     16  H9  DL5 d   1       2.837   7.127   9.984  0.00  0.00     0.091 H 
ATOM     17  H10 DL5 d   1       8.236   5.377   8.437  0.00  0.00     0.090 H 
ATOM     18  H11 DL5 d   1       3.743   8.841  12.042  0.00  0.00     0.090 H 
ATOM     19  H14 DL5 d   1       8.977   7.343  12.123  0.00  0.00     0.084 H 
ATOM     20  H15 DL5 d   1       6.685   7.987  11.256  0.00  0.00     0.098 H 
ENDROOT
BRANCH   9  21
ATOM     21  C5' DL5 d   1       1.536   8.705  11.747  0.00  0.00     0.058 C 
ATOM     22  H12 DL5 d   1       1.520   9.418  10.910  0.00  0.00     0.079 H 
ATOM     23  H13 DL5 d   1       1.304   9.233  12.684  0.00  0.00     0.079 H 
BRANCH  21  24
ATOM     24  O5' DL5 d   1       0.538   7.674  11.518  0.00  0.00    -0.287 OA
BRANCH  24  25
ATOM     25  PA  DL5 d   1      -0.574   7.765  10.282  0.00  0.00     0.416 P 
ATOM     26  O1A DL5 d   1       0.203   7.467   8.934  0.00  0.00    -0.624 OA
ATOM     27  O2A DL5 d   1      -1.471   8.984  10.250  0.00  0.00    -0.624 OA
BRANCH  25  28
ATOM     28  O3A DL5 d   1      -1.592   6.580  10.743  0.00  0.00    -0.203 OA
BRANCH  28  29
ATOM     29  PB  DL5 d   1      -2.968   6.550  11.768  0.00  0.00     0.272 P 
ATOM     30  O1B DL5 d   1      -2.680   7.591  12.686  0.00  0.00    -0.646 OA
ATOM     31  O2B DL5 d   1      -4.154   6.853  11.113  0.00  0.00    -0.646 OA
BRANCH  29  32
ATOM     32  C01 DL5 d   1      -3.292   5.029  12.692  0.00  0.00     0.134 C 
ATOM     33  H5  DL5 d   1      -3.928   5.289  13.551  0.00  0.00     0.073 H 
ATOM     34  H6  DL5 d   1      -2.326   4.646  13.054  0.00  0.00     0.073 H 
BRANCH  32  35
ATOM     35  PG  DL5 d   1      -4.091   3.721  11.810  0.00  0.00     0.271 P 
ATOM     36  O1G DL5 d   1      -5.034   4.227  10.622  0.00  0.00    -0.639 OA
ATOM     37  O2G DL5 d   1      -5.045   3.020  12.883  0.00  0.00    -0.639 OA
ATOM     38  O3G DL5 d   1      -3.201   2.727  11.237  0.00  0.00    -0.639 OA
ENDBRANCH  32  35
ENDBRANCH  29  32
ENDBRANCH  28  29
ENDBRANCH  25  28
ENDBRANCH  24  25
ENDBRANCH  21  24
ENDBRANCH   9  21
BRANCH   1  39
ATOM     39  N9  DL5 d   1       1.948   4.954  13.292  0.00  0.00    -0.294 N 
ATOM     40  C4  DL5 d   1       1.924   3.604  13.523  0.00  0.00     0.167 A 
ATOM     41  N3  DL5 d   1       2.832   2.535  13.529  0.00  0.00    -0.222 NA
ATOM     42  C5  DL5 d   1       0.599   3.287  13.825  0.00  0.00     0.149 A 
ATOM     43  C2  DL5 d   1       2.491   1.231  13.810  0.00  0.00     0.091 A 
ATOM     44  N1  DL5 d   1       1.195   0.884  14.112  0.00  0.00    -0.222 NA
ATOM     45  H1  DL5 d   1       3.257   0.465  13.793  0.00  0.00     0.146 H 
ATOM     46  C6  DL5 d   1       0.214   1.928  14.122  0.00  0.00     0.155 A 
ATOM     47  N7  DL5 d   1      -0.169   4.382  13.787  0.00  0.00    -0.236 NA
ATOM     48  C8  DL5 d   1       0.654   5.335  13.474  0.00  0.00     0.071 A 
ATOM     49  H4  DL5 d   1       0.331   6.369  13.364  0.00  0.00     0.144 H 
BRANCH  46  50
ATOM     50  N6  DL5 d   1      -1.075   1.654  14.412  0.00  0.00    -0.382 N 
ATOM     51  H2  DL5 d   1      -1.774   2.411  14.417  0.00  0.00     0.157 HD
ATOM     52  H3  DL5 d   1      -1.360   0.688  14.628  0.00  0.00     0.157 HD
ENDBRANCH  46  50
ENDBRANCH   1  39
BRANCH   5  53
ATOM     53  N2F DL5 d   1       5.714   5.181   8.402  0.00  0.00    -0.114 N 
ATOM     54  O2F DL5 d   1       6.237   4.713   7.435  0.00  0.00    -0.532 OA
ATOM     55  O3F DL5 d   1       4.493   5.093   8.398  0.00  0.00    -0.532 OA
ENDBRANCH   5  53
BRANCH  13  56
ATOM     56  N6F DL5 d   1       6.592   7.676  13.067  0.00  0.00    -0.141 N 
ATOM     57  O6F DL5 d   1       7.575   8.085  13.720  0.00  0.00    -0.536 OA
ATOM     58  O7F DL5 d   1       5.559   7.883  13.603  0.00  0.00    -0.536 OA
ENDBRANCH  13  56
BRANCH  11  59
ATOM     59  N4F DL5 d   1      10.121   6.347  10.047  0.00  0.00    -0.116 N 
ATOM     60  O4F DL5 d   1      10.919   6.821  10.849  0.00  0.00    -0.532 OA
ATOM     61  O5F DL5 d   1      10.632   5.865   9.055  0.00  0.00    -0.532 OA
ENDBRANCH  11  59
TORSDOF 12
