REMARK  12 active torsions:
REMARK  status: ('A' for Active; 'I' for Inactive)
REMARK    1  A    between atoms: O3B_8  and  PG_1 
REMARK    2  A    between atoms: PB_5  and  O3B_8 
REMARK    3  A    between atoms: O3A_12  and  PB_5 
REMARK    4  A    between atoms: PA_9  and  O3A_12 
REMARK    5  A    between atoms: PA_9  and  O5'_13 
REMARK    6  A    between atoms: O5'_13  and  C5'_14 
REMARK    7  A    between atoms: C5'_14  and  C4'_15 
REMARK    8  A    between atoms: C1'_21  and  N9_22 
REMARK    9  A    between atoms: C6_26  and  N6_27 
REMARK   10  A    between atoms: C2F_33  and  N2F_38 
REMARK   11  A    between atoms: C4F_35  and  N4F_39 
REMARK   12  A    between atoms: C6F_37  and  N6F_40 
ROOT
ATOM      1  C4' 128 d   1      58.514 -22.196  21.337  0.00  0.00     0.089 A 
ATOM      2  O4' 128 d   1      57.918 -22.167  19.982  0.00  0.00    -0.353 OA
ATOM      3  C3' 128 d   1      60.017 -22.034  21.169  0.00  0.00     0.098 A 
ATOM      4  O3' 128 d   1      60.672 -23.221  21.633  0.00  0.00    -0.337 OA
ATOM      5  C2' 128 d   1      60.268 -21.954  19.661  0.00  0.00     0.112 A 
ATOM      6  O2' 128 d   1      61.048 -23.119  19.345  0.00  0.00    -0.335 OA
ATOM      7  C1' 128 d   1      58.871 -22.032  18.974  0.00  0.00     0.140 A 
ATOM      8  C1F 128 d   1      61.311 -23.863  20.535  0.00  0.00     0.247 A 
ATOM      9  C2F 128 d   1      62.821 -23.876  20.780  0.00  0.00     0.147 A 
ATOM     10  C3F 128 d   1      63.539 -25.014  20.961  0.00  0.00    -0.018 A 
ATOM     11  C4F 128 d   1      63.011 -26.292  20.924  0.00  0.00     0.103 A 
ATOM     12  C5F 128 d   1      61.724 -26.457  20.706  0.00  0.00    -0.038 A 
ATOM     13  C6F 128 d   1      60.769 -25.318  20.477  0.00  0.00     0.152 A 
ATOM     14  H3  128 d   1      58.350 -23.184  21.792  0.00  0.00     0.090 H 
ATOM     15  H4  128 d   1      60.387 -21.142  21.695  0.00  0.00     0.091 H 
ATOM     16  H5  128 d   1      60.796 -21.031  19.378  0.00  0.00     0.094 H 
ATOM     17  H6  128 d   1      58.861 -22.905  18.304  0.00  0.00     0.122 H 
ATOM     18  H11 128 d   1      64.607 -24.913  21.149  0.00  0.00     0.090 H 
ATOM     19  H12 128 d   1      61.330 -27.472  20.691  0.00  0.00     0.084 H 
ATOM     20  H13 128 d   1      60.955 -25.349  19.393  0.00  0.00     0.098 H 
ENDROOT
BRANCH   1  21
ATOM     21  C5' 128 d   1      57.732 -21.197  22.157  0.00  0.00     0.058 C 
ATOM     22  H1  128 d   1      56.973 -20.729  21.513  0.00  0.00     0.079 H 
ATOM     23  H2  128 d   1      57.235 -21.729  22.981  0.00  0.00     0.079 H 
BRANCH  21  24
ATOM     24  O5' 128 d   1      58.575 -20.156  22.716  0.00  0.00    -0.287 OA
BRANCH  24  25
ATOM     25  PA  128 d   1      57.922 -18.653  23.000  0.00  0.00     0.417 P 
ATOM     26  O1A 128 d   1      58.546 -17.987  24.296  0.00  0.00    -0.624 OA
ATOM     27  O2A 128 d   1      56.414 -18.661  22.853  0.00  0.00    -0.624 OA
BRANCH  25  28
ATOM     28  O3A 128 d   1      58.446 -17.821  21.698  0.00  0.00    -0.180 OA
BRANCH  28  29
ATOM     29  PB  128 d   1      59.765 -16.999  21.382  0.00  0.00     0.428 P 
ATOM     30  O1B 128 d   1      60.917 -17.848  21.952  0.00  0.00    -0.624 OA
ATOM     31  O2B 128 d   1      59.987 -16.647  19.928  0.00  0.00    -0.624 OA
BRANCH  29  32
ATOM     32  O3B 128 d   1      59.568 -15.649  22.191  0.00  0.00    -0.173 OA
BRANCH  32  33
ATOM     33  PG  128 d   1      58.741 -14.327  21.841  0.00  0.00     0.431 P 
ATOM     34  O1G 128 d   1      57.184 -14.422  22.187  0.00  0.00    -0.616 OA
ATOM     35  O2G 128 d   1      59.366 -13.230  22.815  0.00  0.00    -0.616 OA
ATOM     36  O3G 128 d   1      58.829 -13.877  20.460  0.00  0.00    -0.616 OA
ENDBRANCH  32  33
ENDBRANCH  29  32
ENDBRANCH  28  29
ENDBRANCH  25  28
ENDBRANCH  24  25
ENDBRANCH  21  24
ENDBRANCH   1  21
BRANCH   7  37
ATOM     37  N9  128 d   1      58.455 -20.884  18.245  0.00  0.00    -0.294 N 
ATOM     38  C8  128 d   1      57.873 -19.753  18.732  0.00  0.00     0.071 A 
ATOM     39  N7  128 d   1      57.591 -18.860  17.832  0.00  0.00    -0.236 NA
ATOM     40  H7  128 d   1      57.661 -19.609  19.791  0.00  0.00     0.144 H 
ATOM     41  C5  128 d   1      58.017 -19.444  16.643  0.00  0.00     0.149 A 
ATOM     42  C6  128 d   1      58.006 -19.007  15.269  0.00  0.00     0.155 A 
ATOM     43  C4  128 d   1      58.555 -20.706  16.891  0.00  0.00     0.167 A 
ATOM     44  N1  128 d   1      58.514 -19.850  14.344  0.00  0.00    -0.222 NA
ATOM     45  C2  128 d   1      58.990 -21.030  14.749  0.00  0.00     0.091 A 
ATOM     46  N3  128 d   1      59.060 -21.548  15.975  0.00  0.00    -0.222 NA
ATOM     47  H10 128 d   1      59.379 -21.663  13.960  0.00  0.00     0.146 H 
BRANCH  42  48
ATOM     48  N6  128 d   1      57.518 -17.810  14.876  0.00  0.00    -0.382 N 
ATOM     49  H8  128 d   1      57.535 -17.549  13.880  0.00  0.00     0.157 HD
ATOM     50  H9  128 d   1      57.129 -17.159  15.573  0.00  0.00     0.157 HD
ENDBRANCH  42  48
ENDBRANCH   7  37
BRANCH   9  51
ATOM     51  N2F 128 d   1      63.586 -22.641  20.865  0.00  0.00    -0.114 N 
ATOM     52  O2F 128 d   1      64.757 -22.722  21.074  0.00  0.00    -0.532 OA
ATOM     53  O3F 128 d   1      63.016 -21.573  20.718  0.00  0.00    -0.532 OA
ENDBRANCH   9  51
BRANCH  13  54
ATOM     54  N6F 128 d   1      59.294 -25.652  20.244  0.00  0.00    -0.141 N 
ATOM     55  O6F 128 d   1      58.948 -26.820  20.234  0.00  0.00    -0.536 OA
ATOM     56  O7F 128 d   1      58.509 -24.752  20.064  0.00  0.00    -0.536 OA
ENDBRANCH  13  54
BRANCH  11  57
ATOM     57  N4F 128 d   1      63.817 -27.462  21.118  0.00  0.00    -0.116 N 
ATOM     58  O4F 128 d   1      63.243 -28.541  21.068  0.00  0.00    -0.532 OA
ATOM     59  O5F 128 d   1      65.004 -27.330  21.321  0.00  0.00    -0.532 OA
ENDBRANCH  11  57
TORSDOF 12
