REMARK  12 active torsions:
REMARK  status: ('A' for Active; 'I' for Inactive)
REMARK    1  A    between atoms: CAS_2  and  CAO_4 
REMARK    2  A    between atoms: CAM_9  and  CAL_10 
REMARK    3  A    between atoms: CAL_10  and  N_11 
REMARK    4  A    between atoms: N_11  and  CA_12 
REMARK    5  A    between atoms: CA_12  and  C_13 
REMARK       I    between atoms: C_13  and  NAC_15 
REMARK    6  A    between atoms: NAC_15  and  CAB_16 
REMARK    7  A    between atoms: NAC_15  and  CAD_18 
REMARK    8  A    between atoms: CAB_16  and  CAA_17 
REMARK    9  A    between atoms: CAD_18  and  CAE_19 
REMARK   10  A    between atoms: CAE_19  and  NAF_20 
REMARK   11  A    between atoms: NAF_20  and  CAH_21 
REMARK   12  A    between atoms: NAF_20  and  CAG_22 
ROOT
ATOM      1  C   MMK d   1      80.413  63.517  13.136  0.00  0.00     0.245 C 
ATOM      2  O   MMK d   1      80.209  62.942  12.064  0.00  0.00    -0.272 OA
ATOM      3  NAC MMK d   1      79.812  63.145  14.292  0.00  0.00    -0.349 N 
ENDROOT
BRANCH   3   4
ATOM      4  CAB MMK d   1      80.054  63.729  15.631  0.00  0.00    -0.006 C 
ATOM      5  H10 MMK d   1      81.070  64.147  15.683  0.00  0.00     0.063 H 
ATOM      6  H11 MMK d   1      79.935  62.958  16.407  0.00  0.00     0.063 H 
BRANCH   4   7
ATOM      7  CAA MMK d   1      79.025  64.830  15.826  0.00  0.00    -0.061 C 
ATOM      8  H12 MMK d   1      79.168  65.294  16.813  0.00  0.00     0.029 H 
ATOM      9  H13 MMK d   1      78.014  64.402  15.765  0.00  0.00     0.029 H 
ATOM     10  H14 MMK d   1      79.149  65.591  15.041  0.00  0.00     0.029 H 
ENDBRANCH   4   7
ENDBRANCH   3   4
BRANCH   3  11
ATOM     11  CAD MMK d   1      78.788  62.078  14.256  0.00  0.00     0.020 C 
ATOM     12  H15 MMK d   1      78.199  62.164  13.331  0.00  0.00     0.066 H 
ATOM     13  H16 MMK d   1      78.122  62.178  15.126  0.00  0.00     0.066 H 
BRANCH  11  14
ATOM     14  CAE MMK d   1      79.482  60.714  14.296  0.00  0.00     0.097 C 
ATOM     15  H17 MMK d   1      79.295  60.275  15.287  0.00  0.00     0.078 H 
ATOM     16  H18 MMK d   1      80.561  60.887  14.169  0.00  0.00     0.078 H 
BRANCH  14  17
ATOM     17  NAF MMK d   1      79.063  59.711  13.273  0.00  0.00    -0.077 N 
ATOM     18  H19 MMK d   1      79.696  59.809  12.495  0.00  0.00     0.279 HD
BRANCH  17  19
ATOM     19  CAH MMK d   1      77.693  59.816  12.725  0.00  0.00     0.066 C 
ATOM     20  H20 MMK d   1      77.531  59.016  11.988  0.00  0.00     0.068 H 
ATOM     21  H21 MMK d   1      77.567  60.794  12.238  0.00  0.00     0.068 H 
ATOM     22  H22 MMK d   1      76.963  59.716  13.542  0.00  0.00     0.068 H 
ENDBRANCH  17  19
BRANCH  17  23
ATOM     23  CAG MMK d   1      79.228  58.358  13.851  0.00  0.00     0.066 C 
ATOM     24  H23 MMK d   1      80.242  58.258  14.265  0.00  0.00     0.068 H 
ATOM     25  H24 MMK d   1      79.076  57.603  13.066  0.00  0.00     0.068 H 
ATOM     26  H25 MMK d   1      78.488  58.209  14.651  0.00  0.00     0.068 H 
ENDBRANCH  17  23
ENDBRANCH  14  17
ENDBRANCH  11  14
ENDBRANCH   3  11
BRANCH   1  27
ATOM     27  CA  MMK d   1      81.455  64.646  13.203  0.00  0.00     0.154 C 
ATOM     28  H8  MMK d   1      80.970  65.576  13.535  0.00  0.00     0.090 H 
ATOM     29  H9  MMK d   1      82.249  64.373  13.914  0.00  0.00     0.090 H 
BRANCH  27  30
ATOM     30  N   MMK d   1      82.032  64.842  11.878  0.00  0.00    -0.062 N 
ATOM     31  H6  MMK d   1      81.368  64.539  11.182  0.00  0.00     0.278 HD
ATOM     32  H7  MMK d   1      82.232  65.821  11.748  0.00  0.00     0.278 HD
BRANCH  30  33
ATOM     33  CAL MMK d   1      83.295  64.062  11.718  0.00  0.00     0.121 C 
ATOM     34  H4  MMK d   1      83.223  63.107  12.259  0.00  0.00     0.085 H 
ATOM     35  H5  MMK d   1      83.489  63.867  10.653  0.00  0.00     0.085 H 
BRANCH  33  36
ATOM     36  CAM MMK d   1      84.332  64.860  12.267  0.00  0.00     0.060 A 
ATOM     37  CAN MMK d   1      85.476  64.321  12.869  0.00  0.00    -0.041 A 
ATOM     38  CAO MMK d   1      86.462  65.160  13.413  0.00  0.00     0.044 A 
ATOM     39  H1  MMK d   1      85.602  63.245  12.915  0.00  0.00     0.088 H 
ATOM     40  CAP MMK d   1      86.230  66.539  13.357  0.00  0.00    -0.050 A 
ATOM     41  CAQ MMK d   1      85.091  67.059  12.745  0.00  0.00     0.004 A 
ATOM     42  H2  MMK d   1      86.951  67.217  13.799  0.00  0.00     0.087 H 
ATOM     43  NAR MMK d   1      84.149  66.181  12.209  0.00  0.00    -0.264 NA
ATOM     44  H3  MMK d   1      84.939  68.131  12.686  0.00  0.00     0.114 H 
BRANCH  38  45
ATOM     45  CAS MMK d   1      87.629  64.653  14.030  0.00  0.00     0.209 C 
ATOM     46  OAT MMK d   1      88.137  65.264  15.027  0.00  0.00    -0.644 OA
ATOM     47  OAU MMK d   1      88.155  63.584  13.639  0.00  0.00    -0.644 OA
ENDBRANCH  38  45
ENDBRANCH  33  36
ENDBRANCH  30  33
ENDBRANCH  27  30
ENDBRANCH   1  27
TORSDOF 12
