REMARK  2 active torsions:
REMARK  status: ('A' for Active; 'I' for Inactive)
REMARK    1  A    between atoms: CAO_15  and  CAN_14 
REMARK    2  A    between atoms: CAQ_17  and  NAS_19 
ROOT
ATOM      1  OAB R8J d   1     -19.765  31.957   1.737  0.00  0.00    -0.268 OA
ATOM      2  CAE R8J d   1     -21.198  28.874  -0.692  0.00  0.00    -0.061 A 
ATOM      3  CAF R8J d   1     -21.022  29.731   0.390  0.00  0.00    -0.036 A 
ATOM      4  CAH R8J d   1     -20.785  27.008   0.749  0.00  0.00     0.021 A 
ATOM      5  CAI R8J d   1     -20.484  30.712   4.728  0.00  0.00     0.035 A 
ATOM      6  NAK R8J d   1     -20.612  27.893   1.823  0.00  0.00    -0.240 NA
ATOM      7  NAM R8J d   1     -20.770  29.693   3.913  0.00  0.00    -0.177 NA
ATOM      8  CAO R8J d   1     -21.079  27.501  -0.515  0.00  0.00     0.058 A 
ATOM      9  CAP R8J d   1     -20.726  29.221   1.652  0.00  0.00     0.153 A 
ATOM     10  CAQ R8J d   1     -20.065  31.704   3.959  0.00  0.00     0.147 A 
ATOM     11  CAR R8J d   1     -20.100  31.282   2.710  0.00  0.00     0.276 A 
ATOM     12  NAT R8J d   1     -20.548  30.025   2.705  0.00  0.00    -0.181 N 
ATOM     13  H2  R8J d   1     -21.428  29.277  -1.672  0.00  0.00     0.085 H 
ATOM     14  H3  R8J d   1     -21.116  30.802   0.250  0.00  0.00     0.089 H 
ATOM     15  H5  R8J d   1     -20.689  25.940   0.906  0.00  0.00     0.116 H 
ATOM     16  H6  R8J d   1     -20.577  30.724   5.813  0.00  0.00     0.114 H 
ATOM     17  H7  R8J d   1     -21.084  32.111   3.881  0.00  0.00     0.100 H 
ENDROOT
BRANCH  10  18
ATOM     18  NAS R8J d   1     -19.670  32.906   4.368  0.00  0.00    -0.242 N 
ATOM     19  CAG R8J d   1     -20.187  34.061   3.968  0.00  0.00     0.020 A 
ATOM     20  CAD R8J d   1     -19.504  34.989   4.613  0.00  0.00     0.042 A 
ATOM     21  H4  R8J d   1     -21.000  34.211   3.260  0.00  0.00     0.116 H 
ATOM     22  NAJ R8J d   1     -18.622  34.332   5.359  0.00  0.00    -0.143 NA
ATOM     23  H1  R8J d   1     -19.636  36.068   4.547  0.00  0.00     0.119 H 
ATOM     24  NAL R8J d   1     -18.765  33.131   5.177  0.00  0.00    -0.066 NA
ENDBRANCH  10  18
BRANCH   8  25
ATOM     25  CAN R8J d   1     -21.248  26.623  -1.584  0.00  0.00     0.210 C 
ATOM     26  OAA R8J d   1     -21.272  25.390  -1.377  0.00  0.00    -0.644 OA
ATOM     27  OAC R8J d   1     -21.365  27.062  -2.752  0.00  0.00    -0.644 OA
ENDBRANCH   8  25
TORSDOF 2
