REMARK  2 active torsions:
REMARK  status: ('A' for Active; 'I' for Inactive)
REMARK    1  A    between atoms: C41_2  and  C4_4 
REMARK    2  A    between atoms: C2_8  and  C21_10 
ROOT
ATOM      1  C4  PD2 d   1      86.661  65.062  13.710  0.00  0.00     0.044 A 
ATOM      2  C5  PD2 d   1      86.530  66.450  13.493  0.00  0.00    -0.049 A 
ATOM      3  C6  PD2 d   1      85.378  66.948  12.878  0.00  0.00     0.004 A 
ATOM      4  C3  PD2 d   1      85.604  64.193  13.305  0.00  0.00    -0.032 A 
ATOM      5  C2  PD2 d   1      84.531  64.792  12.719  0.00  0.00     0.133 A 
ATOM      6  N1  PD2 d   1      84.423  66.118  12.521  0.00  0.00    -0.254 NA
ATOM      7  H1  PD2 d   1      87.319  67.127  13.802  0.00  0.00     0.087 H 
ATOM      8  H2  PD2 d   1      85.273  68.011  12.697  0.00  0.00     0.114 H 
ATOM      9  H3  PD2 d   1      85.653  63.120  13.455  0.00  0.00     0.089 H 
ENDROOT
BRANCH   1  10
ATOM     10  C41 PD2 d   1      87.933  64.505  14.370  0.00  0.00     0.209 C 
ATOM     11  O42 PD2 d   1      88.421  63.364  14.013  0.00  0.00    -0.644 OA
ATOM     12  O41 PD2 d   1      88.515  65.199  15.274  0.00  0.00    -0.644 OA
ENDBRANCH   1  10
BRANCH   5  13
ATOM     13  C21 PD2 d   1      83.332  63.951  12.299  0.00  0.00     0.229 C 
ATOM     14  O21 PD2 d   1      82.243  64.581  12.099  0.00  0.00    -0.643 OA
ATOM     15  O22 PD2 d   1      83.419  62.732  12.213  0.00  0.00    -0.643 OA
ENDBRANCH   5  13
TORSDOF 2
