REMARK  3 active torsions:
REMARK  status: ('A' for Active; 'I' for Inactive)
REMARK    1  A    between atoms: CAJ_10  and  CAA_1 
REMARK    2  A    between atoms: CAK_11  and  OAC_3 
REMARK       I    between atoms: NAH_8  and  CAJ_10 
REMARK    3  A    between atoms: NAH_8  and  CAL_12 
ROOT
ATOM      1  CAD QIV d   1       8.782  28.219  10.783  0.00  0.00    -0.050 A 
ATOM      2  CAE QIV d   1       8.615  27.245  11.751  0.00  0.00    -0.061 A 
ATOM      3  CAF QIV d   1       6.443  28.652  10.932  0.00  0.00    -0.022 A 
ATOM      4  NAG QIV d   1       5.198  27.317  12.496  0.00  0.00    -0.223 NA
ATOM      5  SAI QIV d   1       6.959  25.906  13.421  0.00  0.00    -0.050 SA
ATOM      6  CAK QIV d   1       7.678  28.943  10.363  0.00  0.00     0.068 A 
ATOM      7  CAL QIV d   1       5.349  26.347  13.389  0.00  0.00     0.174 A 
ATOM      8  CAM QIV d   1       6.325  27.699  11.867  0.00  0.00     0.079 A 
ATOM      9  CAN QIV d   1       7.416  27.001  12.266  0.00  0.00     0.037 A 
ATOM     10  H5  QIV d   1       9.761  28.413  10.360  0.00  0.00     0.087 H 
ATOM     11  H6  QIV d   1       9.472  26.675  12.092  0.00  0.00     0.085 H 
ATOM     12  H7  QIV d   1       5.565  29.203  10.615  0.00  0.00     0.091 H 
ENDROOT
BRANCH   7  13
ATOM     13  NAH QIV d   1       4.312  25.870  14.082  0.00  0.00    -0.306 N 
ATOM     14  CAJ QIV d   1       4.460  24.877  14.982  0.00  0.00     0.219 C 
ATOM     15  OAB QIV d   1       5.514  24.317  15.272  0.00  0.00    -0.274 OA
ATOM     16  H8  QIV d   1       3.403  26.259  13.930  0.00  0.00     0.171 HD
BRANCH  14  17
ATOM     17  CAA QIV d   1       3.157  24.455  15.658  0.00  0.00    -0.002 C 
ATOM     18  H1  QIV d   1       2.329  25.066  15.271  0.00  0.00     0.040 H 
ATOM     19  H2  QIV d   1       3.244  24.601  16.745  0.00  0.00     0.040 H 
ATOM     20  H3  QIV d   1       2.960  23.394  15.445  0.00  0.00     0.040 H 
ENDBRANCH  14  17
ENDBRANCH   7  13
BRANCH   6  21
ATOM     21  OAC QIV d   1       7.814  29.910   9.417  0.00  0.00    -0.361 OA
ATOM     22  H4  QIV d   1       6.967  30.305   9.246  0.00  0.00     0.217 HD
ENDBRANCH   6  21
TORSDOF 3
