REMARK  4 active torsions:
REMARK  status: ('A' for Active; 'I' for Inactive)
REMARK    1  A    between atoms: N2_17  and  C1_1 
REMARK    2  A    between atoms: C8_6  and  N5_18 
REMARK    3  A    between atoms: C17_11  and  C12_7 
REMARK    4  A    between atoms: C18_12  and  N19_23 
ROOT
ATOM      1  C8  38O d   1      84.419   2.246   4.748  0.00  0.00     0.032 A 
ATOM      2  C12 38O d   1      86.949   1.388   8.426  0.00  0.00     0.120 A 
ATOM      3  N13 38O d   1      86.799   0.356   7.613  0.00  0.00    -0.232 NA
ATOM      4  C15 38O d   1      85.502   0.183   5.446  0.00  0.00    -0.051 A 
ATOM      5  C16 38O d   1      84.705   0.883   4.555  0.00  0.00    -0.055 A 
ATOM      6  C9  38O d   1      84.932   2.898   5.880  0.00  0.00    -0.029 A 
ATOM      7  C10 38O d   1      85.719   2.182   6.778  0.00  0.00     0.064 A 
ATOM      8  N11 38O d   1      86.384   2.529   7.945  0.00  0.00    -0.342 N 
ATOM      9  C14 38O d   1      86.003   0.834   6.572  0.00  0.00     0.085 A 
ATOM     10  H12 38O d   1      85.734  -0.861   5.269  0.00  0.00     0.087 H 
ATOM     11  H13 38O d   1      84.294   0.370   3.693  0.00  0.00     0.087 H 
ATOM     12  H19 38O d   1      84.718   3.946   6.053  0.00  0.00     0.090 H 
ATOM     13  H20 38O d   1      86.439   3.468   8.366  0.00  0.00     0.167 HD
ENDROOT
BRANCH   2  14
ATOM     14  C17 38O d   1      87.820   1.341   9.616  0.00  0.00     0.112 A 
ATOM     15  C18 38O d   1      87.682   2.309  10.693  0.00  0.00     0.148 A 
ATOM     16  C20 38O d   1      88.288   2.031  12.012  0.00  0.00     0.039 A 
ATOM     17  H15 38O d   1      88.591   2.826  10.351  0.00  0.00     0.093 H 
ATOM     18  C21 38O d   1      88.206   2.830  13.154  0.00  0.00     0.127 A 
ATOM     19  C26 38O d   1      89.066   0.845  12.141  0.00  0.00     0.046 A 
ATOM     20  C23 38O d   1      88.817   2.531  14.350  0.00  0.00    -0.045 A 
ATOM     21  F22 38O d   1      87.530   3.996  13.070  0.00  0.00    -0.205 F 
ATOM     22  C24 38O d   1      89.536   1.356  14.452  0.00  0.00    -0.078 A 
ATOM     23  H16 38O d   1      88.736   3.204  15.196  0.00  0.00     0.088 H 
ATOM     24  C25 38O d   1      89.651   0.511  13.365  0.00  0.00    -0.056 A 
ATOM     25  H17 38O d   1      90.013   1.095  15.390  0.00  0.00     0.083 H 
ATOM     26  H24 38O d   1      90.200  -0.419  13.463  0.00  0.00     0.086 H 
ATOM     27  N27 38O d   1      89.223  -0.003  11.052  0.00  0.00    -0.326 N 
ATOM     28  C28 38O d   1      88.691   0.200   9.827  0.00  0.00     0.236 A 
ATOM     29  H25 38O d   1      89.772  -0.828  11.185  0.00  0.00     0.169 HD
ATOM     30  O29 38O d   1      88.843  -0.666   8.969  0.00  0.00    -0.272 OA
ATOM     31  H14 38O d   1      88.609   1.926   9.120  0.00  0.00     0.070 H 
BRANCH  15  32
ATOM     32  N19 38O d   1      86.962   3.458  10.581  0.00  0.00    -0.070 N 
ATOM     33  H21 38O d   1      87.008   3.970  11.448  0.00  0.00     0.275 HD
ATOM     34  H22 38O d   1      86.001   3.234  10.374  0.00  0.00     0.275 HD
ATOM     35  H23 38O d   1      87.343   4.022   9.838  0.00  0.00     0.275 HD
ENDBRANCH  15  32
ENDBRANCH   2  14
BRANCH   1  36
ATOM     36  N5  38O d   1      83.627   2.932   3.822  0.00  0.00    -0.378 N 
ATOM     37  C4  38O d   1      82.171   2.852   3.990  0.00  0.00     0.018 C 
ATOM     38  C3  38O d   1      81.450   3.350   2.752  0.00  0.00     0.098 C 
ATOM     39  H6  38O d   1      81.888   1.805   4.174  0.00  0.00     0.066 H 
ATOM     40  H7  38O d   1      81.874   3.469   4.851  0.00  0.00     0.066 H 
ATOM     41  N2  38O d   1      81.890   4.697   2.401  0.00  0.00    -0.072 N 
ATOM     42  H4  38O d   1      80.367   3.364   2.946  0.00  0.00     0.078 H 
ATOM     43  H5  38O d   1      81.663   2.671   1.913  0.00  0.00     0.078 H 
ATOM     44  C7  38O d   1      83.323   4.683   2.119  0.00  0.00     0.098 C 
ATOM     45  H18 38O d   1      81.722   5.306   3.186  0.00  0.00     0.279 HD
ATOM     46  C6  38O d   1      84.108   4.230   3.333  0.00  0.00     0.018 C 
ATOM     47  H10 38O d   1      83.519   3.993   1.285  0.00  0.00     0.078 H 
ATOM     48  H11 38O d   1      83.645   5.697   1.840  0.00  0.00     0.078 H 
ATOM     49  H8  38O d   1      83.997   4.978   4.132  0.00  0.00     0.066 H 
ATOM     50  H9  38O d   1      85.170   4.140   3.061  0.00  0.00     0.066 H 
BRANCH  41  51
ATOM     51  C1  38O d   1      81.136   5.208   1.247  0.00  0.00     0.066 C 
ATOM     52  H1  38O d   1      80.061   5.209   1.482  0.00  0.00     0.068 H 
ATOM     53  H2  38O d   1      81.319   4.564   0.375  0.00  0.00     0.068 H 
ATOM     54  H3  38O d   1      81.463   6.234   1.020  0.00  0.00     0.068 H 
ENDBRANCH  41  51
ENDBRANCH   1  36
TORSDOF 4
