REMARK  19 active torsions:
REMARK  status: ('A' for Active; 'I' for Inactive)
REMARK    1  A    between atoms: C1_4  and  C_1 
REMARK    2  A    between atoms: N_2  and  C1_4 
REMARK    3  A    between atoms: N_2  and  C2_7 
REMARK    4  A    between atoms: C4_12  and  N_2 
REMARK    5  A    between atoms: N1_5  and  C6_16 
REMARK    6  A    between atoms: C7_18  and  N1_5 
REMARK    7  A    between atoms: C23_34  and  O1_6 
REMARK    8  A    between atoms: O1_6  and  C25_36 
REMARK    9  A    between atoms: C2_7  and  C3_10 
REMARK   10  A    between atoms: C21_32  and  O2_9 
REMARK   11  A    between atoms: O2_9  and  C26_37 
REMARK   12  A    between atoms: C5_14  and  C4_12 
REMARK   13  A    between atoms: C6_16  and  C5_14 
REMARK   14  A    between atoms: C12_23  and  N5_15 
REMARK       I    between atoms: N5_15  and  C14_25 
REMARK       I    between atoms: C14_25  and  N6_17 
REMARK   15  A    between atoms: N6_17  and  C15_26 
REMARK   16  A    between atoms: C19_30  and  C11_22 
REMARK   17  A    between atoms: C15_26  and  C16_27 
REMARK   18  A    between atoms: C15_26  and  C17_28 
REMARK   19  A    between atoms: C15_26  and  C18_29 
ROOT
ATOM      1  N2  XOJ d   1      88.027  -0.764   9.208  0.00  0.00    -0.074 NA
ATOM      2  N3  XOJ d   1      87.221   2.579  11.506  0.00  0.00    -0.209 NA
ATOM      3  N4  XOJ d   1      86.914   1.385   9.534  0.00  0.00    -0.042 NA
ATOM      4  C7  XOJ d   1      87.199   0.244   8.828  0.00  0.00     0.724 A 
ATOM      5  C8  XOJ d   1      88.596  -0.620  10.382  0.00  0.00     0.035 A 
ATOM      6  C9  XOJ d   1      88.453   0.511  11.183  0.00  0.00     0.032 A 
ATOM      7  C10 XOJ d   1      89.019   0.644  12.465  0.00  0.00    -0.053 A 
ATOM      8  C11 XOJ d   1      88.670   1.702  13.265  0.00  0.00     0.021 A 
ATOM      9  C12 XOJ d   1      87.735   2.661  12.729  0.00  0.00     0.145 A 
ATOM     10  C13 XOJ d   1      87.558   1.501  10.736  0.00  0.00     0.182 A 
ATOM     11  H21 XOJ d   1      89.215  -1.430  10.751  0.00  0.00     0.117 H 
ATOM     12  H22 XOJ d   1      89.732  -0.091  12.821  0.00  0.00     0.086 H 
ENDROOT
BRANCH   4  13
ATOM     13  N1  XOJ d   1      86.584   0.089   7.637  0.00  0.00    -0.222 N 
ATOM     14  H7  XOJ d   1      86.787  -0.783   7.128  0.00  0.00     0.177 HD
BRANCH  13  15
ATOM     15  C6  XOJ d   1      85.668   1.014   6.992  0.00  0.00     0.011 C 
ATOM     16  H18 XOJ d   1      86.135   2.008   6.933  0.00  0.00     0.064 H 
ATOM     17  H19 XOJ d   1      84.740   1.079   7.580  0.00  0.00     0.064 H 
BRANCH  15  18
ATOM     18  C5  XOJ d   1      85.343   0.523   5.586  0.00  0.00    -0.027 C 
ATOM     19  H15 XOJ d   1      86.282   0.472   5.016  0.00  0.00     0.037 H 
ATOM     20  H16 XOJ d   1      84.908  -0.484   5.667  0.00  0.00     0.037 H 
BRANCH  18  21
ATOM     21  C4  XOJ d   1      84.366   1.402   4.814  0.00  0.00     0.085 C 
ATOM     22  H13 XOJ d   1      83.447   1.489   5.413  0.00  0.00     0.076 H 
ATOM     23  H14 XOJ d   1      84.825   2.395   4.700  0.00  0.00     0.076 H 
BRANCH  21  24
ATOM     24  N   XOJ d   1      83.984   0.924   3.468  0.00  0.00    -0.072 N 
ATOM     25  H4  XOJ d   1      83.468   1.687   3.058  0.00  0.00     0.279 HD
BRANCH  24  26
ATOM     26  C1  XOJ d   1      85.141   0.735   2.563  0.00  0.00     0.080 C 
ATOM     27  H5  XOJ d   1      85.750  -0.092   2.957  0.00  0.00     0.075 H 
ATOM     28  H6  XOJ d   1      84.755   0.465   1.569  0.00  0.00     0.075 H 
BRANCH  26  29
ATOM     29  C   XOJ d   1      86.032   1.935   2.406  0.00  0.00    -0.053 C 
ATOM     30  H1  XOJ d   1      86.856   1.693   1.718  0.00  0.00     0.029 H 
ATOM     31  H2  XOJ d   1      86.444   2.217   3.386  0.00  0.00     0.029 H 
ATOM     32  H3  XOJ d   1      85.449   2.774   1.998  0.00  0.00     0.029 H 
ENDBRANCH  26  29
ENDBRANCH  24  26
BRANCH  24  33
ATOM     33  C2  XOJ d   1      83.019  -0.195   3.512  0.00  0.00     0.080 C 
ATOM     34  H8  XOJ d   1      83.294  -0.856   4.347  0.00  0.00     0.075 H 
ATOM     35  H9  XOJ d   1      83.091  -0.751   2.566  0.00  0.00     0.075 H 
BRANCH  33  36
ATOM     36  C3  XOJ d   1      81.582   0.237   3.701  0.00  0.00    -0.053 C 
ATOM     37  H10 XOJ d   1      80.932  -0.650   3.723  0.00  0.00     0.029 H 
ATOM     38  H11 XOJ d   1      81.283   0.890   2.868  0.00  0.00     0.029 H 
ATOM     39  H12 XOJ d   1      81.486   0.785   4.650  0.00  0.00     0.029 H 
ENDBRANCH  33  36
ENDBRANCH  24  33
ENDBRANCH  21  24
ENDBRANCH  18  21
ENDBRANCH  15  18
ENDBRANCH  13  15
ENDBRANCH   4  13
BRANCH   9  40
ATOM     40  N5  XOJ d   1      87.274   3.727  13.534  0.00  0.00    -0.292 N 
ATOM     41  C14 XOJ d   1      86.642   4.909  13.229  0.00  0.00     0.322 C 
ATOM     42  O   XOJ d   1      86.519   5.811  14.058  0.00  0.00    -0.247 OA
ATOM     43  N6  XOJ d   1      86.158   4.980  11.962  0.00  0.00    -0.335 N 
ATOM     44  H20 XOJ d   1      86.467   4.276  11.322  0.00  0.00     0.165 HD
ATOM     45  H17 XOJ d   1      87.439   3.597  14.512  0.00  0.00     0.172 HD
BRANCH  43  46
ATOM     46  C15 XOJ d   1      85.218   5.995  11.432  0.00  0.00     0.023 C 
BRANCH  46  47
ATOM     47  C16 XOJ d   1      84.947   5.680   9.966  0.00  0.00    -0.054 C 
ATOM     48  H23 XOJ d   1      84.250   6.424   9.554  0.00  0.00     0.030 H 
ATOM     49  H24 XOJ d   1      84.504   4.677   9.882  0.00  0.00     0.030 H 
ATOM     50  H25 XOJ d   1      85.892   5.712   9.403  0.00  0.00     0.030 H 
ENDBRANCH  46  47
BRANCH  46  51
ATOM     51  C17 XOJ d   1      85.857   7.373  11.544  0.00  0.00    -0.054 C 
ATOM     52  H26 XOJ d   1      85.164   8.132  11.152  0.00  0.00     0.030 H 
ATOM     53  H27 XOJ d   1      86.790   7.393  10.962  0.00  0.00     0.030 H 
ATOM     54  H28 XOJ d   1      86.079   7.590  12.599  0.00  0.00     0.030 H 
ENDBRANCH  46  51
BRANCH  46  55
ATOM     55  C18 XOJ d   1      83.908   5.954  12.220  0.00  0.00    -0.054 C 
ATOM     56  H29 XOJ d   1      83.216   6.710  11.820  0.00  0.00     0.030 H 
ATOM     57  H30 XOJ d   1      84.111   6.166  13.280  0.00  0.00     0.030 H 
ATOM     58  H31 XOJ d   1      83.455   4.956  12.126  0.00  0.00     0.030 H 
ENDBRANCH  46  55
ENDBRANCH  43  46
ENDBRANCH   9  40
BRANCH   8  59
ATOM     59  C19 XOJ d   1      89.219   1.759  14.651  0.00  0.00    -0.017 A 
ATOM     60  C20 XOJ d   1      90.330   2.549  14.955  0.00  0.00    -0.040 A 
ATOM     61  C21 XOJ d   1      90.863   2.543  16.235  0.00  0.00     0.071 A 
ATOM     62  H32 XOJ d   1      90.778   3.170  14.187  0.00  0.00     0.089 H 
ATOM     63  C22 XOJ d   1      90.296   1.769  17.238  0.00  0.00    -0.019 A 
ATOM     64  C23 XOJ d   1      89.192   0.990  16.935  0.00  0.00     0.071 A 
ATOM     65  H33 XOJ d   1      90.710   1.774  18.240  0.00  0.00     0.092 H 
ATOM     66  C24 XOJ d   1      88.645   0.991  15.660  0.00  0.00    -0.040 A 
ATOM     67  H34 XOJ d   1      87.767   0.391  15.449  0.00  0.00     0.089 H 
BRANCH  61  68
ATOM     68  O2  XOJ d   1      91.974   3.332  16.382  0.00  0.00    -0.356 OA
BRANCH  68  69
ATOM     69  C26 XOJ d   1      92.714   3.244  17.601  0.00  0.00     0.010 C 
ATOM     70  H38 XOJ d   1      93.569   3.935  17.561  0.00  0.00     0.066 H 
ATOM     71  H39 XOJ d   1      93.080   2.215  17.735  0.00  0.00     0.066 H 
ATOM     72  H40 XOJ d   1      92.063   3.514  18.445  0.00  0.00     0.066 H 
ENDBRANCH  68  69
ENDBRANCH  61  68
BRANCH  64  73
ATOM     73  O1  XOJ d   1      88.587   0.097  17.777  0.00  0.00    -0.356 OA
BRANCH  73  74
ATOM     74  C25 XOJ d   1      89.314  -0.371  18.911  0.00  0.00     0.010 C 
ATOM     75  H35 XOJ d   1      88.691  -1.077  19.480  0.00  0.00     0.066 H 
ATOM     76  H36 XOJ d   1      89.582   0.482  19.552  0.00  0.00     0.066 H 
ATOM     77  H37 XOJ d   1      90.230  -0.879  18.575  0.00  0.00     0.066 H 
ENDBRANCH  73  74
ENDBRANCH  64  73
ENDBRANCH   8  59
TORSDOF 19
