REMARK  4 active torsions:
REMARK  status: ('A' for Active; 'I' for Inactive)
REMARK    1  A    between atoms: CAB_1  and  CAK_2 
REMARK       I    between atoms: CAK_2  and  NAH_4 
REMARK    2  A    between atoms: NAH_4  and  CAM_5 
REMARK    3  A    between atoms: CAL_13  and  OAI_14 
REMARK    4  A    between atoms: OAI_14  and  CAA_15 
ROOT
ATOM      1  CAM 7QQ d   1       3.930  15.750 -43.209  0.00  0.00     0.174 A 
ATOM      2  SAJ 7QQ d   1       3.698  14.254 -43.641  0.00  0.00    -0.050 SA
ATOM      3  NAG 7QQ d   1       4.970  16.247 -43.884  0.00  0.00    -0.223 NA
ATOM      4  CAN 7QQ d   1       5.537  15.364 -44.737  0.00  0.00     0.079 A 
ATOM      5  CAF 7QQ d   1       6.584  15.545 -45.552  0.00  0.00    -0.022 A 
ATOM      6  CAO 7QQ d   1       4.918  14.165 -44.716  0.00  0.00     0.037 A 
ATOM      7  CAE 7QQ d   1       5.312  13.148 -45.481  0.00  0.00    -0.061 A 
ATOM      8  CAD 7QQ d   1       6.391  13.294 -46.336  0.00  0.00    -0.049 A 
ATOM      9  CAL 7QQ d   1       7.039  14.517 -46.374  0.00  0.00     0.070 A 
ATOM     10  H5  7QQ d   1       7.085  16.506 -45.572  0.00  0.00     0.091 H 
ATOM     11  H6  7QQ d   1       4.785  12.202 -45.434  0.00  0.00     0.085 H 
ATOM     12  H7  7QQ d   1       6.720  12.471 -46.960  0.00  0.00     0.087 H 
ENDROOT
BRANCH   1  13
ATOM     13  NAH 7QQ d   1       3.189  16.389 -42.306  0.00  0.00    -0.306 N 
ATOM     14  CAK 7QQ d   1       2.913  17.678 -42.546  0.00  0.00     0.219 C 
ATOM     15  OAC 7QQ d   1       2.238  18.388 -41.799  0.00  0.00    -0.274 OA
ATOM     16  H4  7QQ d   1       2.853  15.927 -41.485  0.00  0.00     0.171 HD
BRANCH  14  17
ATOM     17  CAB 7QQ d   1       3.504  18.231 -43.844  0.00  0.00    -0.002 C 
ATOM     18  H1  7QQ d   1       4.067  17.438 -44.358  0.00  0.00     0.040 H 
ATOM     19  H2  7QQ d   1       4.178  19.069 -43.612  0.00  0.00     0.040 H 
ATOM     20  H3  7QQ d   1       2.691  18.584 -44.496  0.00  0.00     0.040 H 
ENDBRANCH  14  17
ENDBRANCH   1  13
BRANCH   9  21
ATOM     21  OAI 7QQ d   1       8.106  14.682 -47.207  0.00  0.00    -0.356 OA
BRANCH  21  22
ATOM     22  CAA 7QQ d   1       8.372  16.064 -47.456  0.00  0.00     0.010 C 
ATOM     23  H8  7QQ d   1       9.237  16.155 -48.130  0.00  0.00     0.066 H 
ATOM     24  H9  7QQ d   1       8.592  16.572 -46.506  0.00  0.00     0.066 H 
ATOM     25  H10 7QQ d   1       7.492  16.528 -47.924  0.00  0.00     0.066 H 
ENDBRANCH  21  22
ENDBRANCH   9  21
TORSDOF 4
