REMARK  1 active torsions:
REMARK  status: ('A' for Active; 'I' for Inactive)
REMARK       I    between atoms: NAH_11  and  CAJ_12 
REMARK    1  A    between atoms: CAJ_12  and  CAA_14 
ROOT
ATOM      1  NAG ZC3 d   1      -5.025 -16.253 -44.389  0.00  0.00    -0.223 NA
ATOM      2  CAM ZC3 d   1      -5.950 -15.772 -45.249  0.00  0.00     0.079 A 
ATOM      3  CAF ZC3 d   1      -6.873 -16.456 -45.931  0.00  0.00    -0.017 A 
ATOM      4  CAK ZC3 d   1      -7.758 -15.811 -46.784  0.00  0.00     0.118 A 
ATOM      5  FAC ZC3 d   1      -8.728 -16.531 -47.503  0.00  0.00    -0.206 F 
ATOM      6  CAD ZC3 d   1      -7.668 -14.438 -46.916  0.00  0.00    -0.044 A 
ATOM      7  CAE ZC3 d   1      -6.698 -13.764 -46.195  0.00  0.00    -0.061 A 
ATOM      8  CAN ZC3 d   1      -5.877 -14.432 -45.392  0.00  0.00     0.037 A 
ATOM      9  SAI ZC3 d   1      -4.657 -13.889 -44.439  0.00  0.00    -0.050 SA
ATOM     10  CAL ZC3 d   1      -4.239 -15.315 -43.860  0.00  0.00     0.174 A 
ATOM     11  NAH ZC3 d   1      -3.247 -15.511 -42.994  0.00  0.00    -0.306 N 
ATOM     12  CAJ ZC3 d   1      -2.829 -16.768 -42.800  0.00  0.00     0.219 C 
ATOM     13  OAB ZC3 d   1      -1.912 -17.069 -42.039  0.00  0.00    -0.274 OA
ATOM     14  H1  ZC3 d   1      -6.932 -17.532 -45.816  0.00  0.00     0.091 H 
ATOM     15  H2  ZC3 d   1      -8.344 -13.900 -47.571  0.00  0.00     0.088 H 
ATOM     16  H3  ZC3 d   1      -6.608 -12.688 -46.286  0.00  0.00     0.085 H 
ATOM     17  H4  ZC3 d   1      -2.828 -14.746 -42.505  0.00  0.00     0.171 HD
ENDROOT
BRANCH  12  18
ATOM     18  CAA ZC3 d   1      -3.584 -17.839 -43.590  0.00  0.00    -0.002 C 
ATOM     19  H5  ZC3 d   1      -3.164 -18.829 -43.359  0.00  0.00     0.040 H 
ATOM     20  H6  ZC3 d   1      -3.483 -17.640 -44.667  0.00  0.00     0.040 H 
ATOM     21  H7  ZC3 d   1      -4.648 -17.818 -43.312  0.00  0.00     0.040 H 
ENDBRANCH  12  18
TORSDOF 1
