REMARK  1 active torsions:
REMARK  status: ('A' for Active; 'I' for Inactive)
REMARK       I    between atoms: NAH_11  and  CAJ_12 
REMARK    1  A    between atoms: CAJ_12  and  CAA_14 
ROOT
ATOM      1  NAG Y3L d   1      -6.989 -30.285   9.411  0.00  0.00    -0.223 NA
ATOM      2  CAM Y3L d   1      -7.155 -29.333  10.366  0.00  0.00     0.077 A 
ATOM      3  CAE Y3L d   1      -8.250 -28.596  10.607  0.00  0.00    -0.052 A 
ATOM      4  CAD Y3L d   1      -8.294 -27.640  11.624  0.00  0.00    -0.060 A 
ATOM      5  CAK Y3L d   1      -7.142 -27.458  12.389  0.00  0.00     0.035 A 
ATOM      6 CLAC Y3L d   1      -7.065 -26.298  13.683  0.00  0.00    -0.084 Cl
ATOM      7  CAF Y3L d   1      -6.023 -28.234  12.099  0.00  0.00    -0.043 A 
ATOM      8  CAN Y3L d   1      -6.056 -29.141  11.126  0.00  0.00     0.038 A 
ATOM      9  SAI Y3L d   1      -4.851 -30.162  10.617  0.00  0.00    -0.050 SA
ATOM     10  CAL Y3L d   1      -5.773 -30.858   9.410  0.00  0.00     0.174 A 
ATOM     11  NAH Y3L d   1      -5.423 -31.797   8.547  0.00  0.00    -0.306 N 
ATOM     12  CAJ Y3L d   1      -4.222 -32.459   8.580  0.00  0.00     0.219 C 
ATOM     13  OAB Y3L d   1      -3.950 -33.305   7.729  0.00  0.00    -0.274 OA
ATOM     14  H1  Y3L d   1      -9.130 -28.748   9.992  0.00  0.00     0.087 H 
ATOM     15  H2  Y3L d   1      -9.191 -27.061  11.812  0.00  0.00     0.086 H 
ATOM     16  H3  Y3L d   1      -5.114 -28.098  12.673  0.00  0.00     0.088 H 
ATOM     17  H4  Y3L d   1      -6.073 -32.039   7.827  0.00  0.00     0.171 HD
ENDROOT
BRANCH  12  18
ATOM     18  CAA Y3L d   1      -3.170 -32.184   9.616  0.00  0.00    -0.002 C 
ATOM     19  H5  Y3L d   1      -2.301 -32.834   9.438  0.00  0.00     0.040 H 
ATOM     20  H6  Y3L d   1      -3.579 -32.385  10.617  0.00  0.00     0.040 H 
ATOM     21  H7  Y3L d   1      -2.859 -31.131   9.552  0.00  0.00     0.040 H 
ENDBRANCH  12  18
TORSDOF 1
