REMARK  1 active torsions:
REMARK  status: ('A' for Active; 'I' for Inactive)
REMARK       I    between atoms: NAI_12  and  CAK_13 
REMARK    1  A    between atoms: CAK_13  and  CAA_15 
ROOT
ATOM      1  NAH AJG d   1       8.364 -15.032  48.105  0.00  0.00    -0.223 NA
ATOM      2  CAN AJG d   1       7.439 -14.871  47.131  0.00  0.00     0.077 A 
ATOM      3  CAF AJG d   1       6.617 -13.832  46.951  0.00  0.00    -0.052 A 
ATOM      4  CAE AJG d   1       5.712 -13.810  45.894  0.00  0.00    -0.061 A 
ATOM      5  CAL AJG d   1       5.674 -14.892  45.018  0.00  0.00     0.046 A 
ATOM      6  CAD AJG d   1       4.792 -14.931  43.921  0.00  0.00     0.099 C 
ATOM      7  NAB AJG d   1       4.064 -14.971  43.011  0.00  0.00    -0.191 NA
ATOM      8  CAG AJG d   1       6.545 -15.950  45.232  0.00  0.00    -0.044 A 
ATOM      9  CAO AJG d   1       7.383 -15.921  46.262  0.00  0.00     0.038 A 
ATOM     10  SAJ AJG d   1       8.459 -16.984  46.704  0.00  0.00    -0.050 SA
ATOM     11  CAM AJG d   1       9.035 -16.187  48.026  0.00  0.00     0.174 A 
ATOM     12  NAI AJG d   1      10.000 -16.517  48.899  0.00  0.00    -0.306 N 
ATOM     13  CAK AJG d   1      10.711 -17.677  48.881  0.00  0.00     0.219 C 
ATOM     14  OAC AJG d   1      11.599 -17.894  49.705  0.00  0.00    -0.274 OA
ATOM     15  H1  AJG d   1       6.656 -12.995  47.638  0.00  0.00     0.087 H 
ATOM     16  H2  AJG d   1       5.048 -12.965  45.755  0.00  0.00     0.086 H 
ATOM     17  H3  AJG d   1       6.542 -16.800  44.559  0.00  0.00     0.088 H 
ATOM     18  H4  AJG d   1      10.213 -15.858  49.620  0.00  0.00     0.171 HD
ENDROOT
BRANCH  13  19
ATOM     19  CAA AJG d   1      10.408 -18.763  47.847  0.00  0.00    -0.002 C 
ATOM     20  H5  AJG d   1      11.088 -19.614  47.999  0.00  0.00     0.040 H 
ATOM     21  H6  AJG d   1      10.551 -18.356  46.835  0.00  0.00     0.040 H 
ATOM     22  H7  AJG d   1       9.367 -19.099  47.963  0.00  0.00     0.040 H 
ENDBRANCH  13  19
TORSDOF 1
