REMARK  3 active torsions:
REMARK  status: ('A' for Active; 'I' for Inactive)
REMARK    1  A    between atoms: CAK_11  and  CAA_1 
REMARK       I    between atoms: NAI_9  and  CAK_11 
REMARK    2  A    between atoms: CAM_13  and  NAI_9 
REMARK    3  A    between atoms: CAL_12  and  NAP_16 
ROOT
ATOM      1  CAE 5PW d   1      35.179 -27.074  11.237  0.00  0.00    -0.049 A 
ATOM      2  CAF 5PW d   1      35.257 -28.113  10.313  0.00  0.00    -0.051 A 
ATOM      3  CAG 5PW d   1      37.279 -27.811  12.089  0.00  0.00    -0.032 A 
ATOM      4  NAH 5PW d   1      36.509 -29.992   9.449  0.00  0.00    -0.223 NA
ATOM      5  SAJ 5PW d   1      38.401 -29.957  10.883  0.00  0.00    -0.050 SA
ATOM      6  CAL 5PW d   1      36.213 -26.912  12.154  0.00  0.00     0.104 A 
ATOM      7  CAM 5PW d   1      37.651 -30.658   9.647  0.00  0.00     0.174 A 
ATOM      8  CAN 5PW d   1      36.298 -28.949  10.285  0.00  0.00     0.077 A 
ATOM      9  CAO 5PW d   1      37.296 -28.783  11.175  0.00  0.00     0.039 A 
ATOM     10  H4  5PW d   1      34.328 -26.403  11.242  0.00  0.00     0.087 H 
ATOM     11  H5  5PW d   1      34.453 -28.247   9.599  0.00  0.00     0.087 H 
ATOM     12  H6  5PW d   1      38.102 -27.718  12.789  0.00  0.00     0.089 H 
ENDROOT
BRANCH   7  13
ATOM     13  NAI 5PW d   1      38.005 -31.723   8.914  0.00  0.00    -0.306 N 
ATOM     14  CAK 5PW d   1      39.247 -32.272   8.899  0.00  0.00     0.219 C 
ATOM     15  OAB 5PW d   1      39.506 -33.251   8.201  0.00  0.00    -0.274 OA
ATOM     16  H7  5PW d   1      37.305 -32.143   8.337  0.00  0.00     0.171 HD
BRANCH  14  17
ATOM     17  CAA 5PW d   1      40.373 -31.683   9.760  0.00  0.00    -0.002 C 
ATOM     18  H1  5PW d   1      39.990 -30.819  10.323  0.00  0.00     0.040 H 
ATOM     19  H2  5PW d   1      41.200 -31.360   9.111  0.00  0.00     0.040 H 
ATOM     20  H3  5PW d   1      40.735 -32.447  10.463  0.00  0.00     0.040 H 
ENDBRANCH  14  17
ENDBRANCH   7  13
BRANCH   6  21
ATOM     21  NAP 5PW d   1      36.184 -25.930  13.068  0.00  0.00    -0.116 N 
ATOM     22  OAC 5PW d   1      36.948 -26.039  14.185  0.00  0.00    -0.532 OA
ATOM     23  OAD 5PW d   1      35.342 -24.785  12.870  0.00  0.00    -0.532 OA
ENDBRANCH   6  21
TORSDOF 3
