REMARK  12 active torsions:
REMARK  status: ('A' for Active; 'I' for Inactive)
REMARK    1  A    between atoms: C2_2  and  O26_27 
REMARK    2  A    between atoms: C3_3  and  O25_25 
REMARK    3  A    between atoms: C7_7  and  C4_4 
REMARK       I    between atoms: N8_8  and  C7_7 
REMARK    4  A    between atoms: C10_10  and  N8_8 
REMARK    5  A    between atoms: C11_11  and  C10_10 
REMARK    6  A    between atoms: C12_12  and  C11_11 
REMARK    7  A    between atoms: C23_24  and  C12_12 
REMARK       I    between atoms: N14_13  and  C15_14 
REMARK    8  A    between atoms: C13_26  and  N14_13 
REMARK    9  A    between atoms: C15_14  and  C16_15 
REMARK   10  A    between atoms: C18_17  and  O23_22 
REMARK   11  A    between atoms: C19_18  and  O24_23 
REMARK   12  A    between atoms: C23_24  and  C13_26 
ROOT
ATOM      1  C12 5LC d   1     -10.866  11.250  -2.377  0.00  0.00    -0.062 C 
ATOM      2  H9  5LC d   1     -10.792  11.526  -3.439  0.00  0.00     0.033 H 
ATOM      3  H10 5LC d   1     -10.243  10.364  -2.184  0.00  0.00     0.033 H 
ENDROOT
BRANCH   1   4
ATOM      4  C11 5LC d   1     -12.314  10.891  -2.075  0.00  0.00    -0.050 C 
ATOM      5  H7  5LC d   1     -12.921  11.776  -2.317  0.00  0.00     0.035 H 
ATOM      6  H8  5LC d   1     -12.587  10.064  -2.747  0.00  0.00     0.035 H 
BRANCH   4   7
ATOM      7  C10 5LC d   1     -12.689  10.468  -0.684  0.00  0.00    -0.004 C 
ATOM      8  H5  5LC d   1     -12.608  11.340  -0.019  0.00  0.00     0.064 H 
ATOM      9  H6  5LC d   1     -13.729  10.111  -0.695  0.00  0.00     0.064 H 
BRANCH   7  10
ATOM     10  N8  5LC d   1     -11.844   9.410  -0.163  0.00  0.00    -0.357 N 
ATOM     11  C7  5LC d   1     -11.982   8.989   1.115  0.00  0.00     0.254 C 
ATOM     12  O9  5LC d   1     -12.964   9.335   1.785  0.00  0.00    -0.268 OA
ATOM     13  H4  5LC d   1     -11.155   8.989  -0.753  0.00  0.00     0.162 HD
BRANCH  11  14
ATOM     14  C4  5LC d   1     -10.812   8.276   1.712  0.00  0.00     0.067 C 
ATOM     15  C3  5LC d   1      -9.690   7.894   0.915  0.00  0.00     0.114 C 
ATOM     16  C2  5LC d   1      -8.562   7.502   1.562  0.00  0.00     0.099 C 
ATOM     17  C1  5LC d   1      -8.555   7.182   2.923  0.00  0.00    -0.048 C 
ATOM     18  C6  5LC d   1      -9.646   7.522   3.670  0.00  0.00    -0.079 C 
ATOM     19  H1  5LC d   1      -7.707   6.678   3.373  0.00  0.00     0.087 H 
ATOM     20  C5  5LC d   1     -10.748   8.027   3.058  0.00  0.00    -0.065 C 
ATOM     21  H3  5LC d   1      -9.633   7.390   4.746  0.00  0.00     0.083 H 
ATOM     22  H2  5LC d   1     -11.620   8.244   3.664  0.00  0.00     0.085 H 
BRANCH  15  23
ATOM     23  O25 5LC d   1      -9.623   8.106  -0.439  0.00  0.00    -0.357 OA
ATOM     24  H19 5LC d   1      -8.795   7.778  -0.769  0.00  0.00     0.217 HD
ENDBRANCH  15  23
BRANCH  16  25
ATOM     25  O26 5LC d   1      -7.459   7.220   0.850  0.00  0.00    -0.358 OA
ATOM     26  H22 5LC d   1      -7.645   6.509   0.248  0.00  0.00     0.217 HD
ENDBRANCH  16  25
ENDBRANCH  11  14
ENDBRANCH   7  10
ENDBRANCH   4   7
ENDBRANCH   1   4
BRANCH   1  27
ATOM     27  C23 5LC d   1     -10.339  12.380  -1.562  0.00  0.00    -0.050 C 
ATOM     28  H17 5LC d   1     -10.281  12.031  -0.520  0.00  0.00     0.035 H 
ATOM     29  H18 5LC d   1     -11.068  13.201  -1.634  0.00  0.00     0.035 H 
BRANCH  27  30
ATOM     30  C13 5LC d   1      -8.967  12.960  -1.922  0.00  0.00    -0.004 C 
ATOM     31  H20 5LC d   1      -9.009  13.347  -2.951  0.00  0.00     0.064 H 
ATOM     32  H21 5LC d   1      -8.742  13.784  -1.229  0.00  0.00     0.064 H 
BRANCH  30  33
ATOM     33  N14 5LC d   1      -7.883  11.965  -1.837  0.00  0.00    -0.357 N 
ATOM     34  C15 5LC d   1      -6.573  12.202  -2.123  0.00  0.00     0.254 C 
ATOM     35  O17 5LC d   1      -6.175  13.322  -2.495  0.00  0.00    -0.268 OA
ATOM     36  H11 5LC d   1      -8.130  11.041  -1.546  0.00  0.00     0.162 HD
BRANCH  34  37
ATOM     37  C16 5LC d   1      -5.665  11.006  -2.060  0.00  0.00     0.067 C 
ATOM     38  C18 5LC d   1      -6.130   9.719  -1.742  0.00  0.00     0.114 C 
ATOM     39  C19 5LC d   1      -5.278   8.598  -1.804  0.00  0.00     0.099 C 
ATOM     40  C20 5LC d   1      -3.936   8.799  -1.998  0.00  0.00    -0.048 C 
ATOM     41  C21 5LC d   1      -3.497  10.051  -2.346  0.00  0.00    -0.079 C 
ATOM     42  H12 5LC d   1      -3.233   7.982  -1.878  0.00  0.00     0.087 H 
ATOM     43  C22 5LC d   1      -4.309  11.149  -2.392  0.00  0.00    -0.065 C 
ATOM     44  H13 5LC d   1      -2.450  10.176  -2.598  0.00  0.00     0.083 H 
ATOM     45  H14 5LC d   1      -3.912  12.116  -2.680  0.00  0.00     0.085 H 
BRANCH  38  46
ATOM     46  O23 5LC d   1      -7.431   9.403  -1.442  0.00  0.00    -0.357 OA
ATOM     47  H15 5LC d   1      -7.464   8.973  -0.596  0.00  0.00     0.217 HD
ENDBRANCH  38  46
BRANCH  39  48
ATOM     48  O24 5LC d   1      -5.786   7.389  -1.532  0.00  0.00    -0.358 OA
ATOM     49  H16 5LC d   1      -6.728   7.458  -1.433  0.00  0.00     0.217 HD
ENDBRANCH  39  48
ENDBRANCH  34  37
ENDBRANCH  30  33
ENDBRANCH  27  30
ENDBRANCH   1  27
TORSDOF 12
