REMARK  1 active torsions:
REMARK  status: ('A' for Active; 'I' for Inactive)
REMARK    1  A    between atoms: C01_1  and  C05_2 
ROOT
ATOM      1  C05 J5I d   1     -24.958  44.975  10.508  0.00  0.00     0.007 A 
ATOM      2  C06 J5I d   1     -25.837  45.954  10.241  0.00  0.00    -0.060 A 
ATOM      3  C08 J5I d   1     -27.090  46.064  10.935  0.00  0.00    -0.009 A 
ATOM      4  C09 J5I d   1     -28.031  47.069  10.686  0.00  0.00    -0.071 A 
ATOM      5  C11 J5I d   1     -29.221  47.113  11.393  0.00  0.00    -0.082 A 
ATOM      6  C13 J5I d   1     -29.493  46.164  12.356  0.00  0.00    -0.081 A 
ATOM      7  C15 J5I d   1     -28.580  45.154  12.625  0.00  0.00    -0.056 A 
ATOM      8  C17 J5I d   1     -27.378  45.104  11.917  0.00  0.00     0.045 A 
ATOM      9  N18 J5I d   1     -26.446  44.102  12.170  0.00  0.00    -0.322 N 
ATOM     10  C20 J5I d   1     -25.253  43.972  11.532  0.00  0.00     0.251 A 
ATOM     11  O21 J5I d   1     -24.504  43.045  11.836  0.00  0.00    -0.268 OA
ATOM     12  H4  J5I d   1     -25.593  46.688   9.474  0.00  0.00     0.086 H 
ATOM     13  H5  J5I d   1     -27.827  47.821   9.932  0.00  0.00     0.084 H 
ATOM     14  H6  J5I d   1     -29.942  47.897  11.189  0.00  0.00     0.083 H 
ATOM     15  H7  J5I d   1     -30.426  46.207  12.906  0.00  0.00     0.083 H 
ATOM     16  H8  J5I d   1     -28.799  44.408  13.381  0.00  0.00     0.086 H 
ATOM     17  H9  J5I d   1     -26.671  43.428  12.873  0.00  0.00     0.169 HD
ENDROOT
BRANCH   1  18
ATOM     18  C01 J5I d   1     -23.652  44.888   9.764  0.00  0.00    -0.046 C 
ATOM     19  H1  J5I d   1     -23.589  45.711   9.036  0.00  0.00     0.033 H 
ATOM     20  H2  J5I d   1     -23.595  43.925   9.235  0.00  0.00     0.033 H 
ATOM     21  H3  J5I d   1     -22.818  44.965  10.477  0.00  0.00     0.033 H 
ENDBRANCH   1  18
TORSDOF 1
