REMARK  7 active torsions:
REMARK  status: ('A' for Active; 'I' for Inactive)
REMARK    1  A    between atoms: C01_1  and  N01_2 
REMARK    2  A    between atoms: N01_2  and  C02_3 
REMARK    3  A    between atoms: N01_2  and  C03_4 
REMARK    4  A    between atoms: C03_4  and  C04_5 
REMARK    5  A    between atoms: C04_5  and  N02_6 
REMARK    6  A    between atoms: N02_6  and  C05_7 
REMARK    7  A    between atoms: C11_13  and  C12_14 
ROOT
ATOM      1  C05 JTF d   1     -28.696  44.982  12.376  0.00  0.00     0.056 A 
ATOM      2  C06 JTF d   1     -29.525  46.082  12.144  0.00  0.00    -0.055 A 
ATOM      3  C07 JTF d   1     -29.122  47.125  11.326  0.00  0.00    -0.080 A 
ATOM      4  C08 JTF d   1     -27.877  47.104  10.727  0.00  0.00    -0.071 A 
ATOM      5  C09 JTF d   1     -27.008  46.030  10.935  0.00  0.00    -0.006 A 
ATOM      6  C10 JTF d   1     -25.701  45.927  10.350  0.00  0.00    -0.060 A 
ATOM      7  C11 JTF d   1     -24.881  44.875  10.570  0.00  0.00     0.007 A 
ATOM      8  C13 JTF d   1     -25.324  43.784  11.438  0.00  0.00     0.251 A 
ATOM      9  O1  JTF d   1     -24.655  42.785  11.701  0.00  0.00    -0.268 OA
ATOM     10  N1  JTF d   1     -26.567  43.908  11.967  0.00  0.00    -0.321 N 
ATOM     11  C1  JTF d   1     -27.427  44.975  11.764  0.00  0.00     0.072 A 
ATOM     12  H13 JTF d   1     -30.502  46.120  12.613  0.00  0.00     0.087 H 
ATOM     13  H14 JTF d   1     -29.788  47.963  11.155  0.00  0.00     0.083 H 
ATOM     14  H15 JTF d   1     -27.572  47.927  10.091  0.00  0.00     0.084 H 
ATOM     15  H16 JTF d   1     -25.355  46.731   9.701  0.00  0.00     0.086 H 
ATOM     16  H20 JTF d   1     -26.890  43.166  12.554  0.00  0.00     0.169 HD
ENDROOT
BRANCH   1  17
ATOM     17  N02 JTF d   1     -29.051  43.930  13.185  0.00  0.00    -0.386 N 
ATOM     18  H12 JTF d   1     -28.334  43.560  13.825  0.00  0.00     0.159 HD
BRANCH  17  19
ATOM     19  C04 JTF d   1     -30.361  43.299  13.207  0.00  0.00     0.015 C 
ATOM     20  H10 JTF d   1     -31.025  43.816  12.498  0.00  0.00     0.066 H 
ATOM     21  H11 JTF d   1     -30.261  42.244  12.913  0.00  0.00     0.066 H 
BRANCH  19  22
ATOM     22  C03 JTF d   1     -30.958  43.376  14.598  0.00  0.00     0.097 C 
ATOM     23  H8  JTF d   1     -30.517  44.236  15.124  0.00  0.00     0.078 H 
ATOM     24  H9  JTF d   1     -32.045  43.520  14.508  0.00  0.00     0.078 H 
BRANCH  22  25
ATOM     25  N01 JTF d   1     -30.708  42.166  15.385  0.00  0.00    -0.077 N 
ATOM     26  H4  JTF d   1     -30.905  41.367  14.803  0.00  0.00     0.279 HD
BRANCH  25  27
ATOM     27  C01 JTF d   1     -31.589  42.120  16.549  0.00  0.00     0.066 C 
ATOM     28  H1  JTF d   1     -31.386  41.206  17.126  0.00  0.00     0.068 H 
ATOM     29  H2  JTF d   1     -32.637  42.118  16.216  0.00  0.00     0.068 H 
ATOM     30  H3  JTF d   1     -31.407  43.001  17.182  0.00  0.00     0.068 H 
ENDBRANCH  25  27
BRANCH  25  31
ATOM     31  C02 JTF d   1     -29.315  42.088  15.814  0.00  0.00     0.066 C 
ATOM     32  H5  JTF d   1     -28.657  42.123  14.933  0.00  0.00     0.068 H 
ATOM     33  H6  JTF d   1     -29.151  41.145  16.357  0.00  0.00     0.068 H 
ATOM     34  H7  JTF d   1     -29.087  42.937  16.476  0.00  0.00     0.068 H 
ENDBRANCH  25  31
ENDBRANCH  22  25
ENDBRANCH  19  22
ENDBRANCH  17  19
ENDBRANCH   1  17
BRANCH   7  35
ATOM     35  C12 JTF d   1     -23.515  44.797   9.944  0.00  0.00    -0.046 C 
ATOM     36  H17 JTF d   1     -23.343  45.691   9.327  0.00  0.00     0.033 H 
ATOM     37  H18 JTF d   1     -23.451  43.898   9.313  0.00  0.00     0.033 H 
ATOM     38  H19 JTF d   1     -22.752  44.745  10.735  0.00  0.00     0.033 H 
ENDBRANCH   7  35
TORSDOF 7
