REMARK  6 active torsions:
REMARK  status: ('A' for Active; 'I' for Inactive)
REMARK    1  A    between atoms: C01_1  and  O05_2 
REMARK    2  A    between atoms: O05_2  and  C06_3 
REMARK    3  A    between atoms: C12_7  and  C15_9 
REMARK    4  A    between atoms: C19_12  and  N20_13 
REMARK    5  A    between atoms: N20_13  and  C22_14 
REMARK    6  A    between atoms: C43_24  and  C44_25 
ROOT
ATOM      1  C15 NP8 d   1     -28.190  46.614  10.806  0.00  0.00     0.006 A 
ATOM      2  C16 NP8 d   1     -29.404  46.394  11.432  0.00  0.00     0.016 A 
ATOM      3  N18 NP8 d   1     -29.698  45.337  12.201  0.00  0.00    -0.240 NA
ATOM      4  C19 NP8 d   1     -28.765  44.391  12.425  0.00  0.00     0.151 A 
ATOM      5  C38 NP8 d   1     -27.485  44.551  11.819  0.00  0.00     0.092 A 
ATOM      6  N39 NP8 d   1     -26.519  43.586  12.037  0.00  0.00    -0.319 N 
ATOM      7  C41 NP8 d   1     -25.265  43.610  11.531  0.00  0.00     0.252 A 
ATOM      8  O42 NP8 d   1     -24.496  42.688  11.801  0.00  0.00    -0.268 OA
ATOM      9  C43 NP8 d   1     -24.928  44.749  10.688  0.00  0.00     0.007 A 
ATOM     10  C48 NP8 d   1     -25.859  45.711  10.456  0.00  0.00    -0.059 A 
ATOM     11  C50 NP8 d   1     -27.185  45.656  11.021  0.00  0.00     0.008 A 
ATOM     12  H7  NP8 d   1     -30.180  47.137  11.289  0.00  0.00     0.116 H 
ATOM     13  H20 NP8 d   1     -26.767  42.809  12.615  0.00  0.00     0.169 HD
ATOM     14  H24 NP8 d   1     -25.594  46.554   9.820  0.00  0.00     0.086 H 
ENDROOT
BRANCH   4  15
ATOM     15  N20 NP8 d   1     -29.119  43.346  13.203  0.00  0.00    -0.368 N 
ATOM     16  H8  NP8 d   1     -28.455  42.563  13.289  0.00  0.00     0.161 HD
BRANCH  15  17
ATOM     17  C22 NP8 d   1     -30.383  43.254  13.931  0.00  0.00     0.014 C 
ATOM     18  C24 NP8 d   1     -31.330  42.309  13.211  0.00  0.00    -0.024 C 
ATOM     19  C27 NP8 d   1     -32.576  42.034  14.024  0.00  0.00     0.083 C 
ATOM     20  H10 NP8 d   1     -30.810  41.358  13.024  0.00  0.00     0.038 H 
ATOM     21  H11 NP8 d   1     -31.623  42.761  12.252  0.00  0.00     0.038 H 
ATOM     22  N30 NP8 d   1     -32.206  41.494  15.337  0.00  0.00    -0.075 N 
ATOM     23  H12 NP8 d   1     -33.204  41.304  13.493  0.00  0.00     0.075 H 
ATOM     24  H13 NP8 d   1     -33.137  42.970  14.160  0.00  0.00     0.075 H 
ATOM     25  C32 NP8 d   1     -31.409  42.465  16.097  0.00  0.00     0.083 C 
ATOM     26  H14 NP8 d   1     -31.666  40.653  15.208  0.00  0.00     0.277 HD
ATOM     27  H15 NP8 d   1     -33.044  41.279  15.854  0.00  0.00     0.277 HD
ATOM     28  C35 NP8 d   1     -30.129  42.781  15.351  0.00  0.00    -0.024 C 
ATOM     29  H16 NP8 d   1     -31.162  42.042  17.082  0.00  0.00     0.075 H 
ATOM     30  H17 NP8 d   1     -31.991  43.389  16.230  0.00  0.00     0.075 H 
ATOM     31  H18 NP8 d   1     -29.590  43.571  15.895  0.00  0.00     0.038 H 
ATOM     32  H19 NP8 d   1     -29.509  41.873  15.314  0.00  0.00     0.038 H 
ATOM     33  H9  NP8 d   1     -30.844  44.252  13.970  0.00  0.00     0.072 H 
ENDBRANCH  15  17
ENDBRANCH   4  15
BRANCH   1  34
ATOM     34  C12 NP8 d   1     -27.973  47.854  10.006  0.00  0.00    -0.003 A 
ATOM     35  C10 NP8 d   1     -26.916  48.714  10.284  0.00  0.00     0.013 A 
ATOM     36  N09 NP8 d   1     -26.672  49.849   9.619  0.00  0.00    -0.269 NA
ATOM     37  H5  NP8 d   1     -26.245  48.447  11.093  0.00  0.00     0.116 H 
ATOM     38  C07 NP8 d   1     -27.516  50.193   8.640  0.00  0.00     0.034 A 
ATOM     39  C06 NP8 d   1     -28.614  49.421   8.297  0.00  0.00     0.086 A 
ATOM     40  H4  NP8 d   1     -27.334  51.111   8.094  0.00  0.00     0.119 H 
ATOM     41  C13 NP8 d   1     -28.846  48.246   8.995  0.00  0.00    -0.037 A 
ATOM     42  H6  NP8 d   1     -29.707  47.633   8.754  0.00  0.00     0.089 H 
BRANCH  39  43
ATOM     43  O05 NP8 d   1     -29.499  49.748   7.295  0.00  0.00    -0.354 OA
BRANCH  43  44
ATOM     44  C01 NP8 d   1     -29.216  50.900   6.502  0.00  0.00     0.010 C 
ATOM     45  H1  NP8 d   1     -30.008  51.031   5.749  0.00  0.00     0.066 H 
ATOM     46  H2  NP8 d   1     -28.248  50.769   5.997  0.00  0.00     0.066 H 
ATOM     47  H3  NP8 d   1     -29.175  51.789   7.148  0.00  0.00     0.066 H 
ENDBRANCH  43  44
ENDBRANCH  39  43
ENDBRANCH   1  34
BRANCH   9  48
ATOM     48  C44 NP8 d   1     -23.550  44.829  10.093  0.00  0.00    -0.046 C 
ATOM     49  H21 NP8 d   1     -23.464  45.744   9.489  0.00  0.00     0.033 H 
ATOM     50  H22 NP8 d   1     -23.375  43.950   9.455  0.00  0.00     0.033 H 
ATOM     51  H23 NP8 d   1     -22.803  44.851  10.900  0.00  0.00     0.033 H 
ENDBRANCH   9  48
TORSDOF 6
