REMARK  6 active torsions:
REMARK  status: ('A' for Active; 'I' for Inactive)
REMARK    1  A    between atoms: C01_1  and  O05_2 
REMARK    2  A    between atoms: O05_2  and  C06_3 
REMARK    3  A    between atoms: C12_7  and  C15_9 
REMARK    4  A    between atoms: C19_12  and  N20_13 
REMARK    5  A    between atoms: N20_13  and  C22_14 
REMARK    6  A    between atoms: C43_24  and  C44_25 
ROOT
ATOM      1  C15 NP8 d   1     -15.630  -9.096   5.844  0.00  0.00     0.006 A 
ATOM      2  C16 NP8 d   1     -16.332  -9.593   4.756  0.00  0.00     0.016 A 
ATOM      3  N18 NP8 d   1     -16.399 -10.882   4.388  0.00  0.00    -0.240 NA
ATOM      4  C19 NP8 d   1     -15.720 -11.808   5.089  0.00  0.00     0.151 A 
ATOM      5  C38 NP8 d   1     -14.971 -11.374   6.212  0.00  0.00     0.092 A 
ATOM      6  N39 NP8 d   1     -14.274 -12.311   6.957  0.00  0.00    -0.319 N 
ATOM      7  C41 NP8 d   1     -13.513 -12.070   8.047  0.00  0.00     0.252 A 
ATOM      8  O42 NP8 d   1     -12.940 -12.993   8.625  0.00  0.00    -0.268 OA
ATOM      9  C43 NP8 d   1     -13.450 -10.679   8.449  0.00  0.00     0.007 A 
ATOM     10  C48 NP8 d   1     -14.099  -9.706   7.775  0.00  0.00    -0.059 A 
ATOM     11  C50 NP8 d   1     -14.899 -10.021   6.613  0.00  0.00     0.008 A 
ATOM     12  H7  NP8 d   1     -16.875  -8.877   4.149  0.00  0.00     0.116 H 
ATOM     13  H20 NP8 d   1     -14.341 -13.263   6.657  0.00  0.00     0.169 HD
ATOM     14  H24 NP8 d   1     -14.019  -8.673   8.110  0.00  0.00     0.086 H 
ENDROOT
BRANCH   4  15
ATOM     15  N20 NP8 d   1     -15.819 -13.092   4.680  0.00  0.00    -0.368 N 
ATOM     16  H8  NP8 d   1     -15.476 -13.826   5.316  0.00  0.00     0.161 HD
BRANCH  15  17
ATOM     17  C22 NP8 d   1     -16.380 -13.510   3.396  0.00  0.00     0.014 C 
ATOM     18  C24 NP8 d   1     -15.489 -13.079   2.245  0.00  0.00    -0.024 C 
ATOM     19  C27 NP8 d   1     -16.060 -13.593   0.940  0.00  0.00     0.083 C 
ATOM     20  H10 NP8 d   1     -14.479 -13.490   2.390  0.00  0.00     0.038 H 
ATOM     21  H11 NP8 d   1     -15.437 -11.981   2.214  0.00  0.00     0.038 H 
ATOM     22  N30 NP8 d   1     -16.162 -15.059   0.980  0.00  0.00    -0.075 N 
ATOM     23  H12 NP8 d   1     -15.400 -13.296   0.111  0.00  0.00     0.075 H 
ATOM     24  H13 NP8 d   1     -17.060 -13.162   0.785  0.00  0.00     0.075 H 
ATOM     25  C32 NP8 d   1     -17.070 -15.502   2.047  0.00  0.00     0.083 C 
ATOM     26  H14 NP8 d   1     -15.247 -15.447   1.145  0.00  0.00     0.277 HD
ATOM     27  H15 NP8 d   1     -16.512 -15.388   0.094  0.00  0.00     0.277 HD
ATOM     28  C35 NP8 d   1     -16.568 -15.015   3.386  0.00  0.00    -0.024 C 
ATOM     29  H16 NP8 d   1     -17.117 -16.601   2.053  0.00  0.00     0.075 H 
ATOM     30  H17 NP8 d   1     -18.075 -15.093   1.864  0.00  0.00     0.075 H 
ATOM     31  H18 NP8 d   1     -17.297 -15.289   4.162  0.00  0.00     0.038 H 
ATOM     32  H19 NP8 d   1     -15.603 -15.497   3.603  0.00  0.00     0.038 H 
ATOM     33  H9  NP8 d   1     -17.363 -13.032   3.272  0.00  0.00     0.072 H 
ENDBRANCH  15  17
ENDBRANCH   4  15
BRANCH   1  34
ATOM     34  C12 NP8 d   1     -15.633  -7.629   6.116  0.00  0.00    -0.003 A 
ATOM     35  C10 NP8 d   1     -15.320  -6.723   5.108  0.00  0.00     0.013 A 
ATOM     36  N09 NP8 d   1     -15.314  -5.394   5.262  0.00  0.00    -0.269 NA
ATOM     37  H5  NP8 d   1     -15.064  -7.120   4.133  0.00  0.00     0.116 H 
ATOM     38  C07 NP8 d   1     -15.631  -4.903   6.464  0.00  0.00     0.034 A 
ATOM     39  C06 NP8 d   1     -15.967  -5.714   7.535  0.00  0.00     0.086 A 
ATOM     40  H4  NP8 d   1     -15.625  -3.828   6.606  0.00  0.00     0.119 H 
ATOM     41  C13 NP8 d   1     -15.970  -7.089   7.355  0.00  0.00    -0.037 A 
ATOM     42  H6  NP8 d   1     -16.234  -7.743   8.178  0.00  0.00     0.089 H 
BRANCH  39  43
ATOM     43  O05 NP8 d   1     -16.289  -5.211   8.769  0.00  0.00    -0.354 OA
BRANCH  43  44
ATOM     44  C01 NP8 d   1     -16.610  -3.821   8.863  0.00  0.00     0.010 C 
ATOM     45  H1  NP8 d   1     -16.845  -3.569   9.908  0.00  0.00     0.066 H 
ATOM     46  H2  NP8 d   1     -17.482  -3.602   8.229  0.00  0.00     0.066 H 
ATOM     47  H3  NP8 d   1     -15.751  -3.223   8.525  0.00  0.00     0.066 H 
ENDBRANCH  43  44
ENDBRANCH  39  43
ENDBRANCH   1  34
BRANCH   9  48
ATOM     48  C44 NP8 d   1     -12.622 -10.309   9.648  0.00  0.00    -0.046 C 
ATOM     49  H21 NP8 d   1     -12.682  -9.223   9.814  0.00  0.00     0.033 H 
ATOM     50  H22 NP8 d   1     -11.575 -10.595   9.473  0.00  0.00     0.033 H 
ATOM     51  H23 NP8 d   1     -13.003 -10.837  10.534  0.00  0.00     0.033 H 
ENDBRANCH   9  48
TORSDOF 6
