REMARK  13 active torsions:
REMARK  status: ('A' for Active; 'I' for Inactive)
REMARK    1  A    between atoms: C2_2  and  O27_26 
REMARK    2  A    between atoms: C3_3  and  O26_25 
REMARK    3  A    between atoms: C4_4  and  C8_7 
REMARK       I    between atoms: C8_7  and  N10_9 
REMARK    4  A    between atoms: N10_9  and  C11_10 
REMARK    5  A    between atoms: C11_10  and  C12_11 
REMARK    6  A    between atoms: C12_11  and  C13_12 
REMARK    7  A    between atoms: C13_12  and  C14_13 
REMARK    8  A    between atoms: C14_13  and  C15_14 
REMARK    9  A    between atoms: C15_14  and  C16_15 
REMARK   10  A    between atoms: C16_15  and  N17_16 
REMARK       I    between atoms: N17_16  and  C18_17 
REMARK   11  A    between atoms: C18_17  and  C20_19 
REMARK   12  A    between atoms: C21_20  and  O28_27 
REMARK   13  A    between atoms: C22_21  and  O29_28 
ROOT
ATOM      1  C13 PXJ d   1     -11.255  11.055  -2.263  0.00  0.00    -0.064 C 
ATOM      2  H9  PXJ d   1     -10.971  10.450  -3.136  0.00  0.00     0.033 H 
ATOM      3  H10 PXJ d   1     -10.713  10.696  -1.376  0.00  0.00     0.033 H 
ENDROOT
BRANCH   1   4
ATOM      4  C12 PXJ d   1     -12.741  10.865  -2.019  0.00  0.00    -0.050 C 
ATOM      5  H7  PXJ d   1     -13.177  11.844  -1.770  0.00  0.00     0.035 H 
ATOM      6  H8  PXJ d   1     -13.196  10.486  -2.946  0.00  0.00     0.035 H 
BRANCH   4   7
ATOM      7  C11 PXJ d   1     -13.072   9.899  -0.897  0.00  0.00    -0.004 C 
ATOM      8  H5  PXJ d   1     -13.701  10.435  -0.171  0.00  0.00     0.064 H 
ATOM      9  H6  PXJ d   1     -13.643   9.066  -1.332  0.00  0.00     0.064 H 
BRANCH   7  10
ATOM     10  N10 PXJ d   1     -11.955   9.335  -0.177  0.00  0.00    -0.357 N 
ATOM     11  C8  PXJ d   1     -12.086   8.878   1.071  0.00  0.00     0.254 C 
ATOM     12  O9  PXJ d   1     -13.105   9.069   1.713  0.00  0.00    -0.268 OA
ATOM     13  H4  PXJ d   1     -11.062   9.285  -0.624  0.00  0.00     0.162 HD
BRANCH  11  14
ATOM     14  C4  PXJ d   1     -10.869   8.242   1.674  0.00  0.00     0.067 A 
ATOM     15  C3  PXJ d   1      -9.731   7.986   0.876  0.00  0.00     0.114 A 
ATOM     16  C2  PXJ d   1      -8.592   7.497   1.420  0.00  0.00     0.099 A 
ATOM     17  C1  PXJ d   1      -8.553   7.220   2.791  0.00  0.00    -0.048 A 
ATOM     18  C6  PXJ d   1      -9.653   7.468   3.608  0.00  0.00    -0.079 A 
ATOM     19  H1  PXJ d   1      -7.650   6.805   3.225  0.00  0.00     0.087 H 
ATOM     20  C5  PXJ d   1     -10.816   8.001   3.047  0.00  0.00    -0.065 A 
ATOM     21  H3  PXJ d   1      -9.607   7.250   4.669  0.00  0.00     0.083 H 
ATOM     22  H2  PXJ d   1     -11.671   8.226   3.674  0.00  0.00     0.085 H 
BRANCH  15  23
ATOM     23  O26 PXJ d   1      -9.682   8.192  -0.461  0.00  0.00    -0.357 OA
ATOM     24  H21 PXJ d   1      -8.822   7.952  -0.786  0.00  0.00     0.217 HD
ENDBRANCH  15  23
BRANCH  16  25
ATOM     25  O27 PXJ d   1      -7.540   7.299   0.578  0.00  0.00    -0.358 OA
ATOM     26  H22 PXJ d   1      -7.788   6.678  -0.097  0.00  0.00     0.217 HD
ENDBRANCH  16  25
ENDBRANCH  11  14
ENDBRANCH   7  10
ENDBRANCH   4   7
ENDBRANCH   1   4
BRANCH   1  27
ATOM     27  C14 PXJ d   1     -10.836  12.485  -2.524  0.00  0.00    -0.064 C 
ATOM     28  H11 PXJ d   1     -11.723  13.135  -2.507  0.00  0.00     0.033 H 
ATOM     29  H12 PXJ d   1     -10.353  12.550  -3.510  0.00  0.00     0.033 H 
BRANCH  27  30
ATOM     30  C15 PXJ d   1      -9.867  12.932  -1.461  0.00  0.00    -0.050 C 
ATOM     31  H13 PXJ d   1      -9.743  12.117  -0.733  0.00  0.00     0.035 H 
ATOM     32  H14 PXJ d   1     -10.283  13.815  -0.955  0.00  0.00     0.035 H 
BRANCH  30  33
ATOM     33  C16 PXJ d   1      -8.516  13.289  -2.017  0.00  0.00    -0.004 C 
ATOM     34  H15 PXJ d   1      -8.075  14.106  -1.427  0.00  0.00     0.064 H 
ATOM     35  H16 PXJ d   1      -8.617  13.607  -3.065  0.00  0.00     0.064 H 
BRANCH  33  36
ATOM     36  N17 PXJ d   1      -7.668  12.118  -1.941  0.00  0.00    -0.357 N 
ATOM     37  C18 PXJ d   1      -6.377  12.146  -2.253  0.00  0.00     0.254 C 
ATOM     38  O19 PXJ d   1      -5.869  13.192  -2.618  0.00  0.00    -0.268 OA
ATOM     39  H17 PXJ d   1      -8.070  11.253  -1.641  0.00  0.00     0.162 HD
BRANCH  37  40
ATOM     40  C20 PXJ d   1      -5.542  10.877  -2.188  0.00  0.00     0.067 A 
ATOM     41  C21 PXJ d   1      -6.105   9.617  -1.923  0.00  0.00     0.114 A 
ATOM     42  C22 PXJ d   1      -5.323   8.478  -1.888  0.00  0.00     0.099 A 
ATOM     43  C23 PXJ d   1      -3.951   8.590  -2.118  0.00  0.00    -0.048 A 
ATOM     44  C24 PXJ d   1      -3.374   9.844  -2.384  0.00  0.00    -0.079 A 
ATOM     45  H18 PXJ d   1      -3.326   7.705  -2.091  0.00  0.00     0.087 H 
ATOM     46  C25 PXJ d   1      -4.173  10.980  -2.407  0.00  0.00    -0.065 A 
ATOM     47  H19 PXJ d   1      -2.309   9.924  -2.571  0.00  0.00     0.083 H 
ATOM     48  H20 PXJ d   1      -3.728  11.950  -2.596  0.00  0.00     0.085 H 
BRANCH  41  49
ATOM     49  O28 PXJ d   1      -7.432   9.427  -1.711  0.00  0.00    -0.357 OA
ATOM     50  H23 PXJ d   1      -7.562   9.040  -0.853  0.00  0.00     0.217 HD
ENDBRANCH  41  49
BRANCH  42  51
ATOM     51  O29 PXJ d   1      -5.900   7.264  -1.661  0.00  0.00    -0.358 OA
ATOM     52  H24 PXJ d   1      -6.833   7.378  -1.526  0.00  0.00     0.217 HD
ENDBRANCH  42  51
ENDBRANCH  37  40
ENDBRANCH  33  36
ENDBRANCH  30  33
ENDBRANCH  27  30
ENDBRANCH   1  27
TORSDOF 13
