REMARK  5 active torsions:
REMARK  status: ('A' for Active; 'I' for Inactive)
REMARK    1  A    between atoms: C02_5  and  C01_1 
REMARK       I    between atoms: N01_2  and  C03_7 
REMARK    2  A    between atoms: C04_9  and  N01_2 
REMARK    3  A    between atoms: C02_5  and  S01_4 
REMARK    4  A    between atoms: C03_7  and  C02_5 
REMARK    5  A    between atoms: C04_9  and  C05_10 
ROOT
ATOM      1  N01 WJZ d   1      13.534  54.535  -7.745  0.00  0.00    -0.350 N 
ATOM      2  C03 WJZ d   1      13.494  55.828  -7.159  0.00  0.00     0.231 C 
ATOM      3  O03 WJZ d   1      13.800  56.799  -7.821  0.00  0.00    -0.272 OA
ATOM      4  H4  WJZ d   1      13.816  54.435  -8.699  0.00  0.00     0.163 HD
ENDROOT
BRANCH   2   5
ATOM      5  C02 WJZ d   1      13.071  56.008  -5.718  0.00  0.00     0.062 C 
ATOM      6  H6  WJZ d   1      12.452  55.153  -5.408  0.00  0.00     0.070 H 
BRANCH   5   7
ATOM      7  C01 WJZ d   1      12.274  57.286  -5.589  0.00  0.00    -0.057 C 
ATOM      8  H1  WJZ d   1      11.384  57.229  -6.232  0.00  0.00     0.029 H 
ATOM      9  H2  WJZ d   1      12.896  58.139  -5.898  0.00  0.00     0.029 H 
ATOM     10  H3  WJZ d   1      11.962  57.420  -4.543  0.00  0.00     0.029 H 
ENDBRANCH   5   7
BRANCH   5  11
ATOM     11  S01 WJZ d   1      14.502  56.110  -4.678  0.00  0.00    -0.168 SA
ATOM     12  H5  WJZ d   1      15.068  56.894  -4.963  0.00  0.00     0.102 HD
ENDBRANCH   5  11
ENDBRANCH   2   5
BRANCH   1  13
ATOM     13  C04 WJZ d   1      13.178  53.380  -6.994  0.00  0.00     0.075 C 
ATOM     14  H7  WJZ d   1      12.096  53.386  -6.798  0.00  0.00     0.080 H 
ATOM     15  H8  WJZ d   1      13.724  53.378  -6.039  0.00  0.00     0.080 H 
BRANCH  13  16
ATOM     16  C05 WJZ d   1      13.542  52.146  -7.790  0.00  0.00     0.191 C 
ATOM     17  O01 WJZ d   1      12.873  51.088  -7.661  0.00  0.00    -0.647 OA
ATOM     18  O02 WJZ d   1      14.519  52.180  -8.583  0.00  0.00    -0.647 OA
ENDBRANCH  13  16
ENDBRANCH   1  13
TORSDOF 5
