REMARK  9 active torsions:
REMARK  status: ('A' for Active; 'I' for Inactive)
REMARK    1  A    between atoms: NAY_25  and  CAA_1 
REMARK    2  A    between atoms: CAB_2  and  NAI_9 
REMARK    3  A    between atoms: CAC_3  and  OAJ_10 
REMARK    4  A    between atoms: CAE_5  and  CAF_6 
REMARK    5  A    between atoms: CAF_6  and  OAM_13 
REMARK    6  A    between atoms: CAG_7  and  CAH_8 
REMARK       I    between atoms: NAI_9  and  CAG_7 
REMARK       I    between atoms: CAP_16  and  NAO_15 
REMARK    7  A    between atoms: NAO_15  and  CAS_19 
REMARK    8  A    between atoms: OAQ_17  and  CAP_16 
REMARK    9  A    between atoms: OAQ_17  and  NAY_25 
ROOT
ATOM      1  CAA OGN d   1      -5.919 -31.592 -17.219  0.00  0.00     0.244 C 
ATOM      2  CAB OGN d   1      -4.386 -31.501 -17.402  0.00  0.00     0.096 C 
ATOM      3  CAC OGN d   1      -3.804 -30.135 -16.929  0.00  0.00     0.119 C 
ATOM      4  CAD OGN d   1      -4.836 -29.161 -17.390  0.00  0.00     0.188 C 
ATOM      5  CAE OGN d   1      -6.059 -29.195 -16.592  0.00  0.00     0.121 C 
ATOM      6  OAK OGN d   1      -4.771 -28.582 -18.455  0.00  0.00    -0.292 OA
ATOM      7  OAL OGN d   1      -6.672 -30.377 -17.079  0.00  0.00    -0.340 OA
ATOM      8  H1  OGN d   1      -6.059 -32.174 -16.296  0.00  0.00     0.137 H 
ATOM      9  H2  OGN d   1      -4.123 -31.658 -18.459  0.00  0.00     0.084 H 
ATOM     10  H3  OGN d   1      -3.753 -30.139 -15.830  0.00  0.00     0.098 H 
ATOM     11  H4  OGN d   1      -5.827 -29.261 -15.519  0.00  0.00     0.099 H 
ENDROOT
BRANCH   1  12
ATOM     12  NAY OGN d   1      -6.621 -32.252 -18.270  0.00  0.00     0.077 N 
ATOM     13  H19 OGN d   1      -6.318 -33.213 -18.293  0.00  0.00     0.319 HD
ATOM     14  H20 OGN d   1      -6.377 -31.802 -19.139  0.00  0.00     0.319 HD
BRANCH  12  15
ATOM     15  OAQ OGN d   1      -7.962 -32.240 -18.156  0.00  0.00    -0.101 OA
BRANCH  15  16
ATOM     16  CAP OGN d   1      -8.805 -32.877 -19.154  0.00  0.00     0.392 C 
ATOM     17  NAO OGN d   1     -10.127 -32.815 -18.969  0.00  0.00    -0.301 N 
ATOM     18  H13 OGN d   1     -10.462 -32.342 -18.154  0.00  0.00     0.171 HD
ATOM     19  OAR OGN d   1      -8.242 -33.405 -20.105  0.00  0.00    -0.236 OA
BRANCH  17  20
ATOM     20  CAS OGN d   1     -11.071 -33.366 -19.837  0.00  0.00     0.036 A 
ATOM     21  CAT OGN d   1     -10.929 -33.294 -21.224  0.00  0.00    -0.057 A 
ATOM     22  CAU OGN d   1     -11.912 -33.856 -22.047  0.00  0.00    -0.081 A 
ATOM     23  H14 OGN d   1     -10.064 -32.807 -21.660  0.00  0.00     0.086 H 
ATOM     24  CAV OGN d   1     -13.026 -34.490 -21.492  0.00  0.00    -0.083 A 
ATOM     25  H15 OGN d   1     -11.808 -33.799 -23.125  0.00  0.00     0.083 H 
ATOM     26  CAW OGN d   1     -13.167 -34.554 -20.111  0.00  0.00    -0.081 A 
ATOM     27  H16 OGN d   1     -13.778 -34.931 -22.136  0.00  0.00     0.083 H 
ATOM     28  CAX OGN d   1     -12.193 -33.985 -19.289  0.00  0.00    -0.057 A 
ATOM     29  H17 OGN d   1     -14.030 -35.044 -19.674  0.00  0.00     0.083 H 
ATOM     30  H18 OGN d   1     -12.311 -34.025 -18.212  0.00  0.00     0.086 H 
ENDBRANCH  17  20
ENDBRANCH  15  16
ENDBRANCH  12  15
ENDBRANCH   1  12
BRANCH   2  31
ATOM     31  NAI OGN d   1      -3.838 -32.590 -16.559  0.00  0.00    -0.349 N 
ATOM     32  CAG OGN d   1      -4.310 -32.827 -15.335  0.00  0.00     0.214 C 
ATOM     33  OAN OGN d   1      -5.240 -32.167 -14.856  0.00  0.00    -0.274 OA
ATOM     34  H10 OGN d   1      -3.098 -33.160 -16.916  0.00  0.00     0.163 HD
BRANCH  32  35
ATOM     35  CAH OGN d   1      -3.653 -33.952 -14.551  0.00  0.00    -0.003 C 
ATOM     36  H7  OGN d   1      -4.133 -34.041 -13.565  0.00  0.00     0.040 H 
ATOM     37  H8  OGN d   1      -2.583 -33.731 -14.419  0.00  0.00     0.040 H 
ATOM     38  H9  OGN d   1      -3.767 -34.898 -15.101  0.00  0.00     0.040 H 
ENDBRANCH  32  35
ENDBRANCH   2  31
BRANCH   3  39
ATOM     39  OAJ OGN d   1      -2.493 -29.749 -17.414  0.00  0.00    -0.386 OA
ATOM     40  H11 OGN d   1      -2.501 -29.731 -18.364  0.00  0.00     0.210 HD
ENDBRANCH   3  39
BRANCH   5  41
ATOM     41  CAF OGN d   1      -7.010 -28.004 -16.841  0.00  0.00     0.047 C 
ATOM     42  H5  OGN d   1      -6.437 -27.071 -16.734  0.00  0.00     0.078 H 
ATOM     43  H6  OGN d   1      -7.810 -28.032 -16.086  0.00  0.00     0.078 H 
BRANCH  41  44
ATOM     44  OAM OGN d   1      -7.611 -28.023 -18.142  0.00  0.00    -0.398 OA
ATOM     45  H12 OGN d   1      -6.931 -27.991 -18.804  0.00  0.00     0.209 HD
ENDBRANCH  41  44
ENDBRANCH   5  41
TORSDOF 9
