REMARK  5 active torsions:
REMARK  status: ('A' for Active; 'I' for Inactive)
REMARK    1  A    between atoms: C3_3  and  O3_11 
REMARK    2  A    between atoms: C4_4  and  O4_12 
REMARK    3  A    between atoms: C5_5  and  C6_6 
REMARK    4  A    between atoms: C6_6  and  O6_14 
REMARK    5  A    between atoms: C7_7  and  C8_8 
ROOT
ATOM      1  C1  NGT d   1     -17.662 -31.164  16.373  0.00  0.00     0.112 C 
ATOM      2  C2  NGT d   1     -18.980 -31.013  17.185  0.00  0.00     0.094 C 
ATOM      3  C3  NGT d   1     -19.534 -29.581  17.164  0.00  0.00     0.087 C 
ATOM      4  C4  NGT d   1     -18.458 -28.571  17.473  0.00  0.00     0.089 C 
ATOM      5  C5  NGT d   1     -17.309 -28.743  16.480  0.00  0.00     0.087 C 
ATOM      6  C7  NGT d   1     -19.657 -31.966  15.221  0.00  0.00     0.064 C 
ATOM      7  N2  NGT d   1     -19.923 -31.855  16.452  0.00  0.00    -0.276 NA
ATOM      8  S1  NGT d   1     -18.169 -31.399  14.686  0.00  0.00    -0.081 SA
ATOM      9  O5  NGT d   1     -16.751 -30.063  16.559  0.00  0.00    -0.363 OA
ATOM     10  H1  NGT d   1     -17.142 -32.072  16.712  0.00  0.00     0.104 H 
ATOM     11  H2  NGT d   1     -18.843 -31.351  18.223  0.00  0.00     0.085 H 
ATOM     12  H3  NGT d   1     -19.920 -29.392  16.151  0.00  0.00     0.090 H 
ATOM     13  H4  NGT d   1     -18.081 -28.705  18.498  0.00  0.00     0.091 H 
ATOM     14  H5  NGT d   1     -17.714 -28.603  15.467  0.00  0.00     0.090 H 
ENDROOT
BRANCH   5  15
ATOM     15  C6  NGT d   1     -16.222 -27.697  16.704  0.00  0.00     0.043 C 
ATOM     16  H6  NGT d   1     -16.651 -26.689  16.605  0.00  0.00     0.078 H 
ATOM     17  H7  NGT d   1     -15.421 -27.829  15.961  0.00  0.00     0.078 H 
BRANCH  15  18
ATOM     18  O6  NGT d   1     -15.690 -27.868  18.023  0.00  0.00    -0.398 OA
ATOM     19  H13 NGT d   1     -16.385 -27.755  18.661  0.00  0.00     0.209 HD
ENDBRANCH  15  18
ENDBRANCH   5  15
BRANCH   4  20
ATOM     20  O4  NGT d   1     -19.085 -27.289  17.340  0.00  0.00    -0.390 OA
ATOM     21  H12 NGT d   1     -18.445 -26.606  17.501  0.00  0.00     0.210 HD
ENDBRANCH   4  20
BRANCH   3  22
ATOM     22  O3  NGT d   1     -20.592 -29.353  18.098  0.00  0.00    -0.391 OA
ATOM     23  H11 NGT d   1     -21.294 -29.972  17.937  0.00  0.00     0.210 HD
ENDBRANCH   3  22
BRANCH   6  24
ATOM     24  C8  NGT d   1     -20.681 -32.582  14.316  0.00  0.00    -0.030 C 
ATOM     25  H8  NGT d   1     -21.564 -32.870  14.905  0.00  0.00     0.036 H 
ATOM     26  H9  NGT d   1     -20.255 -33.474  13.833  0.00  0.00     0.036 H 
ATOM     27  H10 NGT d   1     -20.975 -31.854  13.546  0.00  0.00     0.036 H 
ENDBRANCH   6  24
TORSDOF 5
