REMARK  9 active torsions:
REMARK  status: ('A' for Active; 'I' for Inactive)
REMARK    1  A    between atoms: CAH_1  and  CAG_2 
REMARK       I    between atoms: CAG_2  and  NAI_4 
REMARK    2  A    between atoms: NAI_4  and  CAB_5 
REMARK    3  A    between atoms: CAC_6  and  OAJ_7 
REMARK    4  A    between atoms: CAD_8  and  OAK_9 
REMARK    5  A    between atoms: CAE_10  and  CAF_11 
REMARK    6  A    between atoms: CAF_11  and  OAM_12 
REMARK    7  A    between atoms: NAY_15  and  OAQ_16 
REMARK    8  A    between atoms: OAQ_16  and  CAP_17 
REMARK       I    between atoms: CAP_17  and  NAO_19 
REMARK    9  A    between atoms: NAO_19  and  CAS_20 
ROOT
ATOM      1  CAB OAN d   1      28.860 -15.592   8.610  0.00  0.00     0.105 C 
ATOM      2  CAC OAN d   1      28.048 -15.760   7.296  0.00  0.00     0.089 C 
ATOM      3  CAD OAN d   1      28.949 -15.609   6.077  0.00  0.00     0.090 C 
ATOM      4  CAE OAN d   1      30.051 -16.622   6.153  0.00  0.00     0.094 C 
ATOM      5  OAL OAN d   1      30.946 -16.362   7.245  0.00  0.00    -0.324 OA
ATOM      6  CAA OAN d   1      30.344 -15.781   8.410  0.00  0.00     0.194 C 
ATOM      7  NAY OAN d   1      31.174 -15.400   9.295  0.00  0.00    -0.100 NA
ATOM      8  H5  OAN d   1      28.720 -14.558   8.958  0.00  0.00     0.090 H 
ATOM      9  H6  OAN d   1      27.636 -16.780   7.293  0.00  0.00     0.090 H 
ATOM     10  H8  OAN d   1      29.374 -14.595   6.060  0.00  0.00     0.091 H 
ATOM     11  H10 OAN d   1      29.599 -17.618   6.271  0.00  0.00     0.091 H 
ENDROOT
BRANCH   1  12
ATOM     12  NAI OAN d   1      28.280 -16.480   9.624  0.00  0.00    -0.347 N 
ATOM     13  CAG OAN d   1      28.503 -17.800   9.627  0.00  0.00     0.214 C 
ATOM     14  OAN OAN d   1      29.205 -18.360   8.803  0.00  0.00    -0.274 OA
ATOM     15  H4  OAN d   1      27.699 -16.086  10.336  0.00  0.00     0.163 HD
BRANCH  13  16
ATOM     16  CAH OAN d   1      27.854 -18.559  10.793  0.00  0.00    -0.003 C 
ATOM     17  H1  OAN d   1      27.269 -17.858  11.406  0.00  0.00     0.040 H 
ATOM     18  H2  OAN d   1      28.638 -19.021  11.412  0.00  0.00     0.040 H 
ATOM     19  H3  OAN d   1      27.191 -19.342  10.397  0.00  0.00     0.040 H 
ENDBRANCH  13  16
ENDBRANCH   1  12
BRANCH   7  20
ATOM     20  OAQ OAN d   1      32.419 -15.516   9.008  0.00  0.00    -0.153 OA
BRANCH  20  21
ATOM     21  CAP OAN d   1      33.414 -14.685   9.647  0.00  0.00     0.389 C 
ATOM     22  OAR OAN d   1      33.105 -13.749  10.381  0.00  0.00    -0.236 OA
ATOM     23  NAO OAN d   1      34.660 -15.046   9.448  0.00  0.00    -0.301 N 
ATOM     24  H14 OAN d   1      34.846 -15.788   8.804  0.00  0.00     0.171 HD
BRANCH  23  25
ATOM     25  CAS OAN d   1      35.712 -14.452  10.083  0.00  0.00     0.036 A 
ATOM     26  CAT OAN d   1      35.560 -13.356  10.942  0.00  0.00    -0.057 A 
ATOM     27  CAU OAN d   1      36.666 -12.792  11.566  0.00  0.00    -0.081 A 
ATOM     28  H15 OAN d   1      34.573 -12.945  11.121  0.00  0.00     0.086 H 
ATOM     29  CAV OAN d   1      37.923 -13.318  11.337  0.00  0.00    -0.083 A 
ATOM     30  H16 OAN d   1      36.543 -11.943  12.229  0.00  0.00     0.083 H 
ATOM     31  CAW OAN d   1      38.080 -14.405  10.487  0.00  0.00    -0.081 A 
ATOM     32  H17 OAN d   1      38.789 -12.881  11.822  0.00  0.00     0.083 H 
ATOM     33  CAX OAN d   1      36.983 -14.981   9.876  0.00  0.00    -0.057 A 
ATOM     34  H18 OAN d   1      39.071 -14.804  10.302  0.00  0.00     0.083 H 
ATOM     35  H19 OAN d   1      37.112 -15.845   9.235  0.00  0.00     0.086 H 
ENDBRANCH  23  25
ENDBRANCH  20  21
ENDBRANCH   7  20
BRANCH   2  36
ATOM     36  OAJ OAN d   1      26.926 -14.828   7.184  0.00  0.00    -0.390 OA
ATOM     37  H7  OAN d   1      26.328 -14.965   7.909  0.00  0.00     0.210 HD
ENDBRANCH   2  36
BRANCH   4  38
ATOM     38  CAF OAN d   1      30.936 -16.602   4.910  0.00  0.00     0.044 C 
ATOM     39  H11 OAN d   1      30.300 -16.698   4.018  0.00  0.00     0.078 H 
ATOM     40  H12 OAN d   1      31.634 -17.451   4.955  0.00  0.00     0.078 H 
BRANCH  38  41
ATOM     41  OAM OAN d   1      31.696 -15.374   4.815  0.00  0.00    -0.398 OA
ATOM     42  H13 OAN d   1      32.252 -15.287   5.580  0.00  0.00     0.209 HD
ENDBRANCH  38  41
ENDBRANCH   4  38
BRANCH   3  43
ATOM     43  OAK OAN d   1      28.210 -15.839   4.872  0.00  0.00    -0.390 OA
ATOM     44  H9  OAN d   1      28.787 -15.741   4.124  0.00  0.00     0.210 HD
ENDBRANCH   3  43
TORSDOF 9
