REMARK  9 active torsions:
REMARK  status: ('A' for Active; 'I' for Inactive)
REMARK    1  A    between atoms: C11_9  and  C12_4 
REMARK    2  A    between atoms: C16_5  and  O17_18 
REMARK    3  A    between atoms: C2_8  and  C10_7 
REMARK    4  A    between atoms: C10_7  and  C11_9 
REMARK       I    between atoms: N3_14  and  C2_8 
REMARK    5  A    between atoms: C4_10  and  C5_11 
REMARK    6  A    between atoms: C4_10  and  N3_14 
REMARK    7  A    between atoms: C5_11  and  S6_20 
REMARK    8  A    between atoms: N20_12  and  O21_19 
REMARK    9  A    between atoms: S6_20  and  N8_13 
ROOT
ATOM      1  C10 OE2 d   1      -2.383   5.230  13.174  0.00  0.00     0.133 C 
ATOM      2  N20 OE2 d   1      -1.298   4.764  13.699  0.00  0.00    -0.135 NA
ENDROOT
BRANCH   1   3
ATOM      3  C2  OE2 d   1      -3.722   4.693  13.658  0.00  0.00     0.268 C 
ATOM      4  N3  OE2 d   1      -3.657   3.380  14.042  0.00  0.00    -0.355 N 
ATOM      5  H12 OE2 d   1      -2.792   2.882  13.986  0.00  0.00     0.162 HD
ATOM      6  O1  OE2 d   1      -4.742   5.380  13.578  0.00  0.00    -0.266 OA
BRANCH   4   7
ATOM      7  C4  OE2 d   1      -4.867   2.707  14.538  0.00  0.00     0.009 C 
ATOM      8  H6  OE2 d   1      -5.754   3.344  14.406  0.00  0.00     0.065 H 
ATOM      9  H7  OE2 d   1      -5.024   1.748  14.022  0.00  0.00     0.065 H 
BRANCH   7  10
ATOM     10  C5  OE2 d   1      -4.574   2.491  15.992  0.00  0.00     0.060 C 
ATOM     11  H8  OE2 d   1      -4.655   3.458  16.511  0.00  0.00     0.061 H 
ATOM     12  H9  OE2 d   1      -3.547   2.109  16.087  0.00  0.00     0.061 H 
BRANCH  10  13
ATOM     13  S6  OE2 d   1      -5.666   1.350  16.767  0.00  0.00     0.226 S 
ATOM     14  O7  OE2 d   1      -7.045   1.659  16.430  0.00  0.00    -0.206 OA
ATOM     15  O9  OE2 d   1      -5.346   1.435  18.184  0.00  0.00    -0.206 OA
BRANCH  13  16
ATOM     16  N8  OE2 d   1      -5.280  -0.111  16.212  0.00  0.00    -0.328 N 
ATOM     17  H10 OE2 d   1      -5.784  -0.915  16.528  0.00  0.00     0.168 HD
ATOM     18  H11 OE2 d   1      -4.536  -0.214  15.552  0.00  0.00     0.168 HD
ENDBRANCH  13  16
ENDBRANCH  10  13
ENDBRANCH   7  10
ENDBRANCH   4   7
ENDBRANCH   1   3
BRANCH   1  19
ATOM     19  C11 OE2 d   1      -2.420   6.251  12.066  0.00  0.00     0.007 C 
ATOM     20  H4  OE2 d   1      -1.648   5.994  11.326  0.00  0.00     0.050 H 
ATOM     21  H5  OE2 d   1      -3.411   6.215  11.589  0.00  0.00     0.050 H 
BRANCH  19  22
ATOM     22  C12 OE2 d   1      -2.177   7.621  12.540  0.00  0.00    -0.051 A 
ATOM     23  C19 OE2 d   1      -2.497   8.665  11.677  0.00  0.00    -0.074 A 
ATOM     24  C18 OE2 d   1      -2.306   9.985  12.020  0.00  0.00    -0.049 A 
ATOM     25  H1  OE2 d   1      -2.910   8.431  10.703  0.00  0.00     0.084 H 
ATOM     26  C16 OE2 d   1      -1.770  10.238  13.250  0.00  0.00     0.083 A 
ATOM     27  H2  OE2 d   1      -2.570  10.789  11.342  0.00  0.00     0.087 H 
ATOM     28  C14 OE2 d   1      -1.464   9.185  14.084  0.00  0.00     0.044 A 
ATOM     29  C13 OE2 d   1      -1.648   7.874  13.771  0.00  0.00    -0.057 A 
ATOM     30 BR   OE2 d   1      -0.772   9.539  15.729  0.00  0.00    -0.048 Br
ATOM     31  H3  OE2 d   1      -1.389   7.078  14.460  0.00  0.00     0.086 H 
BRANCH  26  32
ATOM     32  O17 OE2 d   1      -1.550  11.528  13.649  0.00  0.00    -0.359 OA
ATOM     33  H13 OE2 d   1      -1.815  12.122  12.957  0.00  0.00     0.217 HD
ENDBRANCH  26  32
ENDBRANCH  19  22
ENDBRANCH   1  19
BRANCH   2  34
ATOM     34  O21 OE2 d   1      -0.127   5.330  13.149  0.00  0.00    -0.266 OA
ATOM     35  H14 OE2 d   1       0.635   4.951  13.572  0.00  0.00     0.247 HD
ENDBRANCH   2  34
TORSDOF 9
