REMARK  6 active torsions:
REMARK  status: ('A' for Active; 'I' for Inactive)
REMARK    1  A    between atoms: C12_2  and  C4_3 
REMARK    2  A    between atoms: C12_2  and  C14_14 
REMARK    3  A    between atoms: C2_5  and  O7_6 
REMARK    4  A    between atoms: C6_8  and  N9_9 
REMARK    5  A    between atoms: C1_12  and  O8_13 
REMARK    6  A    between atoms: C17_17  and  C20_18 
ROOT
ATOM      1  O13 TCW d   1       1.742  21.556  82.990  0.00  0.00    -0.287 OA
ATOM      2  C12 TCW d   1       1.033  21.350  83.953  0.00  0.00     0.192 C 
ENDROOT
BRANCH   2   3
ATOM      3  C4  TCW d   1       0.631  19.912  84.132  0.00  0.00     0.020 A 
ATOM      4  C3  TCW d   1       1.300  18.890  83.434  0.00  0.00    -0.034 A 
ATOM      5  C2  TCW d   1       0.918  17.560  83.619  0.00  0.00     0.102 A 
ATOM      6  H1  TCW d   1       2.109  19.134  82.755  0.00  0.00     0.089 H 
ATOM      7  C1  TCW d   1      -0.126  17.212  84.497  0.00  0.00     0.132 A 
ATOM      8  C6  TCW d   1      -0.782  18.241  85.181  0.00  0.00     0.139 A 
ATOM      9  C5  TCW d   1      -0.396  19.579  85.007  0.00  0.00    -0.034 A 
ATOM     10  H3  TCW d   1      -0.904  20.360  85.561  0.00  0.00     0.088 H 
BRANCH   5  11
ATOM     11  O7  TCW d   1       1.537  16.536  82.952  0.00  0.00    -0.358 OA
ATOM     12  H2  TCW d   1       1.143  15.710  83.206  0.00  0.00     0.217 HD
ENDBRANCH   5  11
BRANCH   7  13
ATOM     13  O8  TCW d   1      -0.520  15.925  84.695  0.00  0.00    -0.356 OA
ATOM     14  H4  TCW d   1      -0.418  15.701  85.613  0.00  0.00     0.218 HD
ENDBRANCH   7  13
BRANCH   8  15
ATOM     15  N9  TCW d   1      -1.899  17.903  86.126  0.00  0.00    -0.113 N 
ATOM     16  O11 TCW d   1      -2.253  16.747  86.291  0.00  0.00    -0.532 OA
ATOM     17  O10 TCW d   1      -2.406  18.765  86.673  0.00  0.00    -0.532 OA
ENDBRANCH   8  15
ENDBRANCH   2   3
BRANCH   2  18
ATOM     18  C14 TCW d   1       0.664  22.508  84.844  0.00  0.00     0.015 A 
ATOM     19  C19 TCW d   1       0.139  23.710  84.329  0.00  0.00    -0.069 A 
ATOM     20  C18 TCW d   1      -0.224  24.794  85.151  0.00  0.00    -0.076 A 
ATOM     21  H5  TCW d   1       0.009  23.804  83.257  0.00  0.00     0.085 H 
ATOM     22  C17 TCW d   1      -0.072  24.714  86.536  0.00  0.00    -0.062 A 
ATOM     23  H6  TCW d   1      -0.624  25.697  84.705  0.00  0.00     0.084 H 
ATOM     24  C16 TCW d   1       0.428  23.516  87.042  0.00  0.00    -0.076 A 
ATOM     25  C15 TCW d   1       0.790  22.443  86.225  0.00  0.00    -0.069 A 
ATOM     26  H10 TCW d   1       0.541  23.413  88.115  0.00  0.00     0.084 H 
ATOM     27  H11 TCW d   1       1.178  21.539  86.680  0.00  0.00     0.085 H 
BRANCH  22  28
ATOM     28  C20 TCW d   1      -0.448  25.842  87.445  0.00  0.00    -0.051 C 
ATOM     29  H7  TCW d   1      -0.243  25.557  88.487  0.00  0.00     0.033 H 
ATOM     30  H8  TCW d   1      -1.519  26.064  87.330  0.00  0.00     0.033 H 
ATOM     31  H9  TCW d   1       0.142  26.734  87.186  0.00  0.00     0.033 H 
ENDBRANCH  22  28
ENDBRANCH   2  18
TORSDOF 6
