REMARK  3 active torsions:
REMARK  status: ('A' for Active; 'I' for Inactive)
REMARK    1  A    between atoms: S_2  and  N4_4 
REMARK    2  A    between atoms: S_2  and  C_5 
REMARK    3  A    between atoms: C2_9  and  C6_11 
ROOT
ATOM      1  C   U7E d   1       7.916 114.250 101.883  0.00  0.00     0.080 A 
ATOM      2  C5  U7E d   1       6.838 114.745 102.604  0.00  0.00    -0.060 A 
ATOM      3  C4  U7E d   1       7.056 115.693 103.613  0.00  0.00    -0.081 A 
ATOM      4  C3  U7E d   1       8.346 116.153 103.886  0.00  0.00    -0.069 A 
ATOM      5  C2  U7E d   1       9.432 115.662 103.159  0.00  0.00     0.016 A 
ATOM      6  C1  U7E d   1       9.199 114.711 102.167  0.00  0.00    -0.047 A 
ATOM      7  H3  U7E d   1       5.833 114.400 102.388  0.00  0.00     0.085 H 
ATOM      8  H4  U7E d   1       6.217 116.072 104.186  0.00  0.00     0.083 H 
ATOM      9  H5  U7E d   1       8.504 116.892 104.663  0.00  0.00     0.085 H 
ATOM     10  H6  U7E d   1      10.038 114.320 101.602  0.00  0.00     0.087 H 
ENDROOT
BRANCH   1  11
ATOM     11  S   U7E d   1       7.725 113.157 100.724  0.00  0.00     0.256 S 
ATOM     12  O1  U7E d   1       6.365 112.695 100.762  0.00  0.00    -0.201 OA
ATOM     13  O   U7E d   1       8.614 112.036 100.943  0.00  0.00    -0.201 OA
BRANCH  11  14
ATOM     14  N4  U7E d   1       8.065 113.823  99.320  0.00  0.00    -0.324 N 
ATOM     15  H1  U7E d   1       7.545 114.617  99.004  0.00  0.00     0.169 HD
ATOM     16  H2  U7E d   1       8.799 113.448  98.753  0.00  0.00     0.169 HD
ENDBRANCH  11  14
ENDBRANCH   1  11
BRANCH   5  17
ATOM     17  C6  U7E d   1      10.840 116.110 103.402  0.00  0.00     0.197 A 
ATOM     18  N3  U7E d   1      12.005 115.806 102.807  0.00  0.00    -0.136 NA
ATOM     19  N2  U7E d   1      13.020 116.519 103.502  0.00  0.00     0.022 NA
ATOM     20  N1  U7E d   1      12.425 117.299 104.490  0.00  0.00    -0.200 N 
ATOM     21  N   U7E d   1      11.057 117.007 104.379  0.00  0.00    -0.139 NA
ATOM     22  H7  U7E d   1      12.884 117.942 105.151  0.00  0.00     0.208 HD
ENDBRANCH   5  17
TORSDOF 3
