REMARK  13 active torsions:
REMARK  status: ('A' for Active; 'I' for Inactive)
REMARK    1  A    between atoms: C1_1  and  C14_13 
REMARK    2  A    between atoms: C3_3  and  O3_4 
REMARK    3  A    between atoms: O3_4  and  P3_5 
REMARK    4  A    between atoms: C4_6  and  O4_7 
REMARK    5  A    between atoms: O4_7  and  P4_8 
REMARK    6  A    between atoms: C5_9  and  O5_10 
REMARK    7  A    between atoms: O5_10  and  P5_11 
REMARK    8  A    between atoms: C16_15  and  O16_16 
REMARK    9  A    between atoms: O16_16  and  P16_17 
REMARK   10  A    between atoms: C17_18  and  O17_19 
REMARK   11  A    between atoms: O17_19  and  P17_20 
REMARK   12  A    between atoms: C18_21  and  O18_22 
REMARK   13  A    between atoms: O18_22  and  P18_23 
ROOT
ATOM      1  C1  B6K d   1      42.791 -56.623  15.089  0.00  0.00    -0.020 A 
ATOM      2  C2  B6K d   1      42.641 -56.896  16.457  0.00  0.00    -0.036 A 
ATOM      3  C3  B6K d   1      41.691 -57.814  16.901  0.00  0.00     0.120 A 
ATOM      4  C4  B6K d   1      40.817 -58.493  15.919  0.00  0.00     0.150 A 
ATOM      5  C5  B6K d   1      40.982 -58.182  14.496  0.00  0.00     0.120 A 
ATOM      6  C6  B6K d   1      41.970 -57.264  14.129  0.00  0.00    -0.036 A 
ATOM      7  H1  B6K d   1      43.271 -56.387  17.177  0.00  0.00     0.089 H 
ATOM      8  H2  B6K d   1      42.112 -57.036  13.079  0.00  0.00     0.089 H 
ENDROOT
BRANCH   1   9
ATOM      9  C14 B6K d   1      43.835 -55.634  14.646  0.00  0.00    -0.020 A 
ATOM     10  C15 B6K d   1      44.182 -54.534  15.449  0.00  0.00    -0.036 A 
ATOM     11  C16 B6K d   1      45.146 -53.598  15.055  0.00  0.00     0.120 A 
ATOM     12  H3  B6K d   1      43.687 -54.406  16.405  0.00  0.00     0.089 H 
ATOM     13  C17 B6K d   1      45.842 -53.798  13.767  0.00  0.00     0.150 A 
ATOM     14  C18 B6K d   1      45.448 -54.965  12.949  0.00  0.00     0.120 A 
ATOM     15  C19 B6K d   1      44.473 -55.835  13.420  0.00  0.00    -0.036 A 
ATOM     16  H4  B6K d   1      44.200 -56.694  12.819  0.00  0.00     0.089 H 
BRANCH  11  17
ATOM     17  O16 B6K d   1      45.492 -52.526  15.847  0.00  0.00    -0.237 OA
BRANCH  17  18
ATOM     18  P16 B6K d   1      44.521 -51.281  16.183  0.00  0.00     0.427 P 
ATOM     19  O61 B6K d   1      44.222 -50.678  14.823  0.00  0.00    -0.617 OA
ATOM     20  O62 B6K d   1      43.366 -51.911  16.928  0.00  0.00    -0.617 OA
ATOM     21  O63 B6K d   1      45.366 -50.411  17.087  0.00  0.00    -0.617 OA
ENDBRANCH  17  18
ENDBRANCH  11  17
BRANCH  13  22
ATOM     22  O17 B6K d   1      46.777 -52.907  13.305  0.00  0.00    -0.234 OA
BRANCH  22  23
ATOM     23  P17 B6K d   1      48.337 -52.874  13.692  0.00  0.00     0.427 P 
ATOM     24  O71 B6K d   1      48.449 -53.672  14.975  0.00  0.00    -0.617 OA
ATOM     25  O72 B6K d   1      48.994 -53.423  12.445  0.00  0.00    -0.617 OA
ATOM     26  O73 B6K d   1      48.579 -51.397  13.855  0.00  0.00    -0.617 OA
ENDBRANCH  22  23
ENDBRANCH  13  22
BRANCH  14  27
ATOM     27  O18 B6K d   1      46.066 -55.195  11.745  0.00  0.00    -0.237 OA
BRANCH  27  28
ATOM     28  P18 B6K d   1      47.214 -56.338  11.606  0.00  0.00     0.427 P 
ATOM     29  O81 B6K d   1      47.487 -56.285  10.119  0.00  0.00    -0.617 OA
ATOM     30  O82 B6K d   1      46.591 -57.602  12.164  0.00  0.00    -0.617 OA
ATOM     31  O83 B6K d   1      48.396 -55.920  12.445  0.00  0.00    -0.617 OA
ENDBRANCH  27  28
ENDBRANCH  14  27
ENDBRANCH   1   9
BRANCH   3  32
ATOM     32  O3  B6K d   1      41.472 -58.125  18.212  0.00  0.00    -0.237 OA
BRANCH  32  33
ATOM     33  P3  B6K d   1      42.540 -58.231  19.408  0.00  0.00     0.427 P 
ATOM     34  O31 B6K d   1      43.869 -57.778  18.852  0.00  0.00    -0.617 OA
ATOM     35  O32 B6K d   1      42.525 -59.674  19.862  0.00  0.00    -0.617 OA
ATOM     36  O33 B6K d   1      41.863 -57.303  20.389  0.00  0.00    -0.617 OA
ENDBRANCH  32  33
ENDBRANCH   3  32
BRANCH   5  37
ATOM     37  O5  B6K d   1      40.180 -58.855  13.612  0.00  0.00    -0.237 OA
BRANCH  37  38
ATOM     38  P5  B6K d   1      39.143 -58.215  12.561  0.00  0.00     0.427 P 
ATOM     39  O51 B6K d   1      39.894 -58.089  11.253  0.00  0.00    -0.617 OA
ATOM     40  O52 B6K d   1      38.050 -59.251  12.519  0.00  0.00    -0.617 OA
ATOM     41  O53 B6K d   1      38.715 -56.925  13.207  0.00  0.00    -0.617 OA
ENDBRANCH  37  38
ENDBRANCH   5  37
BRANCH   4  42
ATOM     42  O4  B6K d   1      39.883 -59.409  16.308  0.00  0.00    -0.234 OA
BRANCH  42  43
ATOM     43  P4  B6K d   1      40.294 -60.977  16.348  0.00  0.00     0.427 P 
ATOM     44  O41 B6K d   1      40.795 -61.246  14.942  0.00  0.00    -0.617 OA
ATOM     45  O42 B6K d   1      38.969 -61.588  16.701  0.00  0.00    -0.617 OA
ATOM     46  O43 B6K d   1      41.348 -61.213  17.409  0.00  0.00    -0.617 OA
ENDBRANCH  42  43
ENDBRANCH   4  42
TORSDOF 13
