REMARK  8 active torsions:
REMARK  status: ('A' for Active; 'I' for Inactive)
REMARK    1  A    between atoms: PAW_2  and  OAO_5 
REMARK    2  A    between atoms: OAO_5  and  CAS_6 
REMARK    3  A    between atoms: CAT_8  and  OAP_9 
REMARK    4  A    between atoms: OAP_9  and  PAX_10 
REMARK    5  A    between atoms: CAV_14  and  OAR_15 
REMARK    6  A    between atoms: OAR_15  and  PAZ_16 
REMARK    7  A    between atoms: CAU_21  and  OAQ_22 
REMARK    8  A    between atoms: OAQ_22  and  PAY_23 
ROOT
ATOM      1  CAS K2Y d   1     -19.550  25.526  50.930  0.00  0.00     0.119 A 
ATOM      2  CAM K2Y d   1     -20.216  24.539  51.691  0.00  0.00    -0.012 A 
ATOM      3  CAT K2Y d   1     -20.894  23.469  51.044  0.00  0.00     0.119 A 
ATOM      4  CAV K2Y d   1     -20.937  23.449  49.629  0.00  0.00     0.119 A 
ATOM      5  CAN K2Y d   1     -20.323  24.465  48.867  0.00  0.00    -0.012 A 
ATOM      6  CAU K2Y d   1     -19.644  25.519  49.510  0.00  0.00     0.119 A 
ATOM      7  H1  K2Y d   1     -20.210  24.598  52.773  0.00  0.00     0.092 H 
ATOM      8  H2  K2Y d   1     -20.374  24.435  47.785  0.00  0.00     0.092 H 
ENDROOT
BRANCH   1   9
ATOM      9  OAO K2Y d   1     -18.907  26.586  51.511  0.00  0.00    -0.237 OA
BRANCH   9  10
ATOM     10  PAW K2Y d   1     -18.051  26.413  52.877  0.00  0.00     0.427 P 
ATOM     11  OAE K2Y d   1     -19.106  26.279  54.077  0.00  0.00    -0.617 OA
ATOM     12  OAF K2Y d   1     -17.318  24.974  52.809  0.00  0.00    -0.617 OA
ATOM     13  OAA K2Y d   1     -17.084  27.512  53.097  0.00  0.00    -0.617 OA
ENDBRANCH   9  10
ENDBRANCH   1   9
BRANCH   6  14
ATOM     14  OAQ K2Y d   1     -19.006  26.503  48.778  0.00  0.00    -0.237 OA
BRANCH  14  15
ATOM     15  PAY K2Y d   1     -19.900  27.351  47.701  0.00  0.00     0.427 P 
ATOM     16  OAI K2Y d   1     -21.448  27.398  48.150  0.00  0.00    -0.617 OA
ATOM     17  OAJ K2Y d   1     -19.271  28.831  47.807  0.00  0.00    -0.617 OA
ATOM     18  OAC K2Y d   1     -19.778  26.850  46.320  0.00  0.00    -0.617 OA
ENDBRANCH  14  15
ENDBRANCH   6  14
BRANCH   3  19
ATOM     19  OAP K2Y d   1     -21.576  22.509  51.775  0.00  0.00    -0.237 OA
BRANCH  19  20
ATOM     20  PAX K2Y d   1     -20.881  21.701  53.010  0.00  0.00     0.427 P 
ATOM     21  OAG K2Y d   1     -21.560  20.247  53.047  0.00  0.00    -0.617 OA
ATOM     22  OAH K2Y d   1     -19.304  21.525  52.688  0.00  0.00    -0.617 OA
ATOM     23  OAB K2Y d   1     -21.080  22.418  54.291  0.00  0.00    -0.617 OA
ENDBRANCH  19  20
ENDBRANCH   3  19
BRANCH   4  24
ATOM     24  OAR K2Y d   1     -21.645  22.496  48.978  0.00  0.00    -0.237 OA
BRANCH  24  25
ATOM     25  PAZ K2Y d   1     -23.147  22.941  48.588  0.00  0.00     0.427 P 
ATOM     26  OAK K2Y d   1     -23.529  24.317  49.348  0.00  0.00    -0.617 OA
ATOM     27  OAL K2Y d   1     -23.090  23.258  47.000  0.00  0.00    -0.617 OA
ATOM     28  OAD K2Y d   1     -24.116  21.869  48.908  0.00  0.00    -0.617 OA
ENDBRANCH  24  25
ENDBRANCH   4  24
TORSDOF 8
