REMARK  10 active torsions:
REMARK  status: ('A' for Active; 'I' for Inactive)
REMARK    1  A    between atoms: N_1  and  CA_2 
REMARK    2  A    between atoms: CA_2  and  CB_3 
REMARK    3  A    between atoms: CA_2  and  C_6 
REMARK    4  A    between atoms: CB_3  and  CG_4 
REMARK    5  A    between atoms: CG_4  and  SD_5 
REMARK    6  A    between atoms: SD_5  and  C5'_9 
REMARK    7  A    between atoms: C5'_9  and  C4'_10 
REMARK    8  A    between atoms: C3'_12  and  O3'_13 
REMARK    9  A    between atoms: C2'_14  and  O2'_15 
REMARK   10  A    between atoms: C1'_16  and  N9_17 
ROOT
ATOM      1  C4' SAH d   1      43.338  15.946  36.873  0.00  0.00     0.076 C 
ATOM      2  O4' SAH d   1      44.070  17.109  36.576  0.00  0.00    -0.355 OA
ATOM      3  C3' SAH d   1      44.019  14.839  36.142  0.00  0.00     0.090 C 
ATOM      4  C2' SAH d   1      44.506  15.559  34.931  0.00  0.00     0.105 C 
ATOM      5  C1' SAH d   1      44.785  16.952  35.370  0.00  0.00     0.139 C 
ATOM      6  H11 SAH d   1      42.304  16.041  36.511  0.00  0.00     0.088 H 
ATOM      7  H12 SAH d   1      44.869  14.464  36.732  0.00  0.00     0.091 H 
ATOM      8  H14 SAH d   1      45.371  15.062  34.468  0.00  0.00     0.093 H 
ATOM      9  H16 SAH d   1      44.432  17.668  34.613  0.00  0.00     0.122 H 
ENDROOT
BRANCH   1  10
ATOM     10  C5' SAH d   1      43.315  15.756  38.374  0.00  0.00     0.003 C 
ATOM     11  H9  SAH d   1      43.179  16.737  38.853  0.00  0.00     0.052 H 
ATOM     12  H10 SAH d   1      42.472  15.100  38.635  0.00  0.00     0.052 H 
BRANCH  10  13
ATOM     13  SD  SAH d   1      44.793  15.038  38.970  0.00  0.00    -0.166 SA
BRANCH  13  14
ATOM     14  CG  SAH d   1      44.354  13.359  39.218  0.00  0.00    -0.021 C 
ATOM     15  H7  SAH d   1      44.956  12.965  40.050  0.00  0.00     0.049 H 
ATOM     16  H8  SAH d   1      43.288  13.318  39.485  0.00  0.00     0.049 H 
BRANCH  14  17
ATOM     17  CB  SAH d   1      44.577  12.464  38.002  0.00  0.00    -0.021 C 
ATOM     18  H5  SAH d   1      43.705  11.804  37.883  0.00  0.00     0.037 H 
ATOM     19  H6  SAH d   1      44.681  13.098  37.109  0.00  0.00     0.037 H 
BRANCH  17  20
ATOM     20  CA  SAH d   1      45.832  11.603  38.144  0.00  0.00     0.183 C 
ATOM     21  H4  SAH d   1      46.527  12.092  38.843  0.00  0.00     0.101 H 
BRANCH  20  22
ATOM     22  N   SAH d   1      46.443  11.392  36.850  0.00  0.00    -0.065 N 
ATOM     23  H1  SAH d   1      46.688  12.282  36.445  0.00  0.00     0.275 HD
ATOM     24  H2  SAH d   1      45.793  10.915  36.245  0.00  0.00     0.275 HD
ATOM     25  H3  SAH d   1      47.274  10.832  36.958  0.00  0.00     0.275 HD
ENDBRANCH  20  22
BRANCH  20  26
ATOM     26  C   SAH d   1      45.549  10.212  38.571  0.00  0.00     0.204 C 
ATOM     27  O   SAH d   1      45.699   9.347  37.686  0.00  0.00    -0.646 OA
ATOM     28  OXT SAH d   1      45.226   9.971  39.750  0.00  0.00    -0.646 OA
ENDBRANCH  20  26
ENDBRANCH  17  20
ENDBRANCH  14  17
ENDBRANCH  13  14
ENDBRANCH  10  13
ENDBRANCH   1  10
BRANCH   3  29
ATOM     29  O3' SAH d   1      43.187  13.735  35.838  0.00  0.00    -0.390 OA
ATOM     30  H13 SAH d   1      42.466  14.024  35.291  0.00  0.00     0.210 HD
ENDBRANCH   3  29
BRANCH   5  31
ATOM     31  N9  SAH d   1      46.233  17.168  35.614  0.00  0.00    -0.294 N 
ATOM     32  C8  SAH d   1      46.740  17.438  36.807  0.00  0.00     0.071 A 
ATOM     33  N7  SAH d   1      48.053  17.617  36.767  0.00  0.00    -0.236 NA
ATOM     34  H17 SAH d   1      46.146  17.505  37.717  0.00  0.00     0.144 H 
ATOM     35  C5  SAH d   1      48.441  17.467  35.525  0.00  0.00     0.149 A 
ATOM     36  C6  SAH d   1      49.726  17.522  34.818  0.00  0.00     0.155 A 
ATOM     37  C4  SAH d   1      47.244  17.178  34.753  0.00  0.00     0.167 A 
ATOM     38  N6  SAH d   1      50.865  17.792  35.450  0.00  0.00    -0.382 N 
ATOM     39  N1  SAH d   1      49.719  17.314  33.508  0.00  0.00    -0.222 NA
ATOM     40  H18 SAH d   1      51.751  17.823  34.925  0.00  0.00     0.157 HD
ATOM     41  H19 SAH d   1      50.861  17.970  36.465  0.00  0.00     0.157 HD
ATOM     42  C2  SAH d   1      48.590  17.056  32.855  0.00  0.00     0.091 A 
ATOM     43  N3  SAH d   1      47.401  16.984  33.440  0.00  0.00    -0.222 NA
ATOM     44  H20 SAH d   1      48.644  16.895  31.784  0.00  0.00     0.146 H 
ENDBRANCH   5  31
BRANCH   4  45
ATOM     45  O2' SAH d   1      43.436  15.726  34.051  0.00  0.00    -0.388 OA
ATOM     46  H15 SAH d   1      43.735  16.184  33.274  0.00  0.00     0.210 HD
ENDBRANCH   4  45
TORSDOF 10
