REMARK  6 active torsions:
REMARK  status: ('A' for Active; 'I' for Inactive)
REMARK    1  A    between atoms: C1_3  and  C_4 
REMARK    2  A    between atoms: C6_9  and  N1_13 
REMARK    3  A    between atoms: N1_13  and  C7_14 
REMARK    4  A    between atoms: C11_15  and  O_20 
REMARK    5  A    between atoms: O_20  and  C12_21 
REMARK    6  A    between atoms: C12_21  and  C13_22 
ROOT
ATOM      1  C7  YEJ d   1     -30.254  43.244  14.033  0.00  0.00     0.039 C 
ATOM      2  C11 YEJ d   1     -30.943  42.184  13.187  0.00  0.00     0.081 C 
ATOM      3  C10 YEJ d   1     -32.326  41.831  13.804  0.00  0.00     0.107 C 
ATOM      4  N2  YEJ d   1     -32.204  41.350  15.178  0.00  0.00    -0.073 N 
ATOM      5  C9  YEJ d   1     -31.413  42.223  16.056  0.00  0.00     0.084 C 
ATOM      6  C8  YEJ d   1     -30.123  42.759  15.473  0.00  0.00    -0.021 C 
ATOM      7  H9  YEJ d   1     -30.824  44.185  14.016  0.00  0.00     0.076 H 
ATOM      8  H10 YEJ d   1     -30.319  41.280  13.132  0.00  0.00     0.089 H 
ATOM      9  H11 YEJ d   1     -32.798  41.047  13.194  0.00  0.00     0.079 H 
ATOM     10  H12 YEJ d   1     -32.958  42.731  13.797  0.00  0.00     0.079 H 
ATOM     11  H13 YEJ d   1     -31.766  40.443  15.157  0.00  0.00     0.277 HD
ATOM     12  H14 YEJ d   1     -33.130  41.267  15.567  0.00  0.00     0.277 HD
ATOM     13  H15 YEJ d   1     -31.161  41.651  16.961  0.00  0.00     0.075 H 
ATOM     14  H16 YEJ d   1     -32.041  43.083  16.330  0.00  0.00     0.075 H 
ATOM     15  H17 YEJ d   1     -29.786  43.602  16.094  0.00  0.00     0.038 H 
ATOM     16  H18 YEJ d   1     -29.370  41.958  15.502  0.00  0.00     0.038 H 
ENDROOT
BRANCH   1  17
ATOM     17  N1  YEJ d   1     -28.957  43.430  13.418  0.00  0.00    -0.366 N 
ATOM     18  H8  YEJ d   1     -28.230  42.745  13.668  0.00  0.00     0.161 HD
BRANCH  17  19
ATOM     19  C6  YEJ d   1     -28.596  44.397  12.557  0.00  0.00     0.151 A 
ATOM     20  C18 YEJ d   1     -27.327  44.487  11.944  0.00  0.00     0.091 A 
ATOM     21  N3  YEJ d   1     -26.343  43.573  12.277  0.00  0.00    -0.319 N 
ATOM     22  C3  YEJ d   1     -27.018  45.448  10.970  0.00  0.00    -0.004 A 
ATOM     23  C19 YEJ d   1     -25.103  43.497  11.747  0.00  0.00     0.252 A 
ATOM     24  H4  YEJ d   1     -26.573  42.901  12.981  0.00  0.00     0.169 HD
ATOM     25  O3  YEJ d   1     -24.311  42.635  12.117  0.00  0.00    -0.268 OA
ATOM     26  C1  YEJ d   1     -24.834  44.494  10.733  0.00  0.00     0.007 A 
ATOM     27  C2  YEJ d   1     -25.721  45.434  10.344  0.00  0.00    -0.060 A 
ATOM     28  H5  YEJ d   1     -25.463  46.163   9.577  0.00  0.00     0.086 H 
ATOM     29  C4  YEJ d   1     -28.027  46.363  10.649  0.00  0.00    -0.054 A 
ATOM     30  C5  YEJ d   1     -29.241  46.253  11.302  0.00  0.00     0.005 A 
ATOM     31  H7  YEJ d   1     -27.861  47.137   9.909  0.00  0.00     0.087 H 
ATOM     32  N   YEJ d   1     -29.529  45.313  12.219  0.00  0.00    -0.241 NA
ATOM     33  H6  YEJ d   1     -30.013  46.974  11.058  0.00  0.00     0.114 H 
BRANCH  26  34
ATOM     34  C   YEJ d   1     -23.490  44.501  10.057  0.00  0.00    -0.046 C 
ATOM     35  H1  YEJ d   1     -23.455  45.316   9.320  0.00  0.00     0.033 H 
ATOM     36  H2  YEJ d   1     -23.331  43.539   9.548  0.00  0.00     0.033 H 
ATOM     37  H3  YEJ d   1     -22.702  44.653  10.809  0.00  0.00     0.033 H 
ENDBRANCH  26  34
ENDBRANCH  17  19
ENDBRANCH   1  17
BRANCH   2  38
ATOM     38  O   YEJ d   1     -31.138  42.732  11.877  0.00  0.00    -0.382 OA
BRANCH  38  39
ATOM     39  C12 YEJ d   1     -31.321  41.760  10.843  0.00  0.00     0.024 C 
ATOM     40  H19 YEJ d   1     -32.309  41.286  10.937  0.00  0.00     0.074 H 
ATOM     41  H20 YEJ d   1     -30.538  40.990  10.902  0.00  0.00     0.074 H 
BRANCH  39  42
ATOM     42  C13 YEJ d   1     -31.223  42.505   9.535  0.00  0.00    -0.032 C 
ATOM     43  C17 YEJ d   1     -31.555  41.569   8.379  0.00  0.00    -0.048 C 
ATOM     44  C16 YEJ d   1     -31.540  42.278   7.022  0.00  0.00     0.029 C 
ATOM     45  H22 YEJ d   1     -32.557  41.147   8.544  0.00  0.00     0.035 H 
ATOM     46  H23 YEJ d   1     -30.814  40.757   8.360  0.00  0.00     0.035 H 
ATOM     47  S   YEJ d   1     -29.910  42.851   6.667  0.00  0.00     0.144 S 
ATOM     48  H24 YEJ d   1     -32.230  43.134   7.049  0.00  0.00     0.056 H 
ATOM     49  H25 YEJ d   1     -31.859  41.575   6.239  0.00  0.00     0.056 H 
ATOM     50  O1  YEJ d   1     -29.939  43.664   5.482  0.00  0.00    -0.228 OA
ATOM     51  O2  YEJ d   1     -28.999  41.739   6.708  0.00  0.00    -0.228 OA
ATOM     52  C15 YEJ d   1     -29.628  43.882   8.071  0.00  0.00     0.029 C 
ATOM     53  C14 YEJ d   1     -29.823  43.070   9.333  0.00  0.00    -0.048 C 
ATOM     54  H26 YEJ d   1     -30.339  44.721   8.060  0.00  0.00     0.056 H 
ATOM     55  H27 YEJ d   1     -28.600  44.272   8.040  0.00  0.00     0.056 H 
ATOM     56  H28 YEJ d   1     -29.117  42.227   9.307  0.00  0.00     0.035 H 
ATOM     57  H29 YEJ d   1     -29.590  43.717  10.192  0.00  0.00     0.035 H 
ATOM     58  H21 YEJ d   1     -31.945  43.335   9.546  0.00  0.00     0.043 H 
ENDBRANCH  39  42
ENDBRANCH  38  39
ENDBRANCH   2  38
TORSDOF 6
