REMARK  8 active torsions:
REMARK  status: ('A' for Active; 'I' for Inactive)
REMARK    1  A    between atoms: C23_4  and  C24_5 
REMARK    2  A    between atoms: C6_8  and  C4_9 
REMARK    3  A    between atoms: C1_14  and  C_15 
REMARK    4  A    between atoms: C9_17  and  N1_20 
REMARK    5  A    between atoms: N1_20  and  C10_21 
REMARK    6  A    between atoms: C14_22  and  O_27 
REMARK    7  A    between atoms: O_27  and  C15_28 
REMARK    8  A    between atoms: C15_28  and  C16_29 
ROOT
ATOM      1  C10 YD3 d   1     -30.301  43.253  14.049  0.00  0.00     0.038 C 
ATOM      2  C14 YD3 d   1     -31.008  42.175  13.237  0.00  0.00     0.081 C 
ATOM      3  C13 YD3 d   1     -32.351  41.805  13.869  0.00  0.00     0.107 C 
ATOM      4  N2  YD3 d   1     -32.172  41.412  15.264  0.00  0.00    -0.073 N 
ATOM      5  C12 YD3 d   1     -31.448  42.373  16.104  0.00  0.00     0.084 C 
ATOM      6  C11 YD3 d   1     -30.125  42.780  15.491  0.00  0.00    -0.021 C 
ATOM      7  H15 YD3 d   1     -30.925  44.159  14.050  0.00  0.00     0.076 H 
ATOM      8  H16 YD3 d   1     -30.374  41.279  13.165  0.00  0.00     0.089 H 
ATOM      9  H17 YD3 d   1     -32.794  40.967  13.311  0.00  0.00     0.079 H 
ATOM     10  H18 YD3 d   1     -33.024  42.674  13.822  0.00  0.00     0.079 H 
ATOM     11  H19 YD3 d   1     -31.663  40.542  15.279  0.00  0.00     0.277 HD
ATOM     12  H20 YD3 d   1     -33.085  41.274  15.667  0.00  0.00     0.277 HD
ATOM     13  H21 YD3 d   1     -31.258  41.914  17.085  0.00  0.00     0.075 H 
ATOM     14  H22 YD3 d   1     -32.070  43.271  16.233  0.00  0.00     0.075 H 
ATOM     15  H23 YD3 d   1     -29.692  43.598  16.086  0.00  0.00     0.038 H 
ATOM     16  H24 YD3 d   1     -29.444  41.916  15.504  0.00  0.00     0.038 H 
ENDROOT
BRANCH   1  17
ATOM     17  N1  YD3 d   1     -29.012  43.582  13.455  0.00  0.00    -0.381 N 
ATOM     18  H14 YD3 d   1     -28.215  42.987  13.722  0.00  0.00     0.160 HD
BRANCH  17  19
ATOM     19  C9  YD3 d   1     -28.747  44.619  12.563  0.00  0.00     0.056 A 
ATOM     20  C21 YD3 d   1     -27.493  44.699  11.934  0.00  0.00     0.072 A 
ATOM     21  N3  YD3 d   1     -26.514  43.750  12.200  0.00  0.00    -0.320 N 
ATOM     22  C26 YD3 d   1     -27.210  45.733  11.020  0.00  0.00     0.005 A 
ATOM     23  C22 YD3 d   1     -25.276  43.694  11.655  0.00  0.00     0.251 A 
ATOM     24  H1  YD3 d   1     -26.747  43.036  12.861  0.00  0.00     0.169 HD
ATOM     25  O3  YD3 d   1     -24.486  42.823  12.014  0.00  0.00    -0.268 OA
ATOM     26  C23 YD3 d   1     -24.979  44.719  10.678  0.00  0.00     0.007 A 
ATOM     27  C25 YD3 d   1     -25.908  45.685  10.393  0.00  0.00    -0.059 A 
ATOM     28  H5  YD3 d   1     -25.654  46.451   9.662  0.00  0.00     0.086 H 
ATOM     29  C6  YD3 d   1     -28.166  46.722  10.759  0.00  0.00    -0.012 A 
ATOM     30  C7  YD3 d   1     -29.411  46.631  11.373  0.00  0.00    -0.069 A 
ATOM     31  C8  YD3 d   1     -29.691  45.601  12.251  0.00  0.00    -0.054 A 
ATOM     32  H13 YD3 d   1     -30.169  47.376  11.161  0.00  0.00     0.085 H 
ATOM     33  H12 YD3 d   1     -30.671  45.553  12.711  0.00  0.00     0.087 H 
BRANCH  26  34
ATOM     34  C24 YD3 d   1     -23.660  44.673   9.950  0.00  0.00    -0.046 C 
ATOM     35  H2  YD3 d   1     -23.598  45.519   9.250  0.00  0.00     0.033 H 
ATOM     36  H3  YD3 d   1     -23.582  43.728   9.392  0.00  0.00     0.033 H 
ATOM     37  H4  YD3 d   1     -22.837  44.738  10.677  0.00  0.00     0.033 H 
ENDBRANCH  26  34
BRANCH  29  38
ATOM     38  C4  YD3 d   1     -27.879  47.921   9.921  0.00  0.00    -0.007 A 
ATOM     39  C3  YD3 d   1     -26.788  48.749  10.170  0.00  0.00     0.013 A 
ATOM     40  N   YD3 d   1     -26.496  49.838   9.448  0.00  0.00    -0.272 NA
ATOM     41  H6  YD3 d   1     -26.136  48.497  10.998  0.00  0.00     0.116 H 
ATOM     42  C2  YD3 d   1     -27.308  50.139   8.427  0.00  0.00     0.007 A 
ATOM     43  C1  YD3 d   1     -28.427  49.397   8.084  0.00  0.00    -0.044 A 
ATOM     44  H7  YD3 d   1     -27.076  51.016   7.833  0.00  0.00     0.115 H 
ATOM     45  C5  YD3 d   1     -28.699  48.277   8.854  0.00  0.00    -0.064 A 
ATOM     46  H8  YD3 d   1     -29.565  47.668   8.621  0.00  0.00     0.085 H 
BRANCH  43  47
ATOM     47  C   YD3 d   1     -29.313  49.795   6.928  0.00  0.00    -0.050 C 
ATOM     48  H9  YD3 d   1     -28.916  50.707   6.459  0.00  0.00     0.033 H 
ATOM     49  H10 YD3 d   1     -30.332  49.986   7.296  0.00  0.00     0.033 H 
ATOM     50  H11 YD3 d   1     -29.337  48.982   6.187  0.00  0.00     0.033 H 
ENDBRANCH  43  47
ENDBRANCH  29  38
ENDBRANCH  17  19
ENDBRANCH   1  17
BRANCH   2  51
ATOM     51  O   YD3 d   1     -31.246  42.729  11.936  0.00  0.00    -0.382 OA
BRANCH  51  52
ATOM     52  C15 YD3 d   1     -31.449  41.765  10.898  0.00  0.00     0.024 C 
ATOM     53  H25 YD3 d   1     -32.444  41.307  10.996  0.00  0.00     0.074 H 
ATOM     54  H26 YD3 d   1     -30.678  40.982  10.952  0.00  0.00     0.074 H 
BRANCH  52  55
ATOM     55  C16 YD3 d   1     -31.345  42.506   9.588  0.00  0.00    -0.032 C 
ATOM     56  C20 YD3 d   1     -31.713  41.581   8.431  0.00  0.00    -0.048 C 
ATOM     57  C19 YD3 d   1     -31.697  42.296   7.077  0.00  0.00     0.029 C 
ATOM     58  H28 YD3 d   1     -32.723  41.182   8.607  0.00  0.00     0.035 H 
ATOM     59  H29 YD3 d   1     -30.991  40.752   8.400  0.00  0.00     0.035 H 
ATOM     60  S   YD3 d   1     -30.069  42.866   6.700  0.00  0.00     0.144 S 
ATOM     61  H30 YD3 d   1     -32.383  43.156   7.113  0.00  0.00     0.056 H 
ATOM     62  H31 YD3 d   1     -32.026  41.597   6.294  0.00  0.00     0.056 H 
ATOM     63  O1  YD3 d   1     -30.118  43.702   5.533  0.00  0.00    -0.228 OA
ATOM     64  O2  YD3 d   1     -29.170  41.743   6.694  0.00  0.00    -0.228 OA
ATOM     65  C18 YD3 d   1     -29.735  43.867   8.114  0.00  0.00     0.029 C 
ATOM     66  C17 YD3 d   1     -29.934  43.040   9.372  0.00  0.00    -0.048 C 
ATOM     67  H32 YD3 d   1     -30.422  44.726   8.127  0.00  0.00     0.056 H 
ATOM     68  H33 YD3 d   1     -28.697  44.228   8.072  0.00  0.00     0.056 H 
ATOM     69  H34 YD3 d   1     -29.250  42.180   9.324  0.00  0.00     0.035 H 
ATOM     70  H35 YD3 d   1     -29.673  43.669  10.236  0.00  0.00     0.035 H 
ATOM     71  H27 YD3 d   1     -32.046  43.353   9.607  0.00  0.00     0.043 H 
ENDBRANCH  52  55
ENDBRANCH  51  52
ENDBRANCH   2  51
TORSDOF 8
