REMARK  6 active torsions:
REMARK  status: ('A' for Active; 'I' for Inactive)
REMARK    1  A    between atoms: C01_1  and  C05_2 
REMARK    2  A    between atoms: C14_8  and  N15_9 
REMARK    3  A    between atoms: N15_9  and  C17_10 
REMARK    4  A    between atoms: C30_15  and  O32_16 
REMARK    5  A    between atoms: O32_16  and  C33_17 
REMARK    6  A    between atoms: C33_17  and  C36_18 
ROOT
ATOM      1  C17 78J d   1      15.229   6.477   6.159  0.00  0.00     0.039 C 
ATOM      2  C19 78J d   1      15.501   7.885   5.628  0.00  0.00    -0.021 C 
ATOM      3  C22 78J d   1      16.075   7.790   4.233  0.00  0.00     0.084 C 
ATOM      4  N25 78J d   1      15.104   7.152   3.340  0.00  0.00    -0.073 N 
ATOM      5  C27 78J d   1      14.782   5.792   3.776  0.00  0.00     0.107 C 
ATOM      6  C30 78J d   1      14.296   5.711   5.219  0.00  0.00     0.081 C 
ATOM      7  H8  78J d   1      16.187   5.937   6.191  0.00  0.00     0.076 H 
ATOM      8  H9  78J d   1      16.220   8.394   6.287  0.00  0.00     0.038 H 
ATOM      9  H10 78J d   1      14.561   8.455   5.601  0.00  0.00     0.038 H 
ATOM     10  H11 78J d   1      16.997   7.191   4.257  0.00  0.00     0.075 H 
ATOM     11  H12 78J d   1      16.303   8.800   3.862  0.00  0.00     0.075 H 
ATOM     12  H13 78J d   1      15.491   7.114   2.410  0.00  0.00     0.277 HD
ATOM     13  H14 78J d   1      14.259   7.701   3.330  0.00  0.00     0.277 HD
ATOM     14  H15 78J d   1      15.686   5.173   3.679  0.00  0.00     0.079 H 
ATOM     15  H16 78J d   1      13.993   5.395   3.121  0.00  0.00     0.079 H 
ATOM     16  H17 78J d   1      13.293   6.160   5.267  0.00  0.00     0.089 H 
ENDROOT
BRANCH   1  17
ATOM     17  N15 78J d   1      14.705   6.531   7.518  0.00  0.00    -0.366 N 
ATOM     18  H7  78J d   1      14.387   7.448   7.862  0.00  0.00     0.161 HD
BRANCH  17  19
ATOM     19  C14 78J d   1      14.599   5.485   8.366  0.00  0.00     0.151 A 
ATOM     20  N13 78J d   1      15.436   4.444   8.171  0.00  0.00    -0.241 NA
ATOM     21  C11 78J d   1      15.386   3.378   8.988  0.00  0.00     0.005 A 
ATOM     22  C09 78J d   1      14.518   3.257  10.051  0.00  0.00    -0.054 A 
ATOM     23  H6  78J d   1      16.073   2.561   8.798  0.00  0.00     0.114 H 
ATOM     24  C08 78J d   1      13.639   4.306  10.307  0.00  0.00    -0.004 A 
ATOM     25  H5  78J d   1      14.519   2.368  10.672  0.00  0.00     0.087 H 
ATOM     26  C06 78J d   1      12.685   4.313  11.385  0.00  0.00    -0.060 A 
ATOM     27  C53 78J d   1      13.693   5.417   9.457  0.00  0.00     0.091 A 
ATOM     28  C05 78J d   1      11.879   5.374  11.551  0.00  0.00     0.007 A 
ATOM     29  H4  78J d   1      12.617   3.463  12.062  0.00  0.00     0.086 H 
ATOM     30  C56 78J d   1      11.927   6.539  10.677  0.00  0.00     0.252 A 
ATOM     31  N54 78J d   1      12.839   6.479   9.681  0.00  0.00    -0.319 N 
ATOM     32  O57 78J d   1      11.207   7.528  10.789  0.00  0.00    -0.268 OA
ATOM     33  H31 78J d   1      12.900   7.261   9.061  0.00  0.00     0.169 HD
BRANCH  28  34
ATOM     34  C01 78J d   1      10.889   5.361  12.689  0.00  0.00    -0.046 C 
ATOM     35  H1  78J d   1      10.983   4.417  13.246  0.00  0.00     0.033 H 
ATOM     36  H2  78J d   1       9.868   5.450  12.288  0.00  0.00     0.033 H 
ATOM     37  H3  78J d   1      11.094   6.206  13.363  0.00  0.00     0.033 H 
ENDBRANCH  28  34
ENDBRANCH  17  19
ENDBRANCH   1  17
BRANCH   6  38
ATOM     38  O32 78J d   1      14.218   4.355   5.692  0.00  0.00    -0.382 OA
BRANCH  38  39
ATOM     39  C33 78J d   1      13.674   3.376   4.801  0.00  0.00     0.024 C 
ATOM     40  H18 78J d   1      14.478   2.697   4.479  0.00  0.00     0.074 H 
ATOM     41  H19 78J d   1      13.251   3.886   3.923  0.00  0.00     0.074 H 
BRANCH  39  42
ATOM     42  C36 78J d   1      12.590   2.571   5.473  0.00  0.00    -0.033 C 
ATOM     43  C38 78J d   1      13.135   1.774   6.650  0.00  0.00    -0.060 C 
ATOM     44  C41 78J d   1      12.081   0.878   7.290  0.00  0.00    -0.065 C 
ATOM     45  H21 78J d   1      13.508   2.477   7.409  0.00  0.00     0.033 H 
ATOM     46  H22 78J d   1      13.964   1.144   6.295  0.00  0.00     0.033 H 
ATOM     47  C44 78J d   1      11.467  -0.061   6.271  0.00  0.00    -0.065 C 
ATOM     48  H23 78J d   1      11.289   1.508   7.721  0.00  0.00     0.033 H 
ATOM     49  H24 78J d   1      12.551   0.284   8.087  0.00  0.00     0.033 H 
ATOM     50  C47 78J d   1      10.895   0.716   5.103  0.00  0.00    -0.065 C 
ATOM     51  H25 78J d   1      10.662  -0.637   6.750  0.00  0.00     0.033 H 
ATOM     52  H26 78J d   1      12.241  -0.750   5.902  0.00  0.00     0.033 H 
ATOM     53  C50 78J d   1      11.948   1.618   4.471  0.00  0.00    -0.060 C 
ATOM     54  H27 78J d   1      10.059   1.336   5.460  0.00  0.00     0.033 H 
ATOM     55  H28 78J d   1      10.529   0.007   4.346  0.00  0.00     0.033 H 
ATOM     56  H29 78J d   1      12.735   0.986   4.034  0.00  0.00     0.033 H 
ATOM     57  H30 78J d   1      11.471   2.212   3.677  0.00  0.00     0.033 H 
ATOM     58  H20 78J d   1      11.822   3.265   5.846  0.00  0.00     0.043 H 
ENDBRANCH  39  42
ENDBRANCH  38  39
ENDBRANCH   6  38
TORSDOF 6
