REMARK  8 active torsions:
REMARK  status: ('A' for Active; 'I' for Inactive)
REMARK    1  A    between atoms: C1_1  and  C12_12 
REMARK    2  A    between atoms: C2_2  and  C6_6 
REMARK    3  A    between atoms: C3_3  and  C5_5 
REMARK    4  A    between atoms: N4_4  and  C24_24 
REMARK    5  A    between atoms: C12_12  and  O14_14 
REMARK    6  A    between atoms: O14_14  and  C15_15 
REMARK    7  A    between atoms: C15_15  and  C16_16 
REMARK    8  A    between atoms: C28_28  and  C30_30 
ROOT
ATOM      1  C6  IUY d   1      27.946 -23.293   6.345  0.00  0.00    -0.030 A 
ATOM      2  C7  IUY d   1      28.144 -23.072   7.713  0.00  0.00    -0.073 A 
ATOM      3  C8  IUY d   1      27.471 -23.840   8.664  0.00  0.00    -0.062 A 
ATOM      4  C9  IUY d   1      26.595 -24.868   8.238  0.00  0.00     0.044 A 
ATOM      5  C10 IUY d   1      26.416 -25.101   6.875  0.00  0.00    -0.062 A 
ATOM      6  C11 IUY d   1      27.090 -24.328   5.934  0.00  0.00    -0.073 A 
ATOM      7  C17 IUY d   1      25.915 -25.692   9.184  0.00  0.00     0.099 C 
ATOM      8  N18 IUY d   1      25.388 -26.364   9.933  0.00  0.00    -0.191 NA
ATOM      9  H5  IUY d   1      28.828 -22.296   8.037  0.00  0.00     0.084 H 
ATOM     10  H6  IUY d   1      27.618 -23.651   9.721  0.00  0.00     0.085 H 
ATOM     11  H7  IUY d   1      25.748 -25.889   6.546  0.00  0.00     0.085 H 
ATOM     12  H8  IUY d   1      26.953 -24.526   4.877  0.00  0.00     0.084 H 
ENDROOT
BRANCH   1  13
ATOM     13  C2  IUY d   1      28.674 -22.469   5.289  0.00  0.00     0.092 C 
ATOM     14  C1  IUY d   1      27.715 -21.667   4.436  0.00  0.00     0.068 C 
ATOM     15  C3  IUY d   1      27.401 -22.016   3.151  0.00  0.00     0.045 C 
ATOM     16  N4  IUY d   1      27.917 -23.150   2.547  0.00  0.00    -0.149 N 
ATOM     17  C20 IUY d   1      28.965 -23.793   3.180  0.00  0.00     0.714 A 
ATOM     18  N19 IUY d   1      29.354 -23.470   4.455  0.00  0.00    -0.176 N 
ATOM     19  N21 IUY d   1      29.722 -24.743   2.724  0.00  0.00    -0.075 NA
ATOM     20  C23 IUY d   1      30.394 -24.312   4.766  0.00  0.00     0.016 A 
ATOM     21  C22 IUY d   1      30.618 -25.088   3.674  0.00  0.00     0.036 A 
ATOM     22  H15 IUY d   1      30.936 -24.350   5.710  0.00  0.00     0.114 H 
ATOM     23  H14 IUY d   1      31.386 -25.855   3.581  0.00  0.00     0.117 H 
ATOM     24  H1  IUY d   1      29.399 -21.791   5.762  0.00  0.00     0.090 H 
BRANCH  14  25
ATOM     25  C12 IUY d   1      27.164 -20.512   5.063  0.00  0.00     0.293 C 
ATOM     26  O13 IUY d   1      26.363 -19.768   4.499  0.00  0.00    -0.259 OA
BRANCH  25  27
ATOM     27  O14 IUY d   1      27.516 -20.241   6.347  0.00  0.00    -0.318 OA
BRANCH  27  28
ATOM     28  C15 IUY d   1      26.709 -19.279   7.050  0.00  0.00     0.026 C 
ATOM     29  H9  IUY d   1      25.647 -19.527   6.908  0.00  0.00     0.074 H 
ATOM     30  H10 IUY d   1      26.909 -18.276   6.645  0.00  0.00     0.074 H 
BRANCH  28  31
ATOM     31  C16 IUY d   1      27.033 -19.288   8.559  0.00  0.00    -0.056 C 
ATOM     32  H11 IUY d   1      26.405 -18.546   9.073  0.00  0.00     0.030 H 
ATOM     33  H12 IUY d   1      28.093 -19.037   8.708  0.00  0.00     0.030 H 
ATOM     34  H13 IUY d   1      26.832 -20.288   8.971  0.00  0.00     0.030 H 
ENDBRANCH  28  31
ENDBRANCH  27  28
ENDBRANCH  25  27
ENDBRANCH  14  25
BRANCH  15  35
ATOM     35  C5  IUY d   1      26.427 -21.176   2.345  0.00  0.00    -0.036 C 
ATOM     36  H2  IUY d   1      26.102 -20.314   2.946  0.00  0.00     0.035 H 
ATOM     37  H3  IUY d   1      25.552 -21.786   2.076  0.00  0.00     0.035 H 
ATOM     38  H4  IUY d   1      26.921 -20.819   1.429  0.00  0.00     0.035 H 
ENDBRANCH  15  35
BRANCH  16  39
ATOM     39  C24 IUY d   1      27.459 -23.708   1.335  0.00  0.00     0.058 A 
ATOM     40  C25 IUY d   1      28.079 -23.378   0.128  0.00  0.00    -0.056 A 
ATOM     41  C26 IUY d   1      27.644 -23.914  -1.063  0.00  0.00    -0.080 A 
ATOM     42  H16 IUY d   1      28.916 -22.689   0.129  0.00  0.00     0.086 H 
ATOM     43  C27 IUY d   1      26.583 -24.808  -1.054  0.00  0.00    -0.068 A 
ATOM     44  H17 IUY d   1      28.124 -23.641  -1.996  0.00  0.00     0.083 H 
ATOM     45  C28 IUY d   1      25.955 -25.171   0.133  0.00  0.00     0.050 A 
ATOM     46  H18 IUY d   1      26.237 -25.232  -1.990  0.00  0.00     0.084 H 
ATOM     47  C29 IUY d   1      26.395 -24.634   1.333  0.00  0.00    -0.042 A 
ATOM     48  H19 IUY d   1      25.924 -24.924   2.265  0.00  0.00     0.088 H 
BRANCH  45  49
ATOM     49  C30 IUY d   1      24.811 -26.162   0.132  0.00  0.00     0.417 C 
ATOM     50  F31 IUY d   1      24.053 -26.102  -1.020  0.00  0.00    -0.166 F 
ATOM     51  F32 IUY d   1      25.306 -27.454   0.241  0.00  0.00    -0.166 F 
ATOM     52  F33 IUY d   1      23.968 -25.895   1.185  0.00  0.00    -0.166 F 
ENDBRANCH  45  49
ENDBRANCH  16  39
ENDBRANCH   1  13
TORSDOF 8
