REMARK  6 active torsions:
REMARK  status: ('A' for Active; 'I' for Inactive)
REMARK    1  A    between atoms: C11_8  and  C9_9 
REMARK    2  A    between atoms: C10_11  and  C17_12 
REMARK       I    between atoms: N7_18  and  C31_19 
REMARK    3  A    between atoms: C31_19  and  O33_21 
REMARK    4  A    between atoms: O33_21  and  C34_22 
REMARK    5  A    between atoms: N4_25  and  C21_26 
REMARK    6  A    between atoms: C25_31  and  C27_32 
ROOT
ATOM      1  C15 VBM d   1      -7.299  35.291  -5.726  0.00  0.00    -0.073 A 
ATOM      2  C12 VBM d   1      -8.373  35.150  -6.639  0.00  0.00    -0.062 A 
ATOM      3  C13 VBM d   1      -8.099  35.262  -7.993  0.00  0.00     0.044 A 
ATOM      4  C19 VBM d   1      -9.165  35.153  -8.937  0.00  0.00     0.099 C 
ATOM      5  N20 VBM d   1     -10.057  35.060  -9.643  0.00  0.00    -0.191 NA
ATOM      6  C14 VBM d   1      -6.777  35.518  -8.429  0.00  0.00    -0.062 A 
ATOM      7  C18 VBM d   1      -5.730  35.634  -7.510  0.00  0.00    -0.073 A 
ATOM      8  C11 VBM d   1      -5.972  35.540  -6.140  0.00  0.00    -0.028 A 
ATOM      9  H1  VBM d   1      -7.504  35.204  -4.665  0.00  0.00     0.084 H 
ATOM     10  H2  VBM d   1      -9.381  34.960  -6.288  0.00  0.00     0.085 H 
ATOM     11  H3  VBM d   1      -6.574  35.625  -9.488  0.00  0.00     0.085 H 
ATOM     12  H4  VBM d   1      -4.720  35.799  -7.866  0.00  0.00     0.084 H 
ENDROOT
BRANCH   8  13
ATOM     13  C9  VBM d   1      -4.798  35.750  -5.140  0.00  0.00     0.115 C 
ATOM     14  C8  VBM d   1      -4.641  34.532  -4.272  0.00  0.00     0.075 C 
ATOM     15  C10 VBM d   1      -5.150  34.475  -2.979  0.00  0.00     0.050 C 
ATOM     16  C16 VBM d   1      -3.943  33.453  -4.889  0.00  0.00     0.099 C 
ATOM     17  N4  VBM d   1      -5.839  35.575  -2.413  0.00  0.00    -0.147 N 
ATOM     18  C1  VBM d   1      -5.922  36.743  -3.138  0.00  0.00     0.747 A 
ATOM     19  N3  VBM d   1      -5.328  36.910  -4.385  0.00  0.00    -0.068 N 
ATOM     20  N2  VBM d   1      -6.319  37.938  -2.735  0.00  0.00     0.132 NA
ATOM     21  N6  VBM d   1      -5.485  38.094  -4.765  0.00  0.00     0.038 NA
ATOM     22  C5  VBM d   1      -6.078  38.765  -3.762  0.00  0.00     0.764 A 
ATOM     23  N7  VBM d   1      -6.443  40.051  -3.716  0.00  0.00    -0.129 N 
ATOM     24  C31 VBM d   1      -6.403  40.916  -4.759  0.00  0.00     0.378 C 
ATOM     25  H9  VBM d   1      -6.772  40.403  -2.840  0.00  0.00     0.190 HD
ATOM     26  O32 VBM d   1      -5.960  40.662  -5.891  0.00  0.00    -0.238 OA
ATOM     27  N35 VBM d   1      -3.396  32.559  -5.344  0.00  0.00    -0.192 NA
ATOM     28  H5  VBM d   1      -3.848  35.981  -5.644  0.00  0.00     0.093 H 
BRANCH  15  29
ATOM     29  C17 VBM d   1      -4.989  33.209  -2.135  0.00  0.00    -0.035 C 
ATOM     30  H6  VBM d   1      -4.436  32.452  -2.711  0.00  0.00     0.035 H 
ATOM     31  H7  VBM d   1      -5.982  32.816  -1.871  0.00  0.00     0.035 H 
ATOM     32  H8  VBM d   1      -4.433  33.449  -1.216  0.00  0.00     0.035 H 
ENDBRANCH  15  29
BRANCH  17  33
ATOM     33  C21 VBM d   1      -6.467  35.542  -1.116  0.00  0.00     0.058 A 
ATOM     34  C26 VBM d   1      -7.729  34.904  -1.126  0.00  0.00    -0.042 A 
ATOM     35  C25 VBM d   1      -8.506  34.794   0.028  0.00  0.00     0.050 A 
ATOM     36  H13 VBM d   1      -8.103  34.489  -2.055  0.00  0.00     0.088 H 
ATOM     37  C24 VBM d   1      -7.996  35.251   1.237  0.00  0.00    -0.068 A 
ATOM     38  C23 VBM d   1      -6.740  35.888   1.254  0.00  0.00    -0.080 A 
ATOM     39  H16 VBM d   1      -8.557  35.119   2.155  0.00  0.00     0.084 H 
ATOM     40  C22 VBM d   1      -5.999  36.020   0.100  0.00  0.00    -0.056 A 
ATOM     41  H15 VBM d   1      -6.351  36.279   2.187  0.00  0.00     0.083 H 
ATOM     42  H14 VBM d   1      -5.031  36.507   0.143  0.00  0.00     0.086 H 
BRANCH  35  43
ATOM     43  C27 VBM d   1      -9.886  34.148  -0.003  0.00  0.00     0.417 C 
ATOM     44  F29 VBM d   1     -10.756  35.108   0.006  0.00  0.00    -0.166 F 
ATOM     45  F30 VBM d   1     -10.115  33.412  -1.096  0.00  0.00    -0.166 F 
ATOM     46  F28 VBM d   1     -10.079  33.457   1.075  0.00  0.00    -0.166 F 
ENDBRANCH  35  43
ENDBRANCH  17  33
BRANCH  24  47
ATOM     47  O33 VBM d   1      -6.837  42.157  -4.467  0.00  0.00    -0.308 OA
BRANCH  47  48
ATOM     48  C34 VBM d   1      -7.304  42.950  -5.618  0.00  0.00     0.015 C 
ATOM     49  H10 VBM d   1      -7.634  43.940  -5.271  0.00  0.00     0.067 H 
ATOM     50  H11 VBM d   1      -8.145  42.432  -6.103  0.00  0.00     0.067 H 
ATOM     51  H12 VBM d   1      -6.482  43.069  -6.339  0.00  0.00     0.067 H 
ENDBRANCH  47  48
ENDBRANCH  24  47
ENDBRANCH   8  13
TORSDOF 6
