REMARK  4 active torsions:
REMARK  status: ('A' for Active; 'I' for Inactive)
REMARK    1  A    between atoms: C7_7  and  C3_3 
REMARK    2  A    between atoms: N8_8  and  C11_11 
REMARK    3  A    between atoms: C15_15  and  C17_17 
REMARK    4  A    between atoms: N28_28  and  C31_31 
ROOT
ATOM      1  C1  IUL d   1      28.072 -23.909   8.309  0.00  0.00    -0.062 A 
ATOM      2  C2  IUL d   1      28.708 -23.109   7.356  0.00  0.00    -0.073 A 
ATOM      3  C3  IUL d   1      28.289 -23.138   6.025  0.00  0.00    -0.031 A 
ATOM      4  C4  IUL d   1      27.233 -23.970   5.637  0.00  0.00    -0.073 A 
ATOM      5  C5  IUL d   1      26.599 -24.767   6.556  0.00  0.00    -0.062 A 
ATOM      6  C6  IUL d   1      27.005 -24.739   7.899  0.00  0.00     0.044 A 
ATOM      7  C22 IUL d   1      26.332 -25.590   8.825  0.00  0.00     0.099 C 
ATOM      8  N23 IUL d   1      25.780 -26.324   9.487  0.00  0.00    -0.191 NA
ATOM      9  H1  IUL d   1      28.392 -23.893   9.345  0.00  0.00     0.085 H 
ATOM     10  H2  IUL d   1      29.528 -22.465   7.651  0.00  0.00     0.084 H 
ATOM     11  H3  IUL d   1      26.913 -23.985   4.601  0.00  0.00     0.084 H 
ATOM     12  H4  IUL d   1      25.788 -25.416   6.246  0.00  0.00     0.085 H 
ENDROOT
BRANCH   3  13
ATOM     13  C7  IUL d   1      29.008 -22.314   4.970  0.00  0.00     0.072 C 
ATOM     14  N10 IUL d   1      29.695 -23.341   4.147  0.00  0.00    -0.329 N 
ATOM     15  C9  IUL d   1      29.202 -23.646   2.934  0.00  0.00     0.328 C 
ATOM     16  H6  IUL d   1      30.514 -23.800   4.491  0.00  0.00     0.165 HD
ATOM     17  N8  IUL d   1      28.209 -22.957   2.338  0.00  0.00    -0.266 N 
ATOM     18  O21 IUL d   1      29.680 -24.589   2.350  0.00  0.00    -0.246 OA
ATOM     19  C24 IUL d   1      27.692 -21.818   2.940  0.00  0.00     0.064 C 
ATOM     20  C25 IUL d   1      28.052 -21.452   4.212  0.00  0.00     0.063 C 
ATOM     21  C29 IUL d   1      26.725 -20.947   2.190  0.00  0.00     0.142 C 
ATOM     22  C26 IUL d   1      27.550 -20.296   4.831  0.00  0.00     0.276 C 
ATOM     23  N27 IUL d   1      26.774 -19.468   4.142  0.00  0.00    -0.183 N 
ATOM     24  O30 IUL d   1      27.817 -20.046   5.981  0.00  0.00    -0.266 OA
ATOM     25  N28 IUL d   1      26.548 -19.615   2.794  0.00  0.00     0.012 N 
ATOM     26  H11 IUL d   1      26.337 -18.708   4.622  0.00  0.00     0.197 HD
ATOM     27  H12 IUL d   1      25.586 -19.360   2.634  0.00  0.00     0.309 HD
ATOM     28  H13 IUL d   1      25.748 -21.451   2.166  0.00  0.00     0.089 H 
ATOM     29  H14 IUL d   1      27.097 -20.817   1.163  0.00  0.00     0.089 H 
ATOM     30  H5  IUL d   1      29.756 -21.660   5.442  0.00  0.00     0.088 H 
BRANCH  17  31
ATOM     31  C11 IUL d   1      27.719 -23.448   1.086  0.00  0.00     0.044 A 
ATOM     32  C12 IUL d   1      28.283 -23.186  -0.157  0.00  0.00    -0.057 A 
ATOM     33  C13 IUL d   1      27.724 -23.708  -1.313  0.00  0.00    -0.080 A 
ATOM     34  H7  IUL d   1      29.170 -22.566  -0.223  0.00  0.00     0.086 H 
ATOM     35  C14 IUL d   1      26.595 -24.519  -1.252  0.00  0.00    -0.068 A 
ATOM     36  H8  IUL d   1      28.171 -23.482  -2.274  0.00  0.00     0.083 H 
ATOM     37  C15 IUL d   1      26.005 -24.803  -0.023  0.00  0.00     0.050 A 
ATOM     38  H9  IUL d   1      26.174 -24.930  -2.162  0.00  0.00     0.084 H 
ATOM     39  C16 IUL d   1      26.563 -24.267   1.131  0.00  0.00    -0.042 A 
ATOM     40  H10 IUL d   1      26.103 -24.480   2.089  0.00  0.00     0.088 H 
BRANCH  37  41
ATOM     41  C17 IUL d   1      24.804 -25.718   0.028  0.00  0.00     0.417 C 
ATOM     42  F18 IUL d   1      23.947 -25.541  -1.047  0.00  0.00    -0.166 F 
ATOM     43  F19 IUL d   1      25.247 -27.046   0.041  0.00  0.00    -0.166 F 
ATOM     44  F20 IUL d   1      24.063 -25.558   1.171  0.00  0.00    -0.166 F 
ENDBRANCH  37  41
ENDBRANCH  17  31
BRANCH  25  45
ATOM     45  C31 IUL d   1      27.406 -18.648   2.100  0.00  0.00     0.087 C 
ATOM     46  H15 IUL d   1      27.253 -18.735   1.014  0.00  0.00     0.071 H 
ATOM     47  H16 IUL d   1      28.459 -18.854   2.340  0.00  0.00     0.071 H 
ATOM     48  H17 IUL d   1      27.149 -17.629   2.426  0.00  0.00     0.071 H 
ENDBRANCH  25  45
ENDBRANCH   3  13
TORSDOF 4
