REMARK  4 active torsions:
REMARK  status: ('A' for Active; 'I' for Inactive)
REMARK    1  A    between atoms: C2_15  and  N17_27 
REMARK    2  A    between atoms: C8_18  and  C9_19 
REMARK    3  A    between atoms: N20_25  and  C25_20 
REMARK    4  A    between atoms: N26_26  and  C29_21 
ROOT
ATOM      1  C23 5P8 d   1      26.334  48.375   7.474  0.00  0.00     0.120 C 
ATOM      2  C12 5P8 d   1      34.247  46.830   8.963  0.00  0.00    -0.064 A 
ATOM      3  C13 5P8 d   1      34.693  46.648  10.290  0.00  0.00    -0.045 A 
ATOM      4  C6  5P8 d   1      29.780  45.566   8.602  0.00  0.00    -0.035 A 
ATOM      5  C15 5P8 d   1      33.444  44.533  10.426  0.00  0.00    -0.036 A 
ATOM      6  C4  5P8 d   1      27.687  46.155   9.538  0.00  0.00     0.015 A 
ATOM      7  C19 5P8 d   1      27.757  48.547   7.370  0.00  0.00     0.145 A 
ATOM      8  C5  5P8 d   1      28.740  46.509   8.671  0.00  0.00    -0.000 A 
ATOM      9  C18 5P8 d   1      28.823  47.767   7.869  0.00  0.00     0.043 A 
ATOM     10  C11 5P8 d   1      33.386  45.860   8.348  0.00  0.00     0.041 A 
ATOM     11  C10 5P8 d   1      32.964  44.677   9.074  0.00  0.00    -0.011 A 
ATOM     12  C1  5P8 d   1      29.808  44.349   9.335  0.00  0.00     0.116 A 
ATOM     13  C14 5P8 d   1      34.291  45.508  11.006  0.00  0.00     0.117 A 
ATOM     14  C22 5P8 d   1      30.006  48.496   7.415  0.00  0.00     0.086 A 
ATOM     15  C2  5P8 d   1      28.699  44.097  10.172  0.00  0.00     0.154 A 
ATOM     16  C27 5P8 d   1      32.967  46.145   6.938  0.00  0.00     0.254 C 
ATOM     17  C28 5P8 d   1      31.488  48.222   7.599  0.00  0.00     0.040 C 
ATOM     18  C8  5P8 d   1      32.027  43.585   8.482  0.00  0.00     0.068 C 
ATOM     19  N24 5P8 d   1      25.191  48.232   7.578  0.00  0.00    -0.190 NA
ATOM     20  N3  5P8 d   1      27.652  44.990  10.272  0.00  0.00    -0.240 NA
ATOM     21  N21 5P8 d   1      29.681  49.589   6.720  0.00  0.00    -0.174 NA
ATOM     22  N20 5P8 d   1      28.346  49.603   6.705  0.00  0.00    -0.263 N 
ATOM     23  N26 5P8 d   1      32.091  47.243   6.622  0.00  0.00    -0.347 N 
ATOM     24  O30 5P8 d   1      33.440  45.365   6.109  0.00  0.00    -0.267 OA
ATOM     25  O7  5P8 d   1      30.824  43.400   9.303  0.00  0.00    -0.338 OA
ATOM     26  F16 5P8 d   1      34.717  45.343  12.262  0.00  0.00    -0.206 F 
ATOM     27  H1  5P8 d   1      34.556  47.707   8.406  0.00  0.00     0.085 H 
ATOM     28  H2  5P8 d   1      35.341  47.383  10.753  0.00  0.00     0.088 H 
ATOM     29  H3  5P8 d   1      30.616  45.781   7.946  0.00  0.00     0.089 H 
ATOM     30  H4  5P8 d   1      33.152  43.666  11.007  0.00  0.00     0.089 H 
ATOM     31  H5  5P8 d   1      26.854  46.842   9.633  0.00  0.00     0.116 H 
ATOM     32  H6  5P8 d   1      31.636  47.824   8.614  0.00  0.00     0.074 H 
ATOM     33  H7  5P8 d   1      32.025  49.177   7.498  0.00  0.00     0.074 H 
ATOM     34  H8  5P8 d   1      31.733  43.893   7.468  0.00  0.00     0.091 H 
ENDROOT
BRANCH  22  35
ATOM     35  C25 5P8 d   1      27.681  50.695   6.011  0.00  0.00     0.004 C 
ATOM     36  H12 5P8 d   1      28.436  51.373   5.586  0.00  0.00     0.059 H 
ATOM     37  H13 5P8 d   1      27.049  51.249   6.720  0.00  0.00     0.059 H 
ATOM     38  H14 5P8 d   1      27.056  50.289   5.202  0.00  0.00     0.059 H 
ENDBRANCH  22  35
BRANCH  23  39
ATOM     39  C29 5P8 d   1      31.758  47.429   5.197  0.00  0.00    -0.015 C 
ATOM     40  H15 5P8 d   1      32.259  46.654   4.599  0.00  0.00     0.056 H 
ATOM     41  H16 5P8 d   1      32.097  48.422   4.868  0.00  0.00     0.056 H 
ATOM     42  H17 5P8 d   1      30.669  47.350   5.061  0.00  0.00     0.056 H 
ENDBRANCH  23  39
BRANCH  15  43
ATOM     43  N17 5P8 d   1      28.653  42.917  10.935  0.00  0.00    -0.382 N 
ATOM     44  H18 5P8 d   1      27.846  42.730  11.546  0.00  0.00     0.157 HD
ATOM     45  H19 5P8 d   1      29.427  42.239  10.883  0.00  0.00     0.157 HD
ENDBRANCH  15  43
BRANCH  18  46
ATOM     46  C9  5P8 d   1      32.722  42.217   8.418  0.00  0.00    -0.048 C 
ATOM     47  H9  5P8 d   1      32.030  41.474   7.995  0.00  0.00     0.031 H 
ATOM     48  H10 5P8 d   1      33.018  41.908   9.431  0.00  0.00     0.031 H 
ATOM     49  H11 5P8 d   1      33.616  42.289   7.781  0.00  0.00     0.031 H 
ENDBRANCH  18  46
TORSDOF 4
