REMARK  4 active torsions:
REMARK  status: ('A' for Active; 'I' for Inactive)
REMARK    1  A    between atoms: C2_15  and  N17_27 
REMARK    2  A    between atoms: C8_18  and  C9_19 
REMARK    3  A    between atoms: N20_25  and  C25_20 
REMARK    4  A    between atoms: N26_26  and  C29_21 
ROOT
ATOM      1  C23 5P8 d   1      26.495  48.522   7.484  0.00  0.00     0.120 C 
ATOM      2  C12 5P8 d   1      34.374  46.675   8.977  0.00  0.00    -0.064 A 
ATOM      3  C13 5P8 d   1      34.807  46.512  10.311  0.00  0.00    -0.045 A 
ATOM      4  C6  5P8 d   1      29.822  45.536   8.634  0.00  0.00    -0.035 A 
ATOM      5  C15 5P8 d   1      33.478  44.440  10.497  0.00  0.00    -0.036 A 
ATOM      6  C4  5P8 d   1      27.713  46.174   9.502  0.00  0.00     0.015 A 
ATOM      7  C19 5P8 d   1      27.923  48.612   7.375  0.00  0.00     0.145 A 
ATOM      8  C5  5P8 d   1      28.803  46.508   8.669  0.00  0.00    -0.000 A 
ATOM      9  C18 5P8 d   1      28.948  47.771   7.867  0.00  0.00     0.043 A 
ATOM     10  C11 5P8 d   1      33.480  45.722   8.382  0.00  0.00     0.041 A 
ATOM     11  C10 5P8 d   1      33.009  44.568   9.139  0.00  0.00    -0.011 A 
ATOM     12  C1  5P8 d   1      29.800  44.317   9.361  0.00  0.00     0.116 A 
ATOM     13  C14 5P8 d   1      34.360  45.405  11.057  0.00  0.00     0.117 A 
ATOM     14  C22 5P8 d   1      30.168  48.444   7.405  0.00  0.00     0.086 A 
ATOM     15  C2  5P8 d   1      28.657  44.085  10.167  0.00  0.00     0.154 A 
ATOM     16  C27 5P8 d   1      33.072  45.983   6.958  0.00  0.00     0.254 C 
ATOM     17  C28 5P8 d   1      31.638  48.098   7.579  0.00  0.00     0.040 C 
ATOM     18  C8  5P8 d   1      32.037  43.498   8.559  0.00  0.00     0.068 C 
ATOM     19  N24 5P8 d   1      25.345  48.468   7.590  0.00  0.00    -0.190 NA
ATOM     20  N3  5P8 d   1      27.627  45.002  10.232  0.00  0.00    -0.240 NA
ATOM     21  N21 5P8 d   1      29.895  49.557   6.715  0.00  0.00    -0.174 NA
ATOM     22  N20 5P8 d   1      28.564  49.640   6.707  0.00  0.00    -0.263 N 
ATOM     23  N26 5P8 d   1      32.216  47.090   6.616  0.00  0.00    -0.347 N 
ATOM     24  O30 5P8 d   1      33.532  45.176   6.141  0.00  0.00    -0.267 OA
ATOM     25  O7  5P8 d   1      30.801  43.348   9.352  0.00  0.00    -0.338 OA
ATOM     26  F16 5P8 d   1      34.772  45.263  12.320  0.00  0.00    -0.206 F 
ATOM     27  H1  5P8 d   1      34.719  47.525   8.399  0.00  0.00     0.085 H 
ATOM     28  H2  5P8 d   1      35.480  47.235  10.758  0.00  0.00     0.088 H 
ATOM     29  H3  5P8 d   1      30.684  45.733   8.007  0.00  0.00     0.089 H 
ATOM     30  H4  5P8 d   1      33.154  43.598  11.098  0.00  0.00     0.089 H 
ATOM     31  H5  5P8 d   1      26.893  46.879   9.574  0.00  0.00     0.116 H 
ATOM     32  H6  5P8 d   1      31.769  47.700   8.596  0.00  0.00     0.074 H 
ATOM     33  H7  5P8 d   1      32.214  49.029   7.473  0.00  0.00     0.074 H 
ATOM     34  H8  5P8 d   1      31.772  43.800   7.535  0.00  0.00     0.091 H 
ENDROOT
BRANCH  22  35
ATOM     35  C25 5P8 d   1      27.954  50.768   6.023  0.00  0.00     0.004 C 
ATOM     36  H12 5P8 d   1      28.741  51.406   5.594  0.00  0.00     0.059 H 
ATOM     37  H13 5P8 d   1      27.358  51.353   6.739  0.00  0.00     0.059 H 
ATOM     38  H14 5P8 d   1      27.301  50.399   5.218  0.00  0.00     0.059 H 
ENDBRANCH  22  35
BRANCH  23  39
ATOM     39  C29 5P8 d   1      31.884  47.256   5.189  0.00  0.00    -0.015 C 
ATOM     40  H15 5P8 d   1      32.367  46.459   4.605  0.00  0.00     0.056 H 
ATOM     41  H16 5P8 d   1      32.243  48.236   4.840  0.00  0.00     0.056 H 
ATOM     42  H17 5P8 d   1      30.794  47.197   5.057  0.00  0.00     0.056 H 
ENDBRANCH  23  39
BRANCH  15  43
ATOM     43  N17 5P8 d   1      28.553  42.902  10.929  0.00  0.00    -0.382 N 
ATOM     44  H18 5P8 d   1      27.721  42.737  11.513  0.00  0.00     0.157 HD
ATOM     45  H19 5P8 d   1      29.309  42.203  10.901  0.00  0.00     0.157 HD
ENDBRANCH  15  43
BRANCH  18  46
ATOM     46  C9  5P8 d   1      32.689  42.104   8.527  0.00  0.00    -0.048 C 
ATOM     47  H9  5P8 d   1      31.977  41.375   8.113  0.00  0.00     0.031 H 
ATOM     48  H10 5P8 d   1      32.967  41.806   9.549  0.00  0.00     0.031 H 
ATOM     49  H11 5P8 d   1      33.590  42.135   7.896  0.00  0.00     0.031 H 
ENDBRANCH  18  46
TORSDOF 4
