REMARK  7 active torsions:
REMARK  status: ('A' for Active; 'I' for Inactive)
REMARK    1  A    between atoms: C17_7  and  C21_10 
REMARK    2  A    between atoms: C21_10  and  C1_11 
REMARK    3  A    between atoms: C21_10  and  O27_12 
REMARK    4  A    between atoms: O27_12  and  C15_13 
REMARK    5  A    between atoms: C19_15  and  N22_16 
REMARK    6  A    between atoms: C14_19  and  C16_20 
REMARK    7  A    between atoms: N26_23  and  C20_25 
ROOT
ATOM      1  C15 VGH d   1      29.762  44.843   9.059  0.00  0.00     0.116 A 
ATOM      2  C4  VGH d   1      29.605  46.043   8.275  0.00  0.00    -0.035 A 
ATOM      3  C19 VGH d   1      28.764  44.615  10.063  0.00  0.00     0.154 A 
ATOM      4  N23 VGH d   1      27.717  45.443  10.301  0.00  0.00    -0.240 NA
ATOM      5  C5  VGH d   1      27.594  46.575   9.541  0.00  0.00     0.015 A 
ATOM      6  C14 VGH d   1      28.511  46.937   8.506  0.00  0.00    -0.003 A 
ATOM      7  H7  VGH d   1      30.326  46.272   7.499  0.00  0.00     0.089 H 
ATOM      8  H10 VGH d   1      26.755  47.233   9.735  0.00  0.00     0.116 H 
ENDROOT
BRANCH   6   9
ATOM      9  C16 VGH d   1      28.345  48.202   7.675  0.00  0.00     0.012 A 
ATOM     10  C6  VGH d   1      29.323  48.821   6.780  0.00  0.00     0.034 A 
ATOM     11  N24 VGH d   1      28.807  49.876   6.258  0.00  0.00    -0.184 NA
ATOM     12  H11 VGH d   1      30.328  48.447   6.587  0.00  0.00     0.118 H 
ATOM     13  N26 VGH d   1      27.606  50.037   6.694  0.00  0.00    -0.276 N 
ATOM     14  C7  VGH d   1      27.225  49.026   7.598  0.00  0.00     0.011 A 
ATOM     15  H12 VGH d   1      26.274  48.914   8.117  0.00  0.00     0.115 H 
BRANCH  13  16
ATOM     16  C20 VGH d   1      26.760  51.181   6.257  0.00  0.00     0.037 C 
ATOM     17  C8  VGH d   1      26.825  52.322   7.299  0.00  0.00    -0.022 C 
ATOM     18  C10 VGH d   1      25.943  53.504   6.827  0.00  0.00     0.084 C 
ATOM     19  H14 VGH d   1      27.866  52.661   7.406  0.00  0.00     0.038 H 
ATOM     20  H15 VGH d   1      26.457  51.955   8.268  0.00  0.00     0.038 H 
ATOM     21  N25 VGH d   1      24.539  53.086   6.547  0.00  0.00    -0.075 N 
ATOM     22  H16 VGH d   1      26.377  53.924   5.908  0.00  0.00     0.075 H 
ATOM     23  H17 VGH d   1      25.933  54.274   7.613  0.00  0.00     0.075 H 
ATOM     24  C11 VGH d   1      24.456  51.956   5.575  0.00  0.00     0.084 C 
ATOM     25  H18 VGH d   1      24.038  53.874   6.168  0.00  0.00     0.277 HD
ATOM     26  H19 VGH d   1      24.110  52.799   7.412  0.00  0.00     0.277 HD
ATOM     27  C9  VGH d   1      25.293  50.738   6.022  0.00  0.00    -0.022 C 
ATOM     28  H20 VGH d   1      24.827  52.301   4.598  0.00  0.00     0.075 H 
ATOM     29  H21 VGH d   1      23.404  51.647   5.480  0.00  0.00     0.075 H 
ATOM     30  H22 VGH d   1      24.878  50.330   6.956  0.00  0.00     0.038 H 
ATOM     31  H23 VGH d   1      25.264  49.965   5.240  0.00  0.00     0.038 H 
ATOM     32  H13 VGH d   1      27.160  51.559   5.305  0.00  0.00     0.076 H 
ENDBRANCH  13  16
ENDBRANCH   6   9
BRANCH   1  33
ATOM     33  O27 VGH d   1      30.785  43.893   8.893  0.00  0.00    -0.338 OA
BRANCH  33  34
ATOM     34  C21 VGH d   1      32.062  44.107   8.196  0.00  0.00     0.070 C 
ATOM     35  H3  VGH d   1      31.852  44.414   7.161  0.00  0.00     0.091 H 
BRANCH  34  36
ATOM     36  C17 VGH d   1      32.973  45.206   8.846  0.00  0.00     0.017 A 
ATOM     37  C13 VGH d   1      33.362  46.379   8.070  0.00  0.00     0.044 A 
ATOM     38 CL   VGH d   1      32.866  46.648   6.427  0.00  0.00    -0.084 Cl
ATOM     39  C3  VGH d   1      34.192  47.381   8.655  0.00  0.00    -0.058 A 
ATOM     40  C2  VGH d   1      34.655  47.258   9.992  0.00  0.00    -0.042 A 
ATOM     41  H1  VGH d   1      34.474  48.249   8.070  0.00  0.00     0.086 H 
ATOM     42  C12 VGH d   1      34.299  46.130  10.779  0.00  0.00     0.138 A 
ATOM     43  H2  VGH d   1      35.285  48.031  10.416  0.00  0.00     0.088 H 
ATOM     44  F   VGH d   1      34.756  46.051  12.034  0.00  0.00    -0.204 F 
ATOM     45  C18 VGH d   1      33.462  45.097  10.228  0.00  0.00     0.083 A 
ATOM     46 CL2  VGH d   1      33.075  43.745  11.276  0.00  0.00    -0.080 Cl
ENDBRANCH  34  36
BRANCH  34  47
ATOM     47  C1  VGH d   1      32.774  42.741   8.190  0.00  0.00    -0.048 C 
ATOM     48  H4  VGH d   1      32.117  41.987   7.731  0.00  0.00     0.031 H 
ATOM     49  H5  VGH d   1      33.006  42.444   9.223  0.00  0.00     0.031 H 
ATOM     50  H6  VGH d   1      33.707  42.816   7.612  0.00  0.00     0.031 H 
ENDBRANCH  34  47
ENDBRANCH  33  34
ENDBRANCH   1  33
BRANCH   3  51
ATOM     51  N22 VGH d   1      28.853  43.456  10.865  0.00  0.00    -0.382 N 
ATOM     52  H8  VGH d   1      28.145  43.276  11.591  0.00  0.00     0.157 HD
ATOM     53  H9  VGH d   1      29.626  42.790  10.724  0.00  0.00     0.157 HD
ENDBRANCH   3  51
TORSDOF 7
