REMARK  7 active torsions:
REMARK  status: ('A' for Active; 'I' for Inactive)
REMARK    1  A    between atoms: C17_7  and  C21_10 
REMARK    2  A    between atoms: C21_10  and  C1_11 
REMARK    3  A    between atoms: C21_10  and  O27_12 
REMARK    4  A    between atoms: O27_12  and  C15_13 
REMARK    5  A    between atoms: C19_15  and  N22_16 
REMARK    6  A    between atoms: C14_19  and  C16_20 
REMARK    7  A    between atoms: N26_23  and  C20_25 
ROOT
ATOM      1  C15 VGH d   1      29.768  44.851   9.188  0.00  0.00     0.116 A 
ATOM      2  C4  VGH d   1      29.649  46.067   8.418  0.00  0.00    -0.035 A 
ATOM      3  C19 VGH d   1      28.770  44.655  10.207  0.00  0.00     0.154 A 
ATOM      4  N23 VGH d   1      27.763  45.527  10.469  0.00  0.00    -0.240 NA
ATOM      5  C5  VGH d   1      27.677  46.668   9.727  0.00  0.00     0.015 A 
ATOM      6  C14 VGH d   1      28.594  47.005   8.678  0.00  0.00    -0.003 A 
ATOM      7  H7  VGH d   1      30.367  46.274   7.633  0.00  0.00     0.089 H 
ATOM      8  H10 VGH d   1      26.870  47.359   9.943  0.00  0.00     0.116 H 
ENDROOT
BRANCH   6   9
ATOM      9  C16 VGH d   1      28.463  48.291   7.866  0.00  0.00     0.012 A 
ATOM     10  C6  VGH d   1      29.493  48.958   7.071  0.00  0.00     0.034 A 
ATOM     11  N24 VGH d   1      28.996  50.015   6.535  0.00  0.00    -0.184 NA
ATOM     12  H11 VGH d   1      30.519  48.614   6.952  0.00  0.00     0.118 H 
ATOM     13  N26 VGH d   1      27.763  50.138   6.872  0.00  0.00    -0.276 N 
ATOM     14  C7  VGH d   1      27.333  49.094   7.716  0.00  0.00     0.011 A 
ATOM     15  H12 VGH d   1      26.345  48.948   8.151  0.00  0.00     0.115 H 
BRANCH  13  16
ATOM     16  C20 VGH d   1      26.932  51.274   6.396  0.00  0.00     0.037 C 
ATOM     17  C8  VGH d   1      26.705  52.291   7.536  0.00  0.00    -0.022 C 
ATOM     18  C10 VGH d   1      25.841  53.465   7.014  0.00  0.00     0.084 C 
ATOM     19  H14 VGH d   1      27.675  52.676   7.883  0.00  0.00     0.038 H 
ATOM     20  H15 VGH d   1      26.186  51.797   8.371  0.00  0.00     0.038 H 
ATOM     21  N25 VGH d   1      24.551  53.000   6.424  0.00  0.00    -0.075 N 
ATOM     22  H16 VGH d   1      26.408  54.006   6.242  0.00  0.00     0.075 H 
ATOM     23  H17 VGH d   1      25.623  54.143   7.852  0.00  0.00     0.075 H 
ATOM     24  C11 VGH d   1      24.743  51.983   5.352  0.00  0.00     0.084 C 
ATOM     25  H18 VGH d   1      24.070  53.795   6.032  0.00  0.00     0.277 HD
ATOM     26  H19 VGH d   1      23.989  52.595   7.156  0.00  0.00     0.277 HD
ATOM     27  C9  VGH d   1      25.577  50.775   5.836  0.00  0.00    -0.022 C 
ATOM     28  H20 VGH d   1      25.262  52.455   4.505  0.00  0.00     0.075 H 
ATOM     29  H21 VGH d   1      23.756  51.624   5.024  0.00  0.00     0.075 H 
ATOM     30  H22 VGH d   1      25.027  50.243   6.626  0.00  0.00     0.038 H 
ATOM     31  H23 VGH d   1      25.758  50.093   4.992  0.00  0.00     0.038 H 
ATOM     32  H13 VGH d   1      27.474  51.780   5.584  0.00  0.00     0.076 H 
ENDBRANCH  13  16
ENDBRANCH   6   9
BRANCH   1  33
ATOM     33  O27 VGH d   1      30.752  43.857   9.006  0.00  0.00    -0.338 OA
BRANCH  33  34
ATOM     34  C21 VGH d   1      32.070  44.034   8.367  0.00  0.00     0.070 C 
ATOM     35  H3  VGH d   1      31.910  44.364   7.330  0.00  0.00     0.091 H 
BRANCH  34  36
ATOM     36  C17 VGH d   1      32.978  45.106   9.059  0.00  0.00     0.017 A 
ATOM     37  C13 VGH d   1      33.393  46.288   8.303  0.00  0.00     0.044 A 
ATOM     38 CL   VGH d   1      32.935  46.587   6.646  0.00  0.00    -0.084 Cl
ATOM     39  C3  VGH d   1      34.214  47.272   8.918  0.00  0.00    -0.058 A 
ATOM     40  C2  VGH d   1      34.645  47.128  10.261  0.00  0.00    -0.042 A 
ATOM     41  H1  VGH d   1      34.515  48.146   8.352  0.00  0.00     0.086 H 
ATOM     42  C12 VGH d   1      34.267  45.994  11.029  0.00  0.00     0.138 A 
ATOM     43  H2  VGH d   1      35.271  47.892  10.707  0.00  0.00     0.088 H 
ATOM     44  F   VGH d   1      34.698  45.901  12.291  0.00  0.00    -0.204 F 
ATOM     45  C18 VGH d   1      33.439  44.974  10.453  0.00  0.00     0.083 A 
ATOM     46 CL2  VGH d   1      33.027  43.610  11.491  0.00  0.00    -0.080 Cl
ENDBRANCH  34  36
BRANCH  34  47
ATOM     47  C1  VGH d   1      32.728  42.642   8.346  0.00  0.00    -0.048 C 
ATOM     48  H4  VGH d   1      32.055  41.926   7.852  0.00  0.00     0.031 H 
ATOM     49  H5  VGH d   1      32.921  42.312   9.377  0.00  0.00     0.031 H 
ATOM     50  H6  VGH d   1      33.678  42.694   7.794  0.00  0.00     0.031 H 
ENDBRANCH  34  47
ENDBRANCH  33  34
ENDBRANCH   1  33
BRANCH   3  51
ATOM     51  N22 VGH d   1      28.813  43.490  10.995  0.00  0.00    -0.382 N 
ATOM     52  H8  VGH d   1      28.105  43.337  11.727  0.00  0.00     0.157 HD
ATOM     53  H9  VGH d   1      29.552  42.790  10.839  0.00  0.00     0.157 HD
ENDBRANCH   3  51
TORSDOF 7
