REMARK  7 active torsions:
REMARK  status: ('A' for Active; 'I' for Inactive)
REMARK    1  A    between atoms: C17_7  and  C21_10 
REMARK    2  A    between atoms: C21_10  and  C1_11 
REMARK    3  A    between atoms: C21_10  and  O27_12 
REMARK    4  A    between atoms: O27_12  and  C15_13 
REMARK    5  A    between atoms: C19_15  and  N22_16 
REMARK    6  A    between atoms: C14_19  and  C16_20 
REMARK    7  A    between atoms: N26_23  and  C20_25 
ROOT
ATOM      1  C15 VGH d   1      29.941  44.306   9.064  0.00  0.00     0.116 A 
ATOM      2  C4  VGH d   1      29.832  45.531   8.307  0.00  0.00    -0.035 A 
ATOM      3  C19 VGH d   1      28.947  44.110  10.087  0.00  0.00     0.154 A 
ATOM      4  N23 VGH d   1      27.951  44.992  10.359  0.00  0.00    -0.240 NA
ATOM      5  C5  VGH d   1      27.880  46.139   9.626  0.00  0.00     0.015 A 
ATOM      6  C14 VGH d   1      28.793  46.475   8.580  0.00  0.00    -0.003 A 
ATOM      7  H7  VGH d   1      30.548  45.738   7.520  0.00  0.00     0.089 H 
ATOM      8  H10 VGH d   1      27.083  46.838   9.850  0.00  0.00     0.116 H 
ENDROOT
BRANCH   6   9
ATOM      9  C16 VGH d   1      28.677  47.768   7.789  0.00  0.00     0.012 A 
ATOM     10  C6  VGH d   1      29.735  48.475   7.059  0.00  0.00     0.034 A 
ATOM     11  N24 VGH d   1      29.239  49.532   6.519  0.00  0.00    -0.184 NA
ATOM     12  H11 VGH d   1      30.774  48.156   6.986  0.00  0.00     0.118 H 
ATOM     13  N26 VGH d   1      27.984  49.617   6.798  0.00  0.00    -0.276 N 
ATOM     14  C7  VGH d   1      27.539  48.545   7.599  0.00  0.00     0.011 A 
ATOM     15  H12 VGH d   1      26.535  48.367   7.981  0.00  0.00     0.115 H 
BRANCH  13  16
ATOM     16  C20 VGH d   1      27.142  50.736   6.311  0.00  0.00     0.037 C 
ATOM     17  C8  VGH d   1      26.831  51.715   7.467  0.00  0.00    -0.022 C 
ATOM     18  C10 VGH d   1      25.951  52.872   6.940  0.00  0.00     0.084 C 
ATOM     19  H14 VGH d   1      27.772  52.122   7.866  0.00  0.00     0.038 H 
ATOM     20  H15 VGH d   1      26.295  51.181   8.265  0.00  0.00     0.038 H 
ATOM     21  N25 VGH d   1      24.706  52.381   6.280  0.00  0.00    -0.075 N 
ATOM     22  H16 VGH d   1      26.532  53.454   6.210  0.00  0.00     0.075 H 
ATOM     23  H17 VGH d   1      25.672  53.518   7.786  0.00  0.00     0.075 H 
ATOM     24  C11 VGH d   1      24.980  51.403   5.187  0.00  0.00     0.084 C 
ATOM     25  H18 VGH d   1      24.215  53.170   5.891  0.00  0.00     0.277 HD
ATOM     26  H19 VGH d   1      24.128  51.935   6.974  0.00  0.00     0.277 HD
ATOM     27  C9  VGH d   1      25.831  50.209   5.675  0.00  0.00    -0.022 C 
ATOM     28  H20 VGH d   1      25.521  51.917   4.378  0.00  0.00     0.075 H 
ATOM     29  H21 VGH d   1      24.022  51.022   4.803  0.00  0.00     0.075 H 
ATOM     30  H22 VGH d   1      25.264  49.636   6.424  0.00  0.00     0.038 H 
ATOM     31  H23 VGH d   1      26.073  49.558   4.822  0.00  0.00     0.038 H 
ATOM     32  H13 VGH d   1      27.705  51.280   5.538  0.00  0.00     0.076 H 
ENDBRANCH  13  16
ENDBRANCH   6   9
BRANCH   1  33
ATOM     33  O27 VGH d   1      30.919  43.312   8.862  0.00  0.00    -0.338 OA
BRANCH  33  34
ATOM     34  C21 VGH d   1      32.229  43.517   8.215  0.00  0.00     0.070 C 
ATOM     35  H3  VGH d   1      32.054  43.865   7.186  0.00  0.00     0.091 H 
BRANCH  34  36
ATOM     36  C17 VGH d   1      33.142  44.586   8.915  0.00  0.00     0.017 A 
ATOM     37  C13 VGH d   1      33.554  45.779   8.174  0.00  0.00     0.044 A 
ATOM     38 CL   VGH d   1      33.086  46.105   6.525  0.00  0.00    -0.084 Cl
ATOM     39  C3  VGH d   1      34.383  46.756   8.798  0.00  0.00    -0.058 A 
ATOM     40  C2  VGH d   1      34.824  46.597  10.136  0.00  0.00    -0.042 A 
ATOM     41  H1  VGH d   1      34.682  47.636   8.240  0.00  0.00     0.086 H 
ATOM     42  C12 VGH d   1      34.449  45.455  10.893  0.00  0.00     0.138 A 
ATOM     43  H2  VGH d   1      35.454  47.355  10.586  0.00  0.00     0.088 H 
ATOM     44  F   VGH d   1      34.892  45.350  12.156  0.00  0.00    -0.204 F 
ATOM     45  C18 VGH d   1      33.610  44.439  10.306  0.00  0.00     0.083 A 
ATOM     46 CL2  VGH d   1      33.197  43.063  11.319  0.00  0.00    -0.080 Cl
ENDBRANCH  34  36
BRANCH  34  47
ATOM     47  C1  VGH d   1      32.900  42.133   8.162  0.00  0.00    -0.048 C 
ATOM     48  H4  VGH d   1      32.227  41.418   7.665  0.00  0.00     0.031 H 
ATOM     49  H5  VGH d   1      33.111  41.788   9.185  0.00  0.00     0.031 H 
ATOM     50  H6  VGH d   1      33.842  42.203   7.598  0.00  0.00     0.031 H 
ENDBRANCH  34  47
ENDBRANCH  33  34
ENDBRANCH   1  33
BRANCH   3  51
ATOM     51  N22 VGH d   1      28.982  42.936  10.870  0.00  0.00    -0.382 N 
ATOM     52  H8  VGH d   1      28.276  42.786  11.604  0.00  0.00     0.157 HD
ATOM     53  H9  VGH d   1      29.714  42.230  10.707  0.00  0.00     0.157 HD
ENDBRANCH   3  51
TORSDOF 7
