REMARK  6 active torsions:
REMARK  status: ('A' for Active; 'I' for Inactive)
REMARK    1  A    between atoms: C03_3  and  C04_4 
REMARK    2  A    between atoms: N06_6  and  C07_7 
REMARK    3  A    between atoms: C07_7  and  C08_8 
REMARK    4  A    between atoms: C18_18  and  C19_19 
REMARK    5  A    between atoms: N21_21  and  C22_22 
REMARK    6  A    between atoms: C24_24  and  C25_25 
ROOT
ATOM      1 CL   5GX d   1      -6.373  28.733  75.967  0.00  0.00    -0.082 Cl
ATOM      2  C02 5GX d   1      -5.445  30.008  76.559  0.00  0.00     0.065 A 
ATOM      3  C03 5GX d   1      -5.252  30.146  77.916  0.00  0.00     0.031 A 
ATOM      4  C16 5GX d   1      -4.471  31.270  78.388  0.00  0.00     0.095 A 
ATOM      5  N17 5GX d   1      -4.117  31.692  79.728  0.00  0.00    -0.336 N 
ATOM      6  C18 5GX d   1      -3.359  32.771  79.551  0.00  0.00     0.144 A 
ATOM      7  N26 5GX d   1      -3.180  33.080  78.135  0.00  0.00    -0.208 NA
ATOM      8  C27 5GX d   1      -3.876  32.145  77.409  0.00  0.00     0.179 A 
ATOM      9  N28 5GX d   1      -4.035  31.975  76.091  0.00  0.00    -0.238 NA
ATOM     10  C29 5GX d   1      -4.816  30.929  75.611  0.00  0.00     0.026 A 
ATOM     11  H10 5GX d   1      -4.391  31.254  80.619  0.00  0.00     0.168 HD
ATOM     12  H18 5GX d   1      -4.958  30.797  74.544  0.00  0.00     0.117 H 
ENDROOT
BRANCH   3  13
ATOM     13  C04 5GX d   1      -5.933  29.329  79.001  0.00  0.00     0.015 A 
ATOM     14  C05 5GX d   1      -7.145  28.644  78.760  0.00  0.00     0.011 A 
ATOM     15  N06 5GX d   1      -7.567  28.075  79.931  0.00  0.00    -0.276 N 
ATOM     16  H1  5GX d   1      -7.658  28.579  77.802  0.00  0.00     0.115 H 
ATOM     17  N14 5GX d   1      -6.684  28.446  80.975  0.00  0.00    -0.184 NA
ATOM     18  C15 5GX d   1      -5.669  29.261  80.385  0.00  0.00     0.034 A 
ATOM     19  H9  5GX d   1      -4.843  29.741  80.908  0.00  0.00     0.118 H 
BRANCH  15  20
ATOM     20  C07 5GX d   1      -8.810  27.249  79.969  0.00  0.00     0.040 C 
ATOM     21  H2  5GX d   1      -9.287  27.283  78.979  0.00  0.00     0.074 H 
ATOM     22  H3  5GX d   1      -9.493  27.672  80.720  0.00  0.00     0.074 H 
BRANCH  20  23
ATOM     23  C08 5GX d   1      -8.528  25.792  80.328  0.00  0.00    -0.038 A 
ATOM     24  C09 5GX d   1      -7.422  25.562  81.177  0.00  0.00    -0.075 A 
ATOM     25  C10 5GX d   1      -7.127  24.268  81.576  0.00  0.00    -0.082 A 
ATOM     26  H4  5GX d   1      -6.809  26.391  81.513  0.00  0.00     0.084 H 
ATOM     27  C11 5GX d   1      -7.933  23.183  81.131  0.00  0.00    -0.083 A 
ATOM     28  H5  5GX d   1      -6.281  24.082  82.228  0.00  0.00     0.083 H 
ATOM     29  C12 5GX d   1      -9.047  23.431  80.288  0.00  0.00    -0.082 A 
ATOM     30  H6  5GX d   1      -7.697  22.170  81.435  0.00  0.00     0.083 H 
ATOM     31  C13 5GX d   1      -9.347  24.750  79.880  0.00  0.00    -0.075 A 
ATOM     32  H7  5GX d   1      -9.669  22.607  79.957  0.00  0.00     0.083 H 
ATOM     33  H8  5GX d   1     -10.194  24.950  79.234  0.00  0.00     0.084 H 
ENDBRANCH  20  23
ENDBRANCH  15  20
ENDBRANCH   3  13
BRANCH   6  34
ATOM     34  C19 5GX d   1      -2.733  33.578  80.625  0.00  0.00     0.053 A 
ATOM     35  C20 5GX d   1      -1.873  34.651  80.268  0.00  0.00     0.013 A 
ATOM     36  N21 5GX d   1      -1.478  35.166  81.387  0.00  0.00    -0.284 N 
ATOM     37  H11 5GX d   1      -1.603  34.972  79.263  0.00  0.00     0.115 H 
ATOM     38  N23 5GX d   1      -2.059  34.449  82.528  0.00  0.00    -0.177 NA
ATOM     39  C24 5GX d   1      -2.833  33.474  82.021  0.00  0.00     0.066 A 
BRANCH  36  40
ATOM     40  C22 5GX d   1      -0.582  36.285  81.451  0.00  0.00     0.002 C 
ATOM     41  H12 5GX d   1      -0.392  36.543  82.503  0.00  0.00     0.059 H 
ATOM     42  H13 5GX d   1      -1.034  37.147  80.938  0.00  0.00     0.059 H 
ATOM     43  H14 5GX d   1       0.367  36.023  80.961  0.00  0.00     0.059 H 
ENDBRANCH  36  40
BRANCH  39  44
ATOM     44  C25 5GX d   1      -3.629  32.504  82.780  0.00  0.00    -0.033 C 
ATOM     45  H15 5GX d   1      -3.496  32.683  83.857  0.00  0.00     0.035 H 
ATOM     46  H16 5GX d   1      -3.297  31.485  82.534  0.00  0.00     0.035 H 
ATOM     47  H17 5GX d   1      -4.691  32.617  82.518  0.00  0.00     0.035 H 
ENDBRANCH  39  44
ENDBRANCH   6  34
TORSDOF 6
