REMARK  7 active torsions:
REMARK  status: ('A' for Active; 'I' for Inactive)
REMARK    1  A    between atoms: C01_1  and  C02_2 
REMARK    2  A    between atoms: C04_4  and  C05_5 
REMARK    3  A    between atoms: C05_5  and  N06_6 
REMARK    4  A    between atoms: C08_8  and  C09_9 
REMARK    5  A    between atoms: C16_16  and  C17_17 
REMARK    6  A    between atoms: N19_19  and  C20_20 
REMARK    7  A    between atoms: C22_22  and  C23_23 
ROOT
ATOM      1  C09 7HD d   1       5.219 -30.160  -7.172  0.00  0.00     0.031 A 
ATOM      2  C10 7HD d   1       5.462 -29.890  -8.538  0.00  0.00     0.065 A 
ATOM      3 CL   7HD d   1       6.490 -28.572  -9.073  0.00  0.00    -0.082 Cl
ATOM      4  C12 7HD d   1       4.868 -30.704  -9.529  0.00  0.00     0.026 A 
ATOM      5  N13 7HD d   1       4.060 -31.744  -9.196  0.00  0.00    -0.238 NA
ATOM      6  C14 7HD d   1       3.796 -32.032  -7.860  0.00  0.00     0.179 A 
ATOM      7  N15 7HD d   1       3.019 -33.019  -7.248  0.00  0.00    -0.208 NA
ATOM      8  C16 7HD d   1       3.094 -32.865  -5.907  0.00  0.00     0.144 A 
ATOM      9  N24 7HD d   1       3.899 -31.806  -5.640  0.00  0.00    -0.336 N 
ATOM     10  C25 7HD d   1       4.345 -31.276  -6.853  0.00  0.00     0.095 A 
ATOM     11  H8  7HD d   1       5.061 -30.494 -10.575  0.00  0.00     0.117 H 
ATOM     12  H16 7HD d   1       4.140 -31.453  -4.703  0.00  0.00     0.168 HD
ENDROOT
BRANCH   1  13
ATOM     13  C08 7HD d   1       5.772 -29.382  -6.113  0.00  0.00     0.015 A 
ATOM     14  C07 7HD d   1       6.965 -28.642  -6.094  0.00  0.00     0.011 A 
ATOM     15  N06 7HD d   1       7.092 -28.057  -4.880  0.00  0.00    -0.275 N 
ATOM     16  H7  7HD d   1       7.671 -28.553  -6.919  0.00  0.00     0.115 H 
ATOM     17  N27 7HD d   1       6.028 -28.401  -4.121  0.00  0.00    -0.184 NA
ATOM     18  C26 7HD d   1       5.214 -29.209  -4.848  0.00  0.00     0.034 A 
ATOM     19  H17 7HD d   1       4.280 -29.649  -4.500  0.00  0.00     0.118 H 
BRANCH  15  20
ATOM     20  C05 7HD d   1       8.183 -27.205  -4.467  0.00  0.00     0.058 C 
ATOM     21  H5  7HD d   1       8.512 -27.492  -3.458  0.00  0.00     0.077 H 
ATOM     22  H6  7HD d   1       9.021 -27.313  -5.171  0.00  0.00     0.077 H 
BRANCH  20  23
ATOM     23  C04 7HD d   1       7.709 -25.751  -4.456  0.00  0.00     0.084 A 
ATOM     24  C03 7HD d   1       8.421 -24.652  -4.940  0.00  0.00    -0.025 A 
ATOM     25  C02 7HD d   1       7.628 -23.522  -4.740  0.00  0.00     0.077 A 
ATOM     26  H4  7HD d   1       9.412 -24.673  -5.390  0.00  0.00     0.090 H 
ATOM     27  O29 7HD d   1       6.475 -23.931  -4.150  0.00  0.00    -0.218 OA
ATOM     28  N28 7HD d   1       6.533 -25.306  -3.979  0.00  0.00    -0.131 NA
BRANCH  25  29
ATOM     29  C01 7HD d   1       7.984 -22.085  -5.110  0.00  0.00    -0.029 C 
ATOM     30  H1  7HD d   1       8.982 -22.062  -5.573  0.00  0.00     0.036 H 
ATOM     31  H2  7HD d   1       7.986 -21.463  -4.203  0.00  0.00     0.036 H 
ATOM     32  H3  7HD d   1       7.241 -21.695  -5.821  0.00  0.00     0.036 H 
ENDBRANCH  25  29
ENDBRANCH  20  23
ENDBRANCH  15  20
ENDBRANCH   1  13
BRANCH   8  33
ATOM     33  C17 7HD d   1       2.431 -33.690  -4.973  0.00  0.00     0.053 A 
ATOM     34  C18 7HD d   1       1.636 -34.793  -5.312  0.00  0.00     0.013 A 
ATOM     35  N19 7HD d   1       1.170 -35.336  -4.167  0.00  0.00    -0.284 N 
ATOM     36  H9  7HD d   1       1.430 -35.149  -6.320  0.00  0.00     0.115 H 
ATOM     37  N21 7HD d   1       1.634 -34.622  -3.115  0.00  0.00    -0.177 NA
ATOM     38  C22 7HD d   1       2.411 -33.606  -3.575  0.00  0.00     0.066 A 
BRANCH  35  39
ATOM     39  C20 7HD d   1       0.311 -36.493  -4.092  0.00  0.00     0.002 C 
ATOM     40  H10 7HD d   1       0.087 -36.716  -3.038  0.00  0.00     0.059 H 
ATOM     41  H11 7HD d   1       0.817 -37.356  -4.549  0.00  0.00     0.059 H 
ATOM     42  H12 7HD d   1      -0.626 -36.290  -4.631  0.00  0.00     0.059 H 
ENDBRANCH  35  39
BRANCH  38  43
ATOM     43  C23 7HD d   1       3.114 -32.584  -2.699  0.00  0.00    -0.033 C 
ATOM     44  H13 7HD d   1       2.896 -32.795  -1.642  0.00  0.00     0.035 H 
ATOM     45  H14 7HD d   1       2.756 -31.575  -2.953  0.00  0.00     0.035 H 
ATOM     46  H15 7HD d   1       4.199 -32.641  -2.868  0.00  0.00     0.035 H 
ENDBRANCH  38  43
ENDBRANCH   8  33
TORSDOF 7
