REMARK  9 active torsions:
REMARK  status: ('A' for Active; 'I' for Inactive)
REMARK    1  A    between atoms: C01_1  and  N02_2 
REMARK    2  A    between atoms: N02_2  and  C03_3 
REMARK       I    between atoms: N02_2  and  C04_4 
REMARK    3  A    between atoms: C04_4  and  C06_6 
REMARK    4  A    between atoms: C10_10  and  C11_11 
REMARK    5  A    between atoms: C11_11  and  N12_12 
REMARK    6  A    between atoms: C14_14  and  C15_15 
REMARK    7  A    between atoms: C22_22  and  C23_23 
REMARK    8  A    between atoms: N25_25  and  C26_26 
REMARK    9  A    between atoms: C28_28  and  C29_29 
ROOT
ATOM      1  N12 NL4 d   1      -6.713  29.104  -4.265  0.00  0.00    -0.276 N 
ATOM      2  C13 NL4 d   1      -6.583  29.933  -5.347  0.00  0.00     0.011 A 
ATOM      3  C14 NL4 d   1      -5.274  29.898  -5.750  0.00  0.00     0.015 A 
ATOM      4  C32 NL4 d   1      -4.611  29.022  -4.878  0.00  0.00     0.034 A 
ATOM      5  N33 NL4 d   1      -5.519  28.561  -4.006  0.00  0.00    -0.184 NA
ATOM      6  H12 NL4 d   1      -7.379  30.517  -5.806  0.00  0.00     0.115 H 
ATOM      7  H22 NL4 d   1      -3.553  28.764  -4.904  0.00  0.00     0.118 H 
ENDROOT
BRANCH   3   8
ATOM      8  C15 NL4 d   1      -4.684  30.624  -6.837  0.00  0.00     0.033 A 
ATOM      9  C16 NL4 d   1      -4.937  30.293  -8.188  0.00  0.00     0.065 A 
ATOM     10 CL1  NL4 d   1      -5.976  28.989  -8.575  0.00  0.00    -0.082 Cl
ATOM     11  C18 NL4 d   1      -4.332  31.038  -9.235  0.00  0.00     0.026 A 
ATOM     12  N19 NL4 d   1      -3.504  32.081  -8.923  0.00  0.00    -0.239 NA
ATOM     13  H13 NL4 d   1      -4.524  30.783 -10.271  0.00  0.00     0.117 H 
ATOM     14  C20 NL4 d   1      -3.228  32.440  -7.601  0.00  0.00     0.159 A 
ATOM     15  N21 NL4 d   1      -2.440  33.433  -7.050  0.00  0.00    -0.323 N 
ATOM     16  C31 NL4 d   1      -3.800  31.732  -6.549  0.00  0.00     0.118 A 
ATOM     17  C22 NL4 d   1      -2.523  33.341  -5.684  0.00  0.00     0.143 A 
ATOM     18  H14 NL4 d   1      -1.885  34.124  -7.575  0.00  0.00     0.169 HD
ATOM     19  N30 NL4 d   1      -3.346  32.311  -5.367  0.00  0.00    -0.226 NA
BRANCH  17  20
ATOM     20  C23 NL4 d   1      -1.837  34.210  -4.765  0.00  0.00     0.053 A 
ATOM     21  C24 NL4 d   1      -0.877  35.150  -5.119  0.00  0.00     0.013 A 
ATOM     22  N25 NL4 d   1      -0.467  35.771  -4.002  0.00  0.00    -0.284 N 
ATOM     23  H15 NL4 d   1      -0.519  35.349  -6.128  0.00  0.00     0.115 H 
ATOM     24  N27 NL4 d   1      -1.130  35.263  -2.953  0.00  0.00    -0.177 NA
ATOM     25  C28 NL4 d   1      -1.974  34.310  -3.384  0.00  0.00     0.066 A 
BRANCH  22  26
ATOM     26  C26 NL4 d   1       0.518  36.809  -3.941  0.00  0.00     0.002 C 
ATOM     27  H16 NL4 d   1       0.650  37.128  -2.897  0.00  0.00     0.059 H 
ATOM     28  H17 NL4 d   1       0.186  37.665  -4.546  0.00  0.00     0.059 H 
ATOM     29  H18 NL4 d   1       1.474  36.431  -4.333  0.00  0.00     0.059 H 
ENDBRANCH  22  26
BRANCH  25  30
ATOM     30  C29 NL4 d   1      -2.890  33.509  -2.494  0.00  0.00    -0.033 C 
ATOM     31  H19 NL4 d   1      -2.759  33.830  -1.450  0.00  0.00     0.035 H 
ATOM     32  H20 NL4 d   1      -2.645  32.440  -2.583  0.00  0.00     0.035 H 
ATOM     33  H21 NL4 d   1      -3.934  33.673  -2.800  0.00  0.00     0.035 H 
ENDBRANCH  25  30
ENDBRANCH  17  20
ENDBRANCH   3   8
BRANCH   1  34
ATOM     34  C11 NL4 d   1      -7.938  28.842  -3.538  0.00  0.00     0.040 C 
ATOM     35  H10 NL4 d   1      -8.781  29.264  -4.104  0.00  0.00     0.074 H 
ATOM     36  H11 NL4 d   1      -8.067  27.754  -3.445  0.00  0.00     0.074 H 
BRANCH  34  37
ATOM     37  C10 NL4 d   1      -7.929  29.457  -2.138  0.00  0.00    -0.037 A 
ATOM     38  C09 NL4 d   1      -9.145  29.534  -1.418  0.00  0.00    -0.075 A 
ATOM     39  C08 NL4 d   1      -9.171  30.089  -0.132  0.00  0.00    -0.081 A 
ATOM     40  H9  NL4 d   1     -10.060  29.162  -1.864  0.00  0.00     0.084 H 
ATOM     41  C07 NL4 d   1      -8.013  30.561   0.441  0.00  0.00    -0.068 A 
ATOM     42  H8  NL4 d   1     -10.106  30.147   0.413  0.00  0.00     0.083 H 
ATOM     43  C06 NL4 d   1      -6.789  30.501  -0.274  0.00  0.00     0.032 A 
ATOM     44  H7  NL4 d   1      -8.036  30.980   1.441  0.00  0.00     0.085 H 
ATOM     45  C34 NL4 d   1      -6.765  29.935  -1.562  0.00  0.00    -0.060 A 
ATOM     46  H23 NL4 d   1      -5.830  29.873  -2.106  0.00  0.00     0.086 H 
BRANCH  43  47
ATOM     47  C04 NL4 d   1      -5.473  31.018   0.348  0.00  0.00     0.253 C 
ATOM     48  N02 NL4 d   1      -5.272  32.440   0.768  0.00  0.00    -0.357 N 
ATOM     49  O05 NL4 d   1      -4.568  30.245   0.501  0.00  0.00    -0.267 OA
BRANCH  48  50
ATOM     50  C01 NL4 d   1      -4.042  32.820   1.325  0.00  0.00    -0.016 C 
ATOM     51  H1  NL4 d   1      -4.068  33.891   1.574  0.00  0.00     0.056 H 
ATOM     52  H2  NL4 d   1      -3.237  32.632   0.599  0.00  0.00     0.056 H 
ATOM     53  H3  NL4 d   1      -3.857  32.235   2.238  0.00  0.00     0.056 H 
ENDBRANCH  48  50
BRANCH  48  54
ATOM     54  C03 NL4 d   1      -6.309  33.438   0.620  0.00  0.00    -0.016 C 
ATOM     55  H4  NL4 d   1      -7.201  32.976   0.171  0.00  0.00     0.056 H 
ATOM     56  H5  NL4 d   1      -5.948  34.248  -0.031  0.00  0.00     0.056 H 
ATOM     57  H6  NL4 d   1      -6.567  33.848   1.607  0.00  0.00     0.056 H 
ENDBRANCH  48  54
ENDBRANCH  43  47
ENDBRANCH  34  37
ENDBRANCH   1  34
TORSDOF 9
