REMARK  8 active torsions:
REMARK  status: ('A' for Active; 'I' for Inactive)
REMARK    1  A    between atoms: C01_1  and  N02_2 
REMARK       I    between atoms: N05_5  and  C06_6 
REMARK    2  A    between atoms: C06_6  and  C08_8 
REMARK    3  A    between atoms: C12_12  and  C13_13 
REMARK    4  A    between atoms: C13_13  and  N14_14 
REMARK    5  A    between atoms: C16_16  and  C17_17 
REMARK    6  A    between atoms: C24_24  and  C25_25 
REMARK    7  A    between atoms: N27_27  and  C28_28 
REMARK    8  A    between atoms: C30_30  and  C31_31 
ROOT
ATOM      1  C13 6F2 d   1      -5.752  28.557  -2.685  0.00  0.00     0.040 C 
ATOM      2  H12 6F2 d   1      -6.167  27.541  -2.620  0.00  0.00     0.074 H 
ATOM      3  H13 6F2 d   1      -4.694  28.541  -2.386  0.00  0.00     0.074 H 
ENDROOT
BRANCH   1   4
ATOM      4  C12 6F2 d   1      -6.533  29.498  -1.790  0.00  0.00    -0.037 A 
ATOM      5  C11 6F2 d   1      -7.914  29.559  -1.877  0.00  0.00    -0.075 A 
ATOM      6  C10 6F2 d   1      -8.628  30.439  -1.048  0.00  0.00    -0.081 A 
ATOM      7  H11 6F2 d   1      -8.442  28.929  -2.583  0.00  0.00     0.084 H 
ATOM      8  C09 6F2 d   1      -7.944  31.267  -0.146  0.00  0.00    -0.068 A 
ATOM      9  H10 6F2 d   1      -9.710  30.479  -1.105  0.00  0.00     0.083 H 
ATOM     10  C08 6F2 d   1      -6.558  31.213  -0.070  0.00  0.00     0.032 A 
ATOM     11  H9  6F2 d   1      -8.496  31.948   0.491  0.00  0.00     0.085 H 
ATOM     12  C36 6F2 d   1      -5.848  30.331  -0.894  0.00  0.00    -0.060 A 
ATOM     13  H25 6F2 d   1      -4.766  30.292  -0.839  0.00  0.00     0.086 H 
BRANCH  10  14
ATOM     14  C06 6F2 d   1      -5.787  32.107   0.902  0.00  0.00     0.253 C 
ATOM     15  N05 6F2 d   1      -5.617  31.769   2.299  0.00  0.00    -0.345 N 
ATOM     16  C04 6F2 d   1      -4.910  32.569   3.160  0.00  0.00     0.021 C 
ATOM     17  C37 6F2 d   1      -6.117  30.634   2.877  0.00  0.00     0.021 C 
ATOM     18  C03 6F2 d   1      -5.636  32.826   4.472  0.00  0.00     0.098 C 
ATOM     19  H7  6F2 d   1      -3.950  32.081   3.382  0.00  0.00     0.067 H 
ATOM     20  H8  6F2 d   1      -4.725  33.535   2.667  0.00  0.00     0.067 H 
ATOM     21  N02 6F2 d   1      -6.052  31.635   5.079  0.00  0.00    -0.072 N 
ATOM     22  H5  6F2 d   1      -4.957  33.356   5.156  0.00  0.00     0.078 H 
ATOM     23  H6  6F2 d   1      -6.519  33.452   4.274  0.00  0.00     0.078 H 
ATOM     24  C38 6F2 d   1      -6.839  30.881   4.201  0.00  0.00     0.098 C 
ATOM     25  H4  6F2 d   1      -5.228  31.095   5.293  0.00  0.00     0.279 HD
ATOM     26  H28 6F2 d   1      -7.775  31.424   4.002  0.00  0.00     0.078 H 
ATOM     27  H29 6F2 d   1      -7.070  29.913   4.669  0.00  0.00     0.078 H 
ATOM     28  H26 6F2 d   1      -5.282  29.942   3.062  0.00  0.00     0.067 H 
ATOM     29  H27 6F2 d   1      -6.828  30.172   2.176  0.00  0.00     0.067 H 
ATOM     30  O07 6F2 d   1      -5.301  33.128   0.463  0.00  0.00    -0.267 OA
BRANCH  21  31
ATOM     31  C01 6F2 d   1      -6.639  31.855   6.142  0.00  0.00     0.066 C 
ATOM     32  H1  6F2 d   1      -5.990  32.448   6.803  0.00  0.00     0.068 H 
ATOM     33  H2  6F2 d   1      -6.885  30.900   6.630  0.00  0.00     0.068 H 
ATOM     34  H3  6F2 d   1      -7.565  32.413   5.941  0.00  0.00     0.068 H 
ENDBRANCH  21  31
ENDBRANCH  10  14
ENDBRANCH   1   4
BRANCH   1  35
ATOM     35  N14 6F2 d   1      -5.885  29.081  -4.083  0.00  0.00    -0.276 N 
ATOM     36  C15 6F2 d   1      -4.903  29.702  -4.770  0.00  0.00     0.011 A 
ATOM     37  C16 6F2 d   1      -5.412  30.056  -6.039  0.00  0.00     0.015 A 
ATOM     38  H14 6F2 d   1      -3.894  29.896  -4.409  0.00  0.00     0.115 H 
ATOM     39  C34 6F2 d   1      -6.730  29.636  -6.056  0.00  0.00     0.034 A 
ATOM     40  N35 6F2 d   1      -6.993  29.038  -4.849  0.00  0.00    -0.184 NA
ATOM     41  H24 6F2 d   1      -7.433  29.758  -6.879  0.00  0.00     0.118 H 
BRANCH  37  42
ATOM     42  C17 6F2 d   1      -4.711  30.728  -7.064  0.00  0.00     0.033 A 
ATOM     43  C18 6F2 d   1      -4.863  30.397  -8.426  0.00  0.00     0.065 A 
ATOM     44 CL   6F2 d   1      -5.923  29.127  -8.962  0.00  0.00    -0.082 Cl
ATOM     45  C20 6F2 d   1      -4.137  31.114  -9.403  0.00  0.00     0.026 A 
ATOM     46  N21 6F2 d   1      -3.301  32.105  -9.067  0.00  0.00    -0.239 NA
ATOM     47  H15 6F2 d   1      -4.259  30.856 -10.449  0.00  0.00     0.117 H 
ATOM     48  C22 6F2 d   1      -3.127  32.458  -7.738  0.00  0.00     0.159 A 
ATOM     49  N23 6F2 d   1      -2.345  33.423  -7.129  0.00  0.00    -0.323 N 
ATOM     50  C33 6F2 d   1      -3.814  31.791  -6.741  0.00  0.00     0.118 A 
ATOM     51  C24 6F2 d   1      -2.536  33.358  -5.783  0.00  0.00     0.143 A 
ATOM     52  H16 6F2 d   1      -1.720  34.083  -7.615  0.00  0.00     0.169 HD
ATOM     53  N32 6F2 d   1      -3.429  32.369  -5.531  0.00  0.00    -0.226 NA
BRANCH  51  54
ATOM     54  C25 6F2 d   1      -1.881  34.210  -4.854  0.00  0.00     0.053 A 
ATOM     55  C26 6F2 d   1      -1.012  35.254  -5.208  0.00  0.00     0.013 A 
ATOM     56  N27 6F2 d   1      -0.577  35.840  -4.083  0.00  0.00    -0.284 N 
ATOM     57  H17 6F2 d   1      -0.738  35.539  -6.223  0.00  0.00     0.115 H 
ATOM     58  N29 6F2 d   1      -1.133  35.209  -3.018  0.00  0.00    -0.177 NA
ATOM     59  C30 6F2 d   1      -1.933  34.210  -3.462  0.00  0.00     0.066 A 
BRANCH  56  60
ATOM     60  C28 6F2 d   1       0.334  36.959  -4.023  0.00  0.00     0.002 C 
ATOM     61  H18 6F2 d   1       0.514  37.229  -2.972  0.00  0.00     0.059 H 
ATOM     62  H19 6F2 d   1      -0.105  37.818  -4.552  0.00  0.00     0.059 H 
ATOM     63  H20 6F2 d   1       1.286  36.682  -4.499  0.00  0.00     0.059 H 
ENDBRANCH  56  60
BRANCH  59  64
ATOM     64  C31 6F2 d   1      -2.726  33.278  -2.569  0.00  0.00    -0.033 C 
ATOM     65  H21 6F2 d   1      -2.550  33.542  -1.516  0.00  0.00     0.035 H 
ATOM     66  H22 6F2 d   1      -2.406  32.240  -2.745  0.00  0.00     0.035 H 
ATOM     67  H23 6F2 d   1      -3.798  33.375  -2.797  0.00  0.00     0.035 H 
ENDBRANCH  59  64
ENDBRANCH  51  54
ENDBRANCH  37  42
ENDBRANCH   1  35
TORSDOF 8
