REMARK WARNING: 32 MAX_TORS EXCEEDED!!!
REMARK  49 active torsions:
REMARK  status: ('A' for Active; 'I' for Inactive)
REMARK    1  A    between atoms: C6_1  and  C8_2 
REMARK    2  A    between atoms: C1_8  and  C6_1 
REMARK    3  A    between atoms: P11_5  and  C3_3 
REMARK    4  A    between atoms: C3_3  and  N10_7 
REMARK    5  A    between atoms: C3_3  and  C1_8 
REMARK    6  A    between atoms: C6_21  and  P11_5 
REMARK    7  A    between atoms: CA_14  and  C_15 
REMARK    8  A    between atoms: CA_14  and  C8_17 
REMARK    9  A    between atoms: CA_14  and  C6_21 
REMARK       I    between atoms: C_15  and  N_22 
REMARK   10  A    between atoms: C8_17  and  C9_18 
REMARK   11  A    between atoms: C9_18  and  C10_19 
REMARK   12  A    between atoms: C9_18  and  C11_20 
REMARK   13  A    between atoms: N_22  and  CA_23 
REMARK   14  A    between atoms: CA_23  and  C_24 
REMARK   15  A    between atoms: CA_23  and  CB_26 
REMARK       I    between atoms: C_24  and  N_31 
REMARK   16  A    between atoms: CB_26  and  CG_27 
REMARK   17  A    between atoms: CG_27  and  CD_28 
REMARK   18  A    between atoms: CD_28  and  CE_29 
REMARK   19  A    between atoms: CE_29  and  NZ_30 
REMARK   20  A    between atoms: N_31  and  CA_32 
REMARK   21  A    between atoms: CA_32  and  C_33 
REMARK   22  A    between atoms: CA_32  and  CB_35 
REMARK       I    between atoms: C_33  and  N_41 
REMARK   23  A    between atoms: CB_35  and  CG_36 
REMARK   24  A    between atoms: N_41  and  CA_42 
REMARK   25  A    between atoms: CA_42  and  C_43 
REMARK   26  A    between atoms: CA_42  and  CB_45 
REMARK       I    between atoms: C_43  and  N_51 
REMARK   27  A    between atoms: CB_45  and  CG_46 
REMARK   28  A    between atoms: N_51  and  CA_52 
REMARK   29  A    between atoms: CA_52  and  C_53 
REMARK   30  A    between atoms: CA_52  and  CB_55 
REMARK       I    between atoms: C_53  and  N_56 
REMARK   31  A    between atoms: N_56  and  CA_57 
REMARK   32  A    between atoms: CA_57  and  C_58 
REMARK   33  A    between atoms: CA_57  and  CB_60 
REMARK       I    between atoms: C_58  and  N_67 
REMARK   34  A    between atoms: CB_60  and  CG_61 
REMARK   35  A    between atoms: N_67  and  CA_68 
REMARK   36  A    between atoms: CA_68  and  C_69 
REMARK   37  A    between atoms: CA_68  and  CB_71 
REMARK       I    between atoms: C_69  and  N_73 
REMARK   38  A    between atoms: CB_71  and  OG_72 
REMARK   39  A    between atoms: N_73  and  CA_74 
REMARK   40  A    between atoms: CA_74  and  C_75 
REMARK   41  A    between atoms: CA_74  and  CB_77 
REMARK       I    between atoms: C_75  and  N_84 
REMARK   42  A    between atoms: CB_77  and  CG_78 
REMARK   43  A    between atoms: N_84  and  CA_85 
REMARK   44  A    between atoms: CA_85  and  CB_86 
REMARK   45  A    between atoms: CA_85  and  C_91 
REMARK   46  A    between atoms: CB_86  and  CG_87 
REMARK   47  A    between atoms: CG_87  and  CD_88 
REMARK   48  A    between atoms: CD_88  and  CE_89 
REMARK   49  A    between atoms: CE_89  and  NZ_90 
REMARK       I    between atoms: C_91  and  NT_93 
ROOT
ATOM      1  CA  HIS d   1      24.018  -0.906   7.782  0.00  0.00     0.094 C 
ATOM      2  H47 HIS d   1      24.590   0.032   7.724  0.00  0.00     0.088 H 
ENDROOT
BRANCH   1   3
ATOM      3  N   HIS d   1      23.263  -1.064   6.549  0.00  0.00    -0.346 N 
ATOM      4  C   HIS d   1      23.816  -1.308   5.360  0.00  0.00     0.241 C 
ATOM      5  O   HIS d   1      25.003  -1.118   5.126  0.00  0.00    -0.271 OA
ATOM      6  H46 HIS d   1      22.267  -0.985   6.596  0.00  0.00     0.163 HD
BRANCH   4   7
ATOM      7  CA  HIS d   1      22.893  -1.861   4.270  0.00  0.00     0.094 C 
ATOM      8  H40 HIS d   1      22.745  -2.936   4.449  0.00  0.00     0.088 H 
BRANCH   7   9
ATOM      9  N   HIS d   1      21.598  -1.208   4.314  0.00  0.00    -0.346 N 
ATOM     10  C   LYS d   1      20.885  -1.073   5.432  0.00  0.00     0.241 C 
ATOM     11  O   LYS d   1      21.096  -1.723   6.453  0.00  0.00    -0.271 OA
ATOM     12  H39 HIS d   1      21.222  -0.841   3.463  0.00  0.00     0.163 HD
BRANCH  10  13
ATOM     13  CA  LYS d   1      19.784  -0.025   5.404  0.00  0.00     0.089 C 
ATOM     14  H27 LYS d   1      19.786   0.509   6.365  0.00  0.00     0.087 H 
BRANCH  13  15
ATOM     15  N   LYS d   1      20.057   0.964   4.334  0.00  0.00    -0.347 N 
ATOM     16  C   7GA d   1      21.285   1.709   4.315  0.00  0.00     0.223 C 
ATOM     17  O   7GA d   1      22.091   1.609   5.207  0.00  0.00    -0.273 OA
ATOM     18  H26 LYS d   1      19.377   1.115   3.616  0.00  0.00     0.163 HD
BRANCH  16  19
ATOM     19  CA  7GA d   1      21.538   2.667   3.158  0.00  0.00     0.033 C 
ATOM     20  H14 7GA d   1      21.537   2.159   2.182  0.00  0.00     0.055 H 
BRANCH  19  21
ATOM     21  C8  7GA d   1      22.889   3.427   3.438  0.00  0.00    -0.051 C 
ATOM     22  H15 7GA d   1      22.863   3.773   4.482  0.00  0.00     0.034 H 
ATOM     23  H16 7GA d   1      22.925   4.296   2.764  0.00  0.00     0.034 H 
BRANCH  21  24
ATOM     24  C9  7GA d   1      24.188   2.641   3.246  0.00  0.00    -0.060 C 
ATOM     25  H17 7GA d   1      24.330   1.938   4.080  0.00  0.00     0.038 H 
BRANCH  24  26
ATOM     26  C10 7GA d   1      25.391   3.560   3.152  0.00  0.00    -0.073 C 
ATOM     27  H18 7GA d   1      26.302   2.959   3.015  0.00  0.00     0.028 H 
ATOM     28  H19 7GA d   1      25.476   4.149   4.077  0.00  0.00     0.028 H 
ATOM     29  H20 7GA d   1      25.268   4.239   2.296  0.00  0.00     0.028 H 
ENDBRANCH  24  26
BRANCH  24  30
ATOM     30  C11 7GA d   1      24.025   1.881   1.920  0.00  0.00    -0.073 C 
ATOM     31  H21 7GA d   1      23.153   1.213   1.985  0.00  0.00     0.028 H 
ATOM     32  H22 7GA d   1      24.929   1.286   1.725  0.00  0.00     0.028 H 
ATOM     33  H23 7GA d   1      23.876   2.600   1.101  0.00  0.00     0.028 H 
ENDBRANCH  24  30
ENDBRANCH  21  24
ENDBRANCH  19  21
BRANCH  19  34
ATOM     34  C6  7GA d   1      20.425   3.741   3.287  0.00  0.00     0.020 C 
ATOM     35  H24 7GA d   1      19.513   3.266   3.676  0.00  0.00     0.050 H 
ATOM     36  H25 7GA d   1      20.760   4.521   3.987  0.00  0.00     0.050 H 
BRANCH  34  37
ATOM     37  P11 2X0 d   1      20.100   4.411   1.886  0.00  0.00     0.138 P 
ATOM     38  O11 2X0 d   1      20.804   5.674   1.812  0.00  0.00    -0.666 OA
ATOM     39  O12 2X0 d   1      20.542   3.509   0.847  0.00  0.00    -0.666 OA
BRANCH  37  40
ATOM     40  C3  2X0 d   1      18.331   4.630   1.866  0.00  0.00     0.173 C 
ATOM     41  H3  2X0 d   1      18.087   5.256   2.737  0.00  0.00     0.100 H 
BRANCH  40  42
ATOM     42  N10 2X0 d   1      17.880   5.265   0.845  0.00  0.00    -0.066 N 
ATOM     43  H4  2X0 d   1      16.877   5.343   0.914  0.00  0.00     0.275 HD
ATOM     44  H5  2X0 d   1      18.121   4.764   0.004  0.00  0.00     0.275 HD
ATOM     45  H6  2X0 d   1      18.288   6.186   0.815  0.00  0.00     0.275 HD
ENDBRANCH  40  42
BRANCH  40  46
ATOM     46  C1  2X0 d   1      17.710   3.422   2.063  0.00  0.00    -0.026 C 
ATOM     47  H7  2X0 d   1      17.245   3.088   1.124  0.00  0.00     0.037 H 
ATOM     48  H8  2X0 d   1      18.449   2.676   2.392  0.00  0.00     0.037 H 
BRANCH  46  49
ATOM     49  C6  2X0 d   1      16.632   3.589   3.140  0.00  0.00    -0.039 C 
ATOM     50  H1  2X0 d   1      17.117   3.741   4.116  0.00  0.00     0.040 H 
ATOM     51  H2  2X0 d   1      16.012   4.465   2.898  0.00  0.00     0.040 H 
BRANCH  49  52
ATOM     52  C8  2X0 d   1      15.740   2.346   3.210  0.00  0.00    -0.058 A 
ATOM     53  C17 2X0 d   1      16.019   1.189   3.930  0.00  0.00    -0.077 A 
ATOM     54  C18 2X0 d   1      15.112   0.107   3.930  0.00  0.00    -0.082 A 
ATOM     55  H9  2X0 d   1      16.941   1.117   4.496  0.00  0.00     0.084 H 
ATOM     56  C19 2X0 d   1      13.936   0.130   3.263  0.00  0.00    -0.083 A 
ATOM     57  H10 2X0 d   1      15.370  -0.784   4.491  0.00  0.00     0.083 H 
ATOM     58  C20 2X0 d   1      13.639   1.296   2.541  0.00  0.00    -0.082 A 
ATOM     59  H11 2X0 d   1      13.255  -0.713   3.285  0.00  0.00     0.083 H 
ATOM     60  C21 2X0 d   1      14.538   2.384   2.528  0.00  0.00    -0.077 A 
ATOM     61  H12 2X0 d   1      12.709   1.362   1.987  0.00  0.00     0.083 H 
ATOM     62  H13 2X0 d   1      14.279   3.275   1.967  0.00  0.00     0.084 H 
ENDBRANCH  49  52
ENDBRANCH  46  49
ENDBRANCH  40  46
ENDBRANCH  37  40
ENDBRANCH  34  37
ENDBRANCH  19  34
ENDBRANCH  16  19
ENDBRANCH  13  15
BRANCH  13  63
ATOM     63  CB  LYS d   1      18.416  -0.716   5.250  0.00  0.00    -0.038 C 
ATOM     64  H28 LYS d   1      17.637   0.003   5.545  0.00  0.00     0.036 H 
ATOM     65  H29 LYS d   1      18.393  -1.581   5.929  0.00  0.00     0.036 H 
BRANCH  63  66
ATOM     66  CG  LYS d   1      18.093  -1.212   3.845  0.00  0.00    -0.061 C 
ATOM     67  H30 LYS d   1      18.466  -0.475   3.119  0.00  0.00     0.033 H 
ATOM     68  H31 LYS d   1      17.001  -1.302   3.748  0.00  0.00     0.033 H 
BRANCH  66  69
ATOM     69  CD  LYS d   1      18.705  -2.528   3.539  0.00  0.00    -0.043 C 
ATOM     70  H32 LYS d   1      18.224  -3.305   4.151  0.00  0.00     0.035 H 
ATOM     71  H33 LYS d   1      19.780  -2.493   3.769  0.00  0.00     0.035 H 
BRANCH  69  72
ATOM     72  CE  LYS d   1      18.517  -2.851   2.085  0.00  0.00     0.080 C 
ATOM     73  H34 LYS d   1      17.481  -3.176   1.908  0.00  0.00     0.075 H 
ATOM     74  H35 LYS d   1      19.209  -3.654   1.790  0.00  0.00     0.075 H 
BRANCH  72  75
ATOM     75  NZ  LYS d   1      18.802  -1.623   1.289  0.00  0.00    -0.079 N 
ATOM     76  H36 LYS d   1      18.680  -1.823   0.308  0.00  0.00     0.274 HD
ATOM     77  H37 LYS d   1      19.751  -1.327   1.456  0.00  0.00     0.274 HD
ATOM     78  H38 LYS d   1      18.168  -0.890   1.564  0.00  0.00     0.274 HD
ENDBRANCH  72  75
ENDBRANCH  69  72
ENDBRANCH  66  69
ENDBRANCH  63  66
ENDBRANCH  13  63
ENDBRANCH  10  13
ENDBRANCH   7   9
BRANCH   7  79
ATOM     79  CB  HIS d   1      23.553  -1.680   2.884  0.00  0.00     0.004 C 
ATOM     80  H41 HIS d   1      24.594  -2.030   2.950  0.00  0.00     0.046 H 
ATOM     81  H42 HIS d   1      23.541  -0.609   2.634  0.00  0.00     0.046 H 
BRANCH  79  82
ATOM     82  CG  HIS d   1      22.873  -2.431   1.773  0.00  0.00     0.053 A 
ATOM     83  ND1 HIS d   1      21.671  -2.032   1.227  0.00  0.00    -0.247 NA
ATOM     84  CE1 HIS d   1      21.313  -2.886   0.279  0.00  0.00     0.064 A 
ATOM     85  NE2 HIS d   1      22.245  -3.818   0.180  0.00  0.00    -0.359 N 
ATOM     86  H44 HIS d   1      20.404  -2.829  -0.318  0.00  0.00     0.143 H 
ATOM     87  CD2 HIS d   1      23.233  -3.556   1.102  0.00  0.00     0.002 A 
ATOM     88  H45 HIS d   1      22.234  -4.610  -0.479  0.00  0.00     0.166 HD
ATOM     89  H43 HIS d   1      24.136  -4.142   1.264  0.00  0.00     0.114 H 
ENDBRANCH  79  82
ENDBRANCH   7  79
ENDBRANCH   4   7
ENDBRANCH   1   3
BRANCH   1  90
ATOM     90  C   HIS d   1      24.986  -2.066   7.942  0.00  0.00     0.241 C 
ATOM     91  O   HIS d   1      25.929  -1.965   8.709  0.00  0.00    -0.271 OA
ATOM     92  N   ALA d   1      24.742  -3.161   7.223  0.00  0.00    -0.346 N 
ATOM     93  H53 ALA d   1      23.934  -3.178   6.634  0.00  0.00     0.163 HD
BRANCH  92  94
ATOM     94  CA  ALA d   1      25.607  -4.336   7.261  0.00  0.00     0.086 C 
ATOM     95  H54 ALA d   1      25.965  -4.438   8.296  0.00  0.00     0.086 H 
BRANCH  94  96
ATOM     96  C   ALA d   1      26.861  -4.257   6.354  0.00  0.00     0.240 C 
ATOM     97  O   ALA d   1      26.703  -4.272   5.121  0.00  0.00    -0.271 OA
ATOM     98  N   PHE d   1      28.097  -4.160   6.890  0.00  0.00    -0.346 N 
ATOM     99  H58 PHE d   1      28.842  -4.386   6.262  0.00  0.00     0.163 HD
BRANCH  98 100
ATOM    100  CA  PHE d   1      28.539  -3.771   8.264  0.00  0.00     0.093 C 
ATOM    101  H59 PHE d   1      29.505  -4.272   8.426  0.00  0.00     0.088 H 
BRANCH 100 102
ATOM    102  C   PHE d   1      27.668  -4.140   9.506  0.00  0.00     0.241 C 
ATOM    103  O   PHE d   1      27.521  -3.342  10.433  0.00  0.00    -0.271 OA
ATOM    104  N   SER d   1      27.097  -5.344   9.532  0.00  0.00    -0.344 N 
ATOM    105  H67 SER d   1      27.280  -5.997   8.798  0.00  0.00     0.163 HD
BRANCH 104 106
ATOM    106  CA  SER d   1      26.205  -5.714  10.627  0.00  0.00     0.109 C 
ATOM    107  H68 SER d   1      25.480  -4.905  10.801  0.00  0.00     0.090 H 
BRANCH 106 108
ATOM    108  C   SER d   1      27.100  -5.863  11.848  0.00  0.00     0.243 C 
ATOM    109  O   SER d   1      26.948  -5.140  12.844  0.00  0.00    -0.271 OA
ATOM    110  N   PHE d   1      28.050  -6.789  11.733  0.00  0.00    -0.346 N 
ATOM    111  H72 PHE d   1      27.951  -7.484  11.021  0.00  0.00     0.163 HD
BRANCH 110 112
ATOM    112  CA  PHE d   1      29.227  -6.842  12.593  0.00  0.00     0.093 C 
ATOM    113  H73 PHE d   1      29.401  -5.841  13.015  0.00  0.00     0.088 H 
BRANCH 112 114
ATOM    114  C   PHE d   1      30.428  -7.231  11.741  0.00  0.00     0.241 C 
ATOM    115  O   PHE d   1      30.671  -6.602  10.703  0.00  0.00    -0.271 OA
ATOM    116  N   LYN d   1      31.167  -8.259  12.169  0.00  0.00    -0.346 N 
ATOM    117  H81 LYN d   1      30.929  -8.703  13.033  0.00  0.00     0.163 HD
BRANCH 116 118
ATOM    118  CA  LYN d   1      32.346  -8.765  11.388  0.00  0.00     0.089 C 
ATOM    119  H82 LYN d   1      32.730  -7.918  10.801  0.00  0.00     0.087 H 
BRANCH 118 120
ATOM    120  CB  LYN d   1      33.488  -9.227  12.309  0.00  0.00    -0.038 C 
ATOM    121  H83 LYN d   1      33.277 -10.258  12.630  0.00  0.00     0.036 H 
ATOM    122  H84 LYN d   1      33.511  -8.566  13.188  0.00  0.00     0.036 H 
BRANCH 120 123
ATOM    123  CG  LYN d   1      34.879  -9.201  11.647  0.00  0.00    -0.061 C 
ATOM    124  H85 LYN d   1      35.056 -10.180  11.177  0.00  0.00     0.033 H 
ATOM    125  H86 LYN d   1      35.632  -9.029  12.431  0.00  0.00     0.033 H 
BRANCH 123 126
ATOM    126  CD  LYN d   1      35.043  -8.112  10.573  0.00  0.00    -0.043 C 
ATOM    127  H87 LYN d   1      35.922  -7.499  10.820  0.00  0.00     0.035 H 
ATOM    128  H88 LYN d   1      34.144  -7.479  10.569  0.00  0.00     0.035 H 
BRANCH 126 129
ATOM    129  CE  LYN d   1      35.234  -8.710   9.170  0.00  0.00     0.080 C 
ATOM    130  H89 LYN d   1      34.889  -7.985   8.418  0.00  0.00     0.075 H 
ATOM    131  H90 LYN d   1      34.642  -9.633   9.088  0.00  0.00     0.075 H 
BRANCH 129 132
ATOM    132  NZ  LYN d   1      36.672  -9.026   8.922  0.00  0.00    -0.079 N 
ATOM    133  H91 LYN d   1      36.776  -9.416   7.998  0.00  0.00     0.274 HD
ATOM    134  H92 LYN d   1      36.992  -9.693   9.607  0.00  0.00     0.274 HD
ATOM    135  H93 LYN d   1      37.219  -8.182   8.993  0.00  0.00     0.274 HD
ENDBRANCH 129 132
ENDBRANCH 126 129
ENDBRANCH 123 126
ENDBRANCH 120 123
ENDBRANCH 118 120
BRANCH 118 136
ATOM    136  C   LYN d   1      31.944  -9.840  10.402  0.00  0.00     0.238 C 
ATOM    137  O   LYN d   1      30.992  -9.643   9.649  0.00  0.00    -0.271 OA
ATOM    138  NT  LYN d   1      32.668 -11.068  10.345  0.00  0.00    -0.368 N 
ATOM    139  H94 LYN d   1      32.400 -11.777   9.692  0.00  0.00     0.159 HD
ATOM    140  H95 LYN d   1      33.444 -11.220  10.958  0.00  0.00     0.159 HD
ENDBRANCH 118 136
ENDBRANCH 116 118
ENDBRANCH 112 114
BRANCH 112 141
ATOM    141  CB  PHE d   1      29.030  -7.819  13.751  0.00  0.00    -0.014 C 
ATOM    142  H74 PHE d   1      30.018  -8.157  14.096  0.00  0.00     0.043 H 
ATOM    143  H75 PHE d   1      28.454  -8.682  13.386  0.00  0.00     0.043 H 
BRANCH 141 144
ATOM    144  CG  PHE d   1      28.303  -7.219  14.909  0.00  0.00    -0.056 A 
ATOM    145  CD1 PHE d   1      28.505  -5.900  15.246  0.00  0.00    -0.077 A 
ATOM    146  CE1 PHE d   1      27.828  -5.335  16.293  0.00  0.00    -0.082 A 
ATOM    147  H76 PHE d   1      29.207  -5.302  14.676  0.00  0.00     0.084 H 
ATOM    148  CZ  PHE d   1      26.940  -6.092  17.022  0.00  0.00    -0.083 A 
ATOM    149  H78 PHE d   1      27.991  -4.294  16.547  0.00  0.00     0.083 H 
ATOM    150  CE2 PHE d   1      26.738  -7.402  16.702  0.00  0.00    -0.082 A 
ATOM    151  H80 PHE d   1      26.401  -5.647  17.851  0.00  0.00     0.083 H 
ATOM    152  CD2 PHE d   1      27.409  -7.961  15.649  0.00  0.00    -0.077 A 
ATOM    153  H79 PHE d   1      26.045  -8.001  17.282  0.00  0.00     0.083 H 
ATOM    154  H77 PHE d   1      27.235  -9.000  15.394  0.00  0.00     0.084 H 
ENDBRANCH 141 144
ENDBRANCH 112 141
ENDBRANCH 110 112
ENDBRANCH 106 108
BRANCH 106 155
ATOM    155  CB  SER d   1      25.423  -7.000  10.314  0.00  0.00     0.044 C 
ATOM    156  H69 SER d   1      24.381  -6.735  10.083  0.00  0.00     0.077 H 
ATOM    157  H70 SER d   1      25.447  -7.654  11.198  0.00  0.00     0.077 H 
BRANCH 155 158
ATOM    158  OG  SER d   1      25.975  -7.703   9.206  0.00  0.00    -0.398 OA
ATOM    159  H71 SER d   1      25.465  -8.489   9.045  0.00  0.00     0.209 HD
ENDBRANCH 155 158
ENDBRANCH 106 155
ENDBRANCH 104 106
ENDBRANCH 100 102
BRANCH 100 160
ATOM    160  CB  PHE d   1      28.787  -2.245   8.229  0.00  0.00    -0.014 C 
ATOM    161  H60 PHE d   1      27.809  -1.742   8.260  0.00  0.00     0.043 H 
ATOM    162  H61 PHE d   1      29.292  -2.006   7.282  0.00  0.00     0.043 H 
BRANCH 160 163
ATOM    163  CG  PHE d   1      29.638  -1.689   9.369  0.00  0.00    -0.056 A 
ATOM    164  CD1 PHE d   1      31.022  -1.885   9.392  0.00  0.00    -0.077 A 
ATOM    165  CE1 PHE d   1      31.809  -1.333  10.419  0.00  0.00    -0.082 A 
ATOM    166  H62 PHE d   1      31.494  -2.469   8.610  0.00  0.00     0.084 H 
ATOM    167  CZ  PHE d   1      31.201  -0.552  11.436  0.00  0.00    -0.083 A 
ATOM    168  H64 PHE d   1      32.879  -1.504  10.434  0.00  0.00     0.083 H 
ATOM    169  CE2 PHE d   1      29.818  -0.335  11.410  0.00  0.00    -0.082 A 
ATOM    170  H66 PHE d   1      31.804  -0.126  12.229  0.00  0.00     0.083 H 
ATOM    171  CD2 PHE d   1      29.053  -0.890  10.369  0.00  0.00    -0.077 A 
ATOM    172  H65 PHE d   1      29.342   0.255  12.185  0.00  0.00     0.083 H 
ATOM    173  H63 PHE d   1      27.987  -0.698  10.336  0.00  0.00     0.084 H 
ENDBRANCH 160 163
ENDBRANCH 100 160
ENDBRANCH  98 100
ENDBRANCH  94  96
BRANCH  94 174
ATOM    174  CB  ALA d   1      24.787  -5.606   6.910  0.00  0.00    -0.049 C 
ATOM    175  H55 ALA d   1      25.445  -6.487   6.941  0.00  0.00     0.030 H 
ATOM    176  H56 ALA d   1      24.362  -5.501   5.901  0.00  0.00     0.030 H 
ATOM    177  H57 ALA d   1      23.973  -5.730   7.640  0.00  0.00     0.030 H 
ENDBRANCH  94 174
ENDBRANCH  92  94
ENDBRANCH   1  90
BRANCH   1 178
ATOM    178  CB  HIS d   1      23.091  -0.839   9.007  0.00  0.00     0.004 C 
ATOM    179  H48 HIS d   1      22.261  -1.544   8.854  0.00  0.00     0.046 H 
ATOM    180  H49 HIS d   1      22.694   0.184   9.087  0.00  0.00     0.046 H 
BRANCH 178 181
ATOM    181  CG  HIS d   1      23.774  -1.184  10.296  0.00  0.00     0.053 A 
ATOM    182  ND1 HIS d   1      24.901  -0.517  10.741  0.00  0.00    -0.247 NA
ATOM    183  CE1 HIS d   1      25.294  -1.041  11.891  0.00  0.00     0.064 A 
ATOM    184  NE2 HIS d   1      24.470  -2.030  12.203  0.00  0.00    -0.359 N 
ATOM    185  H51 HIS d   1      26.149  -0.715  12.481  0.00  0.00     0.143 H 
ATOM    186  CD2 HIS d   1      23.517  -2.147  11.218  0.00  0.00     0.002 A 
ATOM    187  H52 HIS d   1      24.533  -2.617  13.047  0.00  0.00     0.166 HD
ATOM    188  H50 HIS d   1      22.708  -2.875  11.184  0.00  0.00     0.114 H 
ENDBRANCH 178 181
ENDBRANCH   1 178
TORSDOF 49
