REMARK WARNING: 32 MAX_TORS EXCEEDED!!!
REMARK  44 active torsions:
REMARK  status: ('A' for Active; 'I' for Inactive)
REMARK    1  A    between atoms: C21_2  and  O21_3 
REMARK    2  A    between atoms: C31_4  and  O31_5 
REMARK    3  A    between atoms: C51_8  and  C61_10 
REMARK    4  A    between atoms: C61_10  and  O61_11 
REMARK    5  A    between atoms: C22_13  and  O22_14 
REMARK    6  A    between atoms: C32_15  and  O32_16 
REMARK    7  A    between atoms: C62_21  and  C52_19 
REMARK    8  A    between atoms: NT_81  and  C62_21 
REMARK    9  A    between atoms: C23_23  and  O23_24 
REMARK   10  A    between atoms: C33_25  and  O33_26 
REMARK   11  A    between atoms: C53_29  and  C63_31 
REMARK   12  A    between atoms: C63_31  and  O63_32 
REMARK   13  A    between atoms: C24_34  and  O24_35 
REMARK   14  A    between atoms: C34_36  and  O34_37 
REMARK   15  A    between atoms: C54_40  and  C64_42 
REMARK   16  A    between atoms: C64_42  and  O64_43 
REMARK   17  A    between atoms: C25_45  and  O25_46 
REMARK   18  A    between atoms: C35_47  and  O35_48 
REMARK   19  A    between atoms: C55_51  and  C65_53 
REMARK   20  A    between atoms: C65_53  and  O65_54 
REMARK   21  A    between atoms: C26_56  and  O26_57 
REMARK   22  A    between atoms: C36_58  and  O36_59 
REMARK   23  A    between atoms: C56_62  and  C66_64 
REMARK   24  A    between atoms: C66_64  and  O66_65 
REMARK   25  A    between atoms: C27_67  and  O27_68 
REMARK   26  A    between atoms: C37_69  and  O37_70 
REMARK   27  A    between atoms: C57_73  and  C67_75 
REMARK   28  A    between atoms: C67_75  and  O67_76 
REMARK   29  A    between atoms: CB_79  and  CA_78 
REMARK   30  A    between atoms: OG_80  and  CB_79 
REMARK   31  A    between atoms: C26_90  and  OG_80 
REMARK   32  A    between atoms: C20_84  and  C21_85 
REMARK   33  A    between atoms: O1_97  and  C20_84 
REMARK   34  A    between atoms: C21_85  and  C22_86 
REMARK   35  A    between atoms: C22_86  and  C23_87 
REMARK   36  A    between atoms: C23_87  and  C24_88 
REMARK   37  A    between atoms: C24_88  and  C25_89 
REMARK   38  A    between atoms: C25_89  and  C26_90 
REMARK   39  A    between atoms: C1_91  and  O1_97 
REMARK   40  A    between atoms: C2_92  and  O2_98 
REMARK   41  A    between atoms: C3_93  and  O3_99 
REMARK   42  A    between atoms: C4_94  and  O4_100 
REMARK   43  A    between atoms: C5_95  and  C6_96 
REMARK   44  A    between atoms: C6_96  and  O6_102 
ROOT
ATOM      1  C11 BCD d   1       4.268  80.150 171.886  0.00  0.00     0.159 C 
ATOM      2  C21 BCD d   1       4.803  78.839 172.538  0.00  0.00     0.110 C 
ATOM      3  C31 BCD d   1       4.377  77.592 171.688  0.00  0.00     0.092 C 
ATOM      4  C41 BCD d   1       2.864  77.623 171.261  0.00  0.00     0.096 C 
ATOM      5  O41 BCD d   1       2.510  76.667 170.228  0.00  0.00    -0.348 OA
ATOM      6  C51 BCD d   1       2.430  79.027 170.711  0.00  0.00     0.089 C 
ATOM      7  O51 BCD d   1       2.874  80.098 171.561  0.00  0.00    -0.348 OA
ATOM      8  C12 BCD d   1       2.103  75.312 170.554  0.00  0.00     0.159 C 
ATOM      9  C22 BCD d   1       0.660  75.057 171.123  0.00  0.00     0.110 C 
ATOM     10  C32 BCD d   1       0.498  73.637 171.787  0.00  0.00     0.092 C 
ATOM     11  C42 BCD d   1       1.798  72.929 172.340  0.00  0.00     0.095 C 
ATOM     12  O42 BCD d   1       2.273  73.198 173.689  0.00  0.00    -0.348 OA
ATOM     13  C52 BCD d   1       3.048  73.277 171.472  0.00  0.00     0.086 C 
ATOM     14  O52 BCD d   1       3.120  74.708 171.365  0.00  0.00    -0.349 OA
ATOM     15  C13 BCD d   1       1.601  73.566 174.904  0.00  0.00     0.159 C 
ATOM     16  C23 BCD d   1       0.594  72.586 175.608  0.00  0.00     0.110 C 
ATOM     17  C33 BCD d   1      -0.026  73.190 176.931  0.00  0.00     0.092 C 
ATOM     18  C43 BCD d   1       0.115  74.744 177.040  0.00  0.00     0.096 C 
ATOM     19  O43 BCD d   1      -0.745  75.499 177.918  0.00  0.00    -0.348 OA
ATOM     20  C53 BCD d   1       0.101  75.400 175.619  0.00  0.00     0.089 C 
ATOM     21  O53 BCD d   1       1.130  74.912 174.737  0.00  0.00    -0.348 OA
ATOM     22  C14 BCD d   1      -1.722  75.034 178.873  0.00  0.00     0.159 C 
ATOM     23  C24 BCD d   1      -3.206  75.345 178.543  0.00  0.00     0.110 C 
ATOM     24  C34 BCD d   1      -3.270  76.841 178.111  0.00  0.00     0.092 C 
ATOM     25  C44 BCD d   1      -2.729  77.795 179.221  0.00  0.00     0.096 C 
ATOM     26  O44 BCD d   1      -2.413  79.043 178.551  0.00  0.00    -0.348 OA
ATOM     27  C54 BCD d   1      -1.486  77.224 179.997  0.00  0.00     0.089 C 
ATOM     28  O54 BCD d   1      -1.454  75.771 180.080  0.00  0.00    -0.348 OA
ATOM     29  C15 BCD d   1      -2.644  80.303 179.219  0.00  0.00     0.159 C 
ATOM     30  C25 BCD d   1      -3.258  81.341 178.233  0.00  0.00     0.110 C 
ATOM     31  C35 BCD d   1      -2.187  82.001 177.313  0.00  0.00     0.092 C 
ATOM     32  C45 BCD d   1      -0.962  82.503 178.136  0.00  0.00     0.096 C 
ATOM     33  O45 BCD d   1       0.024  83.230 177.358  0.00  0.00    -0.348 OA
ATOM     34  C55 BCD d   1      -0.388  81.323 178.990  0.00  0.00     0.089 C 
ATOM     35  O55 BCD d   1      -1.426  80.781 179.845  0.00  0.00    -0.348 OA
ATOM     36  C16 BCD d   1       0.768  82.588 176.302  0.00  0.00     0.159 C 
ATOM     37  C26 BCD d   1       2.177  83.225 176.197  0.00  0.00     0.110 C 
ATOM     38  C36 BCD d   1       2.980  82.523 175.060  0.00  0.00     0.092 C 
ATOM     39  C46 BCD d   1       2.193  82.483 173.708  0.00  0.00     0.096 C 
ATOM     40  O46 BCD d   1       2.322  83.725 172.968  0.00  0.00    -0.348 OA
ATOM     41  C56 BCD d   1       0.692  82.062 173.902  0.00  0.00     0.089 C 
ATOM     42  O56 BCD d   1       0.070  82.706 175.043  0.00  0.00    -0.348 OA
ATOM     43  C17 BCD d   1       3.382  83.913 171.975  0.00  0.00     0.159 C 
ATOM     44  C27 BCD d   1       2.927  83.685 170.496  0.00  0.00     0.110 C 
ATOM     45  C37 BCD d   1       3.679  82.572 169.687  0.00  0.00     0.092 C 
ATOM     46  C47 BCD d   1       5.042  82.006 170.240  0.00  0.00     0.096 C 
ATOM     47  O47 BCD d   1       5.052  80.666 170.794  0.00  0.00    -0.348 OA
ATOM     48  C57 BCD d   1       5.647  82.898 171.366  0.00  0.00     0.089 C 
ATOM     49  O57 BCD d   1       4.665  83.337 172.341  0.00  0.00    -0.348 OA
ATOM     50  H1  BCD d   1       4.354  80.908 172.679  0.00  0.00     0.133 H 
ATOM     51  H2  BCD d   1       4.307  78.748 173.516  0.00  0.00     0.094 H 
ATOM     52  H4  BCD d   1       4.970  77.606 170.762  0.00  0.00     0.091 H 
ATOM     53  H6  BCD d   1       2.271  77.396 172.159  0.00  0.00     0.091 H 
ATOM     54  H7  BCD d   1       2.914  79.147 169.731  0.00  0.00     0.090 H 
ATOM     55  H11 BCD d   1       2.114  74.775 169.594  0.00  0.00     0.133 H 
ATOM     56  H12 BCD d   1      -0.001  75.065 170.244  0.00  0.00     0.094 H 
ATOM     57  H14 BCD d   1      -0.156  73.787 172.659  0.00  0.00     0.091 H 
ATOM     58  H16 BCD d   1       1.599  71.849 172.273  0.00  0.00     0.091 H 
ATOM     59  H17 BCD d   1       3.922  72.953 172.056  0.00  0.00     0.090 H 
ATOM     60  H20 BCD d   1       2.413  73.638 175.642  0.00  0.00     0.133 H 
ATOM     61  H21 BCD d   1       1.181  71.705 175.907  0.00  0.00     0.094 H 
ATOM     62  H23 BCD d   1      -1.100  72.951 176.927  0.00  0.00     0.091 H 
ATOM     63  H25 BCD d   1       1.126  74.897 177.445  0.00  0.00     0.091 H 
ATOM     64  H26 BCD d   1      -0.864  75.117 175.173  0.00  0.00     0.090 H 
ATOM     65  H30 BCD d   1      -1.599  73.951 179.022  0.00  0.00     0.133 H 
ATOM     66  H31 BCD d   1      -3.788  75.239 179.470  0.00  0.00     0.094 H 
ATOM     67  H33 BCD d   1      -2.621  76.949 177.229  0.00  0.00     0.091 H 
ATOM     68  H35 BCD d   1      -3.528  77.971 179.956  0.00  0.00     0.091 H 
ATOM     69  H36 BCD d   1      -0.595  77.555 179.443  0.00  0.00     0.090 H 
ATOM     70  H40 BCD d   1      -3.380  80.131 180.018  0.00  0.00     0.133 H 
ATOM     71  H41 BCD d   1      -3.711  82.141 178.837  0.00  0.00     0.094 H 
ATOM     72  H43 BCD d   1      -1.833  81.246 176.595  0.00  0.00     0.091 H 
ATOM     73  H45 BCD d   1      -1.356  83.236 178.856  0.00  0.00     0.091 H 
ATOM     74  H46 BCD d   1      -0.061  80.536 178.295  0.00  0.00     0.090 H 
ATOM     75  H50 BCD d   1       0.878  81.521 176.544  0.00  0.00     0.133 H 
ATOM     76  H51 BCD d   1       2.705  83.053 177.146  0.00  0.00     0.094 H 
ATOM     77  H53 BCD d   1       3.902  83.101 174.900  0.00  0.00     0.091 H 
ATOM     78  H55 BCD d   1       2.662  81.700 173.094  0.00  0.00     0.091 H 
ATOM     79  H56 BCD d   1       0.159  82.437 173.016  0.00  0.00     0.090 H 
ATOM     80  H60 BCD d   1       3.576  84.995 172.012  0.00  0.00     0.133 H 
ATOM     81  H61 BCD d   1       3.152  84.626 169.973  0.00  0.00     0.094 H 
ATOM     82  H63 BCD d   1       2.990  81.716 169.645  0.00  0.00     0.091 H 
ATOM     83  H65 BCD d   1       5.734  82.010 169.385  0.00  0.00     0.091 H 
ATOM     84  H66 BCD d   1       6.332  82.240 171.921  0.00  0.00     0.090 H 
ENDROOT
BRANCH  13  85
ATOM     85  C62 BCD d   1       3.199  72.567 170.090  0.00  0.00     0.044 C 
ATOM     86  H18 BCD d   1       2.437  72.953 169.397  0.00  0.00     0.071 H 
ATOM     87  H19 BCD d   1       3.061  71.484 170.220  0.00  0.00     0.071 H 
BRANCH  85  88
ATOM     88  NT  TA5 d   1       4.503  72.817 169.548  0.00  0.00    -0.258 N 
ATOM     89  C   TA5 d   1       4.825  73.153 168.273  0.00  0.00     0.028 A 
ATOM     90  CA  TA5 d   1       6.200  73.279 168.243  0.00  0.00     0.099 A 
ATOM     91  H72 BCD d   1       4.137  73.295 167.441  0.00  0.00     0.117 H 
ATOM     92  N   TA5 d   1       6.642  73.017 169.478  0.00  0.00    -0.133 NA
ATOM     93  N2  TA5 d   1       5.613  72.752 170.226  0.00  0.00    -0.066 NA
BRANCH  90  94
ATOM     94  CB  TA5 d   1       7.044  73.643 167.088  0.00  0.00     0.062 C 
ATOM     95  H70 BCD d   1       6.740  74.629 166.707  0.00  0.00     0.084 H 
ATOM     96  H71 BCD d   1       6.925  72.891 166.294  0.00  0.00     0.084 H 
BRANCH  94  97
ATOM     97  OG  TA5 d   1       8.428  73.692 167.503  0.00  0.00    -0.385 OA
BRANCH  97  98
ATOM     98  C26 HP6 d   1       9.369  72.845 166.819  0.00  0.00     0.020 C 
ATOM     99  H85 BCD d   1       8.888  71.901 166.522  0.00  0.00     0.074 H 
ATOM    100  H86 BCD d   1      10.231  72.629 167.468  0.00  0.00     0.074 H 
BRANCH  98 101
ATOM    101  C25 HP6 d   1       9.822  73.632 165.570  0.00  0.00    -0.045 C 
ATOM    102  H83 BCD d   1       9.074  74.411 165.362  0.00  0.00     0.036 H 
ATOM    103  H84 BCD d   1      10.791  74.104 165.791  0.00  0.00     0.036 H 
BRANCH 101 104
ATOM    104  C24 HP6 d   1       9.984  72.759 164.298  0.00  0.00    -0.063 C 
ATOM    105  H81 BCD d   1      10.781  72.017 164.456  0.00  0.00     0.033 H 
ATOM    106  H82 BCD d   1       9.039  72.241 164.080  0.00  0.00     0.033 H 
BRANCH 104 107
ATOM    107  C23 HP6 d   1      10.356  73.680 163.120  0.00  0.00    -0.065 C 
ATOM    108  H79 BCD d   1       9.512  74.360 162.930  0.00  0.00     0.033 H 
ATOM    109  H80 BCD d   1      11.242  74.266 163.404  0.00  0.00     0.033 H 
BRANCH 107 110
ATOM    110  C22 HP6 d   1      10.673  72.917 161.811  0.00  0.00    -0.063 C 
ATOM    111  H77 BCD d   1      11.385  72.106 162.025  0.00  0.00     0.033 H 
ATOM    112  H78 BCD d   1       9.744  72.492 161.403  0.00  0.00     0.033 H 
BRANCH 110 113
ATOM    113  C21 HP6 d   1      11.294  73.886 160.774  0.00  0.00    -0.045 C 
ATOM    114  H75 BCD d   1      10.560  74.670 160.536  0.00  0.00     0.036 H 
ATOM    115  H76 BCD d   1      12.193  74.346 161.211  0.00  0.00     0.036 H 
BRANCH 113 116
ATOM    116  C20 HP6 d   1      11.689  73.160 159.469  0.00  0.00     0.023 C 
ATOM    117  H73 BCD d   1      10.841  72.567 159.096  0.00  0.00     0.074 H 
ATOM    118  H74 BCD d   1      12.548  72.497 159.651  0.00  0.00     0.074 H 
BRANCH 116 119
ATOM    119  O1  MAN d   1      12.043  74.173 158.509  0.00  0.00    -0.359 OA
BRANCH 119 120
ATOM    120  C1  MAN d   1      12.261  73.679 157.179  0.00  0.00     0.158 C 
ATOM    121  C2  MAN d   1      12.749  74.833 156.270  0.00  0.00     0.110 C 
ATOM    122  C3  MAN d   1      11.611  75.878 156.068  0.00  0.00     0.092 C 
ATOM    123  H88 BCD d   1      13.604  75.333 156.749  0.00  0.00     0.094 H 
ATOM    124  C4  MAN d   1      10.334  75.163 155.543  0.00  0.00     0.090 C 
ATOM    125  H89 BCD d   1      11.385  76.332 157.044  0.00  0.00     0.091 H 
ATOM    126  C5  MAN d   1       9.950  73.991 156.497  0.00  0.00     0.089 C 
ATOM    127  H90 BCD d   1      10.553  74.752 154.546  0.00  0.00     0.091 H 
ATOM    128  O5  MAN d   1      11.057  73.081 156.664  0.00  0.00    -0.348 OA
ATOM    129  H91 BCD d   1       9.655  74.405 157.472  0.00  0.00     0.090 H 
ATOM    130  H87 BCD d   1      13.044  72.907 157.214  0.00  0.00     0.133 H 
BRANCH 121 131
ATOM    131  O2  MAN d   1      13.173  74.280 155.026  0.00  0.00    -0.388 OA
ATOM    132  H94 BCD d   1      13.497  74.975 154.466  0.00  0.00     0.210 HD
ENDBRANCH 121 131
BRANCH 122 133
ATOM    133  O3  MAN d   1      11.988  76.930 155.161  0.00  0.00    -0.390 OA
ATOM    134  H95 BCD d   1      12.768  77.363 155.487  0.00  0.00     0.210 HD
ENDBRANCH 122 133
BRANCH 124 135
ATOM    135  O4  MAN d   1       9.228  76.058 155.429  0.00  0.00    -0.390 OA
ATOM    136  H96 BCD d   1       8.479  75.591 155.076  0.00  0.00     0.210 HD
ENDBRANCH 124 135
BRANCH 126 137
ATOM    137  C6  MAN d   1       8.797  73.163 155.909  0.00  0.00     0.043 C 
ATOM    138  H92 BCD d   1       7.926  73.814 155.744  0.00  0.00     0.078 H 
ATOM    139  H93 BCD d   1       8.527  72.361 156.611  0.00  0.00     0.078 H 
BRANCH 137 140
ATOM    140  O6  MAN d   1       9.204  72.589 154.665  0.00  0.00    -0.398 OA
ATOM    141  H97 BCD d   1       8.489  72.078 154.304  0.00  0.00     0.209 HD
ENDBRANCH 137 140
ENDBRANCH 126 137
ENDBRANCH 119 120
ENDBRANCH 116 119
ENDBRANCH 113 116
ENDBRANCH 110 113
ENDBRANCH 107 110
ENDBRANCH 104 107
ENDBRANCH 101 104
ENDBRANCH  98 101
ENDBRANCH  97  98
ENDBRANCH  94  97
ENDBRANCH  90  94
ENDBRANCH  85  88
ENDBRANCH  13  85
BRANCH  10 142
ATOM    142  O32 BCD d   1      -0.184  72.750 170.885  0.00  0.00    -0.390 OA
ATOM    143  H15 BCD d   1      -0.278  71.897 171.292  0.00  0.00     0.210 HD
ENDBRANCH  10 142
BRANCH   9 144
ATOM    144  O22 BCD d   1       0.145  76.064 172.009  0.00  0.00    -0.388 OA
ATOM    145  H13 BCD d   1       0.717  76.142 172.764  0.00  0.00     0.210 HD
ENDBRANCH   9 144
BRANCH  16 146
ATOM    146  O23 BCD d   1      -0.438  72.113 174.735  0.00  0.00    -0.388 OA
ATOM    147  H22 BCD d   1      -1.013  71.528 175.214  0.00  0.00     0.210 HD
ENDBRANCH  16 146
BRANCH  17 148
ATOM    148  O33 BCD d   1       0.563  72.593 178.095  0.00  0.00    -0.390 OA
ATOM    149  H24 BCD d   1       0.175  72.972 178.875  0.00  0.00     0.210 HD
ENDBRANCH  17 148
BRANCH  20 150
ATOM    150  C63 BCD d   1       0.160  76.956 175.610  0.00  0.00     0.043 C 
ATOM    151  H27 BCD d   1      -0.093  77.320 176.617  0.00  0.00     0.078 H 
ATOM    152  H28 BCD d   1      -0.581  77.329 174.888  0.00  0.00     0.078 H 
BRANCH 150 153
ATOM    153  O63 BCD d   1       1.441  77.472 175.251  0.00  0.00    -0.398 OA
ATOM    154  H29 BCD d   1       1.669  77.172 174.379  0.00  0.00     0.209 HD
ENDBRANCH 150 153
ENDBRANCH  20 150
BRANCH   3 155
ATOM    155  O31 BCD d   1       4.718  76.395 172.404  0.00  0.00    -0.390 OA
ATOM    156  H5  BCD d   1       4.461  75.637 171.892  0.00  0.00     0.210 HD
ENDBRANCH   3 155
BRANCH   6 157
ATOM    157  C61 BCD d   1       0.898  79.191 170.500  0.00  0.00     0.043 C 
ATOM    158  H8  BCD d   1       0.434  79.461 171.460  0.00  0.00     0.078 H 
ATOM    159  H9  BCD d   1       0.483  78.235 170.148  0.00  0.00     0.078 H 
BRANCH 157 160
ATOM    160  O61 BCD d   1       0.596  80.206 169.540  0.00  0.00    -0.398 OA
ATOM    161  H10 BCD d   1       0.946  81.037 169.839  0.00  0.00     0.209 HD
ENDBRANCH 157 160
ENDBRANCH   6 157
BRANCH   2 162
ATOM    162  O21 BCD d   1       6.211  78.854 172.800  0.00  0.00    -0.388 OA
ATOM    163  H3  BCD d   1       6.467  78.029 173.195  0.00  0.00     0.210 HD
ENDBRANCH   2 162
BRANCH  23 164
ATOM    164  O24 BCD d   1      -3.781  74.436 177.596  0.00  0.00    -0.388 OA
ATOM    165  H32 BCD d   1      -4.686  74.677 177.436  0.00  0.00     0.210 HD
ENDBRANCH  23 164
BRANCH  24 166
ATOM    166  O34 BCD d   1      -4.586  77.260 177.734  0.00  0.00    -0.390 OA
ATOM    167  H34 BCD d   1      -4.565  78.175 177.481  0.00  0.00     0.210 HD
ENDBRANCH  24 166
BRANCH  27 168
ATOM    168  C64 BCD d   1      -1.355  77.726 181.461  0.00  0.00     0.043 C 
ATOM    169  H37 BCD d   1      -1.768  78.744 181.520  0.00  0.00     0.078 H 
ATOM    170  H38 BCD d   1      -0.288  77.746 181.730  0.00  0.00     0.078 H 
BRANCH 168 171
ATOM    171  O64 BCD d   1      -2.045  76.901 182.403  0.00  0.00    -0.398 OA
ATOM    172  H39 BCD d   1      -1.692  76.020 182.369  0.00  0.00     0.209 HD
ENDBRANCH 168 171
ENDBRANCH  27 168
BRANCH  45 173
ATOM    173  O37 BCD d   1       3.904  83.030 168.340  0.00  0.00    -0.390 OA
ATOM    174  H64 BCD d   1       4.360  82.356 167.850  0.00  0.00     0.210 HD
ENDBRANCH  45 173
BRANCH  48 175
ATOM    175  C67 BCD d   1       6.537  84.049 170.822  0.00  0.00     0.043 C 
ATOM    176  H67 BCD d   1       5.892  84.875 170.489  0.00  0.00     0.078 H 
ATOM    177  H68 BCD d   1       7.125  83.676 169.970  0.00  0.00     0.078 H 
BRANCH 175 178
ATOM    178  O67 BCD d   1       7.427  84.530 171.828  0.00  0.00    -0.398 OA
ATOM    179  H69 BCD d   1       7.958  85.231 171.470  0.00  0.00     0.209 HD
ENDBRANCH 175 178
ENDBRANCH  48 175
BRANCH  44 180
ATOM    180  O27 BCD d   1       1.504  83.507 170.421  0.00  0.00    -0.388 OA
ATOM    181  H62 BCD d   1       1.253  82.751 170.939  0.00  0.00     0.210 HD
ENDBRANCH  44 180
BRANCH  30 182
ATOM    182  O25 BCD d   1      -4.299  80.742 177.449  0.00  0.00    -0.388 OA
ATOM    183  H42 BCD d   1      -3.941  80.018 176.949  0.00  0.00     0.210 HD
ENDBRANCH  30 182
BRANCH  31 184
ATOM    184  O35 BCD d   1      -2.778  83.082 176.584  0.00  0.00    -0.390 OA
ATOM    185  H44 BCD d   1      -2.122  83.481 176.025  0.00  0.00     0.210 HD
ENDBRANCH  31 184
BRANCH  34 186
ATOM    186  C65 BCD d   1       0.839  81.728 179.865  0.00  0.00     0.043 C 
ATOM    187  H47 BCD d   1       0.806  81.163 180.808  0.00  0.00     0.078 H 
ATOM    188  H48 BCD d   1       0.783  82.805 180.081  0.00  0.00     0.078 H 
BRANCH 186 189
ATOM    189  O65 BCD d   1       2.075  81.451 179.201  0.00  0.00    -0.398 OA
ATOM    190  H49 BCD d   1       2.798  81.709 179.760  0.00  0.00     0.209 HD
ENDBRANCH 186 189
ENDBRANCH  34 186
BRANCH  38 191
ATOM    191  O36 BCD d   1       3.347  81.182 175.428  0.00  0.00    -0.390 OA
ATOM    192  H54 BCD d   1       3.834  80.782 174.717  0.00  0.00     0.210 HD
ENDBRANCH  38 191
BRANCH  41 193
ATOM    193  C66 BCD d   1       0.483  80.509 173.901  0.00  0.00     0.043 C 
ATOM    194  H57 BCD d   1       1.401  80.034 174.276  0.00  0.00     0.078 H 
ATOM    195  H58 BCD d   1       0.298  80.183 172.867  0.00  0.00     0.078 H 
BRANCH 193 196
ATOM    196  O66 BCD d   1      -0.609  80.081 174.711  0.00  0.00    -0.398 OA
ATOM    197  H59 BCD d   1      -0.458  80.347 175.610  0.00  0.00     0.209 HD
ENDBRANCH 193 196
ENDBRANCH  41 193
BRANCH  37 198
ATOM    198  O26 BCD d   1       2.092  84.640 175.994  0.00  0.00    -0.388 OA
ATOM    199  H52 BCD d   1       1.633  85.037 176.725  0.00  0.00     0.210 HD
ENDBRANCH  37 198
TORSDOF 44
