REMARK  3 active torsions:
REMARK  status: ('A' for Active; 'I' for Inactive)
REMARK    1  A    between atoms: C2_3  and  C1_1 
REMARK    2  A    between atoms: C3_5  and  C2_3 
REMARK    3  A    between atoms: C11_13  and  C8_10 
ROOT
ATOM      1  N1  92O d   1      91.989  95.101 -40.944  0.00  0.00    -0.364 N 
ATOM      2  C3  92O d   1      91.883  93.242 -42.588  0.00  0.00    -0.031 A 
ATOM      3  C4  92O d   1      91.632  93.008 -43.947  0.00  0.00    -0.075 A 
ATOM      4  C5  92O d   1      91.299  94.057 -44.811  0.00  0.00    -0.082 A 
ATOM      5  C6  92O d   1      91.216  95.369 -44.357  0.00  0.00    -0.070 A 
ATOM      6  C7  92O d   1      91.462  95.658 -43.013  0.00  0.00    -0.001 A 
ATOM      7  C8  92O d   1      91.467  96.826 -42.251  0.00  0.00    -0.026 A 
ATOM      8  C9  92O d   1      91.800  96.444 -40.968  0.00  0.00    -0.015 A 
ATOM      9  C10 92O d   1      91.793  94.582 -42.168  0.00  0.00     0.049 A 
ATOM     10  H4  92O d   1      92.246  94.557 -40.108  0.00  0.00     0.165 HD
ATOM     11  H9  92O d   1      91.697  91.998 -44.335  0.00  0.00     0.084 H 
ATOM     12  H10 92O d   1      91.102  93.843 -45.855  0.00  0.00     0.083 H 
ATOM     13  H11 92O d   1      90.961  96.166 -45.046  0.00  0.00     0.084 H 
ATOM     14  H12 92O d   1      91.896  97.112 -40.113  0.00  0.00     0.112 H 
ENDROOT
BRANCH   7  15
ATOM     15  C11 92O d   1      91.191  98.252 -42.692  0.00  0.00    -0.023 C 
ATOM     16  C12 92O d   1      92.252  98.703 -43.636  0.00  0.00    -0.035 C 
ATOM     17  C13 92O d   1      92.036 100.124 -44.078  0.00  0.00     0.082 C 
ATOM     18  H14 92O d   1      92.243  98.049 -44.521  0.00  0.00     0.036 H 
ATOM     19  H15 92O d   1      93.229  98.630 -43.136  0.00  0.00     0.036 H 
ATOM     20  N2  92O d   1      90.708 100.251 -44.666  0.00  0.00    -0.075 N 
ATOM     21  H16 92O d   1      92.119 100.795 -43.210  0.00  0.00     0.075 H 
ATOM     22  H17 92O d   1      92.796 100.395 -44.825  0.00  0.00     0.075 H 
ATOM     23  C14 92O d   1      89.634  99.818 -43.780  0.00  0.00     0.082 C 
ATOM     24  H7  92O d   1      90.675  99.691 -45.504  0.00  0.00     0.277 HD
ATOM     25  H8  92O d   1      90.555 101.219 -44.903  0.00  0.00     0.277 HD
ATOM     26  C15 92O d   1      89.858  98.404 -43.335  0.00  0.00    -0.035 C 
ATOM     27  H18 92O d   1      88.675  99.881 -44.316  0.00  0.00     0.075 H 
ATOM     28  H19 92O d   1      89.605 100.475 -42.898  0.00  0.00     0.075 H 
ATOM     29  H20 92O d   1      89.076  98.126 -42.613  0.00  0.00     0.036 H 
ATOM     30  H21 92O d   1      89.802  97.739 -44.209  0.00  0.00     0.036 H 
ATOM     31  H13 92O d   1      91.216  98.895 -41.800  0.00  0.00     0.047 H 
ENDBRANCH   7  15
BRANCH   2  32
ATOM     32  C2  92O d   1      92.262  92.121 -41.626  0.00  0.00    -0.042 C 
ATOM     33  H5  92O d   1      91.862  92.338 -40.625  0.00  0.00     0.039 H 
ATOM     34  H6  92O d   1      91.851  91.166 -41.986  0.00  0.00     0.039 H 
BRANCH  32  35
ATOM     35  C1  92O d   1      93.758  92.040 -41.568  0.00  0.00    -0.073 C 
ATOM     36  H1  92O d   1      94.055  91.236 -40.878  0.00  0.00     0.028 H 
ATOM     37  H2  92O d   1      94.163  92.998 -41.211  0.00  0.00     0.028 H 
ATOM     38  H3  92O d   1      94.153  91.826 -42.572  0.00  0.00     0.028 H 
ENDBRANCH  32  35
ENDBRANCH   2  32
TORSDOF 3
