REMARK  12 active torsions:
REMARK  status: ('A' for Active; 'I' for Inactive)
REMARK       I    between atoms: C12_2  and  N14_3 
REMARK    1  A    between atoms: C12_2  and  C11_5 
REMARK    2  A    between atoms: N14_3  and  C15_4 
REMARK    3  A    between atoms: C11_5  and  C3_6 
REMARK    4  A    between atoms: C4_7  and  O21_8 
REMARK    5  A    between atoms: C5_9  and  O20_10 
REMARK    6  A    between atoms: C6_11  and  C18_12 
REMARK    7  A    between atoms: C18_12  and  O19_13 
REMARK    8  A    between atoms: N2_14  and  C1_15 
REMARK    9  A    between atoms: C1_15  and  C7_16 
REMARK   10  A    between atoms: C7_16  and  C8_17 
REMARK   11  A    between atoms: C8_17  and  C9_18 
REMARK   12  A    between atoms: C9_18  and  C10_19 
ROOT
ATOM      1  C3  XRJ d   1      28.550  51.163 247.996  0.00  0.00     0.139 C 
ATOM      2  C4  XRJ d   1      29.247  49.936 248.567  0.00  0.00     0.090 C 
ATOM      3  C5  XRJ d   1      28.406  49.577 249.779  0.00  0.00     0.092 C 
ATOM      4  C6  XRJ d   1      27.197  50.507 249.673  0.00  0.00     0.151 C 
ATOM      5  N2  XRJ d   1      27.784  51.739 249.123  0.00  0.00    -0.055 N 
ATOM      6  H7  XRJ d   1      27.821  50.814 247.250  0.00  0.00     0.089 H 
ATOM      7  H8  XRJ d   1      29.233  49.114 247.836  0.00  0.00     0.090 H 
ATOM      8  H10 XRJ d   1      28.960  49.774 250.709  0.00  0.00     0.090 H 
ATOM      9  H12 XRJ d   1      26.505  50.083 248.931  0.00  0.00     0.092 H 
ATOM     10  H16 XRJ d   1      27.084  52.390 248.803  0.00  0.00     0.281 HD
ENDROOT
BRANCH   5  11
ATOM     11  C1  XRJ d   1      28.633  52.385 250.142  0.00  0.00     0.085 C 
ATOM     12  H17 XRJ d   1      29.659  52.469 249.753  0.00  0.00     0.076 H 
ATOM     13  H18 XRJ d   1      28.636  51.766 251.051  0.00  0.00     0.076 H 
BRANCH  11  14
ATOM     14  C7  XRJ d   1      28.119  53.773 250.489  0.00  0.00    -0.042 C 
ATOM     15  H19 XRJ d   1      27.020  53.781 250.447  0.00  0.00     0.035 H 
ATOM     16  H20 XRJ d   1      28.519  54.505 249.772  0.00  0.00     0.035 H 
BRANCH  14  17
ATOM     17  C8  XRJ d   1      28.580  54.132 251.897  0.00  0.00    -0.064 C 
ATOM     18  H21 XRJ d   1      29.481  53.546 252.132  0.00  0.00     0.033 H 
ATOM     19  H22 XRJ d   1      27.779  53.873 252.606  0.00  0.00     0.033 H 
BRANCH  17  20
ATOM     20  C9  XRJ d   1      28.907  55.610 252.052  0.00  0.00    -0.069 C 
ATOM     21  H23 XRJ d   1      29.317  55.988 251.104  0.00  0.00     0.032 H 
ATOM     22  H24 XRJ d   1      29.655  55.730 252.849  0.00  0.00     0.032 H 
BRANCH  20  23
ATOM     23  C10 XRJ d   1      27.675  56.409 252.409  0.00  0.00    -0.077 C 
ATOM     24  H25 XRJ d   1      27.944  57.470 252.514  0.00  0.00     0.027 H 
ATOM     25  H26 XRJ d   1      27.261  56.040 253.359  0.00  0.00     0.027 H 
ATOM     26  H27 XRJ d   1      26.923  56.298 251.614  0.00  0.00     0.027 H 
ENDBRANCH  20  23
ENDBRANCH  17  20
ENDBRANCH  14  17
ENDBRANCH  11  14
ENDBRANCH   5  11
BRANCH   1  27
ATOM     27  C11 XRJ d   1      29.470  52.127 247.249  0.00  0.00     0.038 C 
ATOM     28  H5  XRJ d   1      29.651  53.031 247.849  0.00  0.00     0.050 H 
ATOM     29  H6  XRJ d   1      30.430  51.643 247.018  0.00  0.00     0.050 H 
BRANCH  27  30
ATOM     30  C12 XRJ d   1      28.734  52.472 245.983  0.00  0.00     0.219 C 
ATOM     31  O13 XRJ d   1      27.640  53.005 246.054  0.00  0.00    -0.274 OA
ATOM     32  N14 XRJ d   1      29.323  52.163 244.831  0.00  0.00    -0.365 N 
ATOM     33  H1  XRJ d   1      30.218  51.717 244.844  0.00  0.00     0.161 HD
BRANCH  32  34
ATOM     34  C15 XRJ d   1      28.698  52.457 243.559  0.00  0.00    -0.018 C 
ATOM     35  H2  XRJ d   1      29.353  52.120 242.742  0.00  0.00     0.056 H 
ATOM     36  H3  XRJ d   1      28.534  53.541 243.473  0.00  0.00     0.056 H 
ATOM     37  H4  XRJ d   1      27.733  51.933 243.495  0.00  0.00     0.056 H 
ENDBRANCH  32  34
ENDBRANCH  27  30
ENDBRANCH   1  27
BRANCH   4  38
ATOM     38  C18 XRJ d   1      26.369  50.729 250.943  0.00  0.00     0.046 C 
ATOM     39  H13 XRJ d   1      25.340  50.385 250.762  0.00  0.00     0.077 H 
ATOM     40  H14 XRJ d   1      26.360  51.803 251.179  0.00  0.00     0.077 H 
BRANCH  38  41
ATOM     41  O19 XRJ d   1      26.906  50.015 252.059  0.00  0.00    -0.399 OA
ATOM     42  H15 XRJ d   1      26.912  49.085 251.865  0.00  0.00     0.209 HD
ENDBRANCH  38  41
ENDBRANCH   4  38
BRANCH   2  43
ATOM     43  O21 XRJ d   1      30.603  50.212 248.918  0.00  0.00    -0.391 OA
ATOM     44  H9  XRJ d   1      31.004  49.426 249.269  0.00  0.00     0.210 HD
ENDBRANCH   2  43
BRANCH   3  45
ATOM     45  O20 XRJ d   1      28.035  48.203 249.743  0.00  0.00    -0.391 OA
ATOM     46  H11 XRJ d   1      27.510  47.998 250.508  0.00  0.00     0.210 HD
ENDBRANCH   3  45
TORSDOF 12
