REMARK  11 active torsions:
REMARK  status: ('A' for Active; 'I' for Inactive)
REMARK    1  A    between atoms: C1_1  and  N2_3 
REMARK    2  A    between atoms: C1_1  and  C16_17 
REMARK    3  A    between atoms: C16_17  and  C2_2 
REMARK    4  A    between atoms: C2_2  and  C19_18 
REMARK    5  A    between atoms: C3_4  and  C11_12 
REMARK    6  A    between atoms: C4_5  and  O8_9 
REMARK    7  A    between atoms: C5_6  and  O7_8 
REMARK    8  A    between atoms: C6_7  and  C9_10 
REMARK    9  A    between atoms: C9_10  and  O10_11 
REMARK   10  A    between atoms: C11_12  and  C12_13 
REMARK       I    between atoms: C12_13  and  N13_14 
REMARK   11  A    between atoms: N13_14  and  C14_15 
ROOT
ATOM      1  N2  V0N d   1      27.940  51.961 249.170  0.00  0.00    -0.055 N 
ATOM      2  C3  V0N d   1      29.385  51.739 248.904  0.00  0.00     0.139 C 
ATOM      3  C4  V0N d   1      29.614  50.231 248.871  0.00  0.00     0.090 C 
ATOM      4  C5  V0N d   1      28.462  49.749 249.716  0.00  0.00     0.092 C 
ATOM      5  C6  V0N d   1      27.331  50.610 249.198  0.00  0.00     0.151 C 
ATOM      6  H5  V0N d   1      27.525  52.518 248.440  0.00  0.00     0.281 HD
ATOM      7  H6  V0N d   1      29.951  52.148 249.754  0.00  0.00     0.089 H 
ATOM      8  H7  V0N d   1      30.583  49.970 249.323  0.00  0.00     0.090 H 
ATOM      9  H8  V0N d   1      28.645  49.952 250.781  0.00  0.00     0.090 H 
ATOM     10  H9  V0N d   1      27.084  50.317 248.167  0.00  0.00     0.092 H 
ENDROOT
BRANCH   1  11
ATOM     11  C1  V0N d   1      27.772  52.643 250.468  0.00  0.00     0.085 C 
ATOM     12  H1  V0N d   1      28.303  52.061 251.236  0.00  0.00     0.076 H 
ATOM     13  H2  V0N d   1      26.699  52.673 250.707  0.00  0.00     0.076 H 
BRANCH  11  14
ATOM     14  C16 V0N d   1      28.308  54.068 250.490  0.00  0.00    -0.039 C 
ATOM     15  H21 V0N d   1      27.905  54.634 249.637  0.00  0.00     0.035 H 
ATOM     16  H22 V0N d   1      29.407  54.057 250.436  0.00  0.00     0.035 H 
BRANCH  14  17
ATOM     17  C2  V0N d   1      27.856  54.708 251.802  0.00  0.00    -0.040 C 
ATOM     18  H3  V0N d   1      27.430  53.909 252.426  0.00  0.00     0.040 H 
ATOM     19  H4  V0N d   1      27.072  55.439 251.556  0.00  0.00     0.040 H 
BRANCH  17  20
ATOM     20  C19 V0N d   1      28.898  55.429 252.641  0.00  0.00    -0.058 A 
ATOM     21  C20 V0N d   1      28.427  56.404 253.516  0.00  0.00    -0.074 A 
ATOM     22  C21 V0N d   1      29.302  57.114 254.328  0.00  0.00    -0.045 A 
ATOM     23  H23 V0N d   1      27.364  56.612 253.564  0.00  0.00     0.084 H 
ATOM     24  C22 V0N d   1      30.663  56.844 254.274  0.00  0.00     0.116 A 
ATOM     25  H24 V0N d   1      28.924  57.875 255.001  0.00  0.00     0.088 H 
ATOM     26  C23 V0N d   1      31.142  55.867 253.409  0.00  0.00    -0.045 A 
ATOM     27  F25 V0N d   1      31.516  57.527 255.057  0.00  0.00    -0.206 F 
ATOM     28  C24 V0N d   1      30.263  55.157 252.596  0.00  0.00    -0.074 A 
ATOM     29  H25 V0N d   1      32.205  55.657 253.367  0.00  0.00     0.088 H 
ATOM     30  H26 V0N d   1      30.641  54.392 251.928  0.00  0.00     0.084 H 
ENDBRANCH  17  20
ENDBRANCH  14  17
ENDBRANCH  11  14
ENDBRANCH   1  11
BRANCH   2  31
ATOM     31  C11 V0N d   1      29.894  52.456 247.650  0.00  0.00     0.038 C 
ATOM     32  H15 V0N d   1      30.854  52.006 247.358  0.00  0.00     0.050 H 
ATOM     33  H16 V0N d   1      30.046  53.518 247.894  0.00  0.00     0.050 H 
BRANCH  31  34
ATOM     34  C12 V0N d   1      28.947  52.367 246.472  0.00  0.00     0.219 C 
ATOM     35  N13 V0N d   1      29.504  52.519 245.273  0.00  0.00    -0.365 N 
ATOM     36  H17 V0N d   1      30.493  52.654 245.211  0.00  0.00     0.161 HD
ATOM     37  O15 V0N d   1      27.751  52.181 246.622  0.00  0.00    -0.274 OA
BRANCH  35  38
ATOM     38  C14 V0N d   1      28.720  52.494 244.055  0.00  0.00    -0.018 C 
ATOM     39  H18 V0N d   1      29.383  52.638 243.189  0.00  0.00     0.056 H 
ATOM     40  H19 V0N d   1      27.973  53.301 244.083  0.00  0.00     0.056 H 
ATOM     41  H20 V0N d   1      28.209  51.524 243.968  0.00  0.00     0.056 H 
ENDBRANCH  35  38
ENDBRANCH  31  34
ENDBRANCH   2  31
BRANCH   5  42
ATOM     42  C9  V0N d   1      26.058  50.431 250.024  0.00  0.00     0.046 C 
ATOM     43  H12 V0N d   1      25.543  49.515 249.699  0.00  0.00     0.077 H 
ATOM     44  H13 V0N d   1      25.400  51.298 249.865  0.00  0.00     0.077 H 
BRANCH  42  45
ATOM     45  O10 V0N d   1      26.366  50.326 251.416  0.00  0.00    -0.399 OA
ATOM     46  H14 V0N d   1      26.932  49.576 251.558  0.00  0.00     0.209 HD
ENDBRANCH  42  45
ENDBRANCH   5  42
BRANCH   3  47
ATOM     47  O8  V0N d   1      29.547  49.671 247.553  0.00  0.00    -0.391 OA
ATOM     48  H11 V0N d   1      29.584  48.723 247.611  0.00  0.00     0.210 HD
ENDBRANCH   3  47
BRANCH   4  49
ATOM     49  O7  V0N d   1      28.235  48.358 249.556  0.00  0.00    -0.391 OA
ATOM     50  H10 V0N d   1      27.449  48.110 250.029  0.00  0.00     0.210 HD
ENDBRANCH   4  49
TORSDOF 11
