REMARK  11 active torsions:
REMARK  status: ('A' for Active; 'I' for Inactive)
REMARK    1  A    between atoms: NBB_30  and  C2_2 
REMARK    2  A    between atoms: C4_4  and  CAI_13 
REMARK       I    between atoms: CAH_12  and  NAD_9 
REMARK    3  A    between atoms: NAR_21  and  CAG_11 
REMARK    4  A    between atoms: CAM_17  and  CAH_12 
REMARK    5  A    between atoms: NBI_35  and  CAJ_14 
REMARK       I    between atoms: CAP_20  and  NBI_35 
REMARK    6  A    between atoms: CBJ_36  and  CAP_20 
REMARK    7  A    between atoms: CBM_39  and  NAR_21 
REMARK    8  A    between atoms: NAR_21  and  CBN_40 
REMARK    9  A    between atoms: CBH_34  and  NBB_30 
REMARK   10  A    between atoms: CBL_38  and  CBJ_36 
REMARK   11  A    between atoms: CBL_38  and  CBM_39 
ROOT
ATOM      1  CAB 5I1 d   1      -0.779 -18.375  39.321  0.00  0.00     0.017 C 
ATOM      2  NAD 5I1 d   1      -0.764 -19.172  38.053  0.00  0.00    -0.346 N 
ATOM      3  OAE 5I1 d   1      -0.029 -20.765  36.645  0.00  0.00    -0.267 OA
ATOM      4  CAH 5I1 d   1       0.066 -20.196  37.732  0.00  0.00     0.253 C 
ATOM      5  CAT 5I1 d   1      -1.871 -16.568  37.913  0.00  0.00    -0.043 C 
ATOM      6  CBA 5I1 d   1      -1.526 -17.323  36.660  0.00  0.00    -0.048 C 
ATOM      7  CBG 5I1 d   1      -1.733 -18.735  37.012  0.00  0.00    -0.002 C 
ATOM      8  CBH 5I1 d   1      -0.823 -16.860  38.975  0.00  0.00     0.042 C 
ATOM      9  H2  5I1 d   1       0.129 -18.593  39.903  0.00  0.00     0.067 H 
ATOM     10  H3  5I1 d   1      -1.667 -18.643  39.913  0.00  0.00     0.067 H 
ATOM     11  H12 5I1 d   1      -2.860 -16.886  38.274  0.00  0.00     0.036 H 
ATOM     12  H13 5I1 d   1      -1.888 -15.489  37.700  0.00  0.00     0.036 H 
ATOM     13  H17 5I1 d   1      -0.479 -17.143  36.373  0.00  0.00     0.035 H 
ATOM     14  H18 5I1 d   1      -2.188 -17.027  35.833  0.00  0.00     0.035 H 
ATOM     15  H22 5I1 d   1      -2.756 -18.864  37.396  0.00  0.00     0.064 H 
ATOM     16  H23 5I1 d   1      -1.598 -19.354  36.112  0.00  0.00     0.064 H 
ATOM     17  H24 5I1 d   1       0.166 -16.569  38.591  0.00  0.00     0.075 H 
ENDROOT
BRANCH   4  18
ATOM     18  CAM 5I1 d   1       0.998 -20.782  38.574  0.00  0.00     0.032 A 
ATOM     19  CAL 5I1 d   1       0.611 -21.373  39.773  0.00  0.00    -0.066 A 
ATOM     20  CAK 5I1 d   1       1.563 -22.013  40.567  0.00  0.00    -0.056 A 
ATOM     21  H8  5I1 d   1      -0.425 -21.336  40.089  0.00  0.00     0.085 H 
ATOM     22  CAJ 5I1 d   1       2.913 -22.061  40.167  0.00  0.00     0.034 A 
ATOM     23  H7  5I1 d   1       1.262 -22.477  41.499  0.00  0.00     0.086 H 
ATOM     24  CAO 5I1 d   1       3.273 -21.520  38.931  0.00  0.00    -0.056 A 
ATOM     25  CAN 5I1 d   1       2.321 -20.886  38.139  0.00  0.00    -0.066 A 
ATOM     26  H10 5I1 d   1       4.298 -21.594  38.587  0.00  0.00     0.086 H 
ATOM     27  H9  5I1 d   1       2.607 -20.471  37.180  0.00  0.00     0.085 H 
BRANCH  22  28
ATOM     28  NBI 5I1 d   1       3.857 -22.727  40.843  0.00  0.00    -0.327 N 
ATOM     29  CAP 5I1 d   1       3.946 -22.821  42.191  0.00  0.00     0.222 C 
ATOM     30  OAU 5I1 d   1       3.290 -22.171  43.011  0.00  0.00    -0.273 OA
ATOM     31  H25 5I1 d   1       4.558 -23.196  40.306  0.00  0.00     0.169 HD
BRANCH  29  32
ATOM     32  CBJ 5I1 d   1       5.017 -23.848  42.651  0.00  0.00     0.011 C 
ATOM     33  H26 5I1 d   1       5.130 -23.826  43.745  0.00  0.00     0.047 H 
ATOM     34  H27 5I1 d   1       5.987 -23.634  42.178  0.00  0.00     0.047 H 
BRANCH  32  35
ATOM     35  CBL 5I1 d   1       4.473 -25.234  42.184  0.00  0.00    -0.035 C 
ATOM     36  H29 5I1 d   1       5.164 -25.643  41.433  0.00  0.00     0.036 H 
ATOM     37  H30 5I1 d   1       3.483 -25.083  41.728  0.00  0.00     0.036 H 
BRANCH  35  38
ATOM     38  CBM 5I1 d   1       4.331 -26.267  43.334  0.00  0.00     0.083 C 
ATOM     39  H31 5I1 d   1       3.647 -25.838  44.081  0.00  0.00     0.075 H 
ATOM     40  H32 5I1 d   1       3.884 -27.177  42.907  0.00  0.00     0.075 H 
BRANCH  38  41
ATOM     41  NAR 5I1 d   1       5.576 -26.672  44.047  0.00  0.00    -0.079 N 
ATOM     42  H11 5I1 d   1       6.336 -26.665  43.385  0.00  0.00     0.278 HD
BRANCH  41  43
ATOM     43  CAG 5I1 d   1       5.398 -28.048  44.558  0.00  0.00     0.066 C 
ATOM     44  H4  5I1 d   1       6.309 -28.363  45.088  0.00  0.00     0.068 H 
ATOM     45  H5  5I1 d   1       5.209 -28.730  43.716  0.00  0.00     0.068 H 
ATOM     46  H6  5I1 d   1       4.544 -28.074  45.250  0.00  0.00     0.068 H 
ENDBRANCH  41  43
BRANCH  41  47
ATOM     47  CBN 5I1 d   1       5.932 -25.762  45.165  0.00  0.00     0.066 C 
ATOM     48  H33 5I1 d   1       6.856 -26.116  45.646  0.00  0.00     0.068 H 
ATOM     49  H34 5I1 d   1       5.116 -25.750  45.902  0.00  0.00     0.068 H 
ATOM     50  H35 5I1 d   1       6.088 -24.745  44.775  0.00  0.00     0.068 H 
ENDBRANCH  41  47
ENDBRANCH  38  41
ENDBRANCH  35  38
ENDBRANCH  32  35
ENDBRANCH  29  32
ENDBRANCH  22  28
ENDBRANCH   4  18
BRANCH   8  51
ATOM     51  NBB 5I1 d   1      -1.137 -16.033  40.145  0.00  0.00    -0.216 N 
ATOM     52  H19 5I1 d   1      -1.482 -16.491  41.001  0.00  0.00     0.178 HD
BRANCH  51  53
ATOM     53  C2  5I1 d   1      -0.989 -14.703  40.136  0.00  0.00     0.723 A 
ATOM     54  N1  5I1 d   1      -1.514 -13.998  41.142  0.00  0.00    -0.074 NA
ATOM     55  C6  5I1 d   1      -1.365 -12.614  41.145  0.00  0.00     0.044 A 
ATOM     56  C5  5I1 d   1      -0.681 -11.972  40.121  0.00  0.00     0.082 A 
ATOM     57  H1  5I1 d   1      -1.787 -12.031  41.955  0.00  0.00     0.118 H 
ATOM     58  C4  5I1 d   1      -0.133 -12.736  39.071  0.00  0.00     0.111 A 
ATOM     59 CL5  5I1 d   1      -0.583 -10.257  40.266  0.00  0.00    -0.080 Cl
ATOM     60  N3  5I1 d   1      -0.326 -14.071  39.139  0.00  0.00    -0.061 NA
BRANCH  58  61
ATOM     61  CAI 5I1 d   1       0.540 -12.214  38.013  0.00  0.00     0.023 A 
ATOM     62  CAV 5I1 d   1       1.546 -12.781  37.316  0.00  0.00     0.004 A 
ATOM     63  CAW 5I1 d   1       1.889 -11.908  36.344  0.00  0.00     0.043 A 
ATOM     64  CBD 5I1 d   1       2.208 -13.950  37.414  0.00  0.00    -0.070 A 
ATOM     65  CAX 5I1 d   1       2.872 -12.154  35.466  0.00  0.00    -0.056 A 
ATOM     66  NBK 5I1 d   1       1.105 -10.846  36.439  0.00  0.00    -0.364 N 
ATOM     67  CAY 5I1 d   1       3.584 -13.347  35.529  0.00  0.00    -0.081 A 
ATOM     68  H14 5I1 d   1       3.112 -11.421  34.705  0.00  0.00     0.086 H 
ATOM     69  CAZ 5I1 d   1       3.242 -14.258  36.522  0.00  0.00    -0.082 A 
ATOM     70  H15 5I1 d   1       4.381 -13.560  34.826  0.00  0.00     0.083 H 
ATOM     71  H16 5I1 d   1       3.772 -15.200  36.605  0.00  0.00     0.083 H 
ATOM     72  CBE 5I1 d   1       0.273 -11.031  37.449  0.00  0.00    -0.009 A 
ATOM     73  H28 5I1 d   1       1.138 -10.016  35.829  0.00  0.00     0.165 HD
ATOM     74  H21 5I1 d   1      -0.501 -10.336  37.769  0.00  0.00     0.112 H 
ATOM     75  H20 5I1 d   1       1.938 -14.658  38.190  0.00  0.00     0.084 H 
ENDBRANCH  58  61
ENDBRANCH  51  53
ENDBRANCH   8  51
TORSDOF 11
