REMARK  3 active torsions:
REMARK  status: ('A' for Active; 'I' for Inactive)
REMARK    1  A    between atoms: C01_1  and  S06_6 
REMARK    2  A    between atoms: C04_4  and  C08_8 
REMARK    3  A    between atoms: N05_5  and  C07_7 
ROOT
ATOM      1  C01 RHU d   1     -34.004   8.543   5.595  0.00  0.00     0.188 A 
ATOM      2  N02 RHU d   1     -34.587   9.576   4.986  0.00  0.00    -0.123 NA
ATOM      3  N03 RHU d   1     -35.165  10.374   5.883  0.00  0.00    -0.124 NA
ATOM      4  C04 RHU d   1     -34.961   9.874   7.121  0.00  0.00     0.238 A 
ATOM      5  N05 RHU d   1     -34.210   8.667   6.994  0.00  0.00    -0.308 N 
ENDROOT
BRANCH   4   6
ATOM      6  C08 RHU d   1     -35.462  10.533   8.422  0.00  0.00     0.453 C 
ATOM      7  F09 RHU d   1     -34.474  10.773   9.266  0.00  0.00    -0.163 F 
ATOM      8  F10 RHU d   1     -36.049  11.682   8.197  0.00  0.00    -0.163 F 
ATOM      9  F11 RHU d   1     -36.311   9.763   9.079  0.00  0.00    -0.163 F 
ENDBRANCH   4   6
BRANCH   5  10
ATOM     10  C07 RHU d   1     -33.759   7.795   8.079  0.00  0.00    -0.010 C 
ATOM     11  H2  RHU d   1     -33.204   6.944   7.658  0.00  0.00     0.057 H 
ATOM     12  H3  RHU d   1     -34.631   7.424   8.638  0.00  0.00     0.057 H 
ATOM     13  H4  RHU d   1     -33.103   8.362   8.757  0.00  0.00     0.057 H 
ENDBRANCH   5  10
BRANCH   1  14
ATOM     14  S06 RHU d   1     -33.144   7.221   4.886  0.00  0.00    -0.103 SA
ATOM     15  H1  RHU d   1     -33.611   6.357   5.114  0.00  0.00     0.110 HD
ENDBRANCH   1  14
TORSDOF 3
