REMARK  3 active torsions:
REMARK  status: ('A' for Active; 'I' for Inactive)
REMARK    1  A    between atoms: C16_16  and  C01_1 
REMARK    2  A    between atoms: C10_10  and  C12_12 
REMARK    3  A    between atoms: C16_16  and  C17_17 
ROOT
ATOM      1  C01 WL3 d   1     -34.586   6.844   7.280  0.00  0.00     0.032 A 
ATOM      2  C07 WL3 d   1     -34.120   5.810   9.406  0.00  0.00    -0.082 A 
ATOM      3  C08 WL3 d   1     -33.384   4.829   8.769  0.00  0.00    -0.082 A 
ATOM      4  C09 WL3 d   1     -33.254   4.852   7.392  0.00  0.00    -0.066 A 
ATOM      5  C10 WL3 d   1     -33.845   5.850   6.640  0.00  0.00     0.054 A 
ATOM      6  C11 WL3 d   1     -34.722   6.808   8.660  0.00  0.00    -0.068 A 
ATOM      7  H5  WL3 d   1     -34.225   5.798  10.485  0.00  0.00     0.083 H 
ATOM      8  H6  WL3 d   1     -32.910   4.044   9.347  0.00  0.00     0.083 H 
ATOM      9  H7  WL3 d   1     -32.681   4.077   6.896  0.00  0.00     0.085 H 
ATOM     10  H8  WL3 d   1     -35.307   7.571   9.160  0.00  0.00     0.085 H 
ENDROOT
BRANCH   1  11
ATOM     11  C16 WL3 d   1     -35.272   7.964   6.519  0.00  0.00     0.193 C 
ATOM     12  O18 WL3 d   1     -35.725   7.763   5.411  0.00  0.00    -0.287 OA
BRANCH  11  13
ATOM     13  C17 WL3 d   1     -35.418   9.359   7.103  0.00  0.00     0.015 A 
ATOM     14  C03 WL3 d   1     -36.450  10.158   6.638  0.00  0.00    -0.066 A 
ATOM     15  C02 WL3 d   1     -36.624  11.435   7.140  0.00  0.00    -0.045 A 
ATOM     16  H2  WL3 d   1     -37.124   9.781   5.878  0.00  0.00     0.085 H 
ATOM     17  C06 WL3 d   1     -35.761  11.918   8.109  0.00  0.00     0.116 A 
ATOM     18  H1  WL3 d   1     -37.434  12.056   6.776  0.00  0.00     0.088 H 
ATOM     19  C05 WL3 d   1     -34.724  11.127   8.578  0.00  0.00    -0.045 A 
ATOM     20  F13 WL3 d   1     -35.940  13.152   8.585  0.00  0.00    -0.206 F 
ATOM     21  C04 WL3 d   1     -34.551   9.848   8.073  0.00  0.00    -0.066 A 
ATOM     22  H4  WL3 d   1     -34.050  11.508   9.337  0.00  0.00     0.088 H 
ATOM     23  H3  WL3 d   1     -33.739   9.228   8.435  0.00  0.00     0.085 H 
ENDBRANCH  11  13
ENDBRANCH   1  11
BRANCH   5  24
ATOM     24  C12 WL3 d   1     -33.650   5.792   5.137  0.00  0.00     0.210 C 
ATOM     25  O14 WL3 d   1     -34.380   5.036   4.438  0.00  0.00    -0.644 OA
ATOM     26  O15 WL3 d   1     -32.746   6.474   4.587  0.00  0.00    -0.644 OA
ENDBRANCH   5  24
TORSDOF 3
