REMARK  8 active torsions:
REMARK  status: ('A' for Active; 'I' for Inactive)
REMARK       I    between atoms: N_2  and  C_1 
REMARK    1  A    between atoms: C_1  and  C1_4 
REMARK    2  A    between atoms: C5_13  and  N_2 
REMARK       I    between atoms: N1_5  and  C11_19 
REMARK    3  A    between atoms: C12_20  and  N1_5 
REMARK    4  A    between atoms: C17_25  and  O3_10 
REMARK    5  A    between atoms: O3_10  and  C18_26 
REMARK    6  A    between atoms: C11_19  and  C8_16 
REMARK    7  A    between atoms: C13_21  and  C12_20 
REMARK    8  A    between atoms: C13_21  and  C14_22 
ROOT
ATOM      1  O4  A95 d   1      -8.332 -11.379 -19.574  0.00  0.00    -0.391 OA
ATOM      2  C13 A95 d   1      -5.518 -11.099 -20.335  0.00  0.00     0.007 C 
ATOM      3  C21 A95 d   1      -6.694 -10.418 -21.058  0.00  0.00    -0.033 C 
ATOM      4  C22 A95 d   1      -7.888 -10.152 -20.152  0.00  0.00     0.021 C 
ATOM      5  C23 A95 d   1      -7.361 -11.907 -18.670  0.00  0.00     0.021 C 
ATOM      6  C24 A95 d   1      -6.057 -12.193 -19.390  0.00  0.00    -0.033 C 
ATOM      7  H19 A95 d   1      -7.020 -11.069 -21.883  0.00  0.00     0.037 H 
ATOM      8  H20 A95 d   1      -6.344  -9.458 -21.465  0.00  0.00     0.037 H 
ATOM      9  H21 A95 d   1      -7.593  -9.456 -19.353  0.00  0.00     0.074 H 
ATOM     10  H22 A95 d   1      -8.704  -9.709 -20.742  0.00  0.00     0.074 H 
ATOM     11  H23 A95 d   1      -7.745 -12.841 -18.233  0.00  0.00     0.074 H 
ATOM     12  H24 A95 d   1      -7.178 -11.176 -17.869  0.00  0.00     0.074 H 
ATOM     13  H25 A95 d   1      -5.289 -12.376 -18.624  0.00  0.00     0.037 H 
ATOM     14  H26 A95 d   1      -6.202 -13.105 -19.988  0.00  0.00     0.037 H 
ENDROOT
BRANCH   2  15
ATOM     15  C12 A95 d   1      -4.737 -10.103 -19.464  0.00  0.00     0.006 C 
ATOM     16  H10 A95 d   1      -5.451  -9.570 -18.819  0.00  0.00     0.065 H 
ATOM     17  H11 A95 d   1      -4.028 -10.667 -18.840  0.00  0.00     0.065 H 
BRANCH  15  18
ATOM     18  N1  A95 d   1      -4.002  -9.135 -20.225  0.00  0.00    -0.356 N 
ATOM     19  C11 A95 d   1      -3.094  -8.338 -19.692  0.00  0.00     0.251 C 
ATOM     20  O2  A95 d   1      -2.915  -8.321 -18.482  0.00  0.00    -0.268 OA
ATOM     21  H2  A95 d   1      -4.186  -9.060 -21.205  0.00  0.00     0.162 HD
BRANCH  19  22
ATOM     22  C8  A95 d   1      -2.130  -7.572 -20.561  0.00  0.00     0.032 A 
ATOM     23  C7  A95 d   1      -1.198  -6.735 -19.938  0.00  0.00    -0.066 A 
ATOM     24  C6  A95 d   1      -0.253  -6.035 -20.685  0.00  0.00    -0.056 A 
ATOM     25  H7  A95 d   1      -1.211  -6.630 -18.859  0.00  0.00     0.085 H 
ATOM     26  C5  A95 d   1      -0.176  -6.167 -22.057  0.00  0.00     0.035 A 
ATOM     27  H6  A95 d   1       0.438  -5.372 -20.177  0.00  0.00     0.086 H 
ATOM     28  C10 A95 d   1      -1.108  -6.995 -22.688  0.00  0.00    -0.056 A 
ATOM     29  C9  A95 d   1      -2.060  -7.704 -21.945  0.00  0.00    -0.066 A 
ATOM     30  H9  A95 d   1      -1.094  -7.090 -23.768  0.00  0.00     0.086 H 
ATOM     31  H8  A95 d   1      -2.752  -8.365 -22.455  0.00  0.00     0.085 H 
BRANCH  26  32
ATOM     32  N   A95 d   1       0.721  -5.509 -22.843  0.00  0.00    -0.321 N 
ATOM     33  C   A95 d   1       1.645  -4.632 -22.480  0.00  0.00     0.279 C 
ATOM     34  O   A95 d   1       1.709  -4.164 -21.363  0.00  0.00    -0.265 OA
ATOM     35  H1  A95 d   1       0.676  -5.715 -23.821  0.00  0.00     0.169 HD
BRANCH  33  36
ATOM     36  C1  A95 d   1       2.709  -4.289 -23.466  0.00  0.00     0.142 A 
ATOM     37  O1  A95 d   1       2.680  -4.935 -24.550  0.00  0.00    -0.317 OA
ATOM     38  C2  A95 d   1       3.735  -4.500 -25.354  0.00  0.00     0.020 A 
ATOM     39  C3  A95 d   1       4.438  -3.551 -24.648  0.00  0.00    -0.059 A 
ATOM     40  H3  A95 d   1       3.961  -4.849 -26.360  0.00  0.00     0.123 H 
ATOM     41  C4  A95 d   1       3.787  -3.421 -23.432  0.00  0.00    -0.043 A 
ATOM     42  H4  A95 d   1       5.325  -3.012 -24.978  0.00  0.00     0.086 H 
ATOM     43  H5  A95 d   1       4.068  -2.764 -22.610  0.00  0.00     0.088 H 
ENDBRANCH  33  36
ENDBRANCH  26  32
ENDBRANCH  19  22
ENDBRANCH  15  18
ENDBRANCH   2  15
BRANCH   2  44
ATOM     44  C14 A95 d   1      -4.608 -11.792 -21.358  0.00  0.00    -0.048 A 
ATOM     45  C15 A95 d   1      -4.568 -11.452 -22.728  0.00  0.00    -0.073 A 
ATOM     46  C16 A95 d   1      -3.726 -12.117 -23.636  0.00  0.00    -0.050 A 
ATOM     47  H12 A95 d   1      -5.206 -10.654 -23.090  0.00  0.00     0.084 H 
ATOM     48  C17 A95 d   1      -2.887 -13.146 -23.185  0.00  0.00     0.068 A 
ATOM     49  H13 A95 d   1      -3.725 -11.835 -24.683  0.00  0.00     0.087 H 
ATOM     50  C19 A95 d   1      -2.909 -13.480 -21.840  0.00  0.00    -0.050 A 
ATOM     51  C20 A95 d   1      -3.743 -12.827 -20.942  0.00  0.00    -0.073 A 
ATOM     52  H17 A95 d   1      -2.260 -14.270 -21.480  0.00  0.00     0.087 H 
ATOM     53  H18 A95 d   1      -3.729 -13.119 -19.898  0.00  0.00     0.084 H 
BRANCH  48  54
ATOM     54  O3  A95 d   1      -2.042 -13.850 -24.024  0.00  0.00    -0.356 OA
BRANCH  54  55
ATOM     55  C18 A95 d   1      -2.034 -13.661 -25.454  0.00  0.00     0.010 C 
ATOM     56  H14 A95 d   1      -1.284 -14.326 -25.907  0.00  0.00     0.066 H 
ATOM     57  H15 A95 d   1      -1.784 -12.615 -25.684  0.00  0.00     0.066 H 
ATOM     58  H16 A95 d   1      -3.028 -13.898 -25.861  0.00  0.00     0.066 H 
ENDBRANCH  54  55
ENDBRANCH  48  54
ENDBRANCH   2  44
TORSDOF 8
