REMARK  9 active torsions:
REMARK  status: ('A' for Active; 'I' for Inactive)
REMARK    1  A    between atoms: CAY_1  and  CAX_2 
REMARK    2  A    between atoms: CAU_6  and  CAS_7 
REMARK       I    between atoms: CAS_7  and  NAR_9 
REMARK    3  A    between atoms: NAR_9  and  CAQ_10 
REMARK    4  A    between atoms: CAN_15  and  CAL_16 
REMARK       I    between atoms: CAL_16  and  NAK_18 
REMARK    5  A    between atoms: NAK_18  and  CAJ_19 
REMARK    6  A    between atoms: CAJ_19  and  CAI_20 
REMARK    7  A    between atoms: CAI_20  and  CAF_26 
REMARK    8  A    between atoms: CAC_29  and  OAB_30 
REMARK    9  A    between atoms: OAB_30  and  CAA_31 
ROOT
ATOM      1  CAJ QS5 d   1       9.965   4.968  19.329  0.00  0.00     0.006 C 
ATOM      2  H12 QS5 d   1       9.341   5.697  18.792  0.00  0.00     0.065 H 
ATOM      3  H13 QS5 d   1      10.460   4.305  18.604  0.00  0.00     0.065 H 
ENDROOT
BRANCH   1   4
ATOM      4  NAK QS5 d   1       9.123   4.176  20.186  0.00  0.00    -0.356 N 
ATOM      5  CAL QS5 d   1       8.324   3.297  19.608  0.00  0.00     0.251 C 
ATOM      6  OAM QS5 d   1       8.372   3.132  18.389  0.00  0.00    -0.268 OA
ATOM      7  H11 QS5 d   1       9.142   4.287  21.180  0.00  0.00     0.162 HD
BRANCH   5   8
ATOM      8  CAN QS5 d   1       7.591   2.410  20.439  0.00  0.00     0.032 A 
ATOM      9  CBB QS5 d   1       6.734   1.477  19.852  0.00  0.00    -0.066 A 
ATOM     10  CBA QS5 d   1       6.029   0.546  20.592  0.00  0.00    -0.056 A 
ATOM     11  H8  QS5 d   1       6.617   1.483  18.774  0.00  0.00     0.085 H 
ATOM     12  CAQ QS5 d   1       6.165   0.493  21.977  0.00  0.00     0.035 A 
ATOM     13  H7  QS5 d   1       5.365  -0.148  20.090  0.00  0.00     0.086 H 
ATOM     14  CAP QS5 d   1       7.039   1.386  22.567  0.00  0.00    -0.056 A 
ATOM     15  CAO QS5 d   1       7.754   2.321  21.830  0.00  0.00    -0.066 A 
ATOM     16  H9  QS5 d   1       7.171   1.356  23.642  0.00  0.00     0.086 H 
ATOM     17  H10 QS5 d   1       8.444   2.988  22.334  0.00  0.00     0.085 H 
BRANCH  12  18
ATOM     18  NAR QS5 d   1       5.584  -0.404  22.779  0.00  0.00    -0.321 N 
ATOM     19  CAS QS5 d   1       4.633  -1.293  22.418  0.00  0.00     0.279 C 
ATOM     20  OAT QS5 d   1       4.095  -1.383  21.325  0.00  0.00    -0.265 OA
ATOM     21  H6  QS5 d   1       5.880  -0.419  23.734  0.00  0.00     0.169 HD
BRANCH  19  22
ATOM     22  CAU QS5 d   1       4.365  -2.185  23.389  0.00  0.00     0.143 A 
ATOM     23  OAZ QS5 d   1       5.118  -2.279  24.534  0.00  0.00    -0.310 OA
ATOM     24  CAX QS5 d   1       4.624  -3.270  25.239  0.00  0.00     0.050 A 
ATOM     25  CAW QS5 d   1       3.603  -3.837  24.573  0.00  0.00    -0.052 A 
ATOM     26  CAV QS5 d   1       3.457  -3.163  23.405  0.00  0.00    -0.042 A 
ATOM     27  H4  QS5 d   1       3.004  -4.682  24.909  0.00  0.00     0.087 H 
ATOM     28  H5  QS5 d   1       2.731  -3.380  22.623  0.00  0.00     0.088 H 
BRANCH  24  29
ATOM     29  CAY QS5 d   1       5.190  -3.657  26.625  0.00  0.00    -0.031 C 
ATOM     30  H1  QS5 d   1       4.624  -4.511  27.027  0.00  0.00     0.036 H 
ATOM     31  H2  QS5 d   1       5.099  -2.801  27.310  0.00  0.00     0.036 H 
ATOM     32  H3  QS5 d   1       6.250  -3.934  26.524  0.00  0.00     0.036 H 
ENDBRANCH  24  29
ENDBRANCH  19  22
ENDBRANCH  12  18
ENDBRANCH   5   8
ENDBRANCH   1   4
BRANCH   1  33
ATOM     33  CAI QS5 d   1      11.039   5.724  20.126  0.00  0.00     0.007 C 
ATOM     34  CBC QS5 d   1      10.365   6.878  20.877  0.00  0.00    -0.033 C 
ATOM     35  CBD QS5 d   1      10.388   8.096  20.028  0.00  0.00     0.021 C 
ATOM     36  H14 QS5 d   1      10.907   7.073  21.814  0.00  0.00     0.037 H 
ATOM     37  H15 QS5 d   1       9.323   6.609  21.105  0.00  0.00     0.037 H 
ATOM     38  OBE QS5 d   1      11.770   8.477  19.814  0.00  0.00    -0.391 OA
ATOM     39  H16 QS5 d   1       9.852   8.912  20.534  0.00  0.00     0.074 H 
ATOM     40  H17 QS5 d   1       9.907   7.885  19.062  0.00  0.00     0.074 H 
ATOM     41  CBF QS5 d   1      12.211   7.667  18.728  0.00  0.00     0.021 C 
ATOM     42  CBG QS5 d   1      12.142   6.211  19.105  0.00  0.00    -0.033 C 
ATOM     43  H18 QS5 d   1      13.250   7.929  18.478  0.00  0.00     0.074 H 
ATOM     44  H19 QS5 d   1      11.567   7.847  17.855  0.00  0.00     0.074 H 
ATOM     45  H20 QS5 d   1      11.988   5.646  18.174  0.00  0.00     0.037 H 
ATOM     46  H21 QS5 d   1      13.118   5.946  19.538  0.00  0.00     0.037 H 
BRANCH  33  47
ATOM     47  CAF QS5 d   1      11.709   4.825  21.070  0.00  0.00    -0.048 A 
ATOM     48  CAE QS5 d   1      12.713   3.917  20.673  0.00  0.00    -0.073 A 
ATOM     49  CAD QS5 d   1      13.359   3.081  21.581  0.00  0.00    -0.050 A 
ATOM     50  H22 QS5 d   1      12.991   3.868  19.626  0.00  0.00     0.084 H 
ATOM     51  CAC QS5 d   1      13.052   3.113  22.941  0.00  0.00     0.068 A 
ATOM     52  H23 QS5 d   1      14.115   2.392  21.223  0.00  0.00     0.087 H 
ATOM     53  CAH QS5 d   1      12.059   3.979  23.361  0.00  0.00    -0.050 A 
ATOM     54  CAG QS5 d   1      11.427   4.827  22.445  0.00  0.00    -0.073 A 
ATOM     55  H27 QS5 d   1      11.769   4.001  24.405  0.00  0.00     0.087 H 
ATOM     56  H28 QS5 d   1      10.681   5.521  22.816  0.00  0.00     0.084 H 
BRANCH  51  57
ATOM     57  OAB QS5 d   1      13.745   2.280  23.798  0.00  0.00    -0.356 OA
BRANCH  57  58
ATOM     58  CAA QS5 d   1      13.474   2.387  25.201  0.00  0.00     0.010 C 
ATOM     59  H24 QS5 d   1      14.097   1.666  25.751  0.00  0.00     0.066 H 
ATOM     60  H25 QS5 d   1      12.412   2.170  25.387  0.00  0.00     0.066 H 
ATOM     61  H26 QS5 d   1      13.706   3.407  25.543  0.00  0.00     0.066 H 
ENDBRANCH  57  58
ENDBRANCH  51  57
ENDBRANCH  33  47
ENDBRANCH   1  33
TORSDOF 9
