REMARK  8 active torsions:
REMARK  status: ('A' for Active; 'I' for Inactive)
REMARK    1  A    between atoms: CAA_1  and  OAB_2 
REMARK    2  A    between atoms: OAB_2  and  CAC_3 
REMARK    3  A    between atoms: CAF_6  and  CAI_9 
REMARK    4  A    between atoms: CAI_9  and  CAJ_10 
REMARK    5  A    between atoms: CAJ_10  and  NAK_11 
REMARK       I    between atoms: NAK_11  and  CAL_12 
REMARK    6  A    between atoms: CAL_12  and  CAN_14 
REMARK    7  A    between atoms: CAR_18  and  NAS_19 
REMARK       I    between atoms: NAS_19  and  CAT_20 
REMARK    8  A    between atoms: CAT_20  and  CAV_22 
ROOT
ATOM      1  CAI QNS d   1      10.928   4.995  20.076  0.00  0.00     0.007 C 
ATOM      2  CBC QNS d   1      11.923   5.532  19.092  0.00  0.00    -0.033 C 
ATOM      3  CBD QNS d   1      12.000   7.076  18.939  0.00  0.00     0.021 C 
ATOM      4  OBE QNS d   1      11.596   7.761  20.139  0.00  0.00    -0.391 OA
ATOM      5  CBF QNS d   1      10.185   7.455  20.229  0.00  0.00     0.021 C 
ATOM      6  CBG QNS d   1       9.986   6.079  20.748  0.00  0.00    -0.033 C 
ATOM      7  H18 QNS d   1      11.674   5.113  18.106  0.00  0.00     0.037 H 
ATOM      8  H19 QNS d   1      12.918   5.179  19.400  0.00  0.00     0.037 H 
ATOM      9  H20 QNS d   1      11.339   7.384  18.116  0.00  0.00     0.074 H 
ATOM     10  H21 QNS d   1      13.037   7.357  18.702  0.00  0.00     0.074 H 
ATOM     11  H22 QNS d   1       9.732   7.534  19.230  0.00  0.00     0.074 H 
ATOM     12  H23 QNS d   1       9.701   8.172  20.909  0.00  0.00     0.074 H 
ATOM     13  H24 QNS d   1      10.183   6.085  21.830  0.00  0.00     0.037 H 
ATOM     14  H25 QNS d   1       8.941   5.789  20.567  0.00  0.00     0.037 H 
ENDROOT
BRANCH   1  15
ATOM     15  CAF QNS d   1      11.709   4.197  21.053  0.00  0.00    -0.048 A 
ATOM     16  CAE QNS d   1      11.577   4.314  22.447  0.00  0.00    -0.073 A 
ATOM     17  CAD QNS d   1      12.326   3.520  23.330  0.00  0.00    -0.050 A 
ATOM     18  H5  QNS d   1      10.878   5.037  22.852  0.00  0.00     0.084 H 
ATOM     19  CAC QNS d   1      13.274   2.604  22.866  0.00  0.00     0.068 A 
ATOM     20  H4  QNS d   1      12.165   3.620  24.397  0.00  0.00     0.087 H 
ATOM     21  CAH QNS d   1      13.412   2.476  21.489  0.00  0.00    -0.050 A 
ATOM     22  CAG QNS d   1      12.665   3.260  20.590  0.00  0.00    -0.073 A 
ATOM     23  H7  QNS d   1      14.116   1.751  21.096  0.00  0.00     0.087 H 
ATOM     24  H6  QNS d   1      12.824   3.145  19.524  0.00  0.00     0.084 H 
BRANCH  19  25
ATOM     25  OAB QNS d   1      14.068   1.819  23.708  0.00  0.00    -0.356 OA
BRANCH  25  26
ATOM     26  CAA QNS d   1      13.718   1.898  25.131  0.00  0.00     0.010 C 
ATOM     27  H1  QNS d   1      14.393   1.251  25.711  0.00  0.00     0.066 H 
ATOM     28  H2  QNS d   1      12.679   1.565  25.272  0.00  0.00     0.066 H 
ATOM     29  H3  QNS d   1      13.820   2.937  25.477  0.00  0.00     0.066 H 
ENDBRANCH  25  26
ENDBRANCH  19  25
ENDBRANCH   1  15
BRANCH   1  30
ATOM     30  CAJ QNS d   1      10.000   4.027  19.289  0.00  0.00     0.006 C 
ATOM     31  H8  QNS d   1      10.627   3.373  18.666  0.00  0.00     0.065 H 
ATOM     32  H9  QNS d   1       9.340   4.625  18.644  0.00  0.00     0.065 H 
BRANCH  30  33
ATOM     33  NAK QNS d   1       9.161   3.180  20.160  0.00  0.00    -0.356 N 
ATOM     34  CAL QNS d   1       8.106   2.525  19.691  0.00  0.00     0.253 C 
ATOM     35  OAM QNS d   1       7.950   2.520  18.469  0.00  0.00    -0.268 OA
ATOM     36  H10 QNS d   1       9.394   3.098  21.129  0.00  0.00     0.162 HD
BRANCH  34  37
ATOM     37  CAN QNS d   1       7.443   1.595  20.548  0.00  0.00     0.053 A 
ATOM     38  CAO QNS d   1       7.619   1.463  21.944  0.00  0.00     0.051 A 
ATOM     39 CLA  QNS d   1       8.717   2.629  22.910  0.00  0.00    -0.083 Cl
ATOM     40  CAQ QNS d   1       6.959   0.453  22.664  0.00  0.00    -0.035 A 
ATOM     41  CAR QNS d   1       6.108  -0.465  22.067  0.00  0.00     0.036 A 
ATOM     42  H11 QNS d   1       7.122   0.388  23.734  0.00  0.00     0.089 H 
ATOM     43  CBA QNS d   1       5.973  -0.355  20.689  0.00  0.00    -0.056 A 
ATOM     44  CBB QNS d   1       6.624   0.637  19.983  0.00  0.00    -0.064 A 
ATOM     45  H16 QNS d   1       5.345  -1.061  20.158  0.00  0.00     0.086 H 
ATOM     46  H17 QNS d   1       6.482   0.666  18.909  0.00  0.00     0.085 H 
BRANCH  41  47
ATOM     47  NAS QNS d   1       5.584  -1.436  22.834  0.00  0.00    -0.321 N 
ATOM     48  CAT QNS d   1       4.671  -2.336  22.450  0.00  0.00     0.279 C 
ATOM     49  OAU QNS d   1       3.992  -2.284  21.423  0.00  0.00    -0.265 OA
ATOM     50  H12 QNS d   1       5.906  -1.491  23.779  0.00  0.00     0.169 HD
BRANCH  48  51
ATOM     51  CAV QNS d   1       4.462  -3.277  23.389  0.00  0.00     0.142 A 
ATOM     52  CAW QNS d   1       3.553  -4.236  23.364  0.00  0.00    -0.043 A 
ATOM     53  CAX QNS d   1       3.674  -4.994  24.463  0.00  0.00    -0.059 A 
ATOM     54  H13 QNS d   1       2.820  -4.387  22.573  0.00  0.00     0.088 H 
ATOM     55  CAY QNS d   1       4.675  -4.522  25.215  0.00  0.00     0.020 A 
ATOM     56  H14 QNS d   1       3.056  -5.857  24.705  0.00  0.00     0.086 H 
ATOM     57  OAZ QNS d   1       5.219  -3.415  24.552  0.00  0.00    -0.317 OA
ATOM     58  H15 QNS d   1       5.007  -4.926  26.170  0.00  0.00     0.123 H 
ENDBRANCH  48  51
ENDBRANCH  41  47
ENDBRANCH  34  37
ENDBRANCH  30  33
ENDBRANCH   1  30
TORSDOF 8
