REMARK  9 active torsions:
REMARK  status: ('A' for Active; 'I' for Inactive)
REMARK    1  A    between atoms: CAZ_1  and  CAY_2 
REMARK    2  A    between atoms: CAV_6  and  CAT_7 
REMARK       I    between atoms: CAT_7  and  NAS_9 
REMARK    3  A    between atoms: NAS_9  and  CAR_10 
REMARK    4  A    between atoms: CAN_16  and  CAL_17 
REMARK       I    between atoms: CAL_17  and  NAK_19 
REMARK    5  A    between atoms: NAK_19  and  CAJ_20 
REMARK    6  A    between atoms: CAJ_20  and  CAI_21 
REMARK    7  A    between atoms: CAI_21  and  CAF_27 
REMARK    8  A    between atoms: CAC_30  and  OAB_31 
REMARK    9  A    between atoms: OAB_31  and  CAA_32 
ROOT
ATOM      1  CAJ 1TC d   1       9.985   4.071  19.350  0.00  0.00     0.006 C 
ATOM      2  H10 1TC d   1       9.342   4.593  18.626  0.00  0.00     0.065 H 
ATOM      3  H11 1TC d   1      10.664   3.391  18.814  0.00  0.00     0.065 H 
ENDROOT
BRANCH   1   4
ATOM      4  NAK 1TC d   1       9.148   3.289  20.233  0.00  0.00    -0.356 N 
ATOM      5  CAL 1TC d   1       8.093   2.617  19.750  0.00  0.00     0.253 C 
ATOM      6  OAM 1TC d   1       7.928   2.603  18.527  0.00  0.00    -0.268 OA
ATOM      7  H9  1TC d   1       9.357   3.249  21.210  0.00  0.00     0.162 HD
BRANCH   5   8
ATOM      8  CAN 1TC d   1       7.410   1.706  20.620  0.00  0.00     0.053 A 
ATOM      9  CAO 1TC d   1       7.431   1.705  22.027  0.00  0.00     0.051 A 
ATOM     10  CAQ 1TC d   1       6.755   0.706  22.746  0.00  0.00    -0.035 A 
ATOM     11 CLA  1TC d   1       8.313   3.027  22.974  0.00  0.00    -0.083 Cl
ATOM     12  CAR 1TC d   1       6.030  -0.304  22.128  0.00  0.00     0.036 A 
ATOM     13  H6  1TC d   1       6.801   0.724  23.829  0.00  0.00     0.089 H 
ATOM     14  CBB 1TC d   1       6.027  -0.322  20.762  0.00  0.00    -0.056 A 
ATOM     15  CBC 1TC d   1       6.699   0.662  20.040  0.00  0.00    -0.064 A 
ATOM     16  H7  1TC d   1       5.498  -1.108  20.236  0.00  0.00     0.086 H 
ATOM     17  H8  1TC d   1       6.665   0.610  18.958  0.00  0.00     0.085 H 
BRANCH  12  18
ATOM     18  NAS 1TC d   1       5.465  -1.251  22.880  0.00  0.00    -0.321 N 
ATOM     19  CAT 1TC d   1       4.426  -2.022  22.548  0.00  0.00     0.281 C 
ATOM     20  OAU 1TC d   1       3.699  -1.847  21.568  0.00  0.00    -0.265 OA
ATOM     21  H5  1TC d   1       5.861  -1.399  23.786  0.00  0.00     0.169 HD
BRANCH  19  22
ATOM     22  CAV 1TC d   1       4.146  -2.957  23.491  0.00  0.00     0.162 A 
ATOM     23  OBA 1TC d   1       4.881  -3.144  24.617  0.00  0.00    -0.289 OA
ATOM     24  CAY 1TC d   1       4.298  -4.136  25.290  0.00  0.00     0.142 A 
ATOM     25  NAX 1TC d   1       3.230  -4.580  24.633  0.00  0.00    -0.238 NA
ATOM     26  CAW 1TC d   1       3.134  -3.827  23.521  0.00  0.00     0.043 A 
ATOM     27  H4  1TC d   1       2.354  -3.914  22.766  0.00  0.00     0.119 H 
BRANCH  24  28
ATOM     28  CAZ 1TC d   1       4.820  -4.663  26.648  0.00  0.00    -0.015 C 
ATOM     29  H1  1TC d   1       4.171  -5.479  26.998  0.00  0.00     0.038 H 
ATOM     30  H2  1TC d   1       4.813  -3.847  27.385  0.00  0.00     0.038 H 
ATOM     31  H3  1TC d   1       5.847  -5.038  26.526  0.00  0.00     0.038 H 
ENDBRANCH  24  28
ENDBRANCH  19  22
ENDBRANCH  12  18
ENDBRANCH   5   8
ENDBRANCH   1   4
BRANCH   1  32
ATOM     32  CAI 1TC d   1      10.833   5.123  20.110  0.00  0.00     0.007 C 
ATOM     33  CBD 1TC d   1       9.857   6.105  20.779  0.00  0.00    -0.033 C 
ATOM     34  CBE 1TC d   1      10.219   7.541  20.423  0.00  0.00     0.021 C 
ATOM     35  H12 1TC d   1       9.908   5.979  21.871  0.00  0.00     0.037 H 
ATOM     36  H13 1TC d   1       8.835   5.893  20.432  0.00  0.00     0.037 H 
ATOM     37  OBF 1TC d   1      11.643   7.772  20.464  0.00  0.00    -0.391 OA
ATOM     38  H14 1TC d   1       9.730   8.217  21.140  0.00  0.00     0.074 H 
ATOM     39  H15 1TC d   1       9.855   7.757  19.408  0.00  0.00     0.074 H 
ATOM     40  CBG 1TC d   1      12.275   7.173  19.341  0.00  0.00     0.021 C 
ATOM     41  CBH 1TC d   1      11.645   5.793  18.995  0.00  0.00    -0.033 C 
ATOM     42  H16 1TC d   1      13.342   7.031  19.566  0.00  0.00     0.074 H 
ATOM     43  H17 1TC d   1      12.169   7.841  18.474  0.00  0.00     0.074 H 
ATOM     44  H18 1TC d   1      10.978   5.935  18.132  0.00  0.00     0.037 H 
ATOM     45  H19 1TC d   1      12.462   5.111  18.718  0.00  0.00     0.037 H 
BRANCH  32  46
ATOM     46  CAF 1TC d   1      11.661   4.378  21.095  0.00  0.00    -0.048 A 
ATOM     47  CAE 1TC d   1      11.449   4.385  22.507  0.00  0.00    -0.073 A 
ATOM     48  CAD 1TC d   1      12.219   3.648  23.422  0.00  0.00    -0.050 A 
ATOM     49  H20 1TC d   1      10.644   4.997  22.897  0.00  0.00     0.084 H 
ATOM     50  CAC 1TC d   1      13.265   2.835  22.934  0.00  0.00     0.068 A 
ATOM     51  H21 1TC d   1      12.014   3.703  24.485  0.00  0.00     0.087 H 
ATOM     52  CAH 1TC d   1      13.485   2.827  21.559  0.00  0.00    -0.050 A 
ATOM     53  CAG 1TC d   1      12.715   3.558  20.666  0.00  0.00    -0.073 A 
ATOM     54  H25 1TC d   1      14.295   2.222  21.168  0.00  0.00     0.087 H 
ATOM     55  H26 1TC d   1      12.934   3.494  19.606  0.00  0.00     0.084 H 
BRANCH  50  56
ATOM     56  OAB 1TC d   1      14.119   2.087  23.697  0.00  0.00    -0.356 OA
BRANCH  56  57
ATOM     57  CAA 1TC d   1      13.976   2.085  25.163  0.00  0.00     0.010 C 
ATOM     58  H22 1TC d   1      14.743   1.433  25.605  0.00  0.00     0.066 H 
ATOM     59  H23 1TC d   1      12.977   1.712  25.433  0.00  0.00     0.066 H 
ATOM     60  H24 1TC d   1      14.101   3.109  25.545  0.00  0.00     0.066 H 
ENDBRANCH  56  57
ENDBRANCH  50  56
ENDBRANCH  32  46
ENDBRANCH   1  32
TORSDOF 9
