REMARK  7 active torsions:
REMARK  status: ('A' for Active; 'I' for Inactive)
REMARK    1  A    between atoms: CBA_7  and  NAT_8 
REMARK    2  A    between atoms: NAT_8  and  C4_9 
REMARK       I    between atoms: NAT_8  and  CAR_15 
REMARK    3  A    between atoms: CAR_15  and  CAO_17 
REMARK    4  A    between atoms: CAL_22  and  NAA_23 
REMARK       I    between atoms: NAA_23  and  CAB_24 
REMARK    5  A    between atoms: CAB_24  and  CAD_26 
REMARK    6  A    between atoms: CAG_29  and  OAH_30 
REMARK    7  A    between atoms: OAH_30  and  CAI_31 
ROOT
ATOM      1  CAO 8IR d   1      27.456   3.567 -27.045  0.00  0.00     0.033 A 
ATOM      2  CAP 8IR d   1      27.825   3.302 -28.366  0.00  0.00    -0.066 A 
ATOM      3  CAQ 8IR d   1      28.958   2.546 -28.661  0.00  0.00    -0.056 A 
ATOM      4  CAN 8IR d   1      28.239   3.051 -26.011  0.00  0.00    -0.066 A 
ATOM      5  CAM 8IR d   1      29.385   2.299 -26.305  0.00  0.00    -0.056 A 
ATOM      6  CAL 8IR d   1      29.761   2.028 -27.638  0.00  0.00     0.035 A 
ATOM      7  H8  8IR d   1      27.219   3.691 -29.176  0.00  0.00     0.085 H 
ATOM      8  H9  8IR d   1      29.221   2.357 -29.695  0.00  0.00     0.086 H 
ATOM      9  H10 8IR d   1      27.960   3.232 -24.979  0.00  0.00     0.085 H 
ATOM     10  H11 8IR d   1      29.994   1.918 -25.493  0.00  0.00     0.086 H 
ENDROOT
BRANCH   1  11
ATOM     11  CAR 8IR d   1      26.292   4.322 -26.842  0.00  0.00     0.264 C 
ATOM     12  NAT 8IR d   1      26.273   5.518 -27.399  0.00  0.00    -0.260 N 
ATOM     13  OAS 8IR d   1      25.329   3.890 -26.238  0.00  0.00    -0.267 OA
BRANCH  12  14
ATOM     14  CBA 8IR d   1      27.355   6.007 -27.995  0.00  0.00     0.066 A 
ATOM     15  CBB 8IR d   1      27.379   6.207 -29.391  0.00  0.00     0.061 A 
ATOM     16 CL   8IR d   1      26.000   5.818 -30.529  0.00  0.00    -0.082 Cl
ATOM     17  CBD 8IR d   1      28.552   6.732 -29.934  0.00  0.00    -0.060 A 
ATOM     18  CBE 8IR d   1      29.646   7.052 -29.148  0.00  0.00    -0.081 A 
ATOM     19  H1  8IR d   1      28.609   6.894 -31.004  0.00  0.00     0.086 H 
ATOM     20  CBF 8IR d   1      29.598   6.863 -27.781  0.00  0.00    -0.081 A 
ATOM     21  H2  8IR d   1      30.543   7.452 -29.607  0.00  0.00     0.083 H 
ATOM     22  CBG 8IR d   1      28.450   6.342 -27.213  0.00  0.00    -0.055 A 
ATOM     23  H3  8IR d   1      30.449   7.120 -27.161  0.00  0.00     0.083 H 
ATOM     24  H4  8IR d   1      28.405   6.193 -26.140  0.00  0.00     0.087 H 
ENDBRANCH  12  14
BRANCH  12  25
ATOM     25  C4  8IR d   1      25.161   6.251 -27.241  0.00  0.00     0.140 A 
ATOM     26  N3  8IR d   1      24.022   5.796 -27.807  0.00  0.00    -0.224 NA
ATOM     27  C2  8IR d   1      22.833   6.500 -27.671  0.00  0.00     0.088 A 
ATOM     28  N1  8IR d   1      22.800   7.686 -26.926  0.00  0.00    -0.254 NA
ATOM     29  H5  8IR d   1      21.929   6.131 -28.142  0.00  0.00     0.146 H 
ATOM     30  C6  8IR d   1      23.981   8.146 -26.318  0.00  0.00     0.007 A 
ATOM     31  C5  8IR d   1      25.156   7.423 -26.483  0.00  0.00    -0.021 A 
ATOM     32  H6  8IR d   1      23.975   9.055 -25.727  0.00  0.00     0.115 H 
ATOM     33  H7  8IR d   1      26.073   7.771 -26.021  0.00  0.00     0.091 H 
ENDBRANCH  12  25
ENDBRANCH   1  11
BRANCH   6  34
ATOM     34  NAA 8IR d   1      30.892   1.337 -27.967  0.00  0.00    -0.323 N 
ATOM     35  CAB 8IR d   1      31.186   0.121 -27.443  0.00  0.00     0.256 C 
ATOM     36  OAC 8IR d   1      30.493  -0.502 -26.641  0.00  0.00    -0.267 OA
ATOM     37  H12 8IR d   1      31.529   1.744 -28.621  0.00  0.00     0.169 HD
BRANCH  35  38
ATOM     38  CAD 8IR d   1      32.415  -0.388 -27.872  0.00  0.00     0.032 A 
ATOM     39  CAE 8IR d   1      32.786  -1.704 -27.671  0.00  0.00    -0.065 A 
ATOM     40  CAF 8IR d   1      34.035  -2.145 -28.096  0.00  0.00    -0.050 A 
ATOM     41  H13 8IR d   1      32.105  -2.392 -27.183  0.00  0.00     0.085 H 
ATOM     42  CAG 8IR d   1      34.929  -1.275 -28.721  0.00  0.00     0.068 A 
ATOM     43  H14 8IR d   1      34.318  -3.180 -27.939  0.00  0.00     0.087 H 
ATOM     44  CAJ 8IR d   1      34.558   0.037 -28.935  0.00  0.00    -0.050 A 
ATOM     45  CAK 8IR d   1      33.307   0.465 -28.503  0.00  0.00    -0.065 A 
ATOM     46  H18 8IR d   1      35.232   0.725 -29.433  0.00  0.00     0.087 H 
ATOM     47  H19 8IR d   1      33.021   1.498 -28.665  0.00  0.00     0.085 H 
BRANCH  42  48
ATOM     48  OAH 8IR d   1      36.116  -1.747 -29.149  0.00  0.00    -0.356 OA
BRANCH  48  49
ATOM     49  CAI 8IR d   1      37.223  -0.836 -29.133  0.00  0.00     0.010 C 
ATOM     50  H15 8IR d   1      38.124  -1.347 -29.505  0.00  0.00     0.066 H 
ATOM     51  H16 8IR d   1      37.397  -0.488 -28.104  0.00  0.00     0.066 H 
ATOM     52  H17 8IR d   1      36.998   0.026 -29.778  0.00  0.00     0.066 H 
ENDBRANCH  48  49
ENDBRANCH  42  48
ENDBRANCH  35  38
ENDBRANCH   6  34
TORSDOF 7
