REMARK WARNING: 32 MAX_TORS EXCEEDED!!!
REMARK  65 active torsions:
REMARK  status: ('A' for Active; 'I' for Inactive)
REMARK    1  A    between atoms: N_1  and  CA_2 
REMARK    2  A    between atoms: CA_2  and  C_3 
REMARK    3  A    between atoms: CA_2  and  CB_5 
REMARK       I    between atoms: C_3  and  N_10 
REMARK    4  A    between atoms: CB_5  and  CG_6 
REMARK    5  A    between atoms: CG_6  and  CD_7 
REMARK    6  A    between atoms: CD_7  and  CE_8 
REMARK    7  A    between atoms: CE_8  and  NZ_9 
REMARK    8  A    between atoms: N_10  and  CA_11 
REMARK    9  A    between atoms: CA_11  and  C_12 
REMARK   10  A    between atoms: CA_11  and  CB_14 
REMARK       I    between atoms: C_12  and  N_21 
REMARK   11  A    between atoms: CB_14  and  CG_15 
REMARK   12  A    between atoms: CG_15  and  CD_16 
REMARK   13  A    between atoms: CD_16  and  NE_17 
REMARK       I    between atoms: NE_17  and  CZ_18 
REMARK       I    between atoms: CZ_18  and  NH1_19 
REMARK       I    between atoms: CZ_18  and  NH2_20 
REMARK   14  A    between atoms: N_21  and  CA_22 
REMARK   15  A    between atoms: CA_22  and  C_23 
REMARK   16  A    between atoms: CA_22  and  CB_25 
REMARK       I    between atoms: C_23  and  N_30 
REMARK   17  A    between atoms: CB_25  and  CG_26 
REMARK   18  A    between atoms: CG_26  and  CD_27 
REMARK   19  A    between atoms: CD_27  and  CE_28 
REMARK   20  A    between atoms: CE_28  and  NZ_29 
REMARK   21  A    between atoms: N_30  and  CA_31 
REMARK   22  A    between atoms: CA_31  and  C_32 
REMARK   23  A    between atoms: CA_31  and  CB_34 
REMARK       I    between atoms: C_32  and  N_41 
REMARK   24  A    between atoms: CB_34  and  CG_35 
REMARK   25  A    between atoms: CG_35  and  CD_36 
REMARK   26  A    between atoms: CD_36  and  NE_37 
REMARK       I    between atoms: NE_37  and  CZ_38 
REMARK       I    between atoms: CZ_38  and  NH1_39 
REMARK       I    between atoms: CZ_38  and  NH2_40 
REMARK   27  A    between atoms: N_41  and  CA_42 
REMARK   28  A    between atoms: CA_42  and  C_43 
REMARK   29  A    between atoms: CA_42  and  CB_45 
REMARK       I    between atoms: C_43  and  N_50 
REMARK   30  A    between atoms: CB_45  and  CG_46 
REMARK   31  A    between atoms: CG_46  and  CD_47 
REMARK   32  A    between atoms: CD_47  and  CE_48 
REMARK   33  A    between atoms: CE_48  and  NZ_49 
REMARK   34  A    between atoms: N_50  and  CA_51 
REMARK   35  A    between atoms: CA_51  and  C_52 
REMARK   36  A    between atoms: CA_51  and  CB_54 
REMARK       I    between atoms: C_52  and  N_61 
REMARK   37  A    between atoms: CB_54  and  CG_55 
REMARK   38  A    between atoms: CG_55  and  CD_56 
REMARK   39  A    between atoms: CD_56  and  NE_57 
REMARK       I    between atoms: NE_57  and  CZ_58 
REMARK       I    between atoms: CZ_58  and  NH1_59 
REMARK       I    between atoms: CZ_58  and  NH2_60 
REMARK   40  A    between atoms: N_61  and  CA_62 
REMARK   41  A    between atoms: CA_62  and  C_63 
REMARK   42  A    between atoms: CA_62  and  CB_65 
REMARK       I    between atoms: C_63  and  N_70 
REMARK   43  A    between atoms: CB_65  and  CG_66 
REMARK   44  A    between atoms: CG_66  and  CD_67 
REMARK   45  A    between atoms: CD_67  and  CE_68 
REMARK   46  A    between atoms: CE_68  and  NZ_69 
REMARK   47  A    between atoms: N_70  and  CA_71 
REMARK   48  A    between atoms: CA_71  and  C_72 
REMARK   49  A    between atoms: CA_71  and  CB_74 
REMARK       I    between atoms: C_72  and  N_81 
REMARK   50  A    between atoms: CB_74  and  CG_75 
REMARK   51  A    between atoms: CG_75  and  CD_76 
REMARK   52  A    between atoms: CD_76  and  NE_77 
REMARK       I    between atoms: NE_77  and  CZ_78 
REMARK       I    between atoms: CZ_78  and  NH1_79 
REMARK       I    between atoms: CZ_78  and  NH2_80 
REMARK   53  A    between atoms: N_81  and  CA_82 
REMARK   54  A    between atoms: CA_82  and  C_83 
REMARK   55  A    between atoms: CA_82  and  CB_85 
REMARK       I    between atoms: C_83  and  N_90 
REMARK   56  A    between atoms: CB_85  and  CG_86 
REMARK   57  A    between atoms: CG_86  and  CD_87 
REMARK   58  A    between atoms: CD_87  and  CE_88 
REMARK   59  A    between atoms: CE_88  and  NZ_89 
REMARK   60  A    between atoms: N_90  and  CA_91 
REMARK   61  A    between atoms: CA_91  and  C_92 
REMARK   62  A    between atoms: CA_91  and  CB_94 
REMARK   63  A    between atoms: CB_94  and  CG_95 
REMARK   64  A    between atoms: CG_95  and  CD_96 
REMARK   65  A    between atoms: CD_96  and  NE_97 
REMARK       I    between atoms: NE_97  and  CZ_98 
REMARK       I    between atoms: CZ_98  and  NH2_100 
ROOT
ATOM      1  C   LYS d   1       6.240  47.533 -17.908  0.00  0.00     0.241 C 
ATOM      2  O   LYS d   1       5.130  47.104 -17.575  0.00  0.00    -0.271 OA
ATOM      3  N   ARG d   1       6.422  48.084 -19.065  0.00  0.00    -0.346 N 
ATOM      4  H68 ARG d   1       7.326  48.459 -19.270  0.00  0.00     0.163 HD
ENDROOT
BRANCH   3   5
ATOM      5  CA  ARG d   1       5.411  48.189 -20.066  0.00  0.00     0.089 C 
ATOM      6  H69 ARG d   1       4.482  47.709 -19.724  0.00  0.00     0.087 H 
BRANCH   5   7
ATOM      7  C   ARG d   1       5.908  47.593 -21.371  0.00  0.00     0.241 C 
ATOM      8  O   ARG d   1       6.873  48.038 -21.906  0.00  0.00    -0.271 OA
ATOM      9  N   LYS d   1       5.124  46.689 -21.961  0.00  0.00    -0.346 N 
ATOM     10  H81 LYS d   1       4.285  46.385 -21.510  0.00  0.00     0.163 HD
BRANCH   9  11
ATOM     11  CA  LYS d   1       5.485  46.150 -23.248  0.00  0.00     0.089 C 
ATOM     12  H82 LYS d   1       6.569  46.291 -23.370  0.00  0.00     0.087 H 
BRANCH  11  13
ATOM     13  C   LYS d   1       4.808  46.956 -24.338  0.00  0.00     0.241 C 
ATOM     14  O   LYS d   1       3.835  47.615 -24.123  0.00  0.00    -0.271 OA
ATOM     15  N   ARG d   1       5.344  46.828 -25.554  0.00  0.00    -0.346 N 
ATOM     16  H94 ARG d   1       6.148  46.244 -25.670  0.00  0.00     0.163 HD
BRANCH  15  17
ATOM     17  CA  ARG d   1       4.794  47.513 -26.721  0.00  0.00     0.089 C 
ATOM     18  H95 ARG d   1       3.927  48.119 -26.418  0.00  0.00     0.087 H 
BRANCH  17  19
ATOM     19  C   ARG d   1       4.352  46.442 -27.673  0.00  0.00     0.241 C 
ATOM     20  O   ARG d   1       5.170  45.895 -28.366  0.00  0.00    -0.271 OA
ATOM     21  N   LYS d   1       3.054  46.171 -27.736  0.00  0.00    -0.346 N 
ATOM     22 7H10 LYS d   1       2.397  46.751 -27.255  0.00  0.00     0.163 HD
BRANCH  21  23
ATOM     23  CA  LYS d   1       2.585  45.015 -28.516  0.00  0.00     0.089 C 
ATOM     24 8H10 LYS d   1       3.424  44.570 -29.072  0.00  0.00     0.087 H 
BRANCH  23  25
ATOM     25  C   LYS d   1       1.504  45.444 -29.428  0.00  0.00     0.241 C 
ATOM     26  O   LYS d   1       0.755  46.413 -29.058  0.00  0.00    -0.271 OA
ATOM     27  N   ARG d   1       1.444  44.826 -30.612  0.00  0.00    -0.345 N 
ATOM     28 0H12 ARG d   1       2.193  44.227 -30.897  0.00  0.00     0.163 HD
BRANCH  27  29
ATOM     29  CA  ARG d   1       0.301  45.016 -31.489  0.00  0.00     0.096 C 
ATOM     30 1H12 ARG d   1      -0.320  45.781 -31.000  0.00  0.00     0.089 H 
BRANCH  29  31
ATOM     31  C   ARG d   1      -0.563  43.762 -31.442  0.00  0.00     0.196 C 
ATOM     32  O   ARG d   1      -0.213  42.656 -30.886  0.00  0.00    -0.646 OA
ATOM     33  OXT ARG d   1      -1.785  43.766 -31.636  0.00  0.00    -0.646 OA
ENDBRANCH  29  31
BRANCH  29  34
ATOM     34  CB  ARG d   1       0.697  45.713 -32.900  0.00  0.00    -0.035 C 
ATOM     35 2H12 ARG d   1       1.218  46.655 -32.672  0.00  0.00     0.036 H 
ATOM     36 3H12 ARG d   1      -0.237  45.932 -33.438  0.00  0.00     0.036 H 
BRANCH  34  37
ATOM     37  CG  ARG d   1       1.553  44.940 -33.797  0.00  0.00    -0.047 C 
ATOM     38 4H12 ARG d   1       1.104  43.942 -33.906  0.00  0.00     0.035 H 
ATOM     39 5H12 ARG d   1       2.539  44.848 -33.318  0.00  0.00     0.035 H 
BRANCH  37  40
ATOM     40  CD  ARG d   1       1.773  45.504 -35.202  0.00  0.00     0.009 C 
ATOM     41 6H12 ARG d   1       0.813  45.518 -35.739  0.00  0.00     0.064 H 
ATOM     42 7H12 ARG d   1       2.485  44.861 -35.741  0.00  0.00     0.064 H 
BRANCH  40  43
ATOM     43  NE  ARG d   1       2.305  46.858 -35.142  0.00  0.00    -0.227 N 
ATOM     44  CZ  ARG d   1       3.593  47.199 -34.930  0.00  0.00     0.665 C 
ATOM     45  NH1 ARG d   1       4.549  46.281 -34.887  0.00  0.00    -0.235 N 
ATOM     46  NH2 ARG d   1       3.906  48.530 -34.925  0.00  0.00    -0.235 N 
ATOM     47 9H12 ARG d   1       5.526  46.562 -34.724  0.00  0.00     0.174 HD
ATOM     48 0H13 ARG d   1       4.314  45.286 -35.017  0.00  0.00     0.174 HD
ATOM     49 1H13 ARG d   1       3.156  49.236 -34.959  0.00  0.00     0.174 HD
ATOM     50 2H13 ARG d   1       4.891  48.827 -34.888  0.00  0.00     0.174 HD
ATOM     51 8H12 ARG d   1       1.634  47.629 -35.274  0.00  0.00     0.177 HD
ENDBRANCH  40  43
ENDBRANCH  37  40
ENDBRANCH  34  37
ENDBRANCH  29  34
ENDBRANCH  27  29
ENDBRANCH  23  25
BRANCH  23  52
ATOM     52  CB  LYS d   1       1.929  43.995 -27.616  0.00  0.00    -0.038 C 
ATOM     53 9H10 LYS d   1       1.509  43.206 -28.257  0.00  0.00     0.036 H 
ATOM     54 0H11 LYS d   1       1.115  44.501 -27.077  0.00  0.00     0.036 H 
BRANCH  52  55
ATOM     55  CG  LYS d   1       2.787  43.346 -26.617  0.00  0.00    -0.061 C 
ATOM     56 1H11 LYS d   1       3.148  44.087 -25.888  0.00  0.00     0.033 H 
ATOM     57 2H11 LYS d   1       3.647  42.867 -27.109  0.00  0.00     0.033 H 
BRANCH  55  58
ATOM     58  CD  LYS d   1       1.911  42.275 -25.905  0.00  0.00    -0.043 C 
ATOM     59 3H11 LYS d   1       1.691  41.448 -26.596  0.00  0.00     0.035 H 
ATOM     60 4H11 LYS d   1       0.969  42.727 -25.561  0.00  0.00     0.035 H 
BRANCH  58  61
ATOM     61  CE  LYS d   1       2.671  41.786 -24.771  0.00  0.00     0.080 C 
ATOM     62 5H11 LYS d   1       2.959  42.644 -24.146  0.00  0.00     0.075 H 
ATOM     63 6H11 LYS d   1       3.576  41.285 -25.145  0.00  0.00     0.075 H 
BRANCH  61  64
ATOM     64  NZ  LYS d   1       1.896  40.806 -23.916  0.00  0.00    -0.079 N 
ATOM     65 7H11 LYS d   1       2.472  40.502 -23.147  0.00  0.00     0.274 HD
ATOM     66 8H11 LYS d   1       1.632  40.009 -24.474  0.00  0.00     0.274 HD
ATOM     67 9H11 LYS d   1       1.067  41.255 -23.558  0.00  0.00     0.274 HD
ENDBRANCH  61  64
ENDBRANCH  58  61
ENDBRANCH  55  58
ENDBRANCH  52  55
ENDBRANCH  23  52
ENDBRANCH  21  23
ENDBRANCH  17  19
BRANCH  17  68
ATOM     68  CB  ARG d   1       5.822  48.425 -27.364  0.00  0.00    -0.036 C 
ATOM     69  H96 ARG d   1       5.304  49.076 -28.084  0.00  0.00     0.036 H 
ATOM     70  H97 ARG d   1       6.554  47.800 -27.896  0.00  0.00     0.036 H 
BRANCH  68  71
ATOM     71  CG  ARG d   1       6.586  49.320 -26.361  0.00  0.00    -0.048 C 
ATOM     72  H98 ARG d   1       7.215  50.013 -26.939  0.00  0.00     0.035 H 
ATOM     73  H99 ARG d   1       7.226  48.668 -25.748  0.00  0.00     0.035 H 
BRANCH  71  74
ATOM     74  CD  ARG d   1       5.740  50.136 -25.432  0.00  0.00     0.009 C 
ATOM     75 0H10 ARG d   1       6.391  50.677 -24.729  0.00  0.00     0.064 H 
ATOM     76 1H10 ARG d   1       5.069  49.468 -24.871  0.00  0.00     0.064 H 
BRANCH  74  77
ATOM     77  NE  ARG d   1       4.946  51.092 -26.182  0.00  0.00    -0.227 N 
ATOM     78  CZ  ARG d   1       3.634  51.180 -26.179  0.00  0.00     0.665 C 
ATOM     79  NH1 ARG d   1       2.888  50.403 -25.398  0.00  0.00    -0.235 N 
ATOM     80  NH2 ARG d   1       3.051  52.074 -26.900  0.00  0.00    -0.235 N 
ATOM     81 3H10 ARG d   1       1.862  50.491 -25.413  0.00  0.00     0.174 HD
ATOM     82 4H10 ARG d   1       3.337  49.714 -24.778  0.00  0.00     0.174 HD
ATOM     83 5H10 ARG d   1       3.609  52.686 -27.512  0.00  0.00     0.174 HD
ATOM     84 6H10 ARG d   1       2.027  52.176 -26.865  0.00  0.00     0.174 HD
ATOM     85 2H10 ARG d   1       5.458  51.764 -26.771  0.00  0.00     0.177 HD
ENDBRANCH  74  77
ENDBRANCH  71  74
ENDBRANCH  68  71
ENDBRANCH  17  68
ENDBRANCH  15  17
ENDBRANCH  11  13
BRANCH  11  86
ATOM     86  CB  LYS d   1       5.229  44.622 -23.342  0.00  0.00    -0.038 C 
ATOM     87  H83 LYS d   1       5.478  44.287 -24.360  0.00  0.00     0.036 H 
ATOM     88  H84 LYS d   1       4.164  44.432 -23.144  0.00  0.00     0.036 H 
BRANCH  86  89
ATOM     89  CG  LYS d   1       6.042  43.834 -22.369  0.00  0.00    -0.061 C 
ATOM     90  H85 LYS d   1       5.673  44.016 -21.349  0.00  0.00     0.033 H 
ATOM     91  H86 LYS d   1       7.096  44.141 -22.437  0.00  0.00     0.033 H 
BRANCH  89  92
ATOM     92  CD  LYS d   1       5.922  42.352 -22.696  0.00  0.00    -0.043 C 
ATOM     93  H87 LYS d   1       6.265  42.193 -23.729  0.00  0.00     0.035 H 
ATOM     94  H88 LYS d   1       4.865  42.059 -22.611  0.00  0.00     0.035 H 
BRANCH  92  95
ATOM     95  CE  LYS d   1       6.740  41.472 -21.777  0.00  0.00     0.080 C 
ATOM     96  H89 LYS d   1       6.477  41.677 -20.729  0.00  0.00     0.075 H 
ATOM     97  H90 LYS d   1       7.812  41.664 -21.930  0.00  0.00     0.075 H 
BRANCH  95  98
ATOM     98  NZ  LYS d   1       6.424  40.046 -22.113  0.00  0.00    -0.079 N 
ATOM     99  H91 LYS d   1       6.956  39.434 -21.515  0.00  0.00     0.274 HD
ATOM    100  H92 LYS d   1       6.664  39.867 -23.076  0.00  0.00     0.274 HD
ATOM    101  H93 LYS d   1       5.440  39.878 -21.975  0.00  0.00     0.274 HD
ENDBRANCH  95  98
ENDBRANCH  92  95
ENDBRANCH  89  92
ENDBRANCH  86  89
ENDBRANCH  11  86
ENDBRANCH   9  11
ENDBRANCH   5   7
BRANCH   5 102
ATOM    102  CB  ARG d   1       5.190  49.671 -20.438  0.00  0.00    -0.036 C 
ATOM    103  H70 ARG d   1       6.121  50.045 -20.889  0.00  0.00     0.036 H 
ATOM    104  H71 ARG d   1       4.986  50.222 -19.509  0.00  0.00     0.036 H 
BRANCH 102 105
ATOM    105  CG  ARG d   1       4.043  49.966 -21.419  0.00  0.00    -0.048 C 
ATOM    106  H72 ARG d   1       4.044  49.202 -22.211  0.00  0.00     0.035 H 
ATOM    107  H73 ARG d   1       4.201  50.958 -21.866  0.00  0.00     0.035 H 
BRANCH 105 108
ATOM    108  CD  ARG d   1       2.704  49.949 -20.721  0.00  0.00     0.009 C 
ATOM    109  H74 ARG d   1       2.739  50.551 -19.801  0.00  0.00     0.064 H 
ATOM    110  H75 ARG d   1       2.409  48.919 -20.473  0.00  0.00     0.064 H 
BRANCH 108 111
ATOM    111  NE  ARG d   1       1.767  50.537 -21.690  0.00  0.00    -0.227 N 
ATOM    112  CZ  ARG d   1       1.060  49.792 -22.570  0.00  0.00     0.665 C 
ATOM    113  NH1 ARG d   1       1.059  48.442 -22.444  0.00  0.00    -0.235 N 
ATOM    114  NH2 ARG d   1       0.273  50.392 -23.458  0.00  0.00    -0.235 N 
ATOM    115  H77 ARG d   1       0.525  47.863 -23.108  0.00  0.00     0.174 HD
ATOM    116  H78 ARG d   1       1.593  47.995 -21.685  0.00  0.00     0.174 HD
ATOM    117  H79 ARG d   1       0.283  51.418 -23.544  0.00  0.00     0.174 HD
ATOM    118  H80 ARG d   1      -0.346  49.831 -24.060  0.00  0.00     0.174 HD
ATOM    119  H76 ARG d   1       1.644  51.560 -21.699  0.00  0.00     0.177 HD
ENDBRANCH 108 111
ENDBRANCH 105 108
ENDBRANCH 102 105
ENDBRANCH   5 102
ENDBRANCH   3   5
BRANCH   1 120
ATOM    120  CA  LYS d   1       7.456  47.337 -17.019  0.00  0.00     0.089 C 
ATOM    121  H56 LYS d   1       8.187  48.135 -17.216  0.00  0.00     0.087 H 
BRANCH 120 122
ATOM    122  N   LYS d   1       7.025  47.386 -15.590  0.00  0.00    -0.346 N 
ATOM    123  C   ARG d   1       7.428  48.324 -14.740  0.00  0.00     0.241 C 
ATOM    124  O   ARG d   1       8.130  49.277 -15.031  0.00  0.00    -0.271 OA
ATOM    125  H55 LYS d   1       6.402  46.678 -15.257  0.00  0.00     0.163 HD
BRANCH 123 126
ATOM    126  CA  ARG d   1       6.830  48.220 -13.343  0.00  0.00     0.089 C 
ATOM    127  H43 ARG d   1       6.486  47.193 -13.148  0.00  0.00     0.087 H 
BRANCH 126 128
ATOM    128  N   ARG d   1       7.776  48.614 -12.314  0.00  0.00    -0.346 N 
ATOM    129  C   LYS d   1       7.771  48.031 -11.173  0.00  0.00     0.241 C 
ATOM    130  O   LYS d   1       7.054  47.093 -10.912  0.00  0.00    -0.271 OA
ATOM    131  H42 ARG d   1       8.435  49.344 -12.497  0.00  0.00     0.163 HD
BRANCH 129 132
ATOM    132  CA  LYS d   1       8.875  48.442 -10.220  0.00  0.00     0.089 C 
ATOM    133  H30 LYS d   1       9.131  49.501 -10.368  0.00  0.00     0.087 H 
BRANCH 132 134
ATOM    134  N   LYS d   1       8.402  48.222  -8.852  0.00  0.00    -0.346 N 
ATOM    135  C   ARG d   1       8.229  49.210  -7.975  0.00  0.00     0.241 C 
ATOM    136  O   ARG d   1       8.389  50.361  -8.242  0.00  0.00    -0.271 OA
ATOM    137  H29 LYS d   1       8.199  47.287  -8.562  0.00  0.00     0.163 HD
BRANCH 135 138
ATOM    138  CA  ARG d   1       7.859  48.825  -6.518  0.00  0.00     0.089 C 
ATOM    139  H17 ARG d   1       7.912  47.730  -6.424  0.00  0.00     0.087 H 
BRANCH 138 140
ATOM    140  N   ARG d   1       8.822  49.406  -5.580  0.00  0.00    -0.346 N 
ATOM    141  C   LYS d   1       9.938  48.736  -5.194  0.00  0.00     0.248 C 
ATOM    142  O   LYS d   1      10.285  47.640  -5.688  0.00  0.00    -0.271 OA
ATOM    143  H16 ARG d   1       8.653  50.321  -5.214  0.00  0.00     0.163 HD
BRANCH 141 144
ATOM    144  CA  LYS d   1      10.876  49.345  -4.161  0.00  0.00     0.176 C 
ATOM    145  H4  LYS d   1      11.848  49.493  -4.653  0.00  0.00     0.099 H 
BRANCH 144 146
ATOM    146  N   LYS d   1      10.398  50.658  -3.684  0.00  0.00    -0.067 N 
ATOM    147  H1  LYS d   1      11.046  51.025  -3.004  0.00  0.00     0.275 HD
ATOM    148  H2  LYS d   1       9.490  50.551  -3.260  0.00  0.00     0.275 HD
ATOM    149  H3  LYS d   1      10.332  51.295  -4.463  0.00  0.00     0.275 HD
ENDBRANCH 144 146
BRANCH 144 150
ATOM    150  CB  LYS d   1      11.095  48.457  -2.957  0.00  0.00    -0.030 C 
ATOM    151  H5  LYS d   1      11.532  47.508  -3.300  0.00  0.00     0.036 H 
ATOM    152  H6  LYS d   1      10.120  48.263  -2.487  0.00  0.00     0.036 H 
BRANCH 150 153
ATOM    153  CG  LYS d   1      12.001  49.048  -1.934  0.00  0.00    -0.061 C 
ATOM    154  H7  LYS d   1      12.063  48.357  -1.080  0.00  0.00     0.033 H 
ATOM    155  H8  LYS d   1      11.575  50.006  -1.601  0.00  0.00     0.033 H 
BRANCH 153 156
ATOM    156  CD  LYS d   1      13.414  49.300  -2.459  0.00  0.00    -0.043 C 
ATOM    157  H9  LYS d   1      13.360  50.081  -3.232  0.00  0.00     0.035 H 
ATOM    158  H10 LYS d   1      13.787  48.367  -2.906  0.00  0.00     0.035 H 
BRANCH 156 159
ATOM    159  CE  LYS d   1      14.398  49.745  -1.405  0.00  0.00     0.080 C 
ATOM    160  H11 LYS d   1      15.424  49.644  -1.788  0.00  0.00     0.075 H 
ATOM    161  H12 LYS d   1      14.281  49.127  -0.502  0.00  0.00     0.075 H 
BRANCH 159 162
ATOM    162  NZ  LYS d   1      14.136  51.089  -1.098  0.00  0.00    -0.079 N 
ATOM    163  H13 LYS d   1      14.784  51.405  -0.394  0.00  0.00     0.274 HD
ATOM    164  H14 LYS d   1      13.194  51.177  -0.751  0.00  0.00     0.274 HD
ATOM    165  H15 LYS d   1      14.242  51.650  -1.929  0.00  0.00     0.274 HD
ENDBRANCH 159 162
ENDBRANCH 156 159
ENDBRANCH 153 156
ENDBRANCH 150 153
ENDBRANCH 144 150
ENDBRANCH 141 144
ENDBRANCH 138 140
BRANCH 138 166
ATOM    166  CB  ARG d   1       6.428  49.255  -6.217  0.00  0.00    -0.036 C 
ATOM    167  H18 ARG d   1       5.807  49.042  -7.099  0.00  0.00     0.036 H 
ATOM    168  H19 ARG d   1       6.423  50.337  -6.018  0.00  0.00     0.036 H 
BRANCH 166 169
ATOM    169  CG  ARG d   1       5.826  48.543  -5.021  0.00  0.00    -0.048 C 
ATOM    170  H20 ARG d   1       6.257  48.925  -4.084  0.00  0.00     0.035 H 
ATOM    171  H21 ARG d   1       5.997  47.459  -5.088  0.00  0.00     0.035 H 
BRANCH 169 172
ATOM    172  CD  ARG d   1       4.339  48.858  -5.096  0.00  0.00     0.009 C 
ATOM    173  H22 ARG d   1       3.774  48.117  -4.512  0.00  0.00     0.064 H 
ATOM    174  H23 ARG d   1       4.007  48.830  -6.144  0.00  0.00     0.064 H 
BRANCH 172 175
ATOM    175  NE  ARG d   1       4.119  50.161  -4.558  0.00  0.00    -0.227 N 
ATOM    176  CZ  ARG d   1       3.084  50.972  -4.828  0.00  0.00     0.665 C 
ATOM    177  NH1 ARG d   1       2.140  50.727  -5.727  0.00  0.00    -0.235 N 
ATOM    178  NH2 ARG d   1       3.035  52.095  -4.123  0.00  0.00    -0.235 N 
ATOM    179  H25 ARG d   1       1.378  51.405  -5.872  0.00  0.00     0.174 HD
ATOM    180  H26 ARG d   1       2.169  49.859  -6.280  0.00  0.00     0.174 HD
ATOM    181  H27 ARG d   1       3.763  52.295  -3.422  0.00  0.00     0.174 HD
ATOM    182  H28 ARG d   1       2.269  52.766  -4.277  0.00  0.00     0.174 HD
ATOM    183  H24 ARG d   1       4.825  50.515  -3.896  0.00  0.00     0.177 HD
ENDBRANCH 172 175
ENDBRANCH 169 172
ENDBRANCH 166 169
ENDBRANCH 138 166
ENDBRANCH 135 138
ENDBRANCH 132 134
BRANCH 132 184
ATOM    184  CB  LYS d   1      10.100  47.566 -10.475  0.00  0.00    -0.038 C 
ATOM    185  H31 LYS d   1      10.392  47.682 -11.529  0.00  0.00     0.036 H 
ATOM    186  H32 LYS d   1       9.820  46.519 -10.285  0.00  0.00     0.036 H 
BRANCH 184 187
ATOM    187  CG  LYS d   1      11.298  47.900  -9.612  0.00  0.00    -0.061 C 
ATOM    188  H33 LYS d   1      10.943  48.026  -8.579  0.00  0.00     0.033 H 
ATOM    189  H34 LYS d   1      11.718  48.850  -9.974  0.00  0.00     0.033 H 
BRANCH 187 190
ATOM    190  CD  LYS d   1      12.397  46.893  -9.596  0.00  0.00    -0.043 C 
ATOM    191  H35 LYS d   1      12.749  46.786 -10.633  0.00  0.00     0.035 H 
ATOM    192  H36 LYS d   1      11.957  45.943  -9.258  0.00  0.00     0.035 H 
BRANCH 190 193
ATOM    193  CE  LYS d   1      13.613  47.141  -8.743  0.00  0.00     0.080 C 
ATOM    194  H37 LYS d   1      14.297  46.288  -8.861  0.00  0.00     0.075 H 
ATOM    195  H38 LYS d   1      13.290  47.209  -7.694  0.00  0.00     0.075 H 
BRANCH 193 196
ATOM    196  NZ  LYS d   1      14.341  48.362  -9.079  0.00  0.00    -0.079 N 
ATOM    197  H39 LYS d   1      15.137  48.458  -8.468  0.00  0.00     0.274 HD
ATOM    198  H40 LYS d   1      13.733  49.158  -8.966  0.00  0.00     0.274 HD
ATOM    199  H41 LYS d   1      14.656  48.313 -10.035  0.00  0.00     0.274 HD
ENDBRANCH 193 196
ENDBRANCH 190 193
ENDBRANCH 187 190
ENDBRANCH 184 187
ENDBRANCH 132 184
ENDBRANCH 129 132
ENDBRANCH 126 128
BRANCH 126 200
ATOM    200  CB  ARG d   1       5.652  49.195 -13.362  0.00  0.00    -0.036 C 
ATOM    201  H44 ARG d   1       5.078  49.038 -14.287  0.00  0.00     0.036 H 
ATOM    202  H45 ARG d   1       6.043  50.223 -13.344  0.00  0.00     0.036 H 
BRANCH 200 203
ATOM    203  CG  ARG d   1       4.723  49.004 -12.171  0.00  0.00    -0.048 C 
ATOM    204  H46 ARG d   1       5.318  48.947 -11.247  0.00  0.00     0.035 H 
ATOM    205  H47 ARG d   1       4.151  48.073 -12.297  0.00  0.00     0.035 H 
BRANCH 203 206
ATOM    206  CD  ARG d   1       3.782  50.158 -12.086  0.00  0.00     0.009 C 
ATOM    207  H48 ARG d   1       3.057  49.983 -11.278  0.00  0.00     0.064 H 
ATOM    208  H49 ARG d   1       3.247  50.267 -13.041  0.00  0.00     0.064 H 
BRANCH 206 209
ATOM    209  NE  ARG d   1       4.562  51.414 -11.799  0.00  0.00    -0.227 N 
ATOM    210  CZ  ARG d   1       4.005  52.637 -11.740  0.00  0.00     0.665 C 
ATOM    211  NH1 ARG d   1       2.644  52.718 -11.869  0.00  0.00    -0.235 N 
ATOM    212  NH2 ARG d   1       4.725  53.703 -11.516  0.00  0.00    -0.235 N 
ATOM    213  H51 ARG d   1       2.177  53.635 -11.830  0.00  0.00     0.174 HD
ATOM    214  H52 ARG d   1       2.088  51.862 -12.005  0.00  0.00     0.174 HD
ATOM    215  H53 ARG d   1       5.748  53.623 -11.422  0.00  0.00     0.174 HD
ATOM    216  H54 ARG d   1       4.270  54.624 -11.434  0.00  0.00     0.174 HD
ATOM    217  H50 ARG d   1       5.576  51.332 -11.639  0.00  0.00     0.177 HD
ENDBRANCH 206 209
ENDBRANCH 203 206
ENDBRANCH 200 203
ENDBRANCH 126 200
ENDBRANCH 123 126
ENDBRANCH 120 122
BRANCH 120 218
ATOM    218  CB  LYS d   1       8.102  45.969 -17.289  0.00  0.00    -0.038 C 
ATOM    219  H57 LYS d   1       8.180  45.824 -18.377  0.00  0.00     0.036 H 
ATOM    220  H58 LYS d   1       7.461  45.185 -16.859  0.00  0.00     0.036 H 
BRANCH 218 221
ATOM    221  CG  LYS d   1       9.493  45.851 -16.680  0.00  0.00    -0.061 C 
ATOM    222  H59 LYS d   1       9.463  46.249 -15.655  0.00  0.00     0.033 H 
ATOM    223  H60 LYS d   1      10.193  46.447 -17.284  0.00  0.00     0.033 H 
BRANCH 221 224
ATOM    224  CD  LYS d   1      10.003  44.396 -16.629  0.00  0.00    -0.043 C 
ATOM    225  H61 LYS d   1       9.724  43.907 -17.574  0.00  0.00     0.035 H 
ATOM    226  H62 LYS d   1       9.499  43.891 -15.792  0.00  0.00     0.035 H 
BRANCH 224 227
ATOM    227  CE  LYS d   1      11.495  44.227 -16.442  0.00  0.00     0.080 C 
ATOM    228  H63 LYS d   1      12.021  44.703 -17.283  0.00  0.00     0.075 H 
ATOM    229  H64 LYS d   1      11.737  43.154 -16.418  0.00  0.00     0.075 H 
BRANCH 227 230
ATOM    230  NZ  LYS d   1      11.941  44.861 -15.161  0.00  0.00    -0.079 N 
ATOM    231  H65 LYS d   1      12.936  44.738 -15.054  0.00  0.00     0.274 HD
ATOM    232  H66 LYS d   1      11.464  44.426 -14.387  0.00  0.00     0.274 HD
ATOM    233  H67 LYS d   1      11.724  45.845 -15.180  0.00  0.00     0.274 HD
ENDBRANCH 227 230
ENDBRANCH 224 227
ENDBRANCH 221 224
ENDBRANCH 218 221
ENDBRANCH 120 218
ENDBRANCH   1 120
TORSDOF 65
