REMARK  8 active torsions:
REMARK  status: ('A' for Active; 'I' for Inactive)
REMARK    1  A    between atoms: N_2  and  C_1 
REMARK    2  A    between atoms: C14_18  and  N_2 
REMARK    3  A    between atoms: N_2  and  C15_19 
REMARK    4  A    between atoms: O_3  and  C10_14 
REMARK    5  A    between atoms: C13_17  and  O_3 
REMARK    6  A    between atoms: O01_5  and  C05_9 
REMARK    7  A    between atoms: C07_11  and  O01_5 
REMARK    8  A    between atoms: C13_17  and  C14_18 
ROOT
ATOM      1  C07 DP8 d   1      11.139   0.261  -0.219  0.00  0.00     0.076 A 
ATOM      2  C08 DP8 d   1      10.027   0.423   0.580  0.00  0.00    -0.048 A 
ATOM      3  C09 DP8 d   1       8.796   0.128   0.076  0.00  0.00    -0.048 A 
ATOM      4  C10 DP8 d   1       8.669  -0.352  -1.226  0.00  0.00     0.069 A 
ATOM      5  C11 DP8 d   1       9.783  -0.503  -2.034  0.00  0.00    -0.048 A 
ATOM      6  C12 DP8 d   1      11.019  -0.187  -1.531  0.00  0.00    -0.048 A 
ATOM      7  H10 DP8 d   1      10.131   0.781   1.598  0.00  0.00     0.087 H 
ATOM      8  H11 DP8 d   1       7.913   0.267   0.689  0.00  0.00     0.087 H 
ATOM      9  H12 DP8 d   1       9.680  -0.866  -3.050  0.00  0.00     0.087 H 
ATOM     10  H13 DP8 d   1      11.901  -0.286  -2.154  0.00  0.00     0.087 H 
ENDROOT
BRANCH   4  11
ATOM     11  O   DP8 d   1       7.348  -0.649  -1.689  0.00  0.00    -0.349 OA
BRANCH  11  12
ATOM     12  C13 DP8 d   1       7.194  -1.687  -2.642  0.00  0.00     0.049 C 
ATOM     13  H14 DP8 d   1       7.652  -2.617  -2.275  0.00  0.00     0.077 H 
ATOM     14  H15 DP8 d   1       7.657  -1.403  -3.598  0.00  0.00     0.077 H 
BRANCH  12  15
ATOM     15  C14 DP8 d   1       5.698  -1.865  -2.811  0.00  0.00     0.102 C 
ATOM     16  H16 DP8 d   1       5.315  -1.041  -3.431  0.00  0.00     0.079 H 
ATOM     17  H17 DP8 d   1       5.515  -2.823  -3.320  0.00  0.00     0.079 H 
BRANCH  15  18
ATOM     18  N   DP8 d   1       4.981  -1.867  -1.554  0.00  0.00    -0.077 N 
ATOM     19  H4  DP8 d   1       5.083  -0.968  -1.110  0.00  0.00     0.279 HD
BRANCH  18  20
ATOM     20  C   DP8 d   1       5.458  -2.894  -0.678  0.00  0.00     0.066 C 
ATOM     21  H1  DP8 d   1       4.891  -2.865   0.264  0.00  0.00     0.068 H 
ATOM     22  H2  DP8 d   1       6.526  -2.731  -0.469  0.00  0.00     0.068 H 
ATOM     23  H3  DP8 d   1       5.324  -3.876  -1.156  0.00  0.00     0.068 H 
ENDBRANCH  18  20
BRANCH  18  24
ATOM     24  C15 DP8 d   1       3.583  -2.143  -1.811  0.00  0.00     0.066 C 
ATOM     25  H18 DP8 d   1       3.029  -2.147  -0.861  0.00  0.00     0.068 H 
ATOM     26  H19 DP8 d   1       3.486  -3.126  -2.295  0.00  0.00     0.068 H 
ATOM     27  H20 DP8 d   1       3.171  -1.366  -2.472  0.00  0.00     0.068 H 
ENDBRANCH  18  24
ENDBRANCH  15  18
ENDBRANCH  12  15
ENDBRANCH  11  12
ENDBRANCH   4  11
BRANCH   1  28
ATOM     28  O01 DP8 d   1      12.418   0.624   0.289  0.00  0.00    -0.311 OA
BRANCH  28  29
ATOM     29  C05 DP8 d   1      13.029  -0.223   1.225  0.00  0.00     0.076 A 
ATOM     30  C04 DP8 d   1      13.416   0.309   2.438  0.00  0.00    -0.050 A 
ATOM     31  C03 DP8 d   1      14.060  -0.488   3.372  0.00  0.00    -0.080 A 
ATOM     32  H8  DP8 d   1      13.216   1.351   2.661  0.00  0.00     0.087 H 
ATOM     33  C02 DP8 d   1      14.323  -1.826   3.090  0.00  0.00    -0.083 A 
ATOM     34  H7  DP8 d   1      14.360  -0.068   4.325  0.00  0.00     0.083 H 
ATOM     35  C01 DP8 d   1      13.942  -2.365   1.873  0.00  0.00    -0.080 A 
ATOM     36  H6  DP8 d   1      14.826  -2.446   3.823  0.00  0.00     0.083 H 
ATOM     37  C06 DP8 d   1      13.288  -1.559   0.930  0.00  0.00    -0.050 A 
ATOM     38  H5  DP8 d   1      14.148  -3.406   1.650  0.00  0.00     0.083 H 
ATOM     39  H9  DP8 d   1      12.985  -1.974  -0.025  0.00  0.00     0.087 H 
ENDBRANCH  28  29
ENDBRANCH   1  28
TORSDOF 8
