REMARK  4 active torsions:
REMARK  status: ('A' for Active; 'I' for Inactive)
REMARK    1  A    between atoms: C23_6  and  C24_7 
REMARK    2  A    between atoms: C17_8  and  N16_9 
REMARK    3  A    between atoms: C12_10  and  C13_11 
REMARK       I    between atoms: C13_11  and  N15_12 
REMARK    4  A    between atoms: C1_16  and  C2_17 
ROOT
ATOM      1  N16 QUP d   1      31.917  13.945  -4.390  0.00  0.00    -0.316 N 
ATOM      2  C12 QUP d   1      30.892  13.220  -4.826  0.00  0.00     0.108 A 
ATOM      3  C11 QUP d   1      31.158  11.932  -4.379  0.00  0.00    -0.038 A 
ATOM      4  C25 QUP d   1      32.838  13.278  -3.700  0.00  0.00    -0.002 A 
ATOM      5  C1  QUP d   1      32.365  11.969  -3.681  0.00  0.00     0.013 A 
ATOM      6  H9  QUP d   1      30.537  11.053  -4.544  0.00  0.00     0.088 H 
ATOM      7  H10 QUP d   1      33.752  13.667  -3.253  0.00  0.00     0.113 H 
ENDROOT
BRANCH   1   8
ATOM      8  C17 QUP d   1      32.016  15.257  -4.629  0.00  0.00     0.046 A 
ATOM      9  C18 QUP d   1      32.702  15.763  -5.733  0.00  0.00    -0.035 A 
ATOM     10  C19 QUP d   1      32.816  17.122  -5.998  0.00  0.00     0.036 A 
ATOM     11  H1  QUP d   1      33.168  15.063  -6.417  0.00  0.00     0.089 H 
ATOM     12 CL   QUP d   1      33.720  17.683  -7.444  0.00  0.00    -0.084 Cl
ATOM     13  C21 QUP d   1      32.232  18.043  -5.145  0.00  0.00    -0.061 A 
ATOM     14  C22 QUP d   1      31.543  17.574  -4.039  0.00  0.00    -0.073 A 
ATOM     15  H2  QUP d   1      32.312  19.107  -5.338  0.00  0.00     0.086 H 
ATOM     16  C23 QUP d   1      31.442  16.209  -3.795  0.00  0.00    -0.035 A 
ATOM     17  H3  QUP d   1      31.078  18.277  -3.357  0.00  0.00     0.084 H 
BRANCH  16  18
ATOM     18  C24 QUP d   1      30.683  15.744  -2.581  0.00  0.00    -0.049 C 
ATOM     19  H4  QUP d   1      30.296  16.616  -2.034  0.00  0.00     0.033 H 
ATOM     20  H5  QUP d   1      31.355  15.169  -1.927  0.00  0.00     0.033 H 
ATOM     21  H6  QUP d   1      29.843  15.107  -2.895  0.00  0.00     0.033 H 
ENDBRANCH  16  18
ENDBRANCH   1   8
BRANCH   2  22
ATOM     22  C13 QUP d   1      29.718  13.685  -5.618  0.00  0.00     0.266 C 
ATOM     23  N15 QUP d   1      29.748  14.902  -6.154  0.00  0.00    -0.365 N 
ATOM     24  H7  QUP d   1      28.970  15.232  -6.689  0.00  0.00     0.159 HD
ATOM     25  H8  QUP d   1      30.548  15.487  -6.022  0.00  0.00     0.159 HD
ATOM     26  O14 QUP d   1      28.760  12.943  -5.757  0.00  0.00    -0.266 OA
ENDBRANCH   2  22
BRANCH   5  27
ATOM     27  C2  QUP d   1      33.033  10.808  -3.027  0.00  0.00     0.098 A 
ATOM     28  N10 QUP d   1      32.522   9.562  -3.157  0.00  0.00    -0.237 NA
ATOM     29  C9  QUP d   1      33.110   8.504  -2.576  0.00  0.00     0.107 A 
ATOM     30  N8  QUP d   1      34.224   8.651  -1.847  0.00  0.00    -0.161 NA
ATOM     31  H11 QUP d   1      32.675   7.513  -2.699  0.00  0.00     0.149 H 
ATOM     32  N7  QUP d   1      34.754   9.936  -1.711  0.00  0.00    -0.242 N 
ATOM     33  C3  QUP d   1      34.187  10.994  -2.278  0.00  0.00     0.087 A 
ATOM     34  C6  QUP d   1      35.852  10.272  -1.026  0.00  0.00     0.004 A 
ATOM     35  C4  QUP d   1      34.992  12.131  -1.930  0.00  0.00    -0.051 A 
ATOM     36  C5  QUP d   1      36.021  11.641  -1.148  0.00  0.00    -0.064 A 
ATOM     37  H14 QUP d   1      34.826  13.167  -2.222  0.00  0.00     0.087 H 
ATOM     38  H13 QUP d   1      36.824  12.229  -0.705  0.00  0.00     0.085 H 
ATOM     39  H12 QUP d   1      36.497   9.592  -0.472  0.00  0.00     0.114 H 
ENDBRANCH   5  27
TORSDOF 4
