REMARK WARNING: 32 MAX_TORS EXCEEDED!!!
REMARK  72 active torsions:
REMARK  status: ('A' for Active; 'I' for Inactive)
REMARK    1  A    between atoms: N_1  and  CA_2 
REMARK    2  A    between atoms: CA_2  and  C_3 
REMARK    3  A    between atoms: CA_2  and  CB_5 
REMARK       I    between atoms: C_3  and  N_9 
REMARK    4  A    between atoms: CB_5  and  CG_6 
REMARK       I    between atoms: CG_6  and  ND2_8 
REMARK    5  A    between atoms: N_9  and  CA_10 
REMARK    6  A    between atoms: CA_10  and  C_11 
REMARK    7  A    between atoms: CA_10  and  CB_13 
REMARK       I    between atoms: C_11  and  N_17 
REMARK    8  A    between atoms: CB_13  and  CG1_14 
REMARK    9  A    between atoms: CB_13  and  CG2_15 
REMARK   10  A    between atoms: CG1_14  and  CD1_16 
REMARK   11  A    between atoms: N_17  and  CA_18 
REMARK   12  A    between atoms: CA_18  and  C_19 
REMARK   13  A    between atoms: CA_18  and  CB_21 
REMARK       I    between atoms: C_19  and  N_26 
REMARK   14  A    between atoms: CB_21  and  CG_22 
REMARK   15  A    between atoms: CG_22  and  CD_23 
REMARK   16  A    between atoms: N_26  and  CA_27 
REMARK   17  A    between atoms: CA_27  and  C_28 
REMARK   18  A    between atoms: CA_27  and  CB_30 
REMARK       I    between atoms: C_28  and  N_37 
REMARK   19  A    between atoms: CB_30  and  CG_31 
REMARK   20  A    between atoms: N_37  and  CA_38 
REMARK   21  A    between atoms: CA_38  and  C_39 
REMARK   22  A    between atoms: CA_38  and  CB_41 
REMARK       I    between atoms: C_39  and  N_48 
REMARK   23  A    between atoms: CB_41  and  CG_42 
REMARK   24  A    between atoms: CG_42  and  CD_43 
REMARK   25  A    between atoms: CD_43  and  NE_44 
REMARK       I    between atoms: NE_44  and  CZ_45 
REMARK       I    between atoms: CZ_45  and  NH1_46 
REMARK   26  A    between atoms: N_48  and  CA_49 
REMARK   27  A    between atoms: CA_49  and  C_50 
REMARK   28  A    between atoms: CA_49  and  CB_52 
REMARK       I    between atoms: C_50  and  N_57 
REMARK   29  A    between atoms: CB_52  and  CG_53 
REMARK   30  A    between atoms: CG_53  and  CD_54 
REMARK   31  A    between atoms: CD_54  and  CE_55 
REMARK   32  A    between atoms: CE_55  and  NZ_56 
REMARK   33  A    between atoms: N_57  and  CA_58 
REMARK   34  A    between atoms: CA_58  and  C_59 
REMARK   35  A    between atoms: CA_58  and  CB_61 
REMARK       I    between atoms: C_59  and  N_62 
REMARK   36  A    between atoms: N_62  and  CA_63 
REMARK   37  A    between atoms: CA_63  and  C_64 
REMARK   38  A    between atoms: CA_63  and  CB_66 
REMARK       I    between atoms: C_64  and  N_73 
REMARK   39  A    between atoms: CB_66  and  CG_67 
REMARK   40  A    between atoms: N_73  and  CA_74 
REMARK   41  A    between atoms: CA_74  and  C_75 
REMARK   42  A    between atoms: CA_74  and  CB_77 
REMARK       I    between atoms: C_75  and  N_81 
REMARK   43  A    between atoms: CB_77  and  CG_78 
REMARK   44  A    between atoms: CG_78  and  CD1_79 
REMARK   45  A    between atoms: CG_78  and  CD2_80 
REMARK   46  A    between atoms: N_81  and  CA_82 
REMARK   47  A    between atoms: CA_82  and  C_83 
REMARK   48  A    between atoms: CA_82  and  CB_85 
REMARK       I    between atoms: C_83  and  N_90 
REMARK   49  A    between atoms: CB_85  and  CG_86 
REMARK   50  A    between atoms: CG_86  and  CD_87 
REMARK   51  A    between atoms: CD_87  and  CE_88 
REMARK   52  A    between atoms: CE_88  and  NZ_89 
REMARK   53  A    between atoms: N_90  and  CA_91 
REMARK   54  A    between atoms: CA_91  and  C_92 
REMARK   55  A    between atoms: CA_91  and  CB_94 
REMARK       I    between atoms: C_92  and  N_98 
REMARK   56  A    between atoms: CB_94  and  CG1_95 
REMARK   57  A    between atoms: CB_94  and  CG2_96 
REMARK   58  A    between atoms: CG1_95  and  CD1_97 
REMARK   59  A    between atoms: N_98  and  CA_99 
REMARK   60  A    between atoms: CA_99  and  C_100 
REMARK   61  A    between atoms: CA_99  and  CB_102 
REMARK       I    between atoms: C_100  and  N_106 
REMARK   62  A    between atoms: CB_102  and  CG_103 
REMARK   63  A    between atoms: CG_103  and  CD1_104 
REMARK   64  A    between atoms: CG_103  and  CD2_105 
REMARK   65  A    between atoms: N_106  and  CA_107 
REMARK   66  A    between atoms: CA_107  and  C_108 
REMARK   67  A    between atoms: CA_107  and  CB_110 
REMARK       I    between atoms: C_108  and  N_116 
REMARK   68  A    between atoms: CB_110  and  CG_111 
REMARK   69  A    between atoms: N_116  and  CA_117 
REMARK   70  A    between atoms: CA_117  and  C_118 
REMARK   71  A    between atoms: CA_117  and  CB_120 
REMARK   72  A    between atoms: CB_120  and  OG_121 
ROOT
ATOM      1  N   PHE d   1      -8.523  29.282 -29.062  0.00  0.00    -0.346 N 
ATOM      2  H66 PHE d   1      -7.661  29.192 -29.561  0.00  0.00     0.163 HD
ATOM      3  C   ALA d   1      -9.067  30.469 -28.842  0.00  0.00     0.240 C 
ATOM      4  O   ALA d   1     -10.080  30.597 -28.159  0.00  0.00    -0.271 OA
ENDROOT
BRANCH   1   5
ATOM      5  CA  PHE d   1      -9.221  28.119 -28.555  0.00  0.00     0.093 C 
ATOM      6  H67 PHE d   1     -10.293  28.346 -28.649  0.00  0.00     0.088 H 
BRANCH   5   7
ATOM      7  C   PHE d   1      -8.979  27.896 -27.060  0.00  0.00     0.241 C 
ATOM      8  O   PHE d   1      -9.872  27.436 -26.361  0.00  0.00    -0.271 OA
ATOM      9  N   LEU d   1      -7.815  28.291 -26.555  0.00  0.00    -0.346 N 
ATOM     10  H75 LEU d   1      -7.099  28.628 -27.166  0.00  0.00     0.163 HD
BRANCH   9  11
ATOM     11  CA  LEU d   1      -7.571  28.237 -25.116  0.00  0.00     0.089 C 
ATOM     12  H76 LEU d   1      -7.784  27.213 -24.774  0.00  0.00     0.087 H 
BRANCH  11  13
ATOM     13  C   LEU d   1      -8.506  29.196 -24.363  0.00  0.00     0.241 C 
ATOM     14  O   LEU d   1      -8.961  28.886 -23.264  0.00  0.00    -0.271 OA
ATOM     15  N   LYS d   1      -8.813  30.337 -24.979  0.00  0.00    -0.346 N 
ATOM     16  H86 LYS d   1      -8.400  30.531 -25.869  0.00  0.00     0.163 HD
BRANCH  15  17
ATOM     17  CA  LYS d   1      -9.728  31.310 -24.401  0.00  0.00     0.089 C 
ATOM     18  H87 LYS d   1      -9.352  31.580 -23.403  0.00  0.00     0.087 H 
BRANCH  17  19
ATOM     19  C   LYS d   1     -11.121  30.729 -24.244  0.00  0.00     0.241 C 
ATOM     20  O   LYS d   1     -11.769  30.938 -23.216  0.00  0.00    -0.271 OA
ATOM     21  N   ILE d   1     -11.582  30.016 -25.268  0.00  0.00    -0.346 N 
ATOM     22  H99 ILE d   1     -11.039  29.953 -26.105  0.00  0.00     0.163 HD
BRANCH  21  23
ATOM     23  CA  ILE d   1     -12.861  29.326 -25.193  0.00  0.00     0.092 C 
ATOM     24 0H10 ILE d   1     -13.646  30.080 -25.032  0.00  0.00     0.088 H 
BRANCH  23  25
ATOM     25  C   ILE d   1     -12.878  28.355 -24.006  0.00  0.00     0.241 C 
ATOM     26  O   ILE d   1     -13.874  28.248 -23.299  0.00  0.00    -0.271 OA
ATOM     27  N   LEU d   1     -11.761  27.683 -23.756  0.00  0.00    -0.346 N 
ATOM     28 0H11 LEU d   1     -10.953  27.837 -24.325  0.00  0.00     0.163 HD
BRANCH  27  29
ATOM     29  CA  LEU d   1     -11.701  26.724 -22.661  0.00  0.00     0.089 C 
ATOM     30 1H11 LEU d   1     -12.642  26.155 -22.658  0.00  0.00     0.087 H 
BRANCH  29  31
ATOM     31  C   LEU d   1     -11.544  27.389 -21.295  0.00  0.00     0.241 C 
ATOM     32  O   LEU d   1     -12.106  26.906 -20.312  0.00  0.00    -0.271 OA
ATOM     33  N   HIS d   1     -10.759  28.469 -21.223  0.00  0.00    -0.346 N 
ATOM     34 1H12 HIS d   1     -10.513  28.950 -22.065  0.00  0.00     0.163 HD
BRANCH  33  35
ATOM     35  CA  HIS d   1     -10.245  28.971 -19.929  0.00  0.00     0.094 C 
ATOM     36 2H12 HIS d   1     -10.743  28.388 -19.140  0.00  0.00     0.088 H 
BRANCH  35  37
ATOM     37  C   HIS d   1     -10.465  30.431 -19.626  0.00  0.00     0.241 C 
ATOM     38  O   HIS d   1     -10.106  30.884 -18.541  0.00  0.00    -0.271 OA
ATOM     39  N   SER d   1     -10.969  31.192 -20.591  0.00  0.00    -0.343 N 
ATOM     40 8H12 SER d   1     -11.288  30.773 -21.441  0.00  0.00     0.163 HD
BRANCH  39  41
ATOM     41  CA  SER d   1     -11.058  32.637 -20.414  0.00  0.00     0.116 C 
ATOM     42 9H12 SER d   1     -10.724  32.880 -19.395  0.00  0.00     0.093 H 
BRANCH  41  43
ATOM     43  C   SER d   1     -12.486  33.118 -20.573  0.00  0.00     0.198 C 
ATOM     44  O   SER d   1     -12.745  33.957 -21.426  0.00  0.00    -0.646 OA
ATOM     45  OXT SER d   1     -13.389  32.705 -19.843  0.00  0.00    -0.646 OA
ENDBRANCH  41  43
BRANCH  41  46
ATOM     46  CB  SER d   1     -10.138  33.357 -21.409  0.00  0.00     0.045 C 
ATOM     47 0H13 SER d   1     -10.552  33.253 -22.423  0.00  0.00     0.077 H 
ATOM     48 1H13 SER d   1      -9.138  32.900 -21.372  0.00  0.00     0.077 H 
BRANCH  46  49
ATOM     49  OG  SER d   1     -10.031  34.731 -21.091  0.00  0.00    -0.398 OA
ATOM     50 2H13 SER d   1     -10.892  35.131 -21.125  0.00  0.00     0.209 HD
ENDBRANCH  46  49
ENDBRANCH  41  46
ENDBRANCH  39  41
ENDBRANCH  35  37
BRANCH  35  51
ATOM     51  CB  HIS d   1      -8.734  28.743 -19.840  0.00  0.00     0.004 C 
ATOM     52 3H12 HIS d   1      -8.385  29.100 -18.860  0.00  0.00     0.046 H 
ATOM     53 4H12 HIS d   1      -8.246  29.323 -20.637  0.00  0.00     0.046 H 
BRANCH  51  54
ATOM     54  CG  HIS d   1      -8.341  27.313 -19.989  0.00  0.00     0.053 A 
ATOM     55  ND1 HIS d   1      -8.691  26.351 -19.070  0.00  0.00    -0.247 NA
ATOM     56  CE1 HIS d   1      -8.242  25.176 -19.475  0.00  0.00     0.064 A 
ATOM     57  NE2 HIS d   1      -7.607  25.345 -20.620  0.00  0.00    -0.359 N 
ATOM     58 6H12 HIS d   1      -8.373  24.229 -18.953  0.00  0.00     0.143 H 
ATOM     59  CD2 HIS d   1      -7.659  26.673 -20.966  0.00  0.00     0.002 A 
ATOM     60 7H12 HIS d   1      -7.147  24.602 -21.165  0.00  0.00     0.166 HD
ATOM     61 5H12 HIS d   1      -7.231  27.126 -21.859  0.00  0.00     0.114 H 
ENDBRANCH  51  54
ENDBRANCH  35  51
ENDBRANCH  33  35
ENDBRANCH  29  31
BRANCH  29  62
ATOM     62  CB  LEU d   1     -10.536  25.747 -22.879  0.00  0.00    -0.035 C 
ATOM     63 2H11 LEU d   1     -10.509  25.061 -22.020  0.00  0.00     0.037 H 
ATOM     64 3H11 LEU d   1      -9.607  26.335 -22.909  0.00  0.00     0.037 H 
BRANCH  62  65
ATOM     65  CG  LEU d   1     -10.592  24.898 -24.153  0.00  0.00    -0.059 C 
ATOM     66 4H11 LEU d   1     -10.655  25.576 -25.017  0.00  0.00     0.038 H 
BRANCH  65  67
ATOM     67  CD1 LEU d   1      -9.330  24.063 -24.286  0.00  0.00    -0.073 C 
ATOM     68 5H11 LEU d   1      -9.385  23.460 -25.204  0.00  0.00     0.028 H 
ATOM     69 6H11 LEU d   1      -9.237  23.398 -23.415  0.00  0.00     0.028 H 
ATOM     70 7H11 LEU d   1      -8.454  24.727 -24.335  0.00  0.00     0.028 H 
ENDBRANCH  65  67
BRANCH  65  71
ATOM     71  CD2 LEU d   1     -11.819  23.993 -24.163  0.00  0.00    -0.073 C 
ATOM     72 8H11 LEU d   1     -12.727  24.606 -24.066  0.00  0.00     0.028 H 
ATOM     73 9H11 LEU d   1     -11.761  23.288 -23.321  0.00  0.00     0.028 H 
ATOM     74 0H12 LEU d   1     -11.854  23.433 -25.109  0.00  0.00     0.028 H 
ENDBRANCH  65  71
ENDBRANCH  62  65
ENDBRANCH  29  62
ENDBRANCH  27  29
ENDBRANCH  23  25
BRANCH  23  75
ATOM     75  CB  ILE d   1     -13.177  28.581 -26.504  0.00  0.00    -0.030 C 
ATOM     76 1H10 ILE d   1     -12.274  28.043 -26.828  0.00  0.00     0.043 H 
BRANCH  75  77
ATOM     77  CG1 ILE d   1     -13.558  29.589 -27.593  0.00  0.00    -0.063 C 
ATOM     78 2H10 ILE d   1     -12.733  30.309 -27.698  0.00  0.00     0.033 H 
ATOM     79 3H10 ILE d   1     -14.467  30.117 -27.270  0.00  0.00     0.033 H 
BRANCH  77  80
ATOM     80  CD1 ILE d   1     -13.825  28.974 -28.950  0.00  0.00    -0.076 C 
ATOM     81 7H10 ILE d   1     -14.090  29.766 -29.666  0.00  0.00     0.027 H 
ATOM     82 8H10 ILE d   1     -14.656  28.258 -28.871  0.00  0.00     0.027 H 
ATOM     83 9H10 ILE d   1     -12.923  28.451 -29.299  0.00  0.00     0.027 H 
ENDBRANCH  77  80
ENDBRANCH  75  77
BRANCH  75  84
ATOM     84  CG2 ILE d   1     -14.288  27.560 -26.281  0.00  0.00    -0.071 C 
ATOM     85 4H10 ILE d   1     -13.984  26.853 -25.495  0.00  0.00     0.028 H 
ATOM     86 5H10 ILE d   1     -14.475  27.011 -27.216  0.00  0.00     0.028 H 
ATOM     87 6H10 ILE d   1     -15.207  28.079 -25.971  0.00  0.00     0.028 H 
ENDBRANCH  75  84
ENDBRANCH  23  75
ENDBRANCH  21  23
ENDBRANCH  17  19
BRANCH  17  88
ATOM     88  CB  LYS d   1      -9.787  32.578 -25.250  0.00  0.00    -0.038 C 
ATOM     89  H88 LYS d   1     -10.759  33.067 -25.087  0.00  0.00     0.036 H 
ATOM     90  H89 LYS d   1      -9.690  32.298 -26.309  0.00  0.00     0.036 H 
BRANCH  88  91
ATOM     91  CG  LYS d   1      -8.686  33.559 -24.904  0.00  0.00    -0.061 C 
ATOM     92  H90 LYS d   1      -7.715  33.055 -25.016  0.00  0.00     0.033 H 
ATOM     93  H91 LYS d   1      -8.814  33.881 -23.860  0.00  0.00     0.033 H 
BRANCH  91  94
ATOM     94  CD  LYS d   1      -8.707  34.785 -25.800  0.00  0.00    -0.043 C 
ATOM     95  H92 LYS d   1      -9.103  34.498 -26.785  0.00  0.00     0.035 H 
ATOM     96  H93 LYS d   1      -7.679  35.161 -25.913  0.00  0.00     0.035 H 
BRANCH  94  97
ATOM     97  CE  LYS d   1      -9.573  35.891 -25.227  0.00  0.00     0.080 C 
ATOM     98  H94 LYS d   1      -9.233  36.127 -24.208  0.00  0.00     0.075 H 
ATOM     99  H95 LYS d   1     -10.619  35.553 -25.196  0.00  0.00     0.075 H 
BRANCH  97 100
ATOM    100  NZ  LYS d   1      -9.476  37.114 -26.073  0.00  0.00    -0.079 N 
ATOM    101  H96 LYS d   1     -10.055  37.840 -25.682  0.00  0.00     0.274 HD
ATOM    102  H97 LYS d   1      -9.789  36.902 -27.008  0.00  0.00     0.274 HD
ATOM    103  H98 LYS d   1      -8.518  37.427 -26.102  0.00  0.00     0.274 HD
ENDBRANCH  97 100
ENDBRANCH  94  97
ENDBRANCH  91  94
ENDBRANCH  88  91
ENDBRANCH  17  88
ENDBRANCH  15  17
ENDBRANCH  11  13
BRANCH  11 104
ATOM    104  CB  LEU d   1      -6.107  28.553 -24.790  0.00  0.00    -0.035 C 
ATOM    105  H77 LEU d   1      -6.040  28.755 -23.711  0.00  0.00     0.037 H 
ATOM    106  H78 LEU d   1      -5.827  29.457 -25.350  0.00  0.00     0.037 H 
BRANCH 104 107
ATOM    107  CG  LEU d   1      -5.088  27.466 -25.123  0.00  0.00    -0.059 C 
ATOM    108  H79 LEU d   1      -5.144  27.265 -26.203  0.00  0.00     0.038 H 
BRANCH 107 109
ATOM    109  CD1 LEU d   1      -3.679  27.936 -24.798  0.00  0.00    -0.073 C 
ATOM    110  H80 LEU d   1      -2.961  27.140 -25.045  0.00  0.00     0.028 H 
ATOM    111  H81 LEU d   1      -3.610  28.173 -23.726  0.00  0.00     0.028 H 
ATOM    112  H82 LEU d   1      -3.447  28.835 -25.388  0.00  0.00     0.028 H 
ENDBRANCH 107 109
BRANCH 107 113
ATOM    113  CD2 LEU d   1      -5.393  26.177 -24.387  0.00  0.00    -0.073 C 
ATOM    114  H83 LEU d   1      -6.414  25.848 -24.631  0.00  0.00     0.028 H 
ATOM    115  H84 LEU d   1      -5.311  26.345 -23.303  0.00  0.00     0.028 H 
ATOM    116  H85 LEU d   1      -4.676  25.401 -24.693  0.00  0.00     0.028 H 
ENDBRANCH 107 113
ENDBRANCH 104 107
ENDBRANCH  11 104
ENDBRANCH   9  11
ENDBRANCH   5   7
BRANCH   5 117
ATOM    117  CB  PHE d   1      -8.986  26.871 -29.426  0.00  0.00    -0.014 C 
ATOM    118  H68 PHE d   1      -8.852  27.202 -30.466  0.00  0.00     0.043 H 
ATOM    119  H69 PHE d   1      -9.880  26.234 -29.356  0.00  0.00     0.043 H 
BRANCH 117 120
ATOM    120  CG  PHE d   1      -7.794  26.043 -29.045  0.00  0.00    -0.056 A 
ATOM    121  CD1 PHE d   1      -7.863  25.154 -27.982  0.00  0.00    -0.077 A 
ATOM    122  CE1 PHE d   1      -6.794  24.328 -27.673  0.00  0.00    -0.082 A 
ATOM    123  H70 PHE d   1      -8.766  25.105 -27.384  0.00  0.00     0.084 H 
ATOM    124  CZ  PHE d   1      -5.667  24.330 -28.474  0.00  0.00    -0.083 A 
ATOM    125  H72 PHE d   1      -6.841  23.681 -26.804  0.00  0.00     0.083 H 
ATOM    126  CE2 PHE d   1      -5.619  25.159 -29.578  0.00  0.00    -0.082 A 
ATOM    127  H74 PHE d   1      -4.828  23.686 -28.238  0.00  0.00     0.083 H 
ATOM    128  CD2 PHE d   1      -6.689  25.991 -29.874  0.00  0.00    -0.077 A 
ATOM    129  H73 PHE d   1      -4.742  25.159 -30.215  0.00  0.00     0.083 H 
ATOM    130  H71 PHE d   1      -6.658  26.607 -30.765  0.00  0.00     0.084 H 
ENDBRANCH 117 120
ENDBRANCH   5 117
ENDBRANCH   1   5
BRANCH   3 131
ATOM    131  CA  ALA d   1      -8.387  31.691 -29.450  0.00  0.00     0.086 C 
ATOM    132  H62 ALA d   1      -8.755  32.584 -28.924  0.00  0.00     0.086 H 
BRANCH 131 133
ATOM    133  N   ALA d   1      -6.938  31.629 -29.267  0.00  0.00    -0.346 N 
ATOM    134  C   LYS d   1      -6.402  31.613 -28.049  0.00  0.00     0.241 C 
ATOM    135  O   LYS d   1      -7.092  31.561 -27.024  0.00  0.00    -0.271 OA
ATOM    136  H61 ALA d   1      -6.341  31.598 -30.069  0.00  0.00     0.163 HD
BRANCH 134 137
ATOM    137  CA  LYS d   1      -4.864  31.624 -27.963  0.00  0.00     0.089 C 
ATOM    138  H49 LYS d   1      -4.575  31.245 -26.972  0.00  0.00     0.087 H 
BRANCH 137 139
ATOM    139  N   LYS d   1      -4.274  30.766 -28.972  0.00  0.00    -0.346 N 
ATOM    140  C   ARG d   1      -4.522  29.464 -28.999  0.00  0.00     0.241 C 
ATOM    141  O   ARG d   1      -5.216  28.899 -28.158  0.00  0.00    -0.271 OA
ATOM    142  H48 LYS d   1      -3.668  31.164 -29.661  0.00  0.00     0.163 HD
BRANCH 140 143
ATOM    143  CA  ARG d   1      -3.922  28.696 -30.162  0.00  0.00     0.089 C 
ATOM    144  H36 ARG d   1      -4.445  27.733 -30.251  0.00  0.00     0.087 H 
BRANCH 143 145
ATOM    145  N   ARG d   1      -4.076  29.425 -31.432  0.00  0.00    -0.346 N 
ATOM    146  C   PHE d   1      -5.268  29.737 -31.933  0.00  0.00     0.241 C 
ATOM    147  O   PHE d   1      -6.322  29.435 -31.383  0.00  0.00    -0.271 OA
ATOM    148  H35 ARG d   1      -3.255  29.695 -31.936  0.00  0.00     0.163 HD
BRANCH 146 149
ATOM    149  CA  PHE d   1      -5.268  30.482 -33.267  0.00  0.00     0.093 C 
ATOM    150  H27 PHE d   1      -6.287  30.843 -33.469  0.00  0.00     0.088 H 
BRANCH 149 151
ATOM    151  N   PHE d   1      -4.373  31.637 -33.205  0.00  0.00    -0.346 N 
ATOM    152  C   GLU d   1      -4.615  32.644 -32.371  0.00  0.00     0.241 C 
ATOM    153  O   GLU d   1      -5.662  32.735 -31.723  0.00  0.00    -0.271 OA
ATOM    154  H26 PHE d   1      -3.568  31.670 -33.798  0.00  0.00     0.163 HD
BRANCH 152 155
ATOM    155  CA  GLU d   1      -3.521  33.705 -32.228  0.00  0.00     0.090 C 
ATOM    156  H21 GLU d   1      -3.617  34.148 -31.226  0.00  0.00     0.087 H 
BRANCH 155 157
ATOM    157  N   GLU d   1      -2.180  33.110 -32.320  0.00  0.00    -0.346 N 
ATOM    158  C   ILE d   1      -1.686  32.412 -31.302  0.00  0.00     0.241 C 
ATOM    159  O   ILE d   1      -2.322  32.234 -30.264  0.00  0.00    -0.271 OA
ATOM    160  H20 GLU d   1      -1.637  33.231 -33.151  0.00  0.00     0.163 HD
BRANCH 158 161
ATOM    161  CA  ILE d   1      -0.280  31.806 -31.454  0.00  0.00     0.092 C 
ATOM    162  H10 ILE d   1      -0.275  30.865 -30.884  0.00  0.00     0.088 H 
BRANCH 161 163
ATOM    163  N   ILE d   1       0.038  31.460 -32.831  0.00  0.00    -0.346 N 
ATOM    164  C   ASN d   1      -0.612  30.476 -33.440  0.00  0.00     0.249 C 
ATOM    165  O   ASN d   1      -1.575  29.909 -32.930  0.00  0.00    -0.271 OA
ATOM    166  H9  ILE d   1       0.749  31.965 -33.320  0.00  0.00     0.163 HD
BRANCH 164 167
ATOM    167  CA  ASN d   1      -0.109  30.067 -34.823  0.00  0.00     0.183 C 
ATOM    168  H4  ASN d   1       0.805  30.637 -35.045  0.00  0.00     0.099 H 
BRANCH 167 169
ATOM    169  N   ASN d   1       0.218  28.616 -34.845  0.00  0.00    -0.066 N 
ATOM    170  H1  ASN d   1       0.548  28.360 -35.762  0.00  0.00     0.275 HD
ATOM    171  H2  ASN d   1      -0.608  28.082 -34.624  0.00  0.00     0.275 HD
ATOM    172  H3  ASN d   1       0.935  28.423 -34.164  0.00  0.00     0.275 HD
ENDBRANCH 167 169
BRANCH 167 173
ATOM    173  CB  ASN d   1      -1.155  30.383 -35.898  0.00  0.00     0.044 C 
ATOM    174  H5  ASN d   1      -2.023  29.724 -35.750  0.00  0.00     0.051 H 
ATOM    175  H6  ASN d   1      -0.713  30.191 -36.887  0.00  0.00     0.051 H 
BRANCH 173 176
ATOM    176  CG  ASN d   1      -1.623  31.821 -35.846  0.00  0.00     0.217 C 
ATOM    177  OD1 ASN d   1      -2.283  32.228 -34.901  0.00  0.00    -0.274 OA
ATOM    178  ND2 ASN d   1      -1.289  32.596 -36.869  0.00  0.00    -0.370 N 
ATOM    179  H7  ASN d   1      -1.573  33.555 -36.884  0.00  0.00     0.159 HD
ATOM    180  H8  ASN d   1      -0.753  32.222 -37.626  0.00  0.00     0.159 HD
ENDBRANCH 173 176
ENDBRANCH 167 173
ENDBRANCH 164 167
ENDBRANCH 161 163
BRANCH 161 181
ATOM    181  CB  ILE d   1       0.795  32.726 -30.817  0.00  0.00    -0.030 C 
ATOM    182  H11 ILE d   1       1.787  32.342 -31.097  0.00  0.00     0.043 H 
BRANCH 181 183
ATOM    183  CG1 ILE d   1       0.677  32.690 -29.287  0.00  0.00    -0.063 C 
ATOM    184  H12 ILE d   1       0.796  31.647 -28.960  0.00  0.00     0.033 H 
ATOM    185  H13 ILE d   1      -0.327  33.048 -29.013  0.00  0.00     0.033 H 
BRANCH 183 186
ATOM    186  CD1 ILE d   1       1.697  33.536 -28.547  0.00  0.00    -0.076 C 
ATOM    187  H17 ILE d   1       1.532  33.445 -27.463  0.00  0.00     0.027 H 
ATOM    188  H18 ILE d   1       1.588  34.589 -28.848  0.00  0.00     0.027 H 
ATOM    189  H19 ILE d   1       2.711  33.188 -28.794  0.00  0.00     0.027 H 
ENDBRANCH 183 186
ENDBRANCH 181 183
BRANCH 181 190
ATOM    190  CG2 ILE d   1       0.679  34.152 -31.331  0.00  0.00    -0.071 C 
ATOM    191  H14 ILE d   1       0.766  34.155 -32.428  0.00  0.00     0.028 H 
ATOM    192  H15 ILE d   1       1.483  34.764 -30.898  0.00  0.00     0.028 H 
ATOM    193  H16 ILE d   1      -0.296  34.569 -31.040  0.00  0.00     0.028 H 
ENDBRANCH 181 190
ENDBRANCH 161 181
ENDBRANCH 158 161
ENDBRANCH 155 157
BRANCH 155 194
ATOM    194  CB  GLU d   1      -3.714  34.831 -33.250  0.00  0.00    -0.029 C 
ATOM    195  H22 GLU d   1      -4.777  35.113 -33.259  0.00  0.00     0.037 H 
ATOM    196  H23 GLU d   1      -3.427  34.452 -34.242  0.00  0.00     0.037 H 
BRANCH 194 197
ATOM    197  CG  GLU d   1      -2.887  36.081 -32.954  0.00  0.00     0.018 C 
ATOM    198  H24 GLU d   1      -2.815  36.676 -33.876  0.00  0.00     0.049 H 
ATOM    199  H25 GLU d   1      -1.881  35.766 -32.642  0.00  0.00     0.049 H 
BRANCH 197 200
ATOM    200  CD  GLU d   1      -3.477  36.960 -31.859  0.00  0.00     0.172 C 
ATOM    201  OE1 GLU d   1      -4.715  37.014 -31.722  0.00  0.00    -0.648 OA
ATOM    202  OE2 GLU d   1      -2.702  37.642 -31.158  0.00  0.00    -0.648 OA
ENDBRANCH 197 200
ENDBRANCH 194 197
ENDBRANCH 155 194
ENDBRANCH 152 155
ENDBRANCH 149 151
BRANCH 149 203
ATOM    203  CB  PHE d   1      -4.860  29.525 -34.387  0.00  0.00    -0.014 C 
ATOM    204  H28 PHE d   1      -3.766  29.410 -34.365  0.00  0.00     0.043 H 
ATOM    205  H29 PHE d   1      -5.163  29.965 -35.348  0.00  0.00     0.043 H 
BRANCH 203 206
ATOM    206  CG  PHE d   1      -5.484  28.160 -34.271  0.00  0.00    -0.056 A 
ATOM    207  CD1 PHE d   1      -6.768  27.925 -34.743  0.00  0.00    -0.077 A 
ATOM    208  CE1 PHE d   1      -7.347  26.675 -34.627  0.00  0.00    -0.082 A 
ATOM    209  H30 PHE d   1      -7.323  28.731 -35.208  0.00  0.00     0.084 H 
ATOM    210  CZ  PHE d   1      -6.647  25.643 -34.035  0.00  0.00    -0.083 A 
ATOM    211  H32 PHE d   1      -8.350  26.505 -35.001  0.00  0.00     0.083 H 
ATOM    212  CE2 PHE d   1      -5.371  25.865 -33.552  0.00  0.00    -0.082 A 
ATOM    213  H34 PHE d   1      -7.097  24.661 -33.949  0.00  0.00     0.083 H 
ATOM    214  CD2 PHE d   1      -4.801  27.121 -33.659  0.00  0.00    -0.077 A 
ATOM    215  H33 PHE d   1      -4.817  25.056 -33.090  0.00  0.00     0.083 H 
ATOM    216  H31 PHE d   1      -3.808  27.294 -33.259  0.00  0.00     0.084 H 
ENDBRANCH 203 206
ENDBRANCH 149 203
ENDBRANCH 146 149
ENDBRANCH 143 145
BRANCH 143 217
ATOM    217  CB  ARG d   1      -2.447  28.429 -29.883  0.00  0.00    -0.036 C 
ATOM    218  H37 ARG d   1      -2.349  28.056 -28.853  0.00  0.00     0.036 H 
ATOM    219  H38 ARG d   1      -1.896  29.375 -29.984  0.00  0.00     0.036 H 
BRANCH 217 220
ATOM    220  CG  ARG d   1      -1.832  27.411 -30.824  0.00  0.00    -0.048 C 
ATOM    221  H39 ARG d   1      -1.954  27.762 -31.859  0.00  0.00     0.035 H 
ATOM    222  H40 ARG d   1      -2.352  26.450 -30.699  0.00  0.00     0.035 H 
BRANCH 220 223
ATOM    223  CD  ARG d   1      -0.353  27.210 -30.544  0.00  0.00     0.009 C 
ATOM    224  H41 ARG d   1      -0.235  26.689 -29.583  0.00  0.00     0.064 H 
ATOM    225  H42 ARG d   1       0.142  28.191 -30.492  0.00  0.00     0.064 H 
BRANCH 223 226
ATOM    226  NE  ARG d   1       0.265  26.418 -31.596  0.00  0.00    -0.227 N 
ATOM    227  CZ  ARG d   1       1.355  25.676 -31.446  0.00  0.00     0.665 C 
ATOM    228  NH1 ARG d   1       1.969  25.598 -30.276  0.00  0.00    -0.235 N 
ATOM    229  NH2 ARG d   1       1.821  24.990 -32.473  0.00  0.00    -0.235 N 
ATOM    230  H44 ARG d   1       2.814  25.018 -30.175  0.00  0.00     0.174 HD
ATOM    231  H45 ARG d   1       1.602  26.117 -29.466  0.00  0.00     0.174 HD
ATOM    232  H46 ARG d   1       1.349  25.046 -33.386  0.00  0.00     0.174 HD
ATOM    233  H47 ARG d   1       2.657  24.399 -32.361  0.00  0.00     0.174 HD
ATOM    234  H43 ARG d   1      -0.176  26.434 -32.527  0.00  0.00     0.177 HD
ENDBRANCH 223 226
ENDBRANCH 220 223
ENDBRANCH 217 220
ENDBRANCH 143 217
ENDBRANCH 140 143
ENDBRANCH 137 139
BRANCH 137 235
ATOM    235  CB  LYS d   1      -4.313  33.039 -28.119  0.00  0.00    -0.038 C 
ATOM    236  H50 LYS d   1      -4.679  33.445 -29.073  0.00  0.00     0.036 H 
ATOM    237  H51 LYS d   1      -3.215  32.978 -28.144  0.00  0.00     0.036 H 
BRANCH 235 238
ATOM    238  CG  LYS d   1      -4.705  33.998 -27.019  0.00  0.00    -0.061 C 
ATOM    239  H52 LYS d   1      -4.714  33.460 -26.059  0.00  0.00     0.033 H 
ATOM    240  H53 LYS d   1      -5.710  34.393 -27.228  0.00  0.00     0.033 H 
BRANCH 238 241
ATOM    241  CD  LYS d   1      -3.722  35.159 -26.930  0.00  0.00    -0.043 C 
ATOM    242  H54 LYS d   1      -2.736  34.767 -26.640  0.00  0.00     0.035 H 
ATOM    243  H55 LYS d   1      -4.076  35.865 -26.164  0.00  0.00     0.035 H 
BRANCH 241 244
ATOM    244  CE  LYS d   1      -3.585  35.901 -28.255  0.00  0.00     0.080 C 
ATOM    245  H56 LYS d   1      -4.579  35.985 -28.719  0.00  0.00     0.075 H 
ATOM    246  H57 LYS d   1      -2.919  35.327 -28.916  0.00  0.00     0.075 H 
BRANCH 244 247
ATOM    247  NZ  LYS d   1      -3.020  37.273 -28.076  0.00  0.00    -0.079 N 
ATOM    248  H58 LYS d   1      -2.947  37.726 -28.974  0.00  0.00     0.274 HD
ATOM    249  H59 LYS d   1      -2.106  37.208 -27.657  0.00  0.00     0.274 HD
ATOM    250  H60 LYS d   1      -3.627  37.811 -27.477  0.00  0.00     0.274 HD
ENDBRANCH 244 247
ENDBRANCH 241 244
ENDBRANCH 238 241
ENDBRANCH 235 238
ENDBRANCH 137 235
ENDBRANCH 134 137
ENDBRANCH 131 133
BRANCH 131 251
ATOM    251  CB  ALA d   1      -8.758  31.824 -30.919  0.00  0.00    -0.049 C 
ATOM    252  H63 ALA d   1      -9.853  31.868 -31.018  0.00  0.00     0.030 H 
ATOM    253  H64 ALA d   1      -8.374  30.956 -31.474  0.00  0.00     0.030 H 
ATOM    254  H65 ALA d   1      -8.316  32.745 -31.327  0.00  0.00     0.030 H 
ENDBRANCH 131 251
ENDBRANCH   3 131
TORSDOF 72
