REMARK  7 active torsions:
REMARK  status: ('A' for Active; 'I' for Inactive)
REMARK    1  A    between atoms: PAP_2  and  CAJ_5 
REMARK    2  A    between atoms: CAJ_5  and  CAI_6 
REMARK    3  A    between atoms: CAI_6  and  CAN_7 
REMARK    4  A    between atoms: CAL_10  and  CAA_11 
REMARK    5  A    between atoms: CAM_12  and  OAD_13 
REMARK    6  A    between atoms: CAO_14  and  C1_15 
REMARK    7  A    between atoms: C1_15  and  O2_16 
ROOT
ATOM      1  CAN 5B0 d   1      20.629 -58.041  52.292  0.00  0.00    -0.029 A 
ATOM      2  CAH 5B0 d   1      20.600 -56.658  52.138  0.00  0.00     0.009 A 
ATOM      3  NAK 5B0 d   1      19.558 -55.954  52.596  0.00  0.00    -0.263 NA
ATOM      4  CAL 5B0 d   1      18.539 -56.570  53.207  0.00  0.00     0.064 A 
ATOM      5  CAM 5B0 d   1      18.508 -57.934  53.391  0.00  0.00     0.098 A 
ATOM      6  CAO 5B0 d   1      19.578 -58.701  52.927  0.00  0.00     0.008 A 
ATOM      7  H5  5B0 d   1      21.422 -56.151  51.647  0.00  0.00     0.115 H 
ENDROOT
BRANCH   1   8
ATOM      8  CAI 5B0 d   1      21.800 -58.822  51.793  0.00  0.00    -0.027 C 
ATOM      9  H3  5B0 d   1      21.426 -59.631  51.149  0.00  0.00     0.041 H 
ATOM     10  H4  5B0 d   1      22.438 -58.148  51.202  0.00  0.00     0.041 H 
BRANCH   8  11
ATOM     11  CAJ 5B0 d   1      22.630 -59.427  52.867  0.00  0.00     0.043 C 
ATOM     12  H1  5B0 d   1      22.890 -58.615  53.562  0.00  0.00     0.054 H 
ATOM     13  H2  5B0 d   1      21.994 -60.161  53.383  0.00  0.00     0.054 H 
BRANCH  11  14
ATOM     14  PAP 5B0 d   1      24.178 -60.276  52.456  0.00  0.00     0.259 P 
ATOM     15  OAE 5B0 d   1      24.966 -60.492  53.778  0.00  0.00    -0.640 OA
ATOM     16  OAF 5B0 d   1      25.007 -59.388  51.487  0.00  0.00    -0.640 OA
ATOM     17  OAC 5B0 d   1      23.913 -61.609  51.823  0.00  0.00    -0.640 OA
ENDBRANCH  11  14
ENDBRANCH   8  11
ENDBRANCH   1   8
BRANCH   6  18
ATOM     18  C1  5B0 d   1      19.607 -60.186  53.108  0.00  0.00     0.044 C 
ATOM     19  H10 5B0 d   1      20.232 -60.395  53.989  0.00  0.00     0.081 H 
ATOM     20  H11 5B0 d   1      20.080 -60.615  52.212  0.00  0.00     0.081 H 
BRANCH  18  21
ATOM     21  O2  5B0 d   1      18.406 -60.844  53.292  0.00  0.00    -0.396 OA
ATOM     22  H12 5B0 d   1      17.979 -60.509  54.072  0.00  0.00     0.209 HD
ENDBRANCH  18  21
ENDBRANCH   6  18
BRANCH   5  23
ATOM     23  OAD 5B0 d   1      17.435 -58.511  54.028  0.00  0.00    -0.358 OA
ATOM     24  H9  5B0 d   1      17.564 -59.451  54.075  0.00  0.00     0.217 HD
ENDBRANCH   5  23
BRANCH   4  25
ATOM     25  CAA 5B0 d   1      17.391 -55.765  53.706  0.00  0.00    -0.033 C 
ATOM     26  H6  5B0 d   1      16.653 -56.431  54.176  0.00  0.00     0.035 H 
ATOM     27  H7  5B0 d   1      16.922 -55.234  52.864  0.00  0.00     0.035 H 
ATOM     28  H8  5B0 d   1      17.750 -55.035  54.446  0.00  0.00     0.035 H 
ENDBRANCH   4  25
TORSDOF 7
