REMARK  4 active torsions:
REMARK  status: ('A' for Active; 'I' for Inactive)
REMARK    1  A    between atoms: C1_1  and  N1_2 
REMARK    2  A    between atoms: C3_4  and  C4_5 
REMARK    3  A    between atoms: C3_4  and  O1_6 
REMARK    4  A    between atoms: C7_10  and  C8_11 
ROOT
ATOM      1  N1  42R d   1      12.284  32.086  10.390  0.00  0.00    -0.063 N 
ATOM      2  C2  42R d   1      11.498  32.713   9.365  0.00  0.00     0.118 C 
ATOM      3  C3  42R d   1      11.337  34.192   9.520  0.00  0.00     0.138 C 
ATOM      4  C5  42R d   1      12.549  34.923   9.986  0.00  0.00     0.164 C 
ATOM      5  O2  42R d   1      12.587  36.155  10.018  0.00  0.00    -0.295 OA
ATOM      6  C6  42R d   1      13.774  34.116  10.423  0.00  0.00     0.024 C 
ATOM      7  C7  42R d   1      13.582  32.634  10.628  0.00  0.00     0.135 C 
ATOM      8  H4  42R d   1      11.921  32.697  11.105  0.00  0.00     0.280 HD
ATOM      9  H5  42R d   1      10.497  32.257   9.373  0.00  0.00     0.081 H 
ATOM     10  H6  42R d   1      11.982  32.520   8.396  0.00  0.00     0.081 H 
ATOM     11  H11 42R d   1      14.128  34.539  11.375  0.00  0.00     0.048 H 
ATOM     12  H12 42R d   1      14.549  34.246   9.653  0.00  0.00     0.048 H 
ATOM     13  H13 42R d   1      13.325  32.797  11.685  0.00  0.00     0.092 H 
ENDROOT
BRANCH   7  14
ATOM     14  C8  42R d   1      14.733  31.798  11.039  0.00  0.00    -0.027 A 
ATOM     15  C9  42R d   1      15.025  31.591  12.377  0.00  0.00    -0.073 A 
ATOM     16  C10 42R d   1      16.091  30.830  12.714  0.00  0.00    -0.066 A 
ATOM     17  H14 42R d   1      14.405  32.035  13.147  0.00  0.00     0.084 H 
ATOM     18  C11 42R d   1      16.874  30.269  11.709  0.00  0.00     0.011 A 
ATOM     19  H15 42R d   1      16.333  30.659  13.757  0.00  0.00     0.085 H 
ATOM     20 BR1  42R d   1      18.404  29.163  12.155  0.00  0.00    -0.051 Br
ATOM     21  C12 42R d   1      16.592  30.471  10.406  0.00  0.00    -0.066 A 
ATOM     22  C13 42R d   1      15.512  31.243  10.060  0.00  0.00    -0.073 A 
ATOM     23  H16 42R d   1      17.214  30.027   9.637  0.00  0.00     0.085 H 
ATOM     24  H17 42R d   1      15.277  31.413   9.016  0.00  0.00     0.084 H 
ENDBRANCH   7  14
BRANCH   1  25
ATOM     25  C1  42R d   1      11.574  30.942  11.024  0.00  0.00     0.067 C 
ATOM     26  H1  42R d   1      10.581  30.828  10.566  0.00  0.00     0.068 H 
ATOM     27  H2  42R d   1      11.461  31.132  12.101  0.00  0.00     0.068 H 
ATOM     28  H3  42R d   1      12.155  30.020  10.873  0.00  0.00     0.068 H 
ENDBRANCH   1  25
BRANCH   3  29
ATOM     29  C4  42R d   1      10.205  34.360  10.463  0.00  0.00    -0.040 C 
ATOM     30  H7  42R d   1      10.023  35.432  10.630  0.00  0.00     0.032 H 
ATOM     31  H8  42R d   1      10.450  33.877  11.420  0.00  0.00     0.032 H 
ATOM     32  H9  42R d   1       9.302  33.896  10.039  0.00  0.00     0.032 H 
ENDBRANCH   3  29
BRANCH   3  33
ATOM     33  O1  42R d   1      10.995  34.752   8.332  0.00  0.00    -0.381 OA
ATOM     34  H10 42R d   1      10.813  35.676   8.459  0.00  0.00     0.211 HD
ENDBRANCH   3  33
TORSDOF 4
