REMARK  1 active torsions:
REMARK  status: ('A' for Active; 'I' for Inactive)
REMARK       I    between atoms: C02_2  and  N03_3 
REMARK       I    between atoms: C02_2  and  N12_12 
REMARK    1  A    between atoms: N03_3  and  C04_4 
ROOT
ATOM      1  O01 5VU d   1     -50.676  -0.989 -23.251  0.00  0.00    -0.247 OA
ATOM      2  C02 5VU d   1     -51.698  -1.591 -22.956  0.00  0.00     0.323 C 
ATOM      3  N03 5VU d   1     -52.561  -2.142 -23.974  0.00  0.00    -0.306 N 
ATOM      4  N12 5VU d   1     -52.007  -1.727 -21.562  0.00  0.00    -0.334 N 
ATOM      5  C13 5VU d   1     -51.199  -1.202 -20.497  0.00  0.00    -0.001 C 
ATOM      6  C14 5VU d   1     -52.074  -1.059 -19.304  0.00  0.00    -0.049 C 
ATOM      7  C15 5VU d   1     -53.288  -1.874 -19.597  0.00  0.00    -0.049 C 
ATOM      8  C16 5VU d   1     -53.138  -2.386 -20.990  0.00  0.00    -0.001 C 
ATOM      9  H1  5VU d   1     -53.392  -2.600 -23.659  0.00  0.00     0.171 HD
ATOM     10  H5  5VU d   1     -50.791  -0.222 -20.783  0.00  0.00     0.064 H 
ATOM     11  H6  5VU d   1     -50.373  -1.893 -20.276  0.00  0.00     0.064 H 
ATOM     12  H7  5VU d   1     -52.347  -0.004 -19.152  0.00  0.00     0.035 H 
ATOM     13  H8  5VU d   1     -51.564  -1.439 -18.406  0.00  0.00     0.035 H 
ATOM     14  H9  5VU d   1     -54.191  -1.250 -19.518  0.00  0.00     0.035 H 
ATOM     15  H10 5VU d   1     -53.360  -2.714 -18.891  0.00  0.00     0.035 H 
ATOM     16  H11 5VU d   1     -52.974  -3.474 -20.976  0.00  0.00     0.064 H 
ATOM     17  H12 5VU d   1     -54.042  -2.159 -21.574  0.00  0.00     0.064 H 
ENDROOT
BRANCH   3  18
ATOM     18  C04 5VU d   1     -52.346  -2.099 -25.403  0.00  0.00     0.075 A 
ATOM     19  C05 5VU d   1     -51.071  -2.051 -25.965  0.00  0.00    -0.051 A 
ATOM     20  C06 5VU d   1     -50.905  -2.038 -27.345  0.00  0.00    -0.043 A 
ATOM     21  H2  5VU d   1     -50.201  -2.023 -25.319  0.00  0.00     0.087 H 
ATOM     22  C07 5VU d   1     -52.020  -2.096 -28.169  0.00  0.00     0.119 A 
ATOM     23  H3  5VU d   1     -49.911  -1.983 -27.775  0.00  0.00     0.088 H 
ATOM     24  F08 5VU d   1     -51.869  -2.088 -29.484  0.00  0.00    -0.206 F 
ATOM     25  C09 5VU d   1     -53.292  -2.154 -27.626  0.00  0.00    -0.006 A 
ATOM     26  C10 5VU d   1     -53.449  -2.167 -26.244  0.00  0.00     0.146 A 
ATOM     27  H4  5VU d   1     -54.160  -2.189 -28.274  0.00  0.00     0.093 H 
ATOM     28  F11 5VU d   1     -54.667  -2.232 -25.713  0.00  0.00    -0.204 F 
ENDBRANCH   3  18
TORSDOF 1
