REMARK  2 active torsions:
REMARK  status: ('A' for Active; 'I' for Inactive)
REMARK    1  A    between atoms: C06_2  and  N07_3 
REMARK       I    between atoms: N07_3  and  C08_4 
REMARK       I    between atoms: C08_4  and  N10_5 
REMARK    2  A    between atoms: C02_14  and  C01_15 
ROOT
ATOM      1  N07 FHV d   1      -0.050  14.871  33.973  0.00  0.00    -0.309 N 
ATOM      2  C08 FHV d   1       0.012  13.997  32.815  0.00  0.00     0.322 C 
ATOM      3  N10 FHV d   1       1.157  13.036  32.595  0.00  0.00    -0.334 N 
ATOM      4  C14 FHV d   1       2.315  12.839  33.454  0.00  0.00    -0.001 C 
ATOM      5  C13 FHV d   1       2.937  11.582  33.070  0.00  0.00    -0.049 C 
ATOM      6  C12 FHV d   1       2.402  11.256  31.713  0.00  0.00    -0.049 C 
ATOM      7  C11 FHV d   1       1.258  12.189  31.470  0.00  0.00    -0.001 C 
ATOM      8  O09 FHV d   1      -0.883  14.007  31.921  0.00  0.00    -0.247 OA
ATOM      9  H2  FHV d   1       0.695  14.817  34.638  0.00  0.00     0.170 HD
ATOM     10  H3  FHV d   1       1.998  12.795  34.507  0.00  0.00     0.064 H 
ATOM     11  H4  FHV d   1       3.027  13.666  33.320  0.00  0.00     0.064 H 
ATOM     12  H5  FHV d   1       2.672  10.790  33.786  0.00  0.00     0.035 H 
ATOM     13  H6  FHV d   1       4.031  11.692  33.033  0.00  0.00     0.035 H 
ATOM     14  H7  FHV d   1       2.054  10.213  31.683  0.00  0.00     0.035 H 
ATOM     15  H8  FHV d   1       3.182  11.405  30.952  0.00  0.00     0.035 H 
ATOM     16  H9  FHV d   1       1.446  12.786  30.566  0.00  0.00     0.064 H 
ATOM     17  H10 FHV d   1       0.327  11.617  31.345  0.00  0.00     0.064 H 
ENDROOT
BRANCH   1  18
ATOM     18  C06 FHV d   1      -1.148  15.842  34.237  0.00  0.00     0.036 A 
ATOM     19  C15 FHV d   1      -0.919  16.901  35.118  0.00  0.00    -0.051 A 
ATOM     20  C02 FHV d   1      -1.964  17.827  35.377  0.00  0.00    -0.060 A 
ATOM     21  H1  FHV d   1       0.046  17.015  35.599  0.00  0.00     0.087 H 
ATOM     22  C03 FHV d   1      -3.222  17.725  34.790  0.00  0.00    -0.077 A 
ATOM     23  C04 FHV d   1      -3.449  16.712  33.927  0.00  0.00    -0.080 A 
ATOM     24  H13 FHV d   1      -4.001  18.442  35.020  0.00  0.00     0.084 H 
ATOM     25  C05 FHV d   1      -2.385  15.752  33.649  0.00  0.00    -0.057 A 
ATOM     26  H12 FHV d   1      -4.414  16.612  33.444  0.00  0.00     0.083 H 
ATOM     27  H11 FHV d   1      -2.578  14.941  32.956  0.00  0.00     0.086 H 
BRANCH  20  28
ATOM     28  C01 FHV d   1      -1.708  18.942  36.322  0.00  0.00    -0.051 C 
ATOM     29  H14 FHV d   1      -0.674  18.878  36.693  0.00  0.00     0.033 H 
ATOM     30  H15 FHV d   1      -2.406  18.872  37.169  0.00  0.00     0.033 H 
ATOM     31  H16 FHV d   1      -1.853  19.902  35.805  0.00  0.00     0.033 H 
ENDBRANCH  20  28
ENDBRANCH   1  18
TORSDOF 2
