REMARK  5 active torsions:
REMARK  status: ('A' for Active; 'I' for Inactive)
REMARK       I    between atoms: C02_2  and  N03_3 
REMARK    1  A    between atoms: C02_2  and  C08_8 
REMARK    2  A    between atoms: N03_3  and  C04_4 
REMARK    3  A    between atoms: C04_4  and  C05_5 
REMARK    4  A    between atoms: C05_5  and  C06_6 
REMARK    5  A    between atoms: C06_6  and  O07_7 
ROOT
ATOM      1  O01 9Z0 d   1      28.607   8.924 -26.683  0.00  0.00    -0.266 OA
ATOM      2  C02 9Z0 d   1      29.375   8.549 -27.562  0.00  0.00     0.268 C 
ATOM      3  N03 9Z0 d   1      30.783   8.387 -27.311  0.00  0.00    -0.356 N 
ATOM      4  H1  9Z0 d   1      31.343   8.046 -28.067  0.00  0.00     0.162 HD
ENDROOT
BRANCH   3   5
ATOM      5  C04 9Z0 d   1      31.460   8.670 -26.073  0.00  0.00    -0.003 C 
ATOM      6  H2  9Z0 d   1      31.149   9.684 -25.783  0.00  0.00     0.064 H 
ATOM      7  H3  9Z0 d   1      32.535   8.669 -26.308  0.00  0.00     0.064 H 
BRANCH   5   8
ATOM      8  C05 9Z0 d   1      31.304   7.819 -24.839  0.00  0.00    -0.031 C 
ATOM      9  H4  9Z0 d   1      32.193   7.987 -24.213  0.00  0.00     0.038 H 
ATOM     10  H5  9Z0 d   1      31.280   6.770 -25.168  0.00  0.00     0.038 H 
BRANCH   8  11
ATOM     11  C06 9Z0 d   1      30.105   8.038 -23.973  0.00  0.00     0.018 C 
ATOM     12  H6  9Z0 d   1      29.266   7.515 -24.455  0.00  0.00     0.074 H 
ATOM     13  H7  9Z0 d   1      29.909   9.120 -23.970  0.00  0.00     0.074 H 
BRANCH  11  14
ATOM     14  O07 9Z0 d   1      30.122   7.631 -22.649  0.00  0.00    -0.401 OA
ATOM     15  H8  9Z0 d   1      30.822   8.080 -22.190  0.00  0.00     0.209 HD
ENDBRANCH  11  14
ENDBRANCH   8  11
ENDBRANCH   5   8
ENDBRANCH   3   5
BRANCH   2  16
ATOM     16  C08 9Z0 d   1      28.879   8.262 -28.940  0.00  0.00     0.102 A 
ATOM     17  C09 9Z0 d   1      29.706   8.196 -30.054  0.00  0.00    -0.032 A 
ATOM     18  C10 9Z0 d   1      28.891   7.967 -31.149  0.00  0.00     0.047 A 
ATOM     19  H9  9Z0 d   1      30.790   8.304 -30.064  0.00  0.00     0.089 H 
ATOM     20 BR1  9Z0 d   1      29.476   7.791 -32.991  0.00  0.00    -0.048 Br
ATOM     21  C12 9Z0 d   1      27.581   7.906 -30.688  0.00  0.00     0.098 A 
ATOM     22 BR2  9Z0 d   1      26.025   7.580 -31.820  0.00  0.00    -0.030 Br
ATOM     23  N14 9Z0 d   1      27.605   8.070 -29.340  0.00  0.00    -0.345 N 
ATOM     24  H10 9Z0 d   1      26.782   8.051 -28.721  0.00  0.00     0.167 HD
ENDBRANCH   2  16
TORSDOF 5
