REMARK  3 active torsions:
REMARK  status: ('A' for Active; 'I' for Inactive)
REMARK    1  A    between atoms: C04_4  and  C05_5 
REMARK    2  A    between atoms: C05_5  and  C06_6 
REMARK    3  A    between atoms: C06_6  and  C07_7 
ROOT
ATOM      1  C05 OJD d   1      37.803 -12.332  15.061  0.00  0.00    -0.056 C 
ATOM      2  H4  OJD d   1      37.540 -11.505  14.385  0.00  0.00     0.034 H 
ATOM      3  H5  OJD d   1      37.267 -12.210  16.014  0.00  0.00     0.034 H 
ENDROOT
BRANCH   1   4
ATOM      4  C04 OJD d   1      39.314 -12.255  15.347  0.00  0.00    -0.030 C 
ATOM      5  C03 OJD d   1      39.731 -10.864  15.408  0.00  0.00     0.014 C 
ATOM      6  C02 OJD d   1      41.138 -10.897  14.856  0.00  0.00     0.217 C 
ATOM      7  H1  OJD d   1      39.080 -10.230  14.789  0.00  0.00     0.047 H 
ATOM      8  H2  OJD d   1      39.723 -10.496  16.444  0.00  0.00     0.047 H 
ATOM      9  O01 OJD d   1      42.000 -10.024  15.024  0.00  0.00    -0.274 OA
ATOM     10  N14 OJD d   1      41.300 -12.125  14.115  0.00  0.00    -0.361 N 
ATOM     11  C13 OJD d   1      40.073 -12.858  14.168  0.00  0.00    -0.001 C 
ATOM     12  H15 OJD d   1      42.132 -12.415  13.643  0.00  0.00     0.162 HD
ATOM     13  H13 OJD d   1      39.505 -12.731  13.235  0.00  0.00     0.064 H 
ATOM     14  H14 OJD d   1      40.267 -13.928  14.337  0.00  0.00     0.064 H 
ATOM     15  H3  OJD d   1      39.553 -12.780  16.284  0.00  0.00     0.043 H 
ENDBRANCH   1   4
BRANCH   1  16
ATOM     16  C06 OJD d   1      37.356 -13.592  14.441  0.00  0.00    -0.041 C 
ATOM     17  H6  OJD d   1      37.139 -14.317  15.240  0.00  0.00     0.040 H 
ATOM     18  H7  OJD d   1      38.168 -13.977  13.807  0.00  0.00     0.040 H 
BRANCH  16  19
ATOM     19  C07 OJD d   1      36.117 -13.431  13.589  0.00  0.00    -0.058 A 
ATOM     20  C08 OJD d   1      36.179 -12.590  12.478  0.00  0.00    -0.077 A 
ATOM     21  C09 OJD d   1      35.068 -12.397  11.671  0.00  0.00    -0.082 A 
ATOM     22  H8  OJD d   1      37.107 -12.081  12.243  0.00  0.00     0.084 H 
ATOM     23  C10 OJD d   1      33.868 -13.064  11.986  0.00  0.00    -0.083 A 
ATOM     24  H9  OJD d   1      35.122 -11.742  10.809  0.00  0.00     0.083 H 
ATOM     25  C11 OJD d   1      33.849 -13.918  13.139  0.00  0.00    -0.082 A 
ATOM     26  H10 OJD d   1      32.983 -12.936  11.374  0.00  0.00     0.083 H 
ATOM     27  C12 OJD d   1      34.910 -14.124  13.946  0.00  0.00    -0.077 A 
ATOM     28  H11 OJD d   1      32.923 -14.430  13.377  0.00  0.00     0.083 H 
ATOM     29  H12 OJD d   1      34.855 -14.774  14.812  0.00  0.00     0.084 H 
ENDBRANCH  16  19
ENDBRANCH   1  16
TORSDOF 3
