REMARK  14 active torsions:
REMARK  status: ('A' for Active; 'I' for Inactive)
REMARK    1  A    between atoms: C01_1  and  C02_2 
REMARK    2  A    between atoms: C02_2  and  C03_3 
REMARK    3  A    between atoms: C03_3  and  C04_4 
REMARK    4  A    between atoms: C04_4  and  C05_5 
REMARK    5  A    between atoms: C05_5  and  C06_6 
REMARK    6  A    between atoms: C06_6  and  C07_7 
REMARK    7  A    between atoms: C07_7  and  C08_8 
REMARK    8  A    between atoms: C08_8  and  C09_9 
REMARK    9  A    between atoms: C09_9  and  N10_10 
REMARK   10  A    between atoms: N13_13  and  C15_15 
REMARK   11  A    between atoms: C15_15  and  C16_16 
REMARK   12  A    between atoms: C16_16  and  O17_17 
REMARK   13  A    between atoms: C16_16  and  P18_18 
REMARK   14  A    between atoms: C16_16  and  P22_22 
ROOT
ATOM      1  C08 PVZ d   1      26.732   4.292  15.875  0.00  0.00    -0.050 C 
ATOM      2  H16 PVZ d   1      25.656   4.388  15.667  0.00  0.00     0.035 H 
ATOM      3  H17 PVZ d   1      26.933   4.589  16.915  0.00  0.00     0.035 H 
ENDROOT
BRANCH   1   4
ATOM      4  C07 PVZ d   1      27.517   5.232  14.921  0.00  0.00    -0.064 C 
ATOM      5  H14 PVZ d   1      28.555   4.871  14.882  0.00  0.00     0.033 H 
ATOM      6  H15 PVZ d   1      27.061   5.146  13.924  0.00  0.00     0.033 H 
BRANCH   4   7
ATOM      7  C06 PVZ d   1      27.560   6.739  15.286  0.00  0.00    -0.065 C 
ATOM      8  H12 PVZ d   1      27.002   6.890  16.222  0.00  0.00     0.033 H 
ATOM      9  H13 PVZ d   1      28.609   7.036  15.432  0.00  0.00     0.033 H 
BRANCH   7  10
ATOM     10  C05 PVZ d   1      26.937   7.642  14.185  0.00  0.00    -0.065 C 
ATOM     11  H10 PVZ d   1      26.244   7.028  13.591  0.00  0.00     0.033 H 
ATOM     12  H11 PVZ d   1      26.378   8.449  14.681  0.00  0.00     0.033 H 
BRANCH  10  13
ATOM     13  C04 PVZ d   1      27.947   8.283  13.225  0.00  0.00    -0.065 C 
ATOM     14  H8  PVZ d   1      28.303   7.519  12.519  0.00  0.00     0.033 H 
ATOM     15  H9  PVZ d   1      27.449   9.091  12.670  0.00  0.00     0.033 H 
BRANCH  13  16
ATOM     16  C03 PVZ d   1      29.167   8.872  13.988  0.00  0.00    -0.065 C 
ATOM     17  H6  PVZ d   1      29.554   9.732  13.421  0.00  0.00     0.033 H 
ATOM     18  H7  PVZ d   1      28.832   9.208  14.980  0.00  0.00     0.033 H 
BRANCH  16  19
ATOM     19  C02 PVZ d   1      30.304   7.852  14.172  0.00  0.00    -0.069 C 
ATOM     20  H4  PVZ d   1      29.864   6.891  14.477  0.00  0.00     0.032 H 
ATOM     21  H5  PVZ d   1      30.821   7.729  13.209  0.00  0.00     0.032 H 
BRANCH  19  22
ATOM     22  C01 PVZ d   1      31.335   8.269  15.226  0.00  0.00    -0.077 C 
ATOM     23  H1  PVZ d   1      32.114   7.496  15.303  0.00  0.00     0.027 H 
ATOM     24  H2  PVZ d   1      30.837   8.386  16.200  0.00  0.00     0.027 H 
ATOM     25  H3  PVZ d   1      31.794   9.224  14.932  0.00  0.00     0.027 H 
ENDBRANCH  19  22
ENDBRANCH  16  19
ENDBRANCH  13  16
ENDBRANCH  10  13
ENDBRANCH   7  10
ENDBRANCH   4   7
ENDBRANCH   1   4
BRANCH   1  26
ATOM     26  C09 PVZ d   1      27.154   2.808  15.682  0.00  0.00     0.000 C 
ATOM     27  H18 PVZ d   1      28.191   2.678  16.026  0.00  0.00     0.064 H 
ATOM     28  H19 PVZ d   1      27.086   2.547  14.616  0.00  0.00     0.064 H 
BRANCH  26  29
ATOM     29  N10 PVZ d   1      26.274   1.924  16.453  0.00  0.00    -0.352 N 
ATOM     30  C11 PVZ d   1      26.602   0.768  17.032  0.00  0.00    -0.005 A 
ATOM     31  C12 PVZ d   1      25.481   0.270  17.675  0.00  0.00    -0.004 A 
ATOM     32  H20 PVZ d   1      27.583   0.296  17.004  0.00  0.00     0.113 H 
ATOM     33  N13 PVZ d   1      24.481   1.139  17.450  0.00  0.00    -0.347 N 
ATOM     34  H21 PVZ d   1      25.421  -0.651  18.253  0.00  0.00     0.113 H 
ATOM     35  C14 PVZ d   1      24.961   2.160  16.695  0.00  0.00     0.044 A 
ATOM     36  H22 PVZ d   1      24.391   3.019  16.345  0.00  0.00     0.141 H 
BRANCH  33  37
ATOM     37  C15 PVZ d   1      23.094   1.091  17.881  0.00  0.00     0.054 C 
ATOM     38  H23 PVZ d   1      22.592   2.010  17.544  0.00  0.00     0.071 H 
ATOM     39  H24 PVZ d   1      23.072   1.042  18.980  0.00  0.00     0.071 H 
BRANCH  37  40
ATOM     40  C16 PVZ d   1      22.338  -0.095  17.334  0.00  0.00     0.301 C 
BRANCH  40  41
ATOM     41  O17 PVZ d   1      22.957  -1.250  17.857  0.00  0.00    -0.364 OA
ATOM     42  H25 PVZ d   1      22.438  -2.014  17.635  0.00  0.00     0.212 HD
ENDBRANCH  40  41
BRANCH  40  43
ATOM     43  P18 PVZ d   1      22.262  -0.343  15.509  0.00  0.00     0.311 P 
ATOM     44  O19 PVZ d   1      21.344   0.676  14.828  0.00  0.00    -0.637 OA
ATOM     45  O20 PVZ d   1      21.652  -1.740  15.435  0.00  0.00    -0.637 OA
ATOM     46  O21 PVZ d   1      23.680  -0.344  14.919  0.00  0.00    -0.637 OA
ENDBRANCH  40  43
BRANCH  40  47
ATOM     47  P22 PVZ d   1      20.645  -0.058  17.969  0.00  0.00     0.311 P 
ATOM     48  O23 PVZ d   1      20.169  -1.465  18.306  0.00  0.00    -0.637 OA
ATOM     49  O24 PVZ d   1      19.610   0.622  17.092  0.00  0.00    -0.637 OA
ATOM     50  O25 PVZ d   1      20.793   0.669  19.273  0.00  0.00    -0.637 OA
ENDBRANCH  40  47
ENDBRANCH  37  40
ENDBRANCH  33  37
ENDBRANCH  26  29
ENDBRANCH   1  26
TORSDOF 14
