REMARK  5 active torsions:
REMARK  status: ('A' for Active; 'I' for Inactive)
REMARK    1  A    between atoms: O5'_22  and  P_8 
REMARK    2  A    between atoms: C1'_30  and  N9_12 
REMARK    3  A    between atoms: C6_16  and  N6_17 
REMARK    4  A    between atoms: C5'_23  and  O5'_22 
REMARK    5  A    between atoms: C4'_24  and  C5'_23 
ROOT
ATOM      1  CB  ANZ d   1     -16.119   0.451  -9.805  0.00  0.00     0.030 A 
ATOM      2  CG  ANZ d   1     -17.096  -0.654  -9.525  0.00  0.00    -0.029 A 
ATOM      3  CD1 ANZ d   1     -17.456  -1.193  -8.294  0.00  0.00    -0.038 A 
ATOM      4  CD2 ANZ d   1     -17.641  -1.104 -10.691  0.00  0.00     0.014 A 
ATOM      5  CE1 ANZ d   1     -18.395  -2.226  -8.275  0.00  0.00     0.117 A 
ATOM      6  CE2 ANZ d   1     -18.570  -2.139 -10.692  0.00  0.00    -0.075 A 
ATOM      7  CZ  ANZ d   1     -18.948  -2.698  -9.469  0.00  0.00    -0.046 A 
ATOM      8  C4' ANZ d   1     -18.450  -1.132 -14.672  0.00  0.00     0.088 C 
ATOM      9  O4' ANZ d   1     -17.580  -1.948 -15.468  0.00  0.00    -0.353 OA
ATOM     10  C3' ANZ d   1     -17.608   0.010 -14.130  0.00  0.00     0.080 C 
ATOM     11  O3' ANZ d   1     -17.925   0.356 -12.786  0.00  0.00    -0.385 OA
ATOM     12  C2' ANZ d   1     -16.244  -0.635 -14.054  0.00  0.00     0.093 C 
ATOM     13  O2' ANZ d   1     -16.239  -1.175 -12.735  0.00  0.00    -0.383 OA
ATOM     14  C1' ANZ d   1     -16.212  -1.684 -15.151  0.00  0.00     0.138 C 
ATOM     15  F   ANZ d   1     -18.772  -2.776  -7.106  0.00  0.00    -0.206 F 
ATOM     16  O1  ANZ d   1     -16.250   0.604 -11.230  0.00  0.00    -0.391 OA
ATOM     17  B   ANZ d   1     -17.083  -0.366 -11.919  0.00  0.00     0.647 B 
ATOM     18  H   ANZ d   1     -15.095   0.161  -9.525  0.00  0.00     0.079 H 
ATOM     19  H   ANZ d   1     -16.396   1.375  -9.276  0.00  0.00     0.079 H 
ATOM     20  H   ANZ d   1     -17.019  -0.821  -7.374  0.00  0.00     0.089 H 
ATOM     21  H   ANZ d   1     -18.991  -2.504 -11.622  0.00  0.00     0.083 H 
ATOM     22  H   ANZ d   1     -19.674  -3.502  -9.446  0.00  0.00     0.088 H 
ATOM     23  H   ANZ d   1     -18.822  -1.718 -13.819  0.00  0.00     0.090 H 
ATOM     24  H   ANZ d   1     -17.643   0.892 -14.786  0.00  0.00     0.088 H 
ATOM     25  H   ANZ d   1     -15.424   0.086 -14.190  0.00  0.00     0.091 H 
ATOM     26  H   ANZ d   1     -15.721  -2.597 -14.784  0.00  0.00     0.122 H 
ENDROOT
BRANCH  14  27
ATOM     27  N9  ANZ d   1     -15.491  -1.196 -16.362  0.00  0.00    -0.294 N 
ATOM     28  C8  ANZ d   1     -15.411   0.072 -16.800  0.00  0.00     0.071 A 
ATOM     29  N7  ANZ d   1     -14.670   0.108 -17.928  0.00  0.00    -0.236 NA
ATOM     30  H   ANZ d   1     -15.871   0.935 -16.321  0.00  0.00     0.144 H 
ATOM     31  C5  ANZ d   1     -14.288  -1.152 -18.203  0.00  0.00     0.149 A 
ATOM     32  C6  ANZ d   1     -13.525  -1.721 -19.216  0.00  0.00     0.155 A 
ATOM     33  C4  ANZ d   1     -14.809  -1.969 -17.212  0.00  0.00     0.167 A 
ATOM     34  N1  ANZ d   1     -13.311  -3.055 -19.216  0.00  0.00    -0.222 NA
ATOM     35  C2  ANZ d   1     -13.825  -3.828 -18.247  0.00  0.00     0.091 A 
ATOM     36  N3  ANZ d   1     -14.566  -3.304 -17.256  0.00  0.00    -0.222 NA
ATOM     37  H   ANZ d   1     -13.639  -4.896 -18.264  0.00  0.00     0.146 H 
BRANCH  32  38
ATOM     38  N6  ANZ d   1     -13.002  -0.948 -20.194  0.00  0.00    -0.382 N 
ATOM     39  H   ANZ d   1     -12.438  -1.376 -20.942  0.00  0.00     0.157 HD
ATOM     40  H   ANZ d   1     -13.168   0.069 -20.191  0.00  0.00     0.157 HD
ENDBRANCH  32  38
ENDBRANCH  14  27
BRANCH   8  41
ATOM     41  C5' ANZ d   1     -19.650  -0.722 -15.508  0.00  0.00     0.059 C 
ATOM     42  H   ANZ d   1     -20.291  -0.029 -14.943  0.00  0.00     0.079 H 
ATOM     43  H   ANZ d   1     -19.320  -0.239 -16.440  0.00  0.00     0.079 H 
BRANCH  41  44
ATOM     44  O5' ANZ d   1     -20.358  -1.928 -15.798  0.00  0.00    -0.280 OA
BRANCH  44  45
ATOM     45  P   ANZ d   1     -21.430  -2.092 -16.990  0.00  0.00     0.422 P 
ATOM     46  O1P ANZ d   1     -22.767  -1.980 -16.297  0.00  0.00    -0.617 OA
ATOM     47  O2P ANZ d   1     -21.130  -3.470 -17.527  0.00  0.00    -0.617 OA
ATOM     48  O3P ANZ d   1     -21.144  -0.971 -17.958  0.00  0.00    -0.617 OA
ENDBRANCH  44  45
ENDBRANCH  41  44
ENDBRANCH   8  41
TORSDOF 5
