REMARK  4 active torsions:
REMARK  status: ('A' for Active; 'I' for Inactive)
REMARK    1  A    between atoms: O5'_22  and  P_8 
REMARK    2  A    between atoms: C1'_30  and  N9_12 
REMARK    3  A    between atoms: C5'_23  and  O5'_22 
REMARK    4  A    between atoms: C4'_24  and  C5'_23 
ROOT
ATOM      1  CB  ANZ d   1      26.501  58.879   9.972  0.00  0.00     0.030 C 
ATOM      2  CG  ANZ d   1      25.527  59.995   9.671  0.00  0.00    -0.029 A 
ATOM      3  CD1 ANZ d   1      25.139  60.518   8.443  0.00  0.00    -0.038 A 
ATOM      4  CD2 ANZ d   1      24.974  60.504  10.916  0.00  0.00     0.014 A 
ATOM      5  CE1 ANZ d   1      24.205  61.553   8.415  0.00  0.00     0.117 A 
ATOM      6  CE2 ANZ d   1      24.030  61.546  10.872  0.00  0.00    -0.075 A 
ATOM      7  CZ  ANZ d   1      23.655  62.073   9.613  0.00  0.00    -0.046 A 
ATOM      8  C4' ANZ d   1      24.250  60.671  14.847  0.00  0.00     0.088 C 
ATOM      9  O4' ANZ d   1      25.183  61.468  15.587  0.00  0.00    -0.353 OA
ATOM     10  C3' ANZ d   1      24.992  59.441  14.343  0.00  0.00     0.080 C 
ATOM     11  O3' ANZ d   1      24.662  59.085  13.007  0.00  0.00    -0.385 OA
ATOM     12  C2' ANZ d   1      26.407  59.944  14.280  0.00  0.00     0.093 C 
ATOM     13  O2' ANZ d   1      26.522  60.388  12.944  0.00  0.00    -0.383 OA
ATOM     14  C1' ANZ d   1      26.511  61.070  15.307  0.00  0.00     0.138 C 
ATOM     15  F   ANZ d   1      23.842  62.040   7.211  0.00  0.00    -0.206 F 
ATOM     16  O1  ANZ d   1      26.354  58.718  11.401  0.00  0.00    -0.391 OA
ATOM     17  B   ANZ d   1      25.567  59.741  12.122  0.00  0.00     0.647 B 
ATOM     18  H1  ANZ d   1      27.529  59.166   9.707  0.00  0.00     0.079 H 
ATOM     19  H2  ANZ d   1      26.228  57.957   9.437  0.00  0.00     0.079 H 
ATOM     20  H3  ANZ d   1      25.556  60.127   7.522  0.00  0.00     0.089 H 
ATOM     21  H5  ANZ d   1      23.598  61.938  11.786  0.00  0.00     0.083 H 
ATOM     22  H6  ANZ d   1      22.938  62.885   9.565  0.00  0.00     0.088 H 
ATOM     23  H13 ANZ d   1      23.875  61.233  13.979  0.00  0.00     0.090 H 
ATOM     24  H14 ANZ d   1      24.863  58.584  15.021  0.00  0.00     0.088 H 
ATOM     25  H16 ANZ d   1      27.144  59.157  14.499  0.00  0.00     0.091 H 
ATOM     26  H18 ANZ d   1      27.091  61.911  14.899  0.00  0.00     0.122 H 
ENDROOT
BRANCH  14  27
ATOM     27  N9  ANZ d   1      27.150  60.576  16.551  0.00  0.00    -0.294 N 
ATOM     28  C8  ANZ d   1      27.152  59.299  16.988  0.00  0.00     0.071 A 
ATOM     29  N7  ANZ d   1      27.829  59.205  18.153  0.00  0.00    -0.236 NA
ATOM     30  H7  ANZ d   1      26.676  58.465  16.475  0.00  0.00     0.144 H 
ATOM     31  C5  ANZ d   1      28.259  60.452  18.461  0.00  0.00     0.149 A 
ATOM     32  C6  ANZ d   1      29.027  61.043  19.563  0.00  0.00     0.155 A 
ATOM     33  C4  ANZ d   1      27.799  61.347  17.421  0.00  0.00     0.167 A 
ATOM     34  N6  ANZ d   1      29.478  60.251  20.569  0.00  0.00    -0.382 N 
ATOM     35  N1  ANZ d   1      29.264  62.370  19.534  0.00  0.00    -0.222 NA
ATOM     36  H8  ANZ d   1      30.017  60.661  21.345  0.00  0.00     0.157 HD
ATOM     37  H9  ANZ d   1      29.281  59.240  20.557  0.00  0.00     0.157 HD
ATOM     38  C2  ANZ d   1      28.812  63.143  18.528  0.00  0.00     0.091 A 
ATOM     39  N3  ANZ d   1      28.094  62.668  17.497  0.00  0.00    -0.222 NA
ATOM     40  H10 ANZ d   1      29.039  64.203  18.552  0.00  0.00     0.146 H 
ENDBRANCH  14  27
BRANCH   8  41
ATOM     41  C5' ANZ d   1      23.085  60.383  15.781  0.00  0.00     0.059 C 
ATOM     42  H11 ANZ d   1      22.238  59.970  15.213  0.00  0.00     0.079 H 
ATOM     43  H12 ANZ d   1      23.390  59.666  16.557  0.00  0.00     0.079 H 
BRANCH  41  44
ATOM     44  O5' ANZ d   1      22.714  61.636  16.383  0.00  0.00    -0.280 OA
BRANCH  44  45
ATOM     45  P   ANZ d   1      21.391  61.754  17.311  0.00  0.00     0.422 P 
ATOM     46  O1P ANZ d   1      21.558  60.568  18.234  0.00  0.00    -0.617 OA
ATOM     47  O2P ANZ d   1      20.203  61.660  16.393  0.00  0.00    -0.617 OA
ATOM     48  O3P ANZ d   1      21.645  63.099  17.972  0.00  0.00    -0.617 OA
ENDBRANCH  44  45
ENDBRANCH  41  44
ENDBRANCH   8  41
TORSDOF 4
