REMARK  10 active torsions:
REMARK  status: ('A' for Active; 'I' for Inactive)
REMARK    1  A    between atoms: O5'_37  and  P_2 
REMARK    2  A    between atoms: C6_9  and  N6_10 
REMARK    3  A    between atoms: C1'_14  and  N9_13 
REMARK    4  A    between atoms: C10_15  and  C33_28 
REMARK    5  A    between atoms: C16_21  and  O35_30 
REMARK    6  A    between atoms: C33_28  and  N34_29 
REMARK    7  A    between atoms: O35_30  and  C36_31 
REMARK    8  A    between atoms: C36_31  and  C37_32 
REMARK    9  A    between atoms: C5'_36  and  C4'_34 
REMARK   10  A    between atoms: C5'_36  and  O5'_37 
ROOT
ATOM      1  B   A52 d   1      15.573   5.681  11.165  0.00  0.00     0.650 B 
ATOM      2  O1  A52 d   1      14.434   6.632  11.216  0.00  0.00    -0.385 OA
ATOM      3  C1' A52 d   1      18.211   5.552  13.572  0.00  0.00     0.138 C 
ATOM      4  C10 A52 d   1      13.146   6.017  11.027  0.00  0.00     0.074 C 
ATOM      5  C11 A52 d   1      13.507   4.704  10.445  0.00  0.00    -0.022 A 
ATOM      6  C12 A52 d   1      14.868   4.513  10.512  0.00  0.00     0.048 A 
ATOM      7  C13 A52 d   1      12.624   3.765   9.893  0.00  0.00    -0.074 A 
ATOM      8  C14 A52 d   1      13.164   2.574   9.416  0.00  0.00    -0.080 A 
ATOM      9  C15 A52 d   1      14.542   2.366   9.476  0.00  0.00    -0.051 A 
ATOM     10  C16 A52 d   1      15.408   3.320  10.028  0.00  0.00     0.073 A 
ATOM     11  C2' A52 d   1      17.174   6.328  12.777  0.00  0.00     0.093 C 
ATOM     12  O2' A52 d   1      16.040   5.500  12.520  0.00  0.00    -0.383 OA
ATOM     13  C3' A52 d   1      17.772   6.484  11.396  0.00  0.00     0.080 C 
ATOM     14  O3' A52 d   1      16.654   6.348  10.511  0.00  0.00    -0.385 OA
ATOM     15  C4' A52 d   1      18.760   5.322  11.305  0.00  0.00     0.088 C 
ATOM     16  O4' A52 d   1      18.903   4.764  12.619  0.00  0.00    -0.353 OA
ATOM     17  H6  A52 d   1      17.712   4.892  14.297  0.00  0.00     0.122 H 
ATOM     18  H7  A52 d   1      12.500   6.600  10.355  0.00  0.00     0.091 H 
ATOM     19  H9  A52 d   1      11.559   3.960   9.840  0.00  0.00     0.084 H 
ATOM     20  H10 A52 d   1      12.516   1.811   8.999  0.00  0.00     0.083 H 
ATOM     21  H11 A52 d   1      14.954   1.442   9.085  0.00  0.00     0.087 H 
ATOM     22  H12 A52 d   1      16.908   7.281  13.257  0.00  0.00     0.091 H 
ATOM     23  H14 A52 d   1      18.278   7.450  11.250  0.00  0.00     0.088 H 
ATOM     24  H26 A52 d   1      18.372   4.564  10.609  0.00  0.00     0.090 H 
ENDROOT
BRANCH   4  25
ATOM     25  C33 A52 d   1      12.481   5.838  12.391  0.00  0.00     0.106 C 
ATOM     26  H16 A52 d   1      11.539   5.286  12.260  0.00  0.00     0.079 H 
ATOM     27  H17 A52 d   1      12.268   6.829  12.818  0.00  0.00     0.079 H 
BRANCH  25  28
ATOM     28  N34 A52 d   1      13.345   5.095  13.316  0.00  0.00    -0.077 N 
ATOM     29  H18 A52 d   1      12.879   4.994  14.204  0.00  0.00     0.274 HD
ATOM     30  H19 A52 d   1      14.209   5.597  13.445  0.00  0.00     0.274 HD
ATOM     31  H20 A52 d   1      13.541   4.183  12.934  0.00  0.00     0.274 HD
ENDBRANCH  25  28
ENDBRANCH   4  25
BRANCH  10  32
ATOM     32  O35 A52 d   1      16.751   3.092  10.085  0.00  0.00    -0.352 OA
BRANCH  32  33
ATOM     33  C36 A52 d   1      17.301   1.870   9.585  0.00  0.00     0.023 C 
ATOM     34  H21 A52 d   1      17.104   1.794   8.505  0.00  0.00     0.074 H 
ATOM     35  H22 A52 d   1      16.835   1.019  10.104  0.00  0.00     0.074 H 
BRANCH  33  36
ATOM     36  C37 A52 d   1      18.792   1.852   9.827  0.00  0.00    -0.056 C 
ATOM     37  H23 A52 d   1      19.215   0.912   9.442  0.00  0.00     0.030 H 
ATOM     38  H24 A52 d   1      18.989   1.928  10.906  0.00  0.00     0.030 H 
ATOM     39  H25 A52 d   1      19.258   2.703   9.308  0.00  0.00     0.030 H 
ENDBRANCH  33  36
ENDBRANCH  32  33
ENDBRANCH  10  32
BRANCH   3  40
ATOM     40  N9  A52 d   1      19.100   6.493  14.325  0.00  0.00    -0.294 N 
ATOM     41  C4  A52 d   1      19.606   6.233  15.531  0.00  0.00     0.167 A 
ATOM     42  N3  A52 d   1      19.508   5.144  16.334  0.00  0.00    -0.222 NA
ATOM     43  C5  A52 d   1      20.335   7.346  15.926  0.00  0.00     0.149 A 
ATOM     44  C2  A52 d   1      20.133   5.168  17.524  0.00  0.00     0.091 A 
ATOM     45  N1  A52 d   1      20.854   6.230  17.928  0.00  0.00    -0.222 NA
ATOM     46  H2  A52 d   1      20.054   4.307  18.177  0.00  0.00     0.146 H 
ATOM     47  C6  A52 d   1      20.964   7.336  17.161  0.00  0.00     0.155 A 
ATOM     48  N7  A52 d   1      20.245   8.265  14.945  0.00  0.00    -0.236 NA
ATOM     49  C8  A52 d   1      19.491   7.731  13.967  0.00  0.00     0.071 A 
ATOM     50  H5  A52 d   1      19.236   8.224  13.030  0.00  0.00     0.144 H 
BRANCH  47  51
ATOM     51  N6  A52 d   1      21.682   8.406  17.584  0.00  0.00    -0.382 N 
ATOM     52  H3  A52 d   1      21.758   9.243  16.989  0.00  0.00     0.157 HD
ATOM     53  H4  A52 d   1      22.152   8.381  18.500  0.00  0.00     0.157 HD
ENDBRANCH  47  51
ENDBRANCH   3  40
BRANCH  15  54
ATOM     54  C5' A52 d   1      20.125   5.781  10.840  0.00  0.00     0.059 C 
ATOM     55  H27 A52 d   1      20.517   6.544  11.528  0.00  0.00     0.079 H 
ATOM     56  H28 A52 d   1      20.052   6.203   9.827  0.00  0.00     0.079 H 
BRANCH  54  57
ATOM     57  O5' A52 d   1      20.990   4.647  10.831  0.00  0.00    -0.280 OA
BRANCH  57  58
ATOM     58  P   A52 d   1      22.331   4.646   9.952  0.00  0.00     0.422 P 
ATOM     59  O1P A52 d   1      23.003   3.347  10.298  0.00  0.00    -0.617 OA
ATOM     60  O2P A52 d   1      21.848   4.712   8.527  0.00  0.00    -0.617 OA
ATOM     61  O3P A52 d   1      23.045   5.899  10.377  0.00  0.00    -0.617 OA
ENDBRANCH  57  58
ENDBRANCH  54  57
ENDBRANCH  15  54
TORSDOF 10
