REMARK  10 active torsions:
REMARK  status: ('A' for Active; 'I' for Inactive)
REMARK    1  A    between atoms: O5'_38  and  P_2 
REMARK    2  A    between atoms: C6_9  and  N6_10 
REMARK    3  A    between atoms: C1'_15  and  N9_13 
REMARK    4  A    between atoms: C10_16  and  C33_29 
REMARK    5  A    between atoms: C16_22  and  O35_31 
REMARK    6  A    between atoms: C33_29  and  N34_30 
REMARK    7  A    between atoms: O35_31  and  C36_32 
REMARK    8  A    between atoms: C36_32  and  C37_33 
REMARK    9  A    between atoms: C5'_37  and  C4'_35 
REMARK   10  A    between atoms: C5'_37  and  O5'_38 
ROOT
ATOM      1  B   38Y d   1     -15.814   5.725 -11.027  0.00  0.00     0.650 B 
ATOM      2  O1  38Y d   1     -14.656   6.583 -11.084  0.00  0.00    -0.385 OA
ATOM      3 BR   38Y d   1     -11.192   3.856  -9.492  0.00  0.00    -0.050 Br
ATOM      4  C1' 38Y d   1     -18.467   5.584 -13.514  0.00  0.00     0.138 C 
ATOM      5  C10 38Y d   1     -13.412   5.924 -10.798  0.00  0.00     0.075 C 
ATOM      6  C11 38Y d   1     -13.848   4.618 -10.267  0.00  0.00    -0.005 A 
ATOM      7  C12 38Y d   1     -15.270   4.457 -10.444  0.00  0.00     0.049 A 
ATOM      8  C13 38Y d   1     -13.020   3.546  -9.700  0.00  0.00     0.019 A 
ATOM      9  C14 38Y d   1     -13.643   2.368  -9.269  0.00  0.00    -0.063 A 
ATOM     10  C15 38Y d   1     -15.022   2.205  -9.412  0.00  0.00    -0.050 A 
ATOM     11  C16 38Y d   1     -15.871   3.188  -9.957  0.00  0.00     0.073 A 
ATOM     12  C2' 38Y d   1     -17.421   6.339 -12.704  0.00  0.00     0.093 C 
ATOM     13  O2' 38Y d   1     -16.304   5.529 -12.398  0.00  0.00    -0.383 OA
ATOM     14  C3' 38Y d   1     -18.046   6.534 -11.346  0.00  0.00     0.080 C 
ATOM     15  O3' 38Y d   1     -16.963   6.337 -10.442  0.00  0.00    -0.385 OA
ATOM     16  C4' 38Y d   1     -19.071   5.403 -11.254  0.00  0.00     0.088 C 
ATOM     17  O4' 38Y d   1     -19.173   4.795 -12.558  0.00  0.00    -0.353 OA
ATOM     18  H6  38Y d   1     -17.970   4.921 -14.238  0.00  0.00     0.122 H 
ATOM     19  H7  38Y d   1     -12.797   6.479 -10.074  0.00  0.00     0.091 H 
ATOM     20  H9  38Y d   1     -13.051   1.578  -8.822  0.00  0.00     0.085 H 
ATOM     21  H10 38Y d   1     -15.464   1.270  -9.086  0.00  0.00     0.087 H 
ATOM     22  H11 38Y d   1     -17.130   7.279 -13.195  0.00  0.00     0.091 H 
ATOM     23  H13 38Y d   1     -18.513   7.521 -11.216  0.00  0.00     0.088 H 
ATOM     24  H25 38Y d   1     -18.739   4.667 -10.507  0.00  0.00     0.090 H 
ENDROOT
BRANCH   5  25
ATOM     25  C33 38Y d   1     -12.659   5.734 -12.134  0.00  0.00     0.106 C 
ATOM     26  H15 38Y d   1     -11.772   5.110 -11.953  0.00  0.00     0.079 H 
ATOM     27  H16 38Y d   1     -12.344   6.721 -12.504  0.00  0.00     0.079 H 
BRANCH  25  28
ATOM     28  N34 38Y d   1     -13.493   5.083 -13.170  0.00  0.00    -0.077 N 
ATOM     29  H17 38Y d   1     -12.958   4.983 -14.018  0.00  0.00     0.274 HD
ATOM     30  H18 38Y d   1     -14.307   5.650 -13.351  0.00  0.00     0.274 HD
ATOM     31  H19 38Y d   1     -13.782   4.173 -12.846  0.00  0.00     0.274 HD
ENDBRANCH  25  28
ENDBRANCH   5  25
BRANCH  11  32
ATOM     32  O35 38Y d   1     -17.215   3.027 -10.088  0.00  0.00    -0.352 OA
BRANCH  32  33
ATOM     33  C36 38Y d   1     -17.832   1.855  -9.519  0.00  0.00     0.023 C 
ATOM     34  H20 38Y d   1     -17.582   1.770  -8.451  0.00  0.00     0.074 H 
ATOM     35  H21 38Y d   1     -17.497   0.950 -10.047  0.00  0.00     0.074 H 
BRANCH  33  36
ATOM     36  C37 38Y d   1     -19.315   2.050  -9.698  0.00  0.00    -0.056 C 
ATOM     37  H22 38Y d   1     -19.851   1.184  -9.282  0.00  0.00     0.030 H 
ATOM     38  H23 38Y d   1     -19.546   2.144 -10.769  0.00  0.00     0.030 H 
ATOM     39  H24 38Y d   1     -19.631   2.964  -9.173  0.00  0.00     0.030 H 
ENDBRANCH  33  36
ENDBRANCH  32  33
ENDBRANCH  11  32
BRANCH   4  40
ATOM     40  N9  38Y d   1     -19.347   6.523 -14.272  0.00  0.00    -0.294 N 
ATOM     41  C4  38Y d   1     -19.854   6.259 -15.487  0.00  0.00     0.167 A 
ATOM     42  N3  38Y d   1     -19.749   5.160 -16.269  0.00  0.00    -0.222 NA
ATOM     43  C5  38Y d   1     -20.589   7.370 -15.888  0.00  0.00     0.149 A 
ATOM     44  C2  38Y d   1     -20.374   5.158 -17.462  0.00  0.00     0.091 A 
ATOM     45  N1  38Y d   1     -21.082   6.226 -17.866  0.00  0.00    -0.222 NA
ATOM     46  H2  38Y d   1     -20.305   4.286 -18.102  0.00  0.00     0.146 H 
ATOM     47  C6  38Y d   1     -21.220   7.354 -17.132  0.00  0.00     0.155 A 
ATOM     48  N7  38Y d   1     -20.502   8.306 -14.913  0.00  0.00    -0.236 NA
ATOM     49  C8  38Y d   1     -19.753   7.763 -13.937  0.00  0.00     0.071 A 
ATOM     50  H5  38Y d   1     -19.507   8.260 -13.000  0.00  0.00     0.144 H 
BRANCH  47  51
ATOM     51  N6  38Y d   1     -21.947   8.412 -17.577  0.00  0.00    -0.382 N 
ATOM     52  H3  38Y d   1     -22.034   9.258 -16.996  0.00  0.00     0.157 HD
ATOM     53  H4  38Y d   1     -22.411   8.368 -18.496  0.00  0.00     0.157 HD
ENDBRANCH  47  51
ENDBRANCH   4  40
BRANCH  16  54
ATOM     54  C5' 38Y d   1     -20.466   5.903 -10.897  0.00  0.00     0.059 C 
ATOM     55  H26 38Y d   1     -20.806   6.633 -11.646  0.00  0.00     0.079 H 
ATOM     56  H27 38Y d   1     -20.452   6.376  -9.904  0.00  0.00     0.079 H 
BRANCH  54  57
ATOM     57  O5' 38Y d   1     -21.341   4.773 -10.886  0.00  0.00    -0.280 OA
BRANCH  57  58
ATOM     58  P   38Y d   1     -22.668   4.792  -9.948  0.00  0.00     0.422 P 
ATOM     59  O1P 38Y d   1     -23.419   3.542 -10.354  0.00  0.00    -0.617 OA
ATOM     60  O2P 38Y d   1     -22.123   4.730  -8.538  0.00  0.00    -0.617 OA
ATOM     61  O3P 38Y d   1     -23.340   6.073 -10.284  0.00  0.00    -0.617 OA
ENDBRANCH  57  58
ENDBRANCH  54  57
ENDBRANCH  16  54
TORSDOF 10
