REMARK  10 active torsions:
REMARK  status: ('A' for Active; 'I' for Inactive)
REMARK    1  A    between atoms: O5'_38  and  P_2 
REMARK    2  A    between atoms: C6_10  and  N6_11 
REMARK    3  A    between atoms: C1'_15  and  N9_14 
REMARK    4  A    between atoms: C10_16  and  C17_23 
REMARK    5  A    between atoms: C16_22  and  O19_25 
REMARK    6  A    between atoms: C17_23  and  N18_24 
REMARK    7  A    between atoms: O19_25  and  C20_29 
REMARK    8  A    between atoms: C20_29  and  C21_30 
REMARK    9  A    between atoms: C5'_37  and  C4'_35 
REMARK   10  A    between atoms: C5'_37  and  O5'_38 
ROOT
ATOM      1  B   A2H d   1       6.434  25.241  11.234  0.00  0.00     0.650 B 
ATOM      2 CL   A2H d   1      10.930  27.047   9.714  0.00  0.00    -0.084 Cl
ATOM      3  O1  A2H d   1       7.516  24.286  11.231  0.00  0.00    -0.385 OA
ATOM      4  C1' A2H d   1       3.783  25.328  13.705  0.00  0.00     0.138 C 
ATOM      5  C10 A2H d   1       8.644  25.126  11.140  0.00  0.00     0.075 C 
ATOM      6  C11 A2H d   1       8.356  26.369  10.429  0.00  0.00    -0.000 A 
ATOM      7  C12 A2H d   1       7.003  26.505  10.628  0.00  0.00     0.049 A 
ATOM      8  C13 A2H d   1       9.191  27.319   9.899  0.00  0.00     0.043 A 
ATOM      9  C14 A2H d   1       8.622  28.487   9.428  0.00  0.00    -0.059 A 
ATOM     10  C15 A2H d   1       7.254  28.656   9.553  0.00  0.00    -0.049 A 
ATOM     11  C16 A2H d   1       6.429  27.679  10.146  0.00  0.00     0.073 A 
ATOM     12  C2' A2H d   1       4.828  24.582  12.894  0.00  0.00     0.093 C 
ATOM     13  O2' A2H d   1       5.969  25.386  12.612  0.00  0.00    -0.383 OA
ATOM     14  C3' A2H d   1       4.212  24.380  11.536  0.00  0.00     0.080 C 
ATOM     15  O3' A2H d   1       5.304  24.583  10.648  0.00  0.00    -0.385 OA
ATOM     16  C4' A2H d   1       3.169  25.496  11.435  0.00  0.00     0.088 C 
ATOM     17  O4' A2H d   1       3.060  26.086  12.740  0.00  0.00    -0.353 OA
ATOM     18  H6  A2H d   1       4.264  26.003  14.429  0.00  0.00     0.122 H 
ATOM     19  H7  A2H d   1       9.240  24.589  10.387  0.00  0.00     0.091 H 
ATOM     20  H9  A2H d   1       9.235  29.255   8.970  0.00  0.00     0.086 H 
ATOM     21  H10 A2H d   1       6.802  29.569   9.183  0.00  0.00     0.087 H 
ATOM     22  H16 A2H d   1       5.109  23.638  13.383  0.00  0.00     0.091 H 
ATOM     23  H23 A2H d   1       3.758  23.387  11.404  0.00  0.00     0.088 H 
ATOM     24  H25 A2H d   1       3.525  26.240  10.707  0.00  0.00     0.090 H 
ENDROOT
BRANCH   5  25
ATOM     25  C17 A2H d   1       9.625  25.155  12.258  0.00  0.00     0.106 C 
ATOM     26  H11 A2H d   1      10.518  25.740  11.993  0.00  0.00     0.079 H 
ATOM     27  H12 A2H d   1       9.926  24.139  12.555  0.00  0.00     0.079 H 
BRANCH  25  28
ATOM     28  N18 A2H d   1       8.845  25.816  13.319  0.00  0.00    -0.077 N 
ATOM     29  H13 A2H d   1       9.410  25.898  14.150  0.00  0.00     0.274 HD
ATOM     30  H14 A2H d   1       8.024  25.268  13.524  0.00  0.00     0.274 HD
ATOM     31  H15 A2H d   1       8.567  26.734  13.009  0.00  0.00     0.274 HD
ENDBRANCH  25  28
ENDBRANCH   5  25
BRANCH  11  32
ATOM     32  O19 A2H d   1       5.083  27.860  10.252  0.00  0.00    -0.352 OA
BRANCH  32  33
ATOM     33  C20 A2H d   1       4.460  29.091   9.852  0.00  0.00     0.023 C 
ATOM     34  H18 A2H d   1       4.646  29.266   8.782  0.00  0.00     0.074 H 
ATOM     35  H19 A2H d   1       4.880  29.922  10.438  0.00  0.00     0.074 H 
BRANCH  33  36
ATOM     36  C21 A2H d   1       2.977  29.003  10.096  0.00  0.00    -0.056 C 
ATOM     37  H20 A2H d   1       2.499  29.945   9.790  0.00  0.00     0.030 H 
ATOM     38  H21 A2H d   1       2.791  28.828  11.166  0.00  0.00     0.030 H 
ATOM     39  H22 A2H d   1       2.558  28.172   9.510  0.00  0.00     0.030 H 
ENDBRANCH  33  36
ENDBRANCH  32  33
ENDBRANCH  11  32
BRANCH   4  40
ATOM     40  N9  A2H d   1       2.929  24.360  14.443  0.00  0.00    -0.294 N 
ATOM     41  C4  A2H d   1       2.404  24.586  15.642  0.00  0.00     0.167 A 
ATOM     42  N3  A2H d   1       2.476  25.679  16.426  0.00  0.00    -0.222 NA
ATOM     43  C5  A2H d   1       1.705  23.454  16.032  0.00  0.00     0.149 A 
ATOM     44  C2  A2H d   1       1.845  25.638  17.606  0.00  0.00     0.091 A 
ATOM     45  N1  A2H d   1       1.165  24.568  18.022  0.00  0.00    -0.222 NA
ATOM     46  H2  A2H d   1       1.888  26.509  18.250  0.00  0.00     0.146 H 
ATOM     47  C6  A2H d   1       1.066  23.446  17.273  0.00  0.00     0.155 A 
ATOM     48  N7  A2H d   1       1.837  22.530  15.050  0.00  0.00    -0.236 NA
ATOM     49  C8  A2H d   1       2.585  23.107  14.089  0.00  0.00     0.071 A 
ATOM     50  H5  A2H d   1       2.872  22.626  13.155  0.00  0.00     0.144 H 
BRANCH  47  51
ATOM     51  N6  A2H d   1       0.369  22.373  17.709  0.00  0.00    -0.382 N 
ATOM     52  H3  A2H d   1       0.305  21.528  17.124  0.00  0.00     0.157 HD
ATOM     53  H4  A2H d   1      -0.099  22.401  18.626  0.00  0.00     0.157 HD
ENDBRANCH  47  51
ENDBRANCH   4  40
BRANCH  16  54
ATOM     54  C5' A2H d   1       1.765  25.062  11.035  0.00  0.00     0.059 C 
ATOM     55  H26 A2H d   1       1.335  24.393  11.795  0.00  0.00     0.079 H 
ATOM     56  H27 A2H d   1       1.781  24.549  10.062  0.00  0.00     0.079 H 
BRANCH  54  57
ATOM     57  O5' A2H d   1       1.017  26.273  10.951  0.00  0.00    -0.280 OA
BRANCH  57  58
ATOM     58  P   A2H d   1      -0.325  26.315  10.052  0.00  0.00     0.422 P 
ATOM     59  O1P A2H d   1      -0.976  27.616  10.449  0.00  0.00    -0.617 OA
ATOM     60  O2P A2H d   1      -1.004  25.067  10.498  0.00  0.00    -0.617 OA
ATOM     61  O3P A2H d   1       0.174  26.265   8.629  0.00  0.00    -0.617 OA
ENDBRANCH  57  58
ENDBRANCH  54  57
ENDBRANCH  16  54
TORSDOF 10
