REMARK  30 active torsions:
REMARK  status: ('A' for Active; 'I' for Inactive)
REMARK    1  A    between atoms: C_1  and  CH3_3 
REMARK       I    between atoms: N_4  and  C_1 
REMARK    2  A    between atoms: N_4  and  CN_5 
REMARK    3  A    between atoms: CA_6  and  N_4 
REMARK    4  A    between atoms: CA_6  and  CB_7 
REMARK    5  A    between atoms: C_10  and  CA_6 
REMARK    6  A    between atoms: CB_7  and  CG1_8 
REMARK    7  A    between atoms: CB_7  and  CG2_9 
REMARK       I    between atoms: N_13  and  C_10 
REMARK    8  A    between atoms: C_12  and  CA_15 
REMARK       I    between atoms: N_20  and  C_12 
REMARK    9  A    between atoms: CG_19  and  CE_18 
REMARK   10  A    between atoms: CA_24  and  N_20 
REMARK   11  A    between atoms: N_20  and  C40_27 
REMARK   12  A    between atoms: CB_25  and  CG2_26 
REMARK   13  A    between atoms: C15_29  and  C16_30 
REMARK   14  A    between atoms: C16_30  and  C17_31 
REMARK   15  A    between atoms: C17_31  and  C39_32 
REMARK   16  A    between atoms: C17_31  and  C38_33 
REMARK   17  A    between atoms: CG_43  and  CE_42 
REMARK   18  A    between atoms: C32_45  and  C53_46 
REMARK   19  A    between atoms: C53_46  and  C54_47 
REMARK   20  A    between atoms: C54_47  and  C56_48 
REMARK   21  A    between atoms: C54_47  and  C55_49 
REMARK   22  A    between atoms: N_52  and  CN_53 
REMARK   23  A    between atoms: CA_54  and  CB_55 
REMARK   24  A    between atoms: CB_55  and  CG1_56 
REMARK   25  A    between atoms: CB_55  and  CG2_57 
REMARK   26  A    between atoms: N_67  and  CN_68 
REMARK   27  A    between atoms: CA_69  and  CB_72 
REMARK   28  A    between atoms: CB_72  and  CG_73 
REMARK   29  A    between atoms: CG_73  and  CD1_74 
REMARK   30  A    between atoms: CG_73  and  CD2_75 
ROOT
ATOM      1  N   MVA d   1     -34.268  67.353 -25.517  0.00  0.00    -0.242 NA
ATOM      2  CA  MVA d   1     -35.075  67.627 -26.755  0.00  0.00     0.076 C 
ATOM      3  C   MVA d   1     -35.495  69.064 -26.938  0.00  0.00     0.219 C 
ATOM      4  O   MVA d   1     -36.405  69.550 -26.290  0.00  0.00    -0.278 OA
ATOM      5  H66 MVA d   1     -34.498  67.316 -27.638  0.00  0.00     0.079 H 
ATOM      6  C   MP8 d   1     -32.060  64.546 -24.237  0.00  0.00     0.241 C 
ATOM      7  N   MP8 d   1     -30.199  63.389 -23.432  0.00  0.00    -0.337 N 
ATOM      8  O   MP8 d   1     -33.231  64.545 -23.890  0.00  0.00    -0.271 OA
ATOM      9  CA  MP8 d   1     -31.295  63.262 -24.425  0.00  0.00     0.092 C 
ATOM     10  CB  MP8 d   1     -32.132  62.079 -23.926  0.00  0.00    -0.033 C 
ATOM     11  CD  MP8 d   1     -30.155  62.201 -22.562  0.00  0.00     0.002 C 
ATOM     12  CG  MP8 d   1     -31.652  61.908 -22.469  0.00  0.00    -0.040 C 
ATOM     13  H43 MP8 d   1     -30.946  63.122 -25.459  0.00  0.00     0.087 H 
ATOM     14  H44 MP8 d   1     -31.931  61.174 -24.518  0.00  0.00     0.037 H 
ATOM     15  H45 MP8 d   1     -33.207  62.310 -23.964  0.00  0.00     0.037 H 
ATOM     16  H46 MP8 d   1     -29.718  62.428 -21.578  0.00  0.00     0.065 H 
ATOM     17  H47 MP8 d   1     -29.602  61.371 -23.026  0.00  0.00     0.065 H 
ATOM     18  H51 MP8 d   1     -32.136  62.670 -21.840  0.00  0.00     0.042 H 
ATOM     19  O   NZC d   1     -27.101  61.912 -25.078  0.00  0.00    -0.271 OA
ATOM     20  OG1 NZC d   1     -27.041  64.481 -27.299  0.00  0.00    -0.312 OA
ATOM     21  C   NZC d   1     -26.422  62.934 -25.022  0.00  0.00     0.243 C 
ATOM     22  CA  NZC d   1     -25.348  63.310 -26.028  0.00  0.00     0.116 C 
ATOM     23  CB  NZC d   1     -25.736  64.619 -26.734  0.00  0.00     0.072 C 
ATOM     24  H24 NZC d   1     -24.435  63.504 -25.447  0.00  0.00     0.091 H 
ATOM     25  H25 NZC d   1     -25.738  65.439 -26.000  0.00  0.00     0.087 H 
ATOM     26  N4  LEU d   1     -26.584  63.816 -24.047  0.00  0.00    -0.346 N 
ATOM     27  C15 LEU d   1     -27.717  63.791 -23.147  0.00  0.00     0.090 C 
ATOM     28  C14 LEU d   1     -29.012  63.895 -23.918  0.00  0.00     0.243 C 
ATOM     29  O6  LEU d   1     -29.071  64.538 -24.950  0.00  0.00    -0.271 OA
ATOM     30  N7  LEU d   1     -31.379  65.665 -24.433  0.00  0.00    -0.346 N 
ATOM     31  C32 LEU d   1     -32.013  66.964 -24.499  0.00  0.00     0.085 C 
ATOM     32  C12 LEU d   1     -32.923  67.065 -25.698  0.00  0.00     0.223 C 
ATOM     33  O4  LEU d   1     -32.455  66.832 -26.797  0.00  0.00    -0.277 OA
ATOM     34  H32 LEU d   1     -25.894  64.530 -23.928  0.00  0.00     0.163 HD
ATOM     35  H33 LEU d   1     -27.705  62.886 -22.522  0.00  0.00     0.087 H 
ATOM     36  H52 LEU d   1     -30.386  65.610 -24.540  0.00  0.00     0.163 HD
ATOM     37  H53 LEU d   1     -32.602  67.129 -23.585  0.00  0.00     0.086 H 
ATOM     38  C5  PRO d   1     -32.681  69.323 -28.482  0.00  0.00     0.218 C 
ATOM     39  O2  PRO d   1     -32.465  69.674 -27.339  0.00  0.00    -0.278 OA
ATOM     40  C26 PRO d   1     -34.110  69.292 -28.924  0.00  0.00     0.074 C 
ATOM     41  C27 PRO d   1     -34.270  70.293 -30.076  0.00  0.00    -0.041 C 
ATOM     42  C28 PRO d   1     -34.753  71.577 -29.414  0.00  0.00    -0.052 C 
ATOM     43  C29 PRO d   1     -35.588  71.080 -28.243  0.00  0.00    -0.013 C 
ATOM     44  N6  PRO d   1     -34.814  69.910 -27.783  0.00  0.00    -0.239 NA
ATOM     45  H74 PRO d   1     -34.467  68.283 -29.179  0.00  0.00     0.078 H 
ATOM     46  H75 PRO d   1     -35.011  69.930 -30.804  0.00  0.00     0.036 H 
ATOM     47  H76 PRO d   1     -33.308  70.457 -30.583  0.00  0.00     0.036 H 
ATOM     48  H77 PRO d   1     -35.364  72.172 -30.109  0.00  0.00     0.034 H 
ATOM     49  H78 PRO d   1     -33.904  72.182 -29.063  0.00  0.00     0.034 H 
ATOM     50  H79 PRO d   1     -36.597  70.788 -28.568  0.00  0.00     0.056 H 
ATOM     51  H80 PRO d   1     -35.664  71.843 -27.454  0.00  0.00     0.056 H 
ATOM     52  N   MLU d   1     -31.628  69.064 -29.342  0.00  0.00    -0.243 NA
ATOM     53  CA  MLU d   1     -30.317  69.049 -28.638  0.00  0.00     0.078 C 
ATOM     54  C   MLU d   1     -29.581  67.731 -28.792  0.00  0.00     0.236 C 
ATOM     55  O   MLU d   1     -28.664  67.591 -29.585  0.00  0.00    -0.272 OA
ATOM     56  H84 MLU d   1     -30.469  69.261 -27.570  0.00  0.00     0.079 H 
ATOM     57  C11 GLY d   1     -27.845  65.665 -27.372  0.00  0.00     0.277 C 
ATOM     58  O9  GLY d   1     -27.405  66.724 -26.947  0.00  0.00    -0.263 OA
ATOM     59  C10 GLY d   1     -29.213  65.508 -28.009  0.00  0.00     0.075 C 
ATOM     60  N3  GLY d   1     -29.968  66.729 -28.020  0.00  0.00    -0.350 N 
ATOM     61  H94 GLY d   1     -29.778  64.751 -27.445  0.00  0.00     0.079 H 
ATOM     62  H95 GLY d   1     -29.080  65.168 -29.047  0.00  0.00     0.079 H 
ATOM     63  H96 GLY d   1     -30.782  66.822 -27.447  0.00  0.00     0.163 HD
ENDROOT
BRANCH  22  64
ATOM     64  N   NZC d   1     -24.985  62.264 -27.042  0.00  0.00    -0.339 N 
ATOM     65  C   MP8 d   1     -24.061  61.309 -26.598  0.00  0.00     0.243 C 
ATOM     66  O   MP8 d   1     -23.271  61.575 -25.699  0.00  0.00    -0.271 OA
BRANCH  65  67
ATOM     67  CA  MP8 d   1     -23.963  59.975 -27.298  0.00  0.00     0.092 C 
ATOM     68  N   MP8 d   1     -22.601  59.365 -27.336  0.00  0.00    -0.337 N 
ATOM     69  C   MVA d   1     -21.488  60.114 -27.705  0.00  0.00     0.243 C 
ATOM     70  CD  MP8 d   1     -22.412  58.441 -26.196  0.00  0.00     0.002 C 
ATOM     71  O   MVA d   1     -21.638  61.209 -28.204  0.00  0.00    -0.271 OA
ATOM     72  CG  MP8 d   1     -23.775  58.312 -25.538  0.00  0.00    -0.040 C 
ATOM     73  H18 MP8 d   1     -21.681  58.854 -25.485  0.00  0.00     0.065 H 
ATOM     74  H19 MP8 d   1     -22.064  57.460 -26.552  0.00  0.00     0.065 H 
ATOM     75  CB  MP8 d   1     -24.751  58.889 -26.557  0.00  0.00    -0.033 C 
ATOM     76  H23 MP8 d   1     -23.795  58.947 -24.640  0.00  0.00     0.042 H 
ATOM     77  H16 MP8 d   1     -25.084  58.108 -27.257  0.00  0.00     0.037 H 
ATOM     78  H17 MP8 d   1     -25.625  59.324 -26.050  0.00  0.00     0.037 H 
ATOM     79  H15 MP8 d   1     -24.344  60.102 -28.322  0.00  0.00     0.087 H 
BRANCH  69  80
ATOM     80  CA  MVA d   1     -20.105  59.509 -27.598  0.00  0.00     0.094 C 
ATOM     81  H7  MVA d   1     -19.991  59.096 -26.585  0.00  0.00     0.088 H 
BRANCH  80  82
ATOM     82  N   MVA d   1     -19.870  58.423 -28.616  0.00  0.00    -0.343 N 
ATOM     83  C   ACE d   1     -19.715  57.134 -28.107  0.00  0.00     0.216 C 
ATOM     84  O   ACE d   1     -19.426  57.000 -26.931  0.00  0.00    -0.274 OA
BRANCH  83  85
ATOM     85  CH3 ACE d   1     -19.794  55.938 -29.017  0.00  0.00    -0.003 C 
ATOM     86  H1  ACE d   1     -20.067  56.266 -30.031  0.00  0.00     0.040 H 
ATOM     87  H2  ACE d   1     -20.556  55.240 -28.640  0.00  0.00     0.040 H 
ATOM     88  H3  ACE d   1     -18.817  55.434 -29.045  0.00  0.00     0.040 H 
ENDBRANCH  83  85
BRANCH  82  89
ATOM     89  CN  MVA d   1     -20.725  58.509 -29.815  0.00  0.00    -0.015 C 
ATOM     90  H4  MVA d   1     -20.484  57.681 -30.497  0.00  0.00     0.056 H 
ATOM     91  H5  MVA d   1     -20.547  59.467 -30.325  0.00  0.00     0.056 H 
ATOM     92  H6  MVA d   1     -21.782  58.443 -29.517  0.00  0.00     0.056 H 
ENDBRANCH  82  89
ENDBRANCH  80  82
BRANCH  80  93
ATOM     93  CB  MVA d   1     -18.995  60.538 -27.863  0.00  0.00    -0.033 C 
ATOM     94  H8  MVA d   1     -19.284  61.078 -28.777  0.00  0.00     0.042 H 
BRANCH  93  95
ATOM     95  CG1 MVA d   1     -18.783  61.613 -26.773  0.00  0.00    -0.071 C 
ATOM     96  H9  MVA d   1     -17.967  62.286 -27.076  0.00  0.00     0.028 H 
ATOM     97  H10 MVA d   1     -18.522  61.125 -25.822  0.00  0.00     0.028 H 
ATOM     98  H11 MVA d   1     -19.709  62.193 -26.645  0.00  0.00     0.028 H 
ENDBRANCH  93  95
BRANCH  93  99
ATOM     99  CG2 MVA d   1     -17.672  59.807 -28.152  0.00  0.00    -0.071 C 
ATOM    100  H12 MVA d   1     -17.836  59.045 -28.928  0.00  0.00     0.028 H 
ATOM    101  H13 MVA d   1     -17.313  59.322 -27.233  0.00  0.00     0.028 H 
ATOM    102  H14 MVA d   1     -16.922  60.531 -28.502  0.00  0.00     0.028 H 
ENDBRANCH  93  99
ENDBRANCH  80  93
ENDBRANCH  69  80
BRANCH  72 103
ATOM    103  CE  MP8 d   1     -24.096  56.887 -25.078  0.00  0.00    -0.071 C 
ATOM    104  H20 MP8 d   1     -25.093  56.868 -24.613  0.00  0.00     0.028 H 
ATOM    105  H21 MP8 d   1     -23.343  56.560 -24.346  0.00  0.00     0.028 H 
ATOM    106  H22 MP8 d   1     -24.082  56.210 -25.945  0.00  0.00     0.028 H 
ENDBRANCH  72 103
ENDBRANCH  65  67
BRANCH  64 107
ATOM    107  C40 NZC d   1     -26.102  61.698 -27.873  0.00  0.00    -0.015 C 
ATOM    108  H29 NZC d   1     -25.698  60.948 -28.569  0.00  0.00     0.056 H 
ATOM    109  H30 NZC d   1     -26.581  62.507 -28.444  0.00  0.00     0.056 H 
ATOM    110  H31 NZC d   1     -26.845  61.224 -27.215  0.00  0.00     0.056 H 
ENDBRANCH  64 107
ENDBRANCH  22  64
BRANCH  23 111
ATOM    111  CG2 NZC d   1     -24.747  64.943 -27.846  0.00  0.00    -0.049 C 
ATOM    112  H26 NZC d   1     -23.739  65.051 -27.420  0.00  0.00     0.031 H 
ATOM    113  H27 NZC d   1     -25.041  65.883 -28.336  0.00  0.00     0.031 H 
ATOM    114  H28 NZC d   1     -24.747  64.129 -28.586  0.00  0.00     0.031 H 
ENDBRANCH  23 111
BRANCH  27 115
ATOM    115  C16 LEU d   1     -27.603  65.058 -22.311  0.00  0.00    -0.035 C 
ATOM    116  H34 LEU d   1     -28.588  65.546 -22.358  0.00  0.00     0.037 H 
ATOM    117  H35 LEU d   1     -26.856  65.690 -22.813  0.00  0.00     0.037 H 
BRANCH 115 118
ATOM    118  C17 LEU d   1     -27.208  65.029 -20.817  0.00  0.00    -0.059 C 
ATOM    119  H36 LEU d   1     -28.159  65.206 -20.294  0.00  0.00     0.038 H 
BRANCH 118 120
ATOM    120  C39 LEU d   1     -26.329  66.236 -20.442  0.00  0.00    -0.073 C 
ATOM    121  H37 LEU d   1     -26.068  66.182 -19.375  0.00  0.00     0.028 H 
ATOM    122  H38 LEU d   1     -26.881  67.167 -20.638  0.00  0.00     0.028 H 
ATOM    123  H39 LEU d   1     -25.409  66.222 -21.045  0.00  0.00     0.028 H 
ENDBRANCH 118 120
BRANCH 118 124
ATOM    124  C38 LEU d   1     -26.722  63.711 -20.223  0.00  0.00    -0.073 C 
ATOM    125  H40 LEU d   1     -27.396  62.899 -20.533  0.00  0.00     0.028 H 
ATOM    126  H41 LEU d   1     -26.715  63.784 -19.125  0.00  0.00     0.028 H 
ATOM    127  H42 LEU d   1     -25.704  63.500 -20.583  0.00  0.00     0.028 H 
ENDBRANCH 118 124
ENDBRANCH 115 118
ENDBRANCH  27 115
BRANCH  12 128
ATOM    128  CE  MP8 d   1     -31.956  60.542 -21.839  0.00  0.00    -0.071 C 
ATOM    129  H48 MP8 d   1     -33.045  60.390 -21.800  0.00  0.00     0.028 H 
ATOM    130  H49 MP8 d   1     -31.544  60.509 -20.819  0.00  0.00     0.028 H 
ATOM    131  H50 MP8 d   1     -31.497  59.748 -22.446  0.00  0.00     0.028 H 
ENDBRANCH  12 128
BRANCH  53 132
ATOM    132  CB  MLU d   1     -29.461  70.126 -29.283  0.00  0.00    -0.039 C 
ATOM    133  H85 MLU d   1     -30.105  70.698 -29.967  0.00  0.00     0.036 H 
ATOM    134  H86 MLU d   1     -28.671  69.622 -29.859  0.00  0.00     0.036 H 
BRANCH 132 135
ATOM    135  CG  MLU d   1     -28.784  71.123 -28.345  0.00  0.00    -0.059 C 
ATOM    136  H87 MLU d   1     -29.359  72.058 -28.418  0.00  0.00     0.038 H 
BRANCH 135 137
ATOM    137  CD1 MLU d   1     -27.376  71.424 -28.844  0.00  0.00    -0.073 C 
ATOM    138  H88 MLU d   1     -26.892  72.142 -28.166  0.00  0.00     0.028 H 
ATOM    139  H89 MLU d   1     -27.429  71.853 -29.855  0.00  0.00     0.028 H 
ATOM    140  H90 MLU d   1     -26.790  70.494 -28.871  0.00  0.00     0.028 H 
ENDBRANCH 135 137
BRANCH 135 141
ATOM    141  CD2 MLU d   1     -28.795  70.736 -26.865  0.00  0.00    -0.073 C 
ATOM    142  H91 MLU d   1     -29.828  70.528 -26.548  0.00  0.00     0.028 H 
ATOM    143  H92 MLU d   1     -28.387  71.564 -26.266  0.00  0.00     0.028 H 
ATOM    144  H93 MLU d   1     -28.178  69.838 -26.716  0.00  0.00     0.028 H 
ENDBRANCH 135 141
ENDBRANCH 132 135
ENDBRANCH  53 132
BRANCH  52 145
ATOM    145  CN  MLU d   1     -31.861  67.900 -30.247  0.00  0.00    -0.025 C 
ATOM    146  H81 MLU d   1     -32.849  67.996 -30.721  0.00  0.00     0.049 H 
ATOM    147  H82 MLU d   1     -31.823  66.968 -29.663  0.00  0.00     0.049 H 
ATOM    148  H83 MLU d   1     -31.082  67.878 -31.024  0.00  0.00     0.049 H 
ENDBRANCH  52 145
BRANCH  31 149
ATOM    149  C53 LEU d   1     -30.921  68.017 -24.602  0.00  0.00    -0.036 C 
ATOM    150  H54 LEU d   1     -31.385  68.996 -24.793  0.00  0.00     0.037 H 
ATOM    151  H55 LEU d   1     -30.252  67.759 -25.436  0.00  0.00     0.037 H 
BRANCH 149 152
ATOM    152  C54 LEU d   1     -30.098  68.098 -23.309  0.00  0.00    -0.059 C 
ATOM    153  H56 LEU d   1     -29.889  67.066 -22.990  0.00  0.00     0.038 H 
BRANCH 152 154
ATOM    154  C56 LEU d   1     -30.874  68.772 -22.174  0.00  0.00    -0.073 C 
ATOM    155  H57 LEU d   1     -30.247  68.807 -21.271  0.00  0.00     0.028 H 
ATOM    156  H58 LEU d   1     -31.788  68.197 -21.963  0.00  0.00     0.028 H 
ATOM    157  H59 LEU d   1     -31.145  69.796 -22.472  0.00  0.00     0.028 H 
ENDBRANCH 152 154
BRANCH 152 158
ATOM    158  C55 LEU d   1     -28.747  68.783 -23.558  0.00  0.00    -0.073 C 
ATOM    159  H60 LEU d   1     -28.222  68.271 -24.378  0.00  0.00     0.028 H 
ATOM    160  H61 LEU d   1     -28.137  68.733 -22.644  0.00  0.00     0.028 H 
ATOM    161  H62 LEU d   1     -28.914  69.835 -23.830  0.00  0.00     0.028 H 
ENDBRANCH 152 158
ENDBRANCH 149 152
ENDBRANCH  31 149
BRANCH   1 162
ATOM    162  CN  MVA d   1     -34.481  68.312 -24.402  0.00  0.00    -0.025 C 
ATOM    163  H63 MVA d   1     -33.849  68.027 -23.548  0.00  0.00     0.049 H 
ATOM    164  H64 MVA d   1     -35.538  68.293 -24.099  0.00  0.00     0.049 H 
ATOM    165  H65 MVA d   1     -34.213  69.326 -24.734  0.00  0.00     0.049 H 
ENDBRANCH   1 162
BRANCH   2 166
ATOM    166  CB  MVA d   1     -36.332  66.778 -26.611  0.00  0.00    -0.037 C 
ATOM    167  H67 MVA d   1     -36.884  67.138 -25.730  0.00  0.00     0.042 H 
BRANCH 166 168
ATOM    168  CG1 MVA d   1     -35.953  65.325 -26.376  0.00  0.00    -0.071 C 
ATOM    169  H68 MVA d   1     -36.866  64.720 -26.273  0.00  0.00     0.028 H 
ATOM    170  H69 MVA d   1     -35.355  65.246 -25.456  0.00  0.00     0.028 H 
ATOM    171  H70 MVA d   1     -35.364  64.957 -27.229  0.00  0.00     0.028 H 
ENDBRANCH 166 168
BRANCH 166 172
ATOM    172  CG2 MVA d   1     -37.253  66.895 -27.819  0.00  0.00    -0.071 C 
ATOM    173  H71 MVA d   1     -37.519  67.951 -27.977  0.00  0.00     0.028 H 
ATOM    174  H72 MVA d   1     -38.167  66.310 -27.641  0.00  0.00     0.028 H 
ATOM    175  H73 MVA d   1     -36.738  66.509 -28.711  0.00  0.00     0.028 H 
ENDBRANCH 166 172
ENDBRANCH   2 166
TORSDOF 30
