REMARK  31 active torsions:
REMARK  status: ('A' for Active; 'I' for Inactive)
REMARK    1  A    between atoms: C_1  and  CH3_3 
REMARK       I    between atoms: C_1  and  N_4 
REMARK    2  A    between atoms: N_4  and  CA_5 
REMARK    3  A    between atoms: N_4  and  CN_11 
REMARK    4  A    between atoms: CA_5  and  C_6 
REMARK    5  A    between atoms: CA_5  and  CB_8 
REMARK       I    between atoms: C_6  and  N_12 
REMARK    6  A    between atoms: CB_8  and  CG1_9 
REMARK    7  A    between atoms: CB_8  and  CG2_10 
REMARK    8  A    between atoms: CA_13  and  C_14 
REMARK       I    between atoms: C_14  and  N_20 
REMARK    9  A    between atoms: CG_17  and  CE_19 
REMARK   10  A    between atoms: N_20  and  CA_21 
REMARK   11  A    between atoms: N_20  and  C40_27 
REMARK   12  A    between atoms: CB_24  and  CG2_26 
REMARK   13  A    between atoms: CA_29  and  CB_32 
REMARK   14  A    between atoms: CB_32  and  CG_33 
REMARK   15  A    between atoms: CG_33  and  CD1_34 
REMARK   16  A    between atoms: CG_33  and  CD2_35 
REMARK   17  A    between atoms: CG_41  and  CE_43 
REMARK   18  A    between atoms: CA_45  and  CB_48 
REMARK   19  A    between atoms: CB_48  and  CG_49 
REMARK   20  A    between atoms: CG_49  and  CD1_50 
REMARK   21  A    between atoms: CG_49  and  CD2_51 
REMARK   22  A    between atoms: N_52  and  CN_59 
REMARK   23  A    between atoms: CA_53  and  CB_56 
REMARK   24  A    between atoms: CB_56  and  CG1_57 
REMARK   25  A    between atoms: CB_56  and  CG2_58 
REMARK   26  A    between atoms: CG_65  and  C1_66 
REMARK   27  A    between atoms: N_73  and  CN_81 
REMARK   28  A    between atoms: CA_74  and  CB_77 
REMARK   29  A    between atoms: CB_77  and  CG_78 
REMARK   30  A    between atoms: CG_78  and  CD1_79 
REMARK   31  A    between atoms: CG_78  and  CD2_80 
ROOT
ATOM      1  CA  NON d   1     -33.692  30.768  14.887  0.00  0.00     0.116 C 
ATOM      2  C   NON d   1     -32.825  29.901  14.022  0.00  0.00     0.243 C 
ATOM      3  O   NON d   1     -33.064  29.815  12.829  0.00  0.00    -0.271 OA
ATOM      4  CB  NON d   1     -34.461  29.877  15.898  0.00  0.00     0.072 C 
ATOM      5  OG1 NON d   1     -35.147  28.857  15.175  0.00  0.00    -0.312 OA
ATOM      6  N   NON d   1     -31.795  29.265  14.609  0.00  0.00    -0.346 N 
ATOM      7  CA  NON d   1     -31.057  28.208  13.937  0.00  0.00     0.090 C 
ATOM      8  C   NON d   1     -32.000  27.136  13.442  0.00  0.00     0.243 C 
ATOM      9  O   NON d   1     -32.948  26.808  14.127  0.00  0.00    -0.271 OA
ATOM     10  N   NON d   1     -31.779  26.548  12.266  0.00  0.00    -0.337 N 
ATOM     11  CA  NON d   1     -32.732  25.541  11.781  0.00  0.00     0.092 C 
ATOM     12  C   NON d   1     -32.587  24.222  12.501  0.00  0.00     0.241 C 
ATOM     13  O   NON d   1     -32.296  23.193  11.915  0.00  0.00    -0.271 OA
ATOM     14  CB  NON d   1     -32.363  25.423  10.305  0.00  0.00    -0.033 C 
ATOM     15  CG  NON d   1     -30.887  25.778  10.220  0.00  0.00    -0.040 C 
ATOM     16  CD  NON d   1     -30.691  26.824  11.319  0.00  0.00     0.002 C 
ATOM     17  N   NON d   1     -32.760  24.242  13.821  0.00  0.00    -0.346 N 
ATOM     18  CA  NON d   1     -32.752  23.020  14.596  0.00  0.00     0.090 C 
ATOM     19  C   NON d   1     -34.030  22.270  14.334  0.00  0.00     0.243 C 
ATOM     20  O   NON d   1     -35.077  22.905  14.264  0.00  0.00    -0.271 OA
ATOM     21  N   NON d   1     -33.952  20.947  14.206  0.00  0.00    -0.341 N 
ATOM     22  CA  NON d   1     -35.208  20.223  13.999  0.00  0.00     0.094 C 
ATOM     23  C   NON d   1     -35.415  19.147  15.032  0.00  0.00     0.243 C 
ATOM     24  O   NON d   1     -34.788  18.102  14.939  0.00  0.00    -0.271 OA
ATOM     25  N   NON d   1     -36.265  19.356  16.046  0.00  0.00    -0.337 N 
ATOM     26  CA  NON d   1     -37.168  20.504  16.131  0.00  0.00     0.092 C 
ATOM     27  C   NON d   1     -36.489  21.674  16.779  0.00  0.00     0.243 C 
ATOM     28  O   NON d   1     -35.367  21.508  17.225  0.00  0.00    -0.271 OA
ATOM     29  CB  NON d   1     -38.206  19.987  17.119  0.00  0.00    -0.033 C 
ATOM     30  CG  NON d   1     -37.398  19.156  18.093  0.00  0.00    -0.033 C 
ATOM     31  CD  NON d   1     -36.403  18.448  17.194  0.00  0.00     0.002 C 
ATOM     32  N   NON d   1     -37.134  22.840  16.881  0.00  0.00    -0.341 N 
ATOM     33  CA  NON d   1     -36.520  23.893  17.681  0.00  0.00     0.091 C 
ATOM     34  C   NON d   1     -36.597  25.181  16.925  0.00  0.00     0.241 C 
ATOM     35  O   NON d   1     -37.169  26.151  17.397  0.00  0.00    -0.271 OA
ATOM     36  O9  NON d   1     -34.568  27.286  16.793  0.00  0.00    -0.263 OA
ATOM     37  C11 NON d   1     -35.166  27.524  15.749  0.00  0.00     0.277 C 
ATOM     38  C10 NON d   1     -35.936  26.458  14.998  0.00  0.00     0.075 C 
ATOM     39  N3  NON d   1     -36.010  25.211  15.732  0.00  0.00    -0.350 N 
ATOM     40  H24 NON d   1     -33.036  31.429  15.473  0.00  0.00     0.091 H 
ATOM     41  H25 NON d   1     -33.722  29.401  16.559  0.00  0.00     0.087 H 
ATOM     42  H32 NON d   1     -31.529  29.527  15.537  0.00  0.00     0.163 HD
ATOM     43  H33 NON d   1     -30.511  28.640  13.086  0.00  0.00     0.087 H 
ATOM     44  H43 NON d   1     -33.766  25.897  11.897  0.00  0.00     0.087 H 
ATOM     45  H44 NON d   1     -32.961  26.123   9.703  0.00  0.00     0.037 H 
ATOM     46  H45 NON d   1     -32.532  24.396   9.948  0.00  0.00     0.037 H 
ATOM     47  H46 NON d   1     -30.277  24.891  10.445  0.00  0.00     0.042 H 
ATOM     48  H47 NON d   1     -29.711  26.704  11.803  0.00  0.00     0.065 H 
ATOM     49  H48 NON d   1     -30.776  27.842  10.911  0.00  0.00     0.065 H 
ATOM     50  H52 NON d   1     -32.898  25.117  14.285  0.00  0.00     0.163 HD
ATOM     51  H53 NON d   1     -31.881  22.406  14.323  0.00  0.00     0.087 H 
ATOM     52  H63 NON d   1     -36.049  20.931  14.037  0.00  0.00     0.088 H 
ATOM     53  H74 NON d   1     -37.594  20.779  15.155  0.00  0.00     0.087 H 
ATOM     54  H75 NON d   1     -38.959  19.369  16.608  0.00  0.00     0.037 H 
ATOM     55  H76 NON d   1     -38.705  20.821  17.635  0.00  0.00     0.037 H 
ATOM     56  H77 NON d   1     -36.863  19.809  18.798  0.00  0.00     0.043 H 
ATOM     57  H89 NON d   1     -35.439  18.313  17.706  0.00  0.00     0.065 H 
ATOM     58  H90 NON d   1     -36.789  17.469  16.876  0.00  0.00     0.065 H 
ATOM     59  H91 NON d   1     -35.474  23.643  17.912  0.00  0.00     0.087 H 
ATOM     60 4H10 NON d   1     -35.436  26.273  14.036  0.00  0.00     0.079 H 
ATOM     61 5H10 NON d   1     -36.958  26.822  14.816  0.00  0.00     0.079 H 
ATOM     62 6H10 NON d   1     -35.621  24.376  15.343  0.00  0.00     0.163 HD
ENDROOT
BRANCH   1  63
ATOM     63  N   NON d   1     -34.543  31.642  14.044  0.00  0.00    -0.339 N 
ATOM     64  C   NON d   1     -34.106  32.890  13.879  0.00  0.00     0.243 C 
ATOM     65  O   NON d   1     -33.105  33.317  14.443  0.00  0.00    -0.271 OA
BRANCH  64  66
ATOM     66  CA  NON d   1     -34.865  33.773  12.927  0.00  0.00     0.092 C 
ATOM     67  N   NON d   1     -34.617  35.190  13.195  0.00  0.00    -0.337 N 
ATOM     68  C   NON d   1     -35.074  35.774  14.310  0.00  0.00     0.243 C 
ATOM     69  CD  NON d   1     -33.830  35.822  12.131  0.00  0.00     0.002 C 
ATOM     70  O   NON d   1     -35.651  35.142  15.190  0.00  0.00    -0.271 OA
ATOM     71  CG  NON d   1     -33.214  34.627  11.407  0.00  0.00    -0.040 C 
ATOM     72  H19 NON d   1     -33.051  36.475  12.550  0.00  0.00     0.065 H 
ATOM     73  H20 NON d   1     -34.474  36.405  11.456  0.00  0.00     0.065 H 
ATOM     74  CB  NON d   1     -34.277  33.559  11.530  0.00  0.00    -0.033 C 
ATOM     75  H18 NON d   1     -32.297  34.310  11.925  0.00  0.00     0.042 H 
ATOM     76  H16 NON d   1     -35.050  33.687  10.758  0.00  0.00     0.037 H 
ATOM     77  H17 NON d   1     -33.834  32.556  11.443  0.00  0.00     0.037 H 
ATOM     78  H15 NON d   1     -35.940  33.543  12.963  0.00  0.00     0.087 H 
BRANCH  68  79
ATOM     79  CA  NON d   1     -34.844  37.256  14.424  0.00  0.00     0.094 C 
ATOM     80  H4  NON d   1     -33.821  37.486  14.091  0.00  0.00     0.088 H 
BRANCH  79  81
ATOM     81  N   NON d   1     -35.813  37.960  13.579  0.00  0.00    -0.343 N 
ATOM     82  C   NON d   1     -35.354  38.840  12.684  0.00  0.00     0.216 C 
ATOM     83  O   NON d   1     -34.160  39.114  12.587  0.00  0.00    -0.274 OA
BRANCH  82  84
ATOM     84  CH3 NON d   1     -36.379  39.466  11.786  0.00  0.00    -0.003 C 
ATOM     85  H1  NON d   1     -37.377  39.081  12.044  0.00  0.00     0.040 H 
ATOM     86  H2  NON d   1     -36.150  39.218  10.739  0.00  0.00     0.040 H 
ATOM     87  H3  NON d   1     -36.362  40.558  11.916  0.00  0.00     0.040 H 
ENDBRANCH  82  84
BRANCH  81  88
ATOM     88  CN  NON d   1     -37.222  37.616  13.749  0.00  0.00    -0.015 C 
ATOM     89  H12 NON d   1     -37.832  38.216  13.057  0.00  0.00     0.056 H 
ATOM     90  H13 NON d   1     -37.529  37.826  14.784  0.00  0.00     0.056 H 
ATOM     91  H14 NON d   1     -37.367  36.547  13.534  0.00  0.00     0.056 H 
ENDBRANCH  81  88
ENDBRANCH  79  81
BRANCH  79  92
ATOM     92  CB  NON d   1     -35.032  37.754  15.860  0.00  0.00    -0.033 C 
ATOM     93  H5  NON d   1     -36.015  37.399  16.203  0.00  0.00     0.042 H 
BRANCH  92  94
ATOM     94  CG1 NON d   1     -33.974  37.187  16.800  0.00  0.00    -0.071 C 
ATOM     95  H6  NON d   1     -34.145  37.569  17.817  0.00  0.00     0.028 H 
ATOM     96  H7  NON d   1     -32.975  37.495  16.456  0.00  0.00     0.028 H 
ATOM     97  H8  NON d   1     -34.038  36.089  16.805  0.00  0.00     0.028 H 
ENDBRANCH  92  94
BRANCH  92  98
ATOM     98  CG2 NON d   1     -35.026  39.281  15.958  0.00  0.00    -0.071 C 
ATOM     99  H9  NON d   1     -35.788  39.695  15.281  0.00  0.00     0.028 H 
ATOM    100  H10 NON d   1     -34.035  39.663  15.671  0.00  0.00     0.028 H 
ATOM    101  H11 NON d   1     -35.251  39.583  16.992  0.00  0.00     0.028 H 
ENDBRANCH  92  98
ENDBRANCH  79  92
ENDBRANCH  68  79
BRANCH  71 102
ATOM    102  CE  NON d   1     -32.861  34.913   9.948  0.00  0.00    -0.071 C 
ATOM    103  H21 NON d   1     -32.424  34.012   9.493  0.00  0.00     0.028 H 
ATOM    104  H22 NON d   1     -32.133  35.737   9.901  0.00  0.00     0.028 H 
ATOM    105  H23 NON d   1     -33.771  35.197   9.399  0.00  0.00     0.028 H 
ENDBRANCH  71 102
ENDBRANCH  64  66
BRANCH  63 106
ATOM    106  C40 NON d   1     -35.762  31.152  13.386  0.00  0.00    -0.015 C 
ATOM    107  H29 NON d   1     -36.227  31.971  12.818  0.00  0.00     0.056 H 
ATOM    108  H30 NON d   1     -36.468  30.787  14.147  0.00  0.00     0.056 H 
ATOM    109  H31 NON d   1     -35.504  30.331  12.701  0.00  0.00     0.056 H 
ENDBRANCH  63 106
ENDBRANCH   1  63
BRANCH   4 110
ATOM    110  CG2 NON d   1     -35.436  30.650  16.781  0.00  0.00    -0.049 C 
ATOM    111  H26 NON d   1     -35.940  29.954  17.467  0.00  0.00     0.031 H 
ATOM    112  H27 NON d   1     -36.185  31.150  16.150  0.00  0.00     0.031 H 
ATOM    113  H28 NON d   1     -34.885  31.404  17.363  0.00  0.00     0.031 H 
ENDBRANCH   4 110
BRANCH   7 114
ATOM    114  CB  NON d   1     -30.065  27.540  14.895  0.00  0.00    -0.035 C 
ATOM    115  H34 NON d   1     -29.654  26.647  14.401  0.00  0.00     0.037 H 
ATOM    116  H35 NON d   1     -30.609  27.239  15.803  0.00  0.00     0.037 H 
BRANCH 114 117
ATOM    117  CG  NON d   1     -28.892  28.449  15.310  0.00  0.00    -0.059 C 
ATOM    118  H36 NON d   1     -29.302  29.414  15.642  0.00  0.00     0.038 H 
BRANCH 117 119
ATOM    119  CD1 NON d   1     -28.147  27.803  16.482  0.00  0.00    -0.073 C 
ATOM    120  H37 NON d   1     -27.308  28.448  16.783  0.00  0.00     0.028 H 
ATOM    121  H38 NON d   1     -27.762  26.820  16.174  0.00  0.00     0.028 H 
ATOM    122  H39 NON d   1     -28.836  27.678  17.330  0.00  0.00     0.028 H 
ENDBRANCH 117 119
BRANCH 117 123
ATOM    123  CD2 NON d   1     -27.931  28.714  14.145  0.00  0.00    -0.073 C 
ATOM    124  H40 NON d   1     -28.482  29.177  13.313  0.00  0.00     0.028 H 
ATOM    125  H41 NON d   1     -27.491  27.763  13.809  0.00  0.00     0.028 H 
ATOM    126  H42 NON d   1     -27.130  29.391  14.477  0.00  0.00     0.028 H 
ENDBRANCH 117 123
ENDBRANCH 114 117
ENDBRANCH   7 114
BRANCH  15 127
ATOM    127  CE  NON d   1     -30.498  26.278   8.827  0.00  0.00    -0.071 C 
ATOM    128  H49 NON d   1     -30.664  25.478   8.091  0.00  0.00     0.028 H 
ATOM    129  H50 NON d   1     -29.436  26.565   8.824  0.00  0.00     0.028 H 
ATOM    130  H51 NON d   1     -31.114  27.151   8.565  0.00  0.00     0.028 H 
ENDBRANCH  15 127
BRANCH  33 131
ATOM    131  CB  NON d   1     -37.338  24.046  18.967  0.00  0.00    -0.035 C 
ATOM    132  H92 NON d   1     -38.395  24.183  18.695  0.00  0.00     0.037 H 
ATOM    133  H93 NON d   1     -36.980  24.936  19.506  0.00  0.00     0.037 H 
BRANCH 131 134
ATOM    134  CG  NON d   1     -37.228  22.838  19.897  0.00  0.00    -0.059 C 
ATOM    135  H94 NON d   1     -37.477  21.943  19.307  0.00  0.00     0.038 H 
BRANCH 134 136
ATOM    136  CD1 NON d   1     -38.239  22.944  21.037  0.00  0.00    -0.073 C 
ATOM    137  H95 NON d   1     -38.144  22.067  21.694  0.00  0.00     0.028 H 
ATOM    138  H96 NON d   1     -39.257  22.983  20.622  0.00  0.00     0.028 H 
ATOM    139  H97 NON d   1     -38.044  23.859  21.616  0.00  0.00     0.028 H 
ENDBRANCH 134 136
BRANCH 134 140
ATOM    140  CD2 NON d   1     -35.818  22.647  20.446  0.00  0.00    -0.073 C 
ATOM    141  H98 NON d   1     -35.106  22.573  19.611  0.00  0.00     0.028 H 
ATOM    142  H99 NON d   1     -35.779  21.724  21.044  0.00  0.00     0.028 H 
ATOM    143 0H10 NON d   1     -35.552  23.506  21.080  0.00  0.00     0.028 H 
ENDBRANCH 134 140
ENDBRANCH 131 134
ENDBRANCH  33 131
BRANCH  32 144
ATOM    144  CN  NON d   1     -38.406  23.199  16.253  0.00  0.00    -0.015 C 
ATOM    145 1H10 NON d   1     -38.785  22.343  15.676  0.00  0.00     0.056 H 
ATOM    146 2H10 NON d   1     -38.254  24.056  15.580  0.00  0.00     0.056 H 
ATOM    147 3H10 NON d   1     -39.136  23.468  17.031  0.00  0.00     0.056 H 
ENDBRANCH  32 144
BRANCH  18 148
ATOM    148  CB  NON d   1     -32.721  23.355  16.084  0.00  0.00    -0.035 C 
ATOM    149  H54 NON d   1     -32.873  22.430  16.659  0.00  0.00     0.037 H 
ATOM    150  H55 NON d   1     -33.534  24.062  16.305  0.00  0.00     0.037 H 
BRANCH 148 151
ATOM    151  CG  NON d   1     -31.395  23.983  16.506  0.00  0.00    -0.059 C 
ATOM    152  H56 NON d   1     -31.067  24.680  15.720  0.00  0.00     0.038 H 
BRANCH 151 153
ATOM    153  CD1 NON d   1     -30.334  22.901  16.659  0.00  0.00    -0.073 C 
ATOM    154  H57 NON d   1     -29.382  23.361  16.963  0.00  0.00     0.028 H 
ATOM    155  H58 NON d   1     -30.200  22.381  15.699  0.00  0.00     0.028 H 
ATOM    156  H59 NON d   1     -30.654  22.180  17.425  0.00  0.00     0.028 H 
ENDBRANCH 151 153
BRANCH 151 157
ATOM    157  CD2 NON d   1     -31.593  24.771  17.796  0.00  0.00    -0.073 C 
ATOM    158  H60 NON d   1     -32.365  25.539  17.642  0.00  0.00     0.028 H 
ATOM    159  H61 NON d   1     -30.646  25.254  18.079  0.00  0.00     0.028 H 
ATOM    160  H62 NON d   1     -31.910  24.088  18.598  0.00  0.00     0.028 H 
ENDBRANCH 151 157
ENDBRANCH 148 151
ENDBRANCH  18 148
BRANCH  21 161
ATOM    161  CN  NON d   1     -32.689  20.202  14.269  0.00  0.00    -0.015 C 
ATOM    162  H71 NON d   1     -31.857  20.904  14.428  0.00  0.00     0.056 H 
ATOM    163  H72 NON d   1     -32.536  19.660  13.324  0.00  0.00     0.056 H 
ATOM    164  H73 NON d   1     -32.728  19.484  15.102  0.00  0.00     0.056 H 
ENDBRANCH  21 161
BRANCH  22 165
ATOM    165  CB  NON d   1     -35.140  19.557  12.622  0.00  0.00    -0.033 C 
ATOM    166  H64 NON d   1     -34.337  18.806  12.654  0.00  0.00     0.042 H 
BRANCH 165 167
ATOM    167  CG1 NON d   1     -34.813  20.537  11.499  0.00  0.00    -0.071 C 
ATOM    168  H65 NON d   1     -34.779  19.998  10.541  0.00  0.00     0.028 H 
ATOM    169  H66 NON d   1     -33.836  21.003  11.692  0.00  0.00     0.028 H 
ATOM    170  H67 NON d   1     -35.589  21.316  11.454  0.00  0.00     0.028 H 
ENDBRANCH 165 167
BRANCH 165 171
ATOM    171  CG2 NON d   1     -36.454  18.839  12.322  0.00  0.00    -0.071 C 
ATOM    172  H68 NON d   1     -36.681  18.135  13.136  0.00  0.00     0.028 H 
ATOM    173  H69 NON d   1     -36.362  18.287  11.375  0.00  0.00     0.028 H 
ATOM    174  H70 NON d   1     -37.265  19.578  12.239  0.00  0.00     0.028 H 
ENDBRANCH 165 171
ENDBRANCH  22 165
BRANCH  30 175
ATOM    175  C1  NON d   1     -38.282  18.211  18.900  0.00  0.00    -0.049 C 
ATOM    176  C6  NON d   1     -37.427  17.298  19.766  0.00  0.00    -0.061 C 
ATOM    177  C5  NON d   1     -38.287  16.453  20.704  0.00  0.00    -0.065 C 
ATOM    178  H79 NON d   1     -36.741  17.914  20.367  0.00  0.00     0.033 H 
ATOM    179  H80 NON d   1     -36.845  16.629  19.115  0.00  0.00     0.033 H 
ATOM    180  C4  NON d   1     -39.205  17.319  21.555  0.00  0.00    -0.065 C 
ATOM    181  H81 NON d   1     -37.628  15.873  21.367  0.00  0.00     0.033 H 
ATOM    182  H82 NON d   1     -38.901  15.765  20.103  0.00  0.00     0.033 H 
ATOM    183  C3  NON d   1     -40.092  18.165  20.653  0.00  0.00    -0.065 C 
ATOM    184  H83 NON d   1     -38.598  17.978  22.193  0.00  0.00     0.033 H 
ATOM    185  H84 NON d   1     -39.834  16.674  22.186  0.00  0.00     0.033 H 
ATOM    186  C2  NON d   1     -39.214  19.042  19.771  0.00  0.00    -0.061 C 
ATOM    187  H85 NON d   1     -40.745  18.800  21.270  0.00  0.00     0.033 H 
ATOM    188  H86 NON d   1     -40.709  17.508  20.022  0.00  0.00     0.033 H 
ATOM    189  H87 NON d   1     -39.858  19.653  19.122  0.00  0.00     0.033 H 
ATOM    190  H88 NON d   1     -38.610  19.701  20.412  0.00  0.00     0.033 H 
ATOM    191  H78 NON d   1     -38.880  17.595  18.212  0.00  0.00     0.040 H 
ENDBRANCH  30 175
TORSDOF 31
