REMARK  31 active torsions:
REMARK  status: ('A' for Active; 'I' for Inactive)
REMARK    1  A    between atoms: C_1  and  CH3_3 
REMARK       I    between atoms: N_4  and  C_1 
REMARK    2  A    between atoms: N_4  and  CN_5 
REMARK    3  A    between atoms: CA_6  and  N_4 
REMARK    4  A    between atoms: CA_6  and  CB_7 
REMARK    5  A    between atoms: C_10  and  CA_6 
REMARK    6  A    between atoms: CB_7  and  CG1_8 
REMARK    7  A    between atoms: CB_7  and  CG2_9 
REMARK       I    between atoms: N_13  and  C_10 
REMARK    8  A    between atoms: C_12  and  CA_15 
REMARK       I    between atoms: N_20  and  C_12 
REMARK    9  A    between atoms: CG_19  and  CE_18 
REMARK   10  A    between atoms: CA_24  and  N_20 
REMARK   11  A    between atoms: N_20  and  C40_27 
REMARK   12  A    between atoms: CB_25  and  CG2_26 
REMARK   13  A    between atoms: CA_29  and  CB_32 
REMARK   14  A    between atoms: CB_32  and  CG_33 
REMARK   15  A    between atoms: CG_33  and  CD1_34 
REMARK   16  A    between atoms: CG_33  and  CD2_35 
REMARK   17  A    between atoms: CG_43  and  CE_42 
REMARK   18  A    between atoms: CA_45  and  CB_48 
REMARK   19  A    between atoms: CB_48  and  CG_49 
REMARK   20  A    between atoms: CG_49  and  CD1_50 
REMARK   21  A    between atoms: CG_49  and  CD2_51 
REMARK   22  A    between atoms: N_52  and  CN_53 
REMARK   23  A    between atoms: CA_54  and  CB_55 
REMARK   24  A    between atoms: CB_55  and  CG1_56 
REMARK   25  A    between atoms: CB_55  and  CG2_57 
REMARK   26  A    between atoms: N_67  and  CN_68 
REMARK   27  A    between atoms: CA_69  and  CB_72 
REMARK   28  A    between atoms: CB_72  and  CG_73 
REMARK   29  A    between atoms: CG_73  and  CD1_74 
REMARK   30  A    between atoms: CG_73  and  CD2_75 
REMARK   31  A    between atoms: C_78  and  O_79 
ROOT
ATOM      1  N   MVA d   1     -14.844  30.172 -42.966  0.00  0.00    -0.242 NA
ATOM      2  CA  MVA d   1     -15.074  31.568 -42.485  0.00  0.00     0.076 C 
ATOM      3  C   MVA d   1     -16.368  32.193 -42.940  0.00  0.00     0.219 C 
ATOM      4  O   MVA d   1     -16.448  32.728 -44.035  0.00  0.00    -0.278 OA
ATOM      5  H65 MVA d   1     -15.056  31.572 -41.385  0.00  0.00     0.079 H 
ATOM      6  C   MP8 d   1     -12.804  27.224 -41.846  0.00  0.00     0.236 C 
ATOM      7  N   MP8 d   1     -12.033  25.057 -41.158  0.00  0.00    -0.238 NA
ATOM      8  O   MP8 d   1     -12.452  27.871 -42.817  0.00  0.00    -0.272 OA
ATOM      9  CA  MP8 d   1     -11.808  26.517 -40.971  0.00  0.00     0.079 C 
ATOM     10  CB  MP8 d   1     -10.390  26.771 -41.466  0.00  0.00    -0.037 C 
ATOM     11  CD  MP8 d   1     -10.719  24.408 -41.273  0.00  0.00    -0.010 C 
ATOM     12  CG  MP8 d   1     -10.016  25.447 -42.142  0.00  0.00    -0.044 C 
ATOM     13  H42 MP8 d   1     -11.923  26.820 -39.920  0.00  0.00     0.079 H 
ATOM     14  H43 MP8 d   1      -9.713  26.992 -40.628  0.00  0.00     0.036 H 
ATOM     15  H44 MP8 d   1     -10.366  27.602 -42.186  0.00  0.00     0.036 H 
ATOM     16  H45 MP8 d   1     -10.784  23.430 -41.771  0.00  0.00     0.057 H 
ATOM     17  H46 MP8 d   1     -10.230  24.290 -40.295  0.00  0.00     0.057 H 
ATOM     18  H50 MP8 d   1     -10.448  25.427 -43.153  0.00  0.00     0.041 H 
ATOM     19  O   NZC d   1     -11.793  23.846 -37.643  0.00  0.00    -0.271 OA
ATOM     20  OG1 NZC d   1     -14.607  25.423 -36.647  0.00  0.00    -0.292 OA
ATOM     21  C   NZC d   1     -12.881  23.296 -37.574  0.00  0.00     0.246 C 
ATOM     22  CA  NZC d   1     -13.672  23.216 -36.292  0.00  0.00     0.145 C 
ATOM     23  CB  NZC d   1     -14.950  24.066 -36.419  0.00  0.00     0.201 A 
ATOM     24  H24 NZC d   1     -13.982  22.166 -36.185  0.00  0.00     0.096 H 
ATOM     25  N   LEU d   1     -13.453  22.719 -38.639  0.00  0.00    -0.346 N 
ATOM     26  CA  LEU d   1     -13.077  23.059 -40.019  0.00  0.00     0.085 C 
ATOM     27  C   LEU d   1     -12.893  24.539 -40.217  0.00  0.00     0.223 C 
ATOM     28  O   LEU d   1     -13.560  25.330 -39.585  0.00  0.00    -0.277 OA
ATOM     29  N   LEU d   1     -14.080  27.061 -41.528  0.00  0.00    -0.347 N 
ATOM     30  CA  LEU d   1     -15.110  27.781 -42.239  0.00  0.00     0.085 C 
ATOM     31  C   LEU d   1     -14.975  29.246 -41.938  0.00  0.00     0.223 C 
ATOM     32  O   LEU d   1     -14.951  29.602 -40.766  0.00  0.00    -0.277 OA
ATOM     33  H31 LEU d   1     -14.163  22.031 -38.490  0.00  0.00     0.163 HD
ATOM     34  H32 LEU d   1     -12.150  22.528 -40.282  0.00  0.00     0.086 H 
ATOM     35  H51 LEU d   1     -14.332  26.435 -40.790  0.00  0.00     0.163 HD
ATOM     36  H52 LEU d   1     -15.012  27.610 -43.321  0.00  0.00     0.086 H 
ATOM     37  N   PRO d   1     -17.509  32.169 -42.167  0.00  0.00    -0.239 NA
ATOM     38  CA  PRO d   1     -17.280  32.301 -40.710  0.00  0.00     0.074 C 
ATOM     39  C   PRO d   1     -17.730  31.006 -40.110  0.00  0.00     0.218 C 
ATOM     40  O   PRO d   1     -17.980  30.081 -40.862  0.00  0.00    -0.278 OA
ATOM     41  CB  PRO d   1     -18.215  33.402 -40.227  0.00  0.00    -0.041 C 
ATOM     42  CG  PRO d   1     -19.226  33.593 -41.341  0.00  0.00    -0.052 C 
ATOM     43  CD  PRO d   1     -18.457  33.217 -42.597  0.00  0.00    -0.013 C 
ATOM     44  H73 PRO d   1     -16.230  32.522 -40.470  0.00  0.00     0.078 H 
ATOM     45  H74 PRO d   1     -17.655  34.333 -40.052  0.00  0.00     0.036 H 
ATOM     46  H75 PRO d   1     -18.720  33.098 -39.298  0.00  0.00     0.036 H 
ATOM     47  H76 PRO d   1     -19.565  34.638 -41.387  0.00  0.00     0.034 H 
ATOM     48  H77 PRO d   1     -20.094  32.932 -41.200  0.00  0.00     0.034 H 
ATOM     49  H78 PRO d   1     -19.140  32.828 -43.366  0.00  0.00     0.056 H 
ATOM     50  H79 PRO d   1     -17.916  34.088 -42.994  0.00  0.00     0.056 H 
ATOM     51  N   MLU d   1     -17.923  30.860 -38.744  0.00  0.00    -0.243 NA
ATOM     52  CA  MLU d   1     -18.419  29.491 -38.459  0.00  0.00     0.078 C 
ATOM     53  C   MLU d   1     -17.414  28.576 -37.822  0.00  0.00     0.236 C 
ATOM     54  O   MLU d   1     -17.673  28.087 -36.731  0.00  0.00    -0.272 OA
ATOM     55  H83 MLU d   1     -18.773  29.041 -39.398  0.00  0.00     0.079 H 
ATOM     56  N   GLY d   1     -16.285  28.296 -38.455  0.00  0.00    -0.352 N 
ATOM     57  CA  GLY d   1     -15.241  27.626 -37.704  0.00  0.00     0.073 C 
ATOM     58  C   GLY d   1     -15.539  26.157 -37.454  0.00  0.00     0.302 A 
ATOM     59  OXT GLY d   1     -14.831  25.424 -36.768  0.00  0.00    -0.292 OA
ATOM     60  H93 GLY d   1     -16.157  28.538 -39.417  0.00  0.00     0.162 HD
ATOM     61  H94 GLY d   1     -15.128  28.131 -36.733  0.00  0.00     0.076 H 
ATOM     62  H95 GLY d   1     -14.300  27.702 -38.268  0.00  0.00     0.076 H 
ENDROOT
BRANCH  22  63
ATOM     63  N   NZC d   1     -12.937  23.567 -35.029  0.00  0.00    -0.336 N 
ATOM     64  C   MP8 d   1     -12.253  22.489 -34.453  0.00  0.00     0.243 C 
ATOM     65  O   MP8 d   1     -12.614  21.331 -34.660  0.00  0.00    -0.271 OA
BRANCH  64  66
ATOM     66  CA  MP8 d   1     -11.103  22.797 -33.520  0.00  0.00     0.092 C 
ATOM     67  N   MP8 d   1     -10.891  21.884 -32.363  0.00  0.00    -0.337 N 
ATOM     68  C   MVA d   1     -11.984  21.415 -31.644  0.00  0.00     0.239 C 
ATOM     69  CD  MP8 d   1      -9.869  20.855 -32.713  0.00  0.00     0.002 C 
ATOM     70  O   MVA d   1     -13.044  22.030 -31.631  0.00  0.00    -0.272 OA
ATOM     71  CG  MP8 d   1      -9.239  21.300 -34.041  0.00  0.00    -0.040 C 
ATOM     72  H18 MP8 d   1     -10.345  19.870 -32.830  0.00  0.00     0.065 H 
ATOM     73  H19 MP8 d   1      -9.101  20.800 -31.928  0.00  0.00     0.065 H 
ATOM     74  CB  MP8 d   1      -9.777  22.703 -34.281  0.00  0.00    -0.033 C 
ATOM     75  H23 MP8 d   1      -9.585  20.632 -34.844  0.00  0.00     0.042 H 
ATOM     76  H16 MP8 d   1      -9.067  23.452 -33.901  0.00  0.00     0.037 H 
ATOM     77  H17 MP8 d   1      -9.943  22.867 -35.356  0.00  0.00     0.037 H 
ATOM     78  H15 MP8 d   1     -11.253  23.818 -33.140  0.00  0.00     0.087 H 
BRANCH  68  79
ATOM     79  CA  MVA d   1     -11.758  20.192 -30.772  0.00  0.00     0.081 C 
ATOM     80  H7  MVA d   1     -10.980  19.618 -31.296  0.00  0.00     0.080 H 
BRANCH  79  81
ATOM     81  N   MVA d   1     -11.192  20.553 -29.434  0.00  0.00    -0.244 NA
ATOM     82  C   ACE d   1      -9.935  19.993 -29.228  0.00  0.00     0.196 C 
ATOM     83  O   ACE d   1      -9.585  19.076 -29.935  0.00  0.00    -0.280 OA
BRANCH  82  84
ATOM     84  CH3 ACE d   1      -9.061  20.481 -28.101  0.00  0.00    -0.007 C 
ATOM     85  H1  ACE d   1      -9.559  21.315 -27.585  0.00  0.00     0.039 H 
ATOM     86  H2  ACE d   1      -8.098  20.824 -28.506  0.00  0.00     0.039 H 
ATOM     87  H3  ACE d   1      -8.889  19.660 -27.389  0.00  0.00     0.039 H 
ENDBRANCH  82  84
BRANCH  81  88
ATOM     88  CN  MVA d   1     -11.183  21.999 -29.129  0.00  0.00    -0.025 C 
ATOM     89  H4  MVA d   1     -10.751  22.160 -28.130  0.00  0.00     0.049 H 
ATOM     90  H5  MVA d   1     -12.213  22.384 -29.150  0.00  0.00     0.049 H 
ATOM     91  H6  MVA d   1     -10.578  22.528 -29.880  0.00  0.00     0.049 H 
ENDBRANCH  81  88
ENDBRANCH  79  81
BRANCH  79  92
ATOM     92  CB  MVA d   1     -12.930  19.196 -30.569  0.00  0.00    -0.037 C 
ATOM     93  H8  MVA d   1     -12.583  18.268 -31.047  0.00  0.00     0.042 H 
BRANCH  92  94
ATOM     94  CG1 MVA d   1     -13.146  18.856 -29.090  0.00  0.00    -0.071 C 
ATOM     95  H9  MVA d   1     -13.984  18.149 -28.995  0.00  0.00     0.028 H 
ATOM     96  H10 MVA d   1     -13.377  19.776 -28.532  0.00  0.00     0.028 H 
ATOM     97  H11 MVA d   1     -12.233  18.399 -28.682  0.00  0.00     0.028 H 
ENDBRANCH  92  94
BRANCH  92  98
ATOM     98  CG2 MVA d   1     -14.267  19.493 -31.228  0.00  0.00    -0.071 C 
ATOM     99  H12 MVA d   1     -14.107  19.736 -32.289  0.00  0.00     0.028 H 
ATOM    100  H13 MVA d   1     -14.743  20.347 -30.724  0.00  0.00     0.028 H 
ATOM    101  H14 MVA d   1     -14.919  18.611 -31.149  0.00  0.00     0.028 H 
ENDBRANCH  92  98
ENDBRANCH  79  92
ENDBRANCH  68  79
BRANCH  71 102
ATOM    102  CE  MP8 d   1      -7.710  21.273 -34.038  0.00  0.00    -0.071 C 
ATOM    103  H20 MP8 d   1      -7.336  21.603 -35.018  0.00  0.00     0.028 H 
ATOM    104  H21 MP8 d   1      -7.362  20.249 -33.838  0.00  0.00     0.028 H 
ATOM    105  H22 MP8 d   1      -7.333  21.948 -33.255  0.00  0.00     0.028 H 
ENDBRANCH  71 102
ENDBRANCH  64  66
BRANCH  63 106
ATOM    106  C40 NZC d   1     -12.183  24.861 -35.024  0.00  0.00    -0.015 C 
ATOM    107  H28 NZC d   1     -11.694  24.997 -34.048  0.00  0.00     0.056 H 
ATOM    108  H29 NZC d   1     -12.880  25.692 -35.203  0.00  0.00     0.056 H 
ATOM    109  H30 NZC d   1     -11.421  24.844 -35.817  0.00  0.00     0.056 H 
ENDBRANCH  63 106
ENDBRANCH  22  63
BRANCH  23 110
ATOM    110  CG2 NZC d   1     -15.743  24.037 -35.122  0.00  0.00    -0.022 C 
ATOM    111  H25 NZC d   1     -16.037  23.002 -34.895  0.00  0.00     0.035 H 
ATOM    112  H26 NZC d   1     -16.644  24.659 -35.229  0.00  0.00     0.035 H 
ATOM    113  H27 NZC d   1     -15.122  24.430 -34.303  0.00  0.00     0.035 H 
ENDBRANCH  23 110
BRANCH  26 114
ATOM    114  CB  LEU d   1     -14.208  22.659 -40.957  0.00  0.00    -0.036 C 
ATOM    115  H33 LEU d   1     -14.365  23.490 -41.660  0.00  0.00     0.037 H 
ATOM    116  H34 LEU d   1     -15.112  22.520 -40.346  0.00  0.00     0.037 H 
BRANCH 114 117
ATOM    117  CG  LEU d   1     -14.011  21.388 -41.783  0.00  0.00    -0.059 C 
ATOM    118  H35 LEU d   1     -13.779  21.715 -42.807  0.00  0.00     0.038 H 
BRANCH 117 119
ATOM    119  CD1 LEU d   1     -15.314  20.581 -41.865  0.00  0.00    -0.073 C 
ATOM    120  H36 LEU d   1     -15.146  19.673 -42.463  0.00  0.00     0.028 H 
ATOM    121  H37 LEU d   1     -16.095  21.193 -42.339  0.00  0.00     0.028 H 
ATOM    122  H38 LEU d   1     -15.634  20.298 -40.852  0.00  0.00     0.028 H 
ENDBRANCH 117 119
BRANCH 117 123
ATOM    123  CD2 LEU d   1     -12.826  20.548 -41.329  0.00  0.00    -0.073 C 
ATOM    124  H39 LEU d   1     -11.925  21.177 -41.289  0.00  0.00     0.028 H 
ATOM    125  H40 LEU d   1     -12.667  19.724 -42.040  0.00  0.00     0.028 H 
ATOM    126  H41 LEU d   1     -13.030  20.136 -40.330  0.00  0.00     0.028 H 
ENDBRANCH 117 123
ENDBRANCH 114 117
ENDBRANCH  26 114
BRANCH  58 127
ATOM    127  O   GLY d   1     -16.515  25.570 -37.915  0.00  0.00    -0.342 OA
ATOM    128  H96 GLY d   1     -17.038  25.220 -37.203  0.00  0.00     0.215 HD
ENDBRANCH  58 127
BRANCH  12 129
ATOM    129  CE  MP8 d   1      -8.520  25.202 -42.293  0.00  0.00    -0.072 C 
ATOM    130  H47 MP8 d   1      -8.082  25.986 -42.929  0.00  0.00     0.028 H 
ATOM    131  H48 MP8 d   1      -8.354  24.219 -42.757  0.00  0.00     0.028 H 
ATOM    132  H49 MP8 d   1      -8.043  25.225 -41.302  0.00  0.00     0.028 H 
ENDBRANCH  12 129
BRANCH  52 133
ATOM    133  CB  MLU d   1     -19.557  29.607 -37.460  0.00  0.00    -0.039 C 
ATOM    134  H84 MLU d   1     -19.413  30.521 -36.865  0.00  0.00     0.036 H 
ATOM    135  H85 MLU d   1     -19.535  28.730 -36.796  0.00  0.00     0.036 H 
BRANCH 133 136
ATOM    136  CG  MLU d   1     -20.915  29.674 -38.134  0.00  0.00    -0.059 C 
ATOM    137  H86 MLU d   1     -20.878  30.437 -38.925  0.00  0.00     0.038 H 
BRANCH 136 138
ATOM    138  CD1 MLU d   1     -21.951  30.093 -37.097  0.00  0.00    -0.073 C 
ATOM    139  H87 MLU d   1     -22.943  30.146 -37.570  0.00  0.00     0.028 H 
ATOM    140  H88 MLU d   1     -21.685  31.080 -36.691  0.00  0.00     0.028 H 
ATOM    141  H89 MLU d   1     -21.973  29.355 -36.282  0.00  0.00     0.028 H 
ENDBRANCH 136 138
BRANCH 136 142
ATOM    142  CD2 MLU d   1     -21.288  28.341 -38.777  0.00  0.00    -0.073 C 
ATOM    143  H90 MLU d   1     -20.524  28.065 -39.519  0.00  0.00     0.028 H 
ATOM    144  H91 MLU d   1     -22.265  28.434 -39.274  0.00  0.00     0.028 H 
ATOM    145  H92 MLU d   1     -21.344  27.563 -38.002  0.00  0.00     0.028 H 
ENDBRANCH 136 142
ENDBRANCH 133 136
ENDBRANCH  52 133
BRANCH  51 146
ATOM    146  CN  MLU d   1     -16.735  31.248 -37.949  0.00  0.00    -0.025 C 
ATOM    147  H80 MLU d   1     -16.432  32.271 -38.218  0.00  0.00     0.049 H 
ATOM    148  H81 MLU d   1     -15.909  30.553 -38.161  0.00  0.00     0.049 H 
ATOM    149  H82 MLU d   1     -16.982  31.209 -36.878  0.00  0.00     0.049 H 
ENDBRANCH  51 146
BRANCH  30 150
ATOM    150  CB  LEU d   1     -16.466  27.292 -41.756  0.00  0.00    -0.036 C 
ATOM    151  H53 LEU d   1     -17.121  28.166 -41.630  0.00  0.00     0.037 H 
ATOM    152  H54 LEU d   1     -16.326  26.795 -40.785  0.00  0.00     0.037 H 
BRANCH 150 153
ATOM    153  CG  LEU d   1     -17.157  26.311 -42.697  0.00  0.00    -0.059 C 
ATOM    154  H55 LEU d   1     -18.107  26.775 -43.002  0.00  0.00     0.038 H 
BRANCH 153 155
ATOM    155  CD1 LEU d   1     -17.500  25.013 -41.984  0.00  0.00    -0.073 C 
ATOM    156  H56 LEU d   1     -17.996  24.328 -42.688  0.00  0.00     0.028 H 
ATOM    157  H57 LEU d   1     -18.175  25.225 -41.141  0.00  0.00     0.028 H 
ATOM    158  H58 LEU d   1     -16.578  24.547 -41.607  0.00  0.00     0.028 H 
ENDBRANCH 153 155
BRANCH 153 159
ATOM    159  CD2 LEU d   1     -16.363  26.053 -43.971  0.00  0.00    -0.073 C 
ATOM    160  H59 LEU d   1     -16.133  27.011 -44.460  0.00  0.00     0.028 H 
ATOM    161  H60 LEU d   1     -16.957  25.427 -44.653  0.00  0.00     0.028 H 
ATOM    162  H61 LEU d   1     -15.426  25.535 -43.720  0.00  0.00     0.028 H 
ENDBRANCH 153 159
ENDBRANCH 150 153
ENDBRANCH  30 150
BRANCH   1 163
ATOM    163  CN  MVA d   1     -15.668  29.803 -44.144  0.00  0.00    -0.025 C 
ATOM    164  H62 MVA d   1     -15.444  28.767 -44.438  0.00  0.00     0.049 H 
ATOM    165  H63 MVA d   1     -15.436  30.479 -44.980  0.00  0.00     0.049 H 
ATOM    166  H64 MVA d   1     -16.734  29.889 -43.887  0.00  0.00     0.049 H 
ENDBRANCH   1 163
BRANCH   2 167
ATOM    167  CB  MVA d   1     -13.916  32.393 -43.031  0.00  0.00    -0.037 C 
ATOM    168  H66 MVA d   1     -13.989  32.385 -44.129  0.00  0.00     0.042 H 
BRANCH 167 169
ATOM    169  CG1 MVA d   1     -12.581  31.752 -42.648  0.00  0.00    -0.071 C 
ATOM    170  H67 MVA d   1     -11.755  32.358 -43.049  0.00  0.00     0.028 H 
ATOM    171  H68 MVA d   1     -12.528  30.737 -43.068  0.00  0.00     0.028 H 
ATOM    172  H69 MVA d   1     -12.500  31.701 -41.552  0.00  0.00     0.028 H 
ENDBRANCH 167 169
BRANCH 167 173
ATOM    173  CG2 MVA d   1     -13.989  33.849 -42.580  0.00  0.00    -0.071 C 
ATOM    174  H70 MVA d   1     -14.960  34.275 -42.872  0.00  0.00     0.028 H 
ATOM    175  H71 MVA d   1     -13.179  34.422 -43.056  0.00  0.00     0.028 H 
ATOM    176  H72 MVA d   1     -13.880  33.900 -41.487  0.00  0.00     0.028 H 
ENDBRANCH 167 173
ENDBRANCH   2 167
TORSDOF 31
