REMARK  27 active torsions:
REMARK  status: ('A' for Active; 'I' for Inactive)
REMARK       I    between atoms: C1_1  and  N2_2 
REMARK    1  A    between atoms: C1_1  and  C15_15 
REMARK    2  A    between atoms: N2_2  and  C3_3 
REMARK    3  A    between atoms: C3_3  and  C4_4 
REMARK    4  A    between atoms: C3_3  and  C11_11 
REMARK    5  A    between atoms: C4_4  and  C5_5 
REMARK    6  A    between atoms: C15_15  and  C16_16 
REMARK    7  A    between atoms: C15_15  and  C43_43 
REMARK       I    between atoms: C16_16  and  N17_17 
REMARK    8  A    between atoms: N17_17  and  C18_18 
REMARK    9  A    between atoms: C18_18  and  C19_19 
REMARK   10  A    between atoms: C18_18  and  C39_39 
REMARK       I    between atoms: C19_19  and  N20_20 
REMARK   11  A    between atoms: N20_20  and  C21_21 
REMARK   12  A    between atoms: C21_21  and  C22_22 
REMARK   13  A    between atoms: C21_21  and  C35_35 
REMARK       I    between atoms: C22_22  and  N23_23 
REMARK   14  A    between atoms: N23_23  and  C24_24 
REMARK   15  A    between atoms: C24_24  and  C25_25 
REMARK   16  A    between atoms: C24_24  and  C30_30 
REMARK   17  A    between atoms: C25_25  and  C26_26 
REMARK   18  A    between atoms: C25_25  and  O29_29 
REMARK   19  A    between atoms: C26_26  and  C27_27 
REMARK   20  A    between atoms: C27_27  and  O28_28 
REMARK   21  A    between atoms: C30_30  and  C31_31 
REMARK   22  A    between atoms: C31_31  and  C32_32 
REMARK   23  A    between atoms: C31_31  and  C33_33 
REMARK   24  A    between atoms: C35_35  and  O36_36 
REMARK   25  A    between atoms: C35_35  and  C37_37 
REMARK   26  A    between atoms: C39_39  and  C40_40 
REMARK   27  A    between atoms: C39_39  and  O41_41 
ROOT
ATOM      1  C19 7IM d   1      60.325-135.444  37.559  0.00  0.00     0.243 C 
ATOM      2  N20 7IM d   1      60.761-136.514  38.201  0.00  0.00    -0.344 N 
ATOM      3  O38 7IM d   1      59.694-134.571  38.110  0.00  0.00    -0.271 OA
ATOM      4  H13 7IM d   1      61.270-137.222  37.711  0.00  0.00     0.163 HD
ENDROOT
BRANCH   1   5
ATOM      5  C18 7IM d   1      60.584-135.356  36.065  0.00  0.00     0.113 C 
ATOM      6  H12 7IM d   1      60.646-136.379  35.666  0.00  0.00     0.091 H 
BRANCH   5   7
ATOM      7  N17 7IM d   1      59.412-134.713  35.495  0.00  0.00    -0.345 N 
ATOM      8  C16 7IM d   1      58.566-135.413  34.758  0.00  0.00     0.231 C 
ATOM      9  O42 7IM d   1      58.773-136.576  34.471  0.00  0.00    -0.273 OA
ATOM     10  H11 7IM d   1      59.245-133.741  35.660  0.00  0.00     0.163 HD
BRANCH   8  11
ATOM     11  C15 7IM d   1      57.290-134.724  34.274  0.00  0.00     0.097 C 
ATOM     12  H10 7IM d   1      56.856-135.330  33.465  0.00  0.00     0.069 H 
BRANCH  11  13
ATOM     13  C1  7IM d   1      56.246-134.625  35.412  0.00  0.00     0.231 C 
ATOM     14  N2  7IM d   1      55.007-134.240  35.102  0.00  0.00    -0.345 N 
ATOM     15  H1  7IM d   1      54.783-133.990  34.160  0.00  0.00     0.163 HD
ATOM     16  O14 7IM d   1      56.525-134.952  36.549  0.00  0.00    -0.273 OA
BRANCH  14  17
ATOM     17  C3  7IM d   1      53.963-134.182  36.150  0.00  0.00     0.100 C 
ATOM     18  H2  7IM d   1      54.404-133.648  37.005  0.00  0.00     0.090 H 
BRANCH  17  19
ATOM     19  C4  7IM d   1      52.669-133.463  35.762  0.00  0.00    -0.013 C 
ATOM     20  H3  7IM d   1      52.679-132.470  36.235  0.00  0.00     0.043 H 
ATOM     21  H4  7IM d   1      51.825-134.048  36.157  0.00  0.00     0.043 H 
BRANCH  19  22
ATOM     22  C5  7IM d   1      52.468-133.288  34.420  0.00  0.00    -0.056 A 
ATOM     23  C6  7IM d   1      52.973-132.179  33.797  0.00  0.00    -0.077 A 
ATOM     24  C7  7IM d   1      52.733-132.010  32.456  0.00  0.00    -0.082 A 
ATOM     25  H5  7IM d   1      53.551-131.449  34.352  0.00  0.00     0.084 H 
ATOM     26  C8  7IM d   1      51.996-132.929  31.733  0.00  0.00    -0.083 A 
ATOM     27  H6  7IM d   1      53.130-131.136  31.953  0.00  0.00     0.083 H 
ATOM     28  C9  7IM d   1      51.484-134.038  32.364  0.00  0.00    -0.082 A 
ATOM     29  H7  7IM d   1      51.823-132.776  30.674  0.00  0.00     0.083 H 
ATOM     30  C10 7IM d   1      51.715-134.200  33.716  0.00  0.00    -0.077 A 
ATOM     31  H8  7IM d   1      50.910-134.772  31.811  0.00  0.00     0.083 H 
ATOM     32  H9  7IM d   1      51.297-135.058  34.230  0.00  0.00     0.084 H 
ENDBRANCH  19  22
ENDBRANCH  17  19
BRANCH  17  33
ATOM     33  C11 7IM d   1      53.537-135.564  36.609  0.00  0.00     0.197 C 
ATOM     34  O12 7IM d   1      52.978-135.623  37.707  0.00  0.00    -0.646 OA
ATOM     35  O13 7IM d   1      53.740-136.520  35.848  0.00  0.00    -0.646 OA
ENDBRANCH  17  33
ENDBRANCH  14  17
ENDBRANCH  11  13
BRANCH  11  36
ATOM     36  C43 7IM d   1      57.617-133.364  33.721  0.00  0.00    -0.057 C 
ATOM     37  H43 7IM d   1      56.693-132.877  33.376  0.00  0.00     0.029 H 
ATOM     38  H44 7IM d   1      58.314-133.469  32.876  0.00  0.00     0.029 H 
ATOM     39  H45 7IM d   1      58.083-132.751  34.507  0.00  0.00     0.029 H 
ENDBRANCH  11  36
ENDBRANCH   8  11
ENDBRANCH   5   7
BRANCH   5  40
ATOM     40  C39 7IM d   1      61.898-134.660  35.701  0.00  0.00     0.060 C 
ATOM     41  H38 7IM d   1      62.633-135.441  35.456  0.00  0.00     0.086 H 
BRANCH  40  42
ATOM     42  C40 7IM d   1      61.759-133.740  34.507  0.00  0.00    -0.050 C 
ATOM     43  H39 7IM d   1      62.730-133.269  34.292  0.00  0.00     0.031 H 
ATOM     44  H40 7IM d   1      61.015-132.961  34.729  0.00  0.00     0.031 H 
ATOM     45  H41 7IM d   1      61.432-134.321  33.632  0.00  0.00     0.031 H 
ENDBRANCH  40  42
BRANCH  40  46
ATOM     46  O41 7IM d   1      62.387-133.903  36.758  0.00  0.00    -0.393 OA
ATOM     47  H42 7IM d   1      62.485-134.457  37.524  0.00  0.00     0.210 HD
ENDBRANCH  40  46
ENDBRANCH   5  40
ENDBRANCH   1   5
BRANCH   2  48
ATOM     48  C21 7IM d   1      60.495-136.657  39.631  0.00  0.00     0.113 C 
ATOM     49  H14 7IM d   1      59.960-135.755  39.962  0.00  0.00     0.091 H 
BRANCH  48  50
ATOM     50  C22 7IM d   1      61.832-136.653  40.389  0.00  0.00     0.243 C 
ATOM     51  N23 7IM d   1      61.794-136.344  41.679  0.00  0.00    -0.352 N 
ATOM     52  H15 7IM d   1      60.891-136.241  42.096  0.00  0.00     0.163 HD
ATOM     53  O34 7IM d   1      62.865-136.825  39.795  0.00  0.00    -0.271 OA
BRANCH  51  54
ATOM     54  C24 7IM d   1      62.953-136.141  42.543  0.00  0.00     0.037 C 
ATOM     55  H16 7IM d   1      63.890-136.297  41.989  0.00  0.00     0.076 H 
BRANCH  54  56
ATOM     56  C25 7IM d   1      62.974-136.988  43.832  0.00  0.00     0.057 C 
ATOM     57  H17 7IM d   1      63.647-136.500  44.553  0.00  0.00     0.086 H 
BRANCH  56  58
ATOM     58  C26 7IM d   1      63.499-138.445  43.615  0.00  0.00    -0.020 C 
ATOM     59  H18 7IM d   1      63.839-138.867  44.573  0.00  0.00     0.040 H 
ATOM     60  H19 7IM d   1      64.335-138.439  42.900  0.00  0.00     0.040 H 
BRANCH  58  61
ATOM     61  C27 7IM d   1      62.372-139.263  43.071  0.00  0.00     0.019 C 
ATOM     62  H20 7IM d   1      62.666-140.320  42.988  0.00  0.00     0.074 H 
ATOM     63  H21 7IM d   1      62.065-138.889  42.083  0.00  0.00     0.074 H 
BRANCH  61  64
ATOM     64  O28 7IM d   1      61.311-139.110  44.017  0.00  0.00    -0.401 OA
ATOM     65  H22 7IM d   1      61.077-138.191  44.083  0.00  0.00     0.209 HD
ENDBRANCH  61  64
ENDBRANCH  58  61
ENDBRANCH  56  58
BRANCH  56  66
ATOM     66  O29 7IM d   1      61.704-136.981  44.346  0.00  0.00    -0.393 OA
ATOM     67  H23 7IM d   1      61.118-137.425  43.745  0.00  0.00     0.210 HD
ENDBRANCH  56  66
ENDBRANCH  54  56
BRANCH  54  68
ATOM     68  C30 7IM d   1      62.741-134.689  42.926  0.00  0.00    -0.041 C 
ATOM     69  H24 7IM d   1      62.771-134.613  44.023  0.00  0.00     0.036 H 
ATOM     70  H25 7IM d   1      61.750-134.378  42.564  0.00  0.00     0.036 H 
BRANCH  68  71
ATOM     71  C31 7IM d   1      63.775-133.740  42.356  0.00  0.00    -0.059 C 
ATOM     72  H26 7IM d   1      64.680-133.764  42.980  0.00  0.00     0.038 H 
BRANCH  71  73
ATOM     73  C32 7IM d   1      64.129-134.094  40.938  0.00  0.00    -0.073 C 
ATOM     74  H27 7IM d   1      64.880-133.385  40.560  0.00  0.00     0.028 H 
ATOM     75  H28 7IM d   1      63.227-134.042  40.311  0.00  0.00     0.028 H 
ATOM     76  H29 7IM d   1      64.539-135.114  40.906  0.00  0.00     0.028 H 
ENDBRANCH  71  73
BRANCH  71  77
ATOM     77  C33 7IM d   1      63.187-132.363  42.344  0.00  0.00    -0.073 C 
ATOM     78  H30 7IM d   1      62.916-132.071  43.369  0.00  0.00     0.028 H 
ATOM     79  H31 7IM d   1      62.288-132.354  41.710  0.00  0.00     0.028 H 
ATOM     80  H32 7IM d   1      63.925-131.653  41.944  0.00  0.00     0.028 H 
ENDBRANCH  71  77
ENDBRANCH  68  71
ENDBRANCH  54  68
ENDBRANCH  51  54
ENDBRANCH  48  50
BRANCH  48  81
ATOM     81  C35 7IM d   1      59.514-137.834  39.863  0.00  0.00     0.060 C 
ATOM     82  H33 7IM d   1      59.080-138.120  38.893  0.00  0.00     0.086 H 
BRANCH  81  83
ATOM     83  O36 7IM d   1      60.110-138.940  40.455  0.00  0.00    -0.393 OA
ATOM     84  H34 7IM d   1      59.461-139.624  40.571  0.00  0.00     0.210 HD
ENDBRANCH  81  83
BRANCH  81  85
ATOM     85  C37 7IM d   1      58.423-137.448  40.828  0.00  0.00    -0.050 C 
ATOM     86  H35 7IM d   1      57.743-138.301  40.973  0.00  0.00     0.031 H 
ATOM     87  H36 7IM d   1      57.859-136.595  40.422  0.00  0.00     0.031 H 
ATOM     88  H37 7IM d   1      58.870-137.167  41.793  0.00  0.00     0.031 H 
ENDBRANCH  81  85
ENDBRANCH  48  81
ENDBRANCH   2  48
TORSDOF 27
