REMARK  11 active torsions:
REMARK  status: ('A' for Active; 'I' for Inactive)
REMARK    1  A    between atoms: C01_1  and  C02_2 
REMARK    2  A    between atoms: C02_2  and  C03_3 
REMARK    3  A    between atoms: C03_3  and  C04_4 
REMARK    4  A    between atoms: C04_4  and  C05_5 
REMARK    5  A    between atoms: C05_5  and  C06_6 
REMARK    6  A    between atoms: C06_6  and  C07_7 
REMARK    7  A    between atoms: C07_7  and  N08_8 
REMARK    8  A    between atoms: N11_11  and  C13_13 
REMARK    9  A    between atoms: C13_13  and  C14_14 
REMARK   10  A    between atoms: C14_14  and  P15_15 
REMARK   11  A    between atoms: C14_14  and  P19_19 
ROOT
ATOM      1  C07 G76 d   1      27.761   2.726  31.594  0.00  0.00     0.000 C 
ATOM      2  H14 G76 d   1      27.759   2.542  32.678  0.00  0.00     0.064 H 
ATOM      3  H15 G76 d   1      28.763   2.520  31.189  0.00  0.00     0.064 H 
ENDROOT
BRANCH   1   4
ATOM      4  C06 G76 d   1      27.398   4.187  31.328  0.00  0.00    -0.050 C 
ATOM      5  H12 G76 d   1      27.480   4.362  30.245  0.00  0.00     0.035 H 
ATOM      6  H13 G76 d   1      26.356   4.338  31.645  0.00  0.00     0.035 H 
BRANCH   4   7
ATOM      7  C05 G76 d   1      28.282   5.262  32.057  0.00  0.00    -0.064 C 
ATOM      8  H10 G76 d   1      27.937   5.418  33.090  0.00  0.00     0.033 H 
ATOM      9  H11 G76 d   1      29.340   4.959  32.066  0.00  0.00     0.033 H 
BRANCH   7  10
ATOM     10  C04 G76 d   1      28.084   6.527  31.219  0.00  0.00    -0.065 C 
ATOM     11  H8  G76 d   1      27.853   6.219  30.188  0.00  0.00     0.033 H 
ATOM     12  H9  G76 d   1      27.230   7.081  31.636  0.00  0.00     0.033 H 
BRANCH  10  13
ATOM     13  C03 G76 d   1      29.291   7.479  31.172  0.00  0.00    -0.065 C 
ATOM     14  H6  G76 d   1      30.208   6.917  31.402  0.00  0.00     0.033 H 
ATOM     15  H7  G76 d   1      29.371   7.917  30.166  0.00  0.00     0.033 H 
BRANCH  13  16
ATOM     16  C02 G76 d   1      29.112   8.588  32.191  0.00  0.00    -0.069 C 
ATOM     17  H4  G76 d   1      29.633   9.486  31.828  0.00  0.00     0.032 H 
ATOM     18  H5  G76 d   1      28.038   8.802  32.292  0.00  0.00     0.032 H 
BRANCH  16  19
ATOM     19  C01 G76 d   1      29.666   8.226  33.561  0.00  0.00    -0.077 C 
ATOM     20  H1  G76 d   1      29.508   9.066  34.254  0.00  0.00     0.027 H 
ATOM     21  H2  G76 d   1      30.743   8.017  33.478  0.00  0.00     0.027 H 
ATOM     22  H3  G76 d   1      29.148   7.333  33.942  0.00  0.00     0.027 H 
ENDBRANCH  16  19
ENDBRANCH  13  16
ENDBRANCH  10  13
ENDBRANCH   7  10
ENDBRANCH   4   7
ENDBRANCH   1   4
BRANCH   1  23
ATOM     23  N08 G76 d   1      26.802   1.854  30.961  0.00  0.00    -0.352 N 
ATOM     24  C09 G76 d   1      26.583   0.599  31.304  0.00  0.00    -0.005 A 
ATOM     25  C10 G76 d   1      25.619   0.087  30.488  0.00  0.00    -0.005 A 
ATOM     26  H16 G76 d   1      27.088   0.062  32.105  0.00  0.00     0.113 H 
ATOM     27  N11 G76 d   1      25.267   1.072  29.642  0.00  0.00    -0.350 N 
ATOM     28  H17 G76 d   1      25.213  -0.923  30.515  0.00  0.00     0.113 H 
ATOM     29  C12 G76 d   1      26.003   2.164  29.910  0.00  0.00     0.044 A 
ATOM     30  H18 G76 d   1      25.965   3.116  29.384  0.00  0.00     0.141 H 
BRANCH  27  31
ATOM     31  C13 G76 d   1      24.260   1.015  28.561  0.00  0.00     0.028 C 
ATOM     32  H19 G76 d   1      24.377   1.908  27.930  0.00  0.00     0.067 H 
ATOM     33  H20 G76 d   1      23.259   1.017  29.017  0.00  0.00     0.067 H 
BRANCH  31  34
ATOM     34  C14 G76 d   1      24.387  -0.246  27.658  0.00  0.00     0.177 C 
ATOM     35  H21 G76 d   1      24.219  -1.139  28.277  0.00  0.00     0.086 H 
BRANCH  34  36
ATOM     36  P15 G76 d   1      25.979  -0.471  26.824  0.00  0.00     0.279 P 
ATOM     37  O16 G76 d   1      26.311   0.735  25.934  0.00  0.00    -0.639 OA
ATOM     38  O17 G76 d   1      25.855  -1.772  25.991  0.00  0.00    -0.639 OA
ATOM     39  O18 G76 d   1      26.977  -0.764  27.960  0.00  0.00    -0.639 OA
ENDBRANCH  34  36
BRANCH  34  40
ATOM     40  P19 G76 d   1      23.030  -0.066  26.485  0.00  0.00     0.279 P 
ATOM     41  O20 G76 d   1      23.198   1.183  25.626  0.00  0.00    -0.639 OA
ATOM     42  O21 G76 d   1      21.797  -0.171  27.409  0.00  0.00    -0.639 OA
ATOM     43  O22 G76 d   1      23.038  -1.281  25.573  0.00  0.00    -0.639 OA
ENDBRANCH  34  40
ENDBRANCH  31  34
ENDBRANCH  27  31
ENDBRANCH   1  23
TORSDOF 11
