REMARK  2 active torsions:
REMARK  status: ('A' for Active; 'I' for Inactive)
REMARK    1  A    between atoms: C4_6  and  C7_7 
REMARK    2  A    between atoms: C8_8  and  N12_11 
ROOT
ATOM      1  C1  JF6 d   1      13.381  14.518  27.471  0.00  0.00    -0.083 A 
ATOM      2  C2  JF6 d   1      12.399  14.443  28.505  0.00  0.00    -0.082 A 
ATOM      3  C6  JF6 d   1      13.629  13.407  26.645  0.00  0.00    -0.082 A 
ATOM      4  C3  JF6 d   1      11.677  13.269  28.658  0.00  0.00    -0.071 A 
ATOM      5  C5  JF6 d   1      12.899  12.224  26.805  0.00  0.00    -0.071 A 
ATOM      6  C4  JF6 d   1      11.912  12.155  27.841  0.00  0.00    -0.001 A 
ATOM      7  H1  JF6 d   1      13.938  15.436  27.322  0.00  0.00     0.083 H 
ATOM      8  H2  JF6 d   1      12.221  15.289  29.159  0.00  0.00     0.083 H 
ATOM      9  H3  JF6 d   1      14.392  13.468  25.878  0.00  0.00     0.083 H 
ATOM     10  H4  JF6 d   1      10.914  13.212  29.426  0.00  0.00     0.084 H 
ATOM     11  H5  JF6 d   1      13.077  11.374  26.156  0.00  0.00     0.084 H 
ENDROOT
BRANCH   6  12
ATOM     12  C7  JF6 d   1      11.143  10.948  28.082  0.00  0.00     0.144 A 
ATOM     13  C8  JF6 d   1      11.677   9.603  28.280  0.00  0.00     0.183 A 
ATOM     14  N9  JF6 d   1      10.611   8.788  28.470  0.00  0.00    -0.085 NA
ATOM     15  O10 JF6 d   1       9.472   9.597  28.384  0.00  0.00    -0.104 OA
ATOM     16  N11 JF6 d   1       9.777  10.923  28.155  0.00  0.00    -0.101 NA
BRANCH  13  17
ATOM     17  N12 JF6 d   1      13.030   9.258  28.260  0.00  0.00    -0.380 N 
ATOM     18  H6  JF6 d   1      13.314   8.279  28.410  0.00  0.00     0.158 HD
ATOM     19  H7  JF6 d   1      13.744   9.982  28.095  0.00  0.00     0.158 HD
ENDBRANCH  13  17
ENDBRANCH   6  12
TORSDOF 2
