REMARK  2 active torsions:
REMARK  status: ('A' for Active; 'I' for Inactive)
REMARK    1  A    between atoms: C1_1  and  O1_19 
REMARK    2  A    between atoms: C17_12  and  C27_18 
ROOT
ATOM      1  C1  EQU d   1       4.408  11.560  -4.122  0.00  0.00     0.066 A 
ATOM      2  C2  EQU d   1       4.418  10.702  -5.238  0.00  0.00    -0.040 A 
ATOM      3  C3  EQU d   1       3.949  11.178  -6.465  0.00  0.00    -0.022 A 
ATOM      4  C4  EQU d   1       3.477  12.515  -6.579  0.00  0.00    -0.015 A 
ATOM      5  C5  EQU d   1       3.474  13.361  -5.464  0.00  0.00    -0.069 A 
ATOM      6  C6  EQU d   1       3.938  12.881  -4.236  0.00  0.00    -0.050 A 
ATOM      7  C10 EQU d   1       3.951  10.294  -7.676  0.00  0.00    -0.072 A 
ATOM      8  C11 EQU d   1       3.473  10.793  -8.943  0.00  0.00    -0.075 A 
ATOM      9  C12 EQU d   1       3.001  12.101  -9.083  0.00  0.00    -0.041 A 
ATOM     10  C13 EQU d   1       2.997  13.007  -7.804  0.00  0.00    -0.019 A 
ATOM     11  C16 EQU d   1       2.677  12.509  -9.907  0.00  0.00    -0.010 C 
ATOM     12  C17 EQU d   1       2.964  13.666 -10.197  0.00  0.00     0.042 C 
ATOM     13  C18 EQU d   1       2.424  14.701  -9.197  0.00  0.00    -0.086 C 
ATOM     14  C19 EQU d   1       2.499  14.381  -8.029  0.00  0.00    -0.074 C 
ATOM     15  C24 EQU d   1       2.782  11.804 -11.113  0.00  0.00    -0.050 C 
ATOM     16  C25 EQU d   1       2.431  12.718 -12.166  0.00  0.00    -0.008 C 
ATOM     17  C26 EQU d   1       2.448  13.862 -11.645  0.00  0.00     0.139 C 
ATOM     18  O26 EQU d   1       2.149  14.924 -12.179  0.00  0.00    -0.297 OA
ATOM     19  H1  EQU d   1       4.785   9.686  -5.147  0.00  0.00     0.089 H 
ATOM     20  H2  EQU d   1       3.115  14.380  -5.552  0.00  0.00     0.085 H 
ATOM     21  H3  EQU d   1       3.936  13.530  -3.368  0.00  0.00     0.087 H 
ATOM     22  H4  EQU d   1       4.313   9.275  -7.599  0.00  0.00     0.084 H 
ATOM     23  H5  EQU d   1       3.480  10.138  -9.806  0.00  0.00     0.084 H 
ATOM     24  H6  EQU d   1       1.595  12.548  -9.712  0.00  0.00     0.049 H 
ATOM     25  H7  EQU d   1       2.004  15.654  -9.514  0.00  0.00     0.078 H 
ATOM     26  H8  EQU d   1       2.223  15.050  -7.215  0.00  0.00     0.084 H 
ATOM     27  H9  EQU d   1       2.092  10.947 -11.111  0.00  0.00     0.034 H 
ATOM     28  H10 EQU d   1       3.812  11.445 -11.252  0.00  0.00     0.034 H 
ATOM     29  H11 EQU d   1       1.428  12.489 -12.554  0.00  0.00     0.044 H 
ATOM     30  H12 EQU d   1       3.163  12.659 -12.985  0.00  0.00     0.044 H 
ENDROOT
BRANCH  12  31
ATOM     31  C27 EQU d   1       4.492  13.877 -10.384  0.00  0.00    -0.059 C 
ATOM     32  H13 EQU d   1       4.688  14.928 -10.642  0.00  0.00     0.029 H 
ATOM     33  H14 EQU d   1       4.856  13.227 -11.194  0.00  0.00     0.029 H 
ATOM     34  H15 EQU d   1       5.014  13.625  -9.449  0.00  0.00     0.029 H 
ENDBRANCH  12  31
BRANCH   1  35
ATOM     35  O1  EQU d   1       4.869  11.140  -2.858  0.00  0.00    -0.361 OA
ATOM     36  H16 EQU d   1       5.157  10.236  -2.912  0.00  0.00     0.217 HD
ENDBRANCH   1  35
TORSDOF 2
