REMARK  5 active torsions:
REMARK  status: ('A' for Active; 'I' for Inactive)
REMARK    1  A    between atoms: C1_1  and  N2_2 
REMARK    2  A    between atoms: N2_2  and  C3_3 
REMARK    3  A    between atoms: N2_2  and  C6_6 
REMARK    4  A    between atoms: C3_3  and  C4_4 
REMARK    5  A    between atoms: C4_4  and  O5_5 
ROOT
ATOM      1  N2  4VY d   1      13.987  12.256  18.573  0.00  0.00    -0.270 NA
ENDROOT
BRANCH   1   2
ATOM      2  C1  4VY d   1      14.094  13.704  18.614  0.00  0.00    -0.028 C 
ATOM      3  H1  4VY d   1      14.341  14.082  17.611  0.00  0.00     0.049 H 
ATOM      4  H2  4VY d   1      14.886  13.993  19.320  0.00  0.00     0.049 H 
ATOM      5  H3  4VY d   1      13.136  14.133  18.942  0.00  0.00     0.049 H 
ENDBRANCH   1   2
BRANCH   1   6
ATOM      6  C3  4VY d   1      15.339  11.902  18.318  0.00  0.00     0.004 C 
ATOM      7  H4  4VY d   1      15.789  11.400  19.187  0.00  0.00     0.059 H 
ATOM      8  H5  4VY d   1      15.938  12.786  18.054  0.00  0.00     0.059 H 
BRANCH   6   9
ATOM      9  C4  4VY d   1      15.224  11.035  17.242  0.00  0.00     0.028 C 
ATOM     10  H6  4VY d   1      14.765  11.526  16.371  0.00  0.00     0.075 H 
ATOM     11  H7  4VY d   1      14.645  10.137  17.504  0.00  0.00     0.075 H 
BRANCH   9  12
ATOM     12  O5  4VY d   1      16.551  10.738  17.018  0.00  0.00    -0.400 OA
ATOM     13  H8  4VY d   1      16.620  10.136  16.287  0.00  0.00     0.209 HD
ENDBRANCH   9  12
ENDBRANCH   6   9
ENDBRANCH   1   6
BRANCH   1  14
ATOM     14  C6  4VY d   1      13.667  11.681  19.843  0.00  0.00     0.104 A 
ATOM     15  C7  4VY d   1      13.131  12.489  20.959  0.00  0.00    -0.043 A 
ATOM     16  C8  4VY d   1      12.866  11.861  22.210  0.00  0.00    -0.062 A 
ATOM     17  H9  4VY d   1      12.942  13.548  20.827  0.00  0.00     0.088 H 
ATOM     18  C9  4VY d   1      13.117  10.478  22.313  0.00  0.00     0.028 A 
ATOM     19  H10 4VY d   1      12.485  12.427  23.052  0.00  0.00     0.085 H 
ATOM     20  C10 4VY d   1      13.611   9.724  21.226  0.00  0.00     0.021 A 
ATOM     21 BR   4VY d   1      12.778   9.541  23.886  0.00  0.00    -0.050 Br
ATOM     22  N11 4VY d   1      13.877  10.290  20.012  0.00  0.00    -0.247 NA
ATOM     23  H11 4VY d   1      13.785   8.662  21.360  0.00  0.00     0.117 H 
ENDBRANCH   1  14
TORSDOF 5
