REMARK  2 active torsions:
REMARK  status: ('A' for Active; 'I' for Inactive)
REMARK       I    between atoms: N7_1  and  C8_2 
REMARK    1  A    between atoms: N7_1  and  C5_5 
REMARK       I    between atoms: C8_2  and  N9_3 
REMARK    2  A    between atoms: N9_3  and  C10_11 
ROOT
ATOM      1  N7  BSU d   1     -17.029 -11.295  14.825  0.00  0.00    -0.339 N 
ATOM      2  C8  BSU d   1     -16.692 -11.057  16.115  0.00  0.00     0.316 C 
ATOM      3  N9  BSU d   1     -15.793 -11.884  16.698  0.00  0.00    -0.339 N 
ATOM      4  O11 BSU d   1     -17.176 -10.122  16.730  0.00  0.00    -0.247 OA
ATOM      5  H1  BSU d   1     -16.616 -12.082  14.366  0.00  0.00     0.164 HD
ATOM      6  H2  BSU d   1     -15.417 -12.634  16.153  0.00  0.00     0.164 HD
ENDROOT
BRANCH   1   7
ATOM      7  C5  BSU d   1     -17.968 -10.460  14.062  0.00  0.00     0.014 C 
ATOM      8  C4  BSU d   1     -17.184  -9.533  13.111  0.00  0.00    -0.046 C 
ATOM      9  C3  BSU d   1     -18.003  -9.088  11.878  0.00  0.00    -0.063 C 
ATOM     10  H4  BSU d   1     -16.289 -10.068  12.761  0.00  0.00     0.035 H 
ATOM     11  H5  BSU d   1     -16.880  -8.636  13.670  0.00  0.00     0.035 H 
ATOM     12  C2  BSU d   1     -19.542  -9.131  12.087  0.00  0.00    -0.065 C 
ATOM     13  H6  BSU d   1     -17.750  -9.752  11.038  0.00  0.00     0.033 H 
ATOM     14  H7  BSU d   1     -17.717  -8.056  11.628  0.00  0.00     0.033 H 
ATOM     15  C1  BSU d   1     -20.067 -10.476  12.653  0.00  0.00    -0.063 C 
ATOM     16  H8  BSU d   1     -20.027  -8.952  11.116  0.00  0.00     0.033 H 
ATOM     17  H9  BSU d   1     -19.818  -8.330  12.789  0.00  0.00     0.033 H 
ATOM     18  C6  BSU d   1     -18.943 -11.331  13.260  0.00  0.00    -0.046 C 
ATOM     19  H10 BSU d   1     -20.541 -11.042  11.838  0.00  0.00     0.033 H 
ATOM     20  H11 BSU d   1     -20.812 -10.264  13.434  0.00  0.00     0.033 H 
ATOM     21  H12 BSU d   1     -19.385 -12.086  13.927  0.00  0.00     0.035 H 
ATOM     22  H13 BSU d   1     -18.395 -11.834  12.450  0.00  0.00     0.035 H 
ATOM     23  H3  BSU d   1     -18.545  -9.842  14.766  0.00  0.00     0.072 H 
ENDBRANCH   1   7
BRANCH   3  24
ATOM     24  C10 BSU d   1     -15.340 -11.739  18.089  0.00  0.00     0.014 C 
ATOM     25  C16 BSU d   1     -14.826 -13.092  18.621  0.00  0.00    -0.046 C 
ATOM     26  C15 BSU d   1     -14.447 -12.945  20.107  0.00  0.00    -0.063 C 
ATOM     27  H15 BSU d   1     -13.941 -13.401  18.045  0.00  0.00     0.035 H 
ATOM     28  H16 BSU d   1     -15.615 -13.851  18.517  0.00  0.00     0.035 H 
ATOM     29  C14 BSU d   1     -13.383 -11.852  20.303  0.00  0.00    -0.065 C 
ATOM     30  H17 BSU d   1     -14.049 -13.903  20.473  0.00  0.00     0.033 H 
ATOM     31  H18 BSU d   1     -15.346 -12.678  20.682  0.00  0.00     0.033 H 
ATOM     32  C13 BSU d   1     -13.776 -10.505  19.651  0.00  0.00    -0.063 C 
ATOM     33  H19 BSU d   1     -12.439 -12.197  19.855  0.00  0.00     0.033 H 
ATOM     34  H20 BSU d   1     -13.240 -11.691  21.382  0.00  0.00     0.033 H 
ATOM     35  C12 BSU d   1     -14.230 -10.673  18.186  0.00  0.00    -0.046 C 
ATOM     36  H21 BSU d   1     -12.906  -9.833  19.677  0.00  0.00     0.033 H 
ATOM     37  H22 BSU d   1     -14.600 -10.060  20.228  0.00  0.00     0.033 H 
ATOM     38  H23 BSU d   1     -14.616  -9.713  17.813  0.00  0.00     0.035 H 
ATOM     39  H24 BSU d   1     -13.371 -10.986  17.574  0.00  0.00     0.035 H 
ATOM     40  H14 BSU d   1     -16.192 -11.417  18.706  0.00  0.00     0.072 H 
ENDBRANCH   3  24
TORSDOF 2
