REMARK  0 active torsions:
REMARK  status: ('A' for Active; 'I' for Inactive)
ROOT
ATOM      1  C1  4XH d   1      16.176  10.388  12.628  0.00  0.00    -0.079 A 
ATOM      2  C2  4XH d   1      18.599   9.137   8.471  0.00  0.00    -0.065 A 
ATOM      3  C3  4XH d   1      18.985   9.348   9.776  0.00  0.00    -0.068 A 
ATOM      4  C4  4XH d   1      15.804  10.160  11.319  0.00  0.00    -0.054 A 
ATOM      5  C5  4XH d   1      17.499  10.279  13.000  0.00  0.00    -0.065 A 
ATOM      6  C6  4XH d   1      17.260   9.277   8.186  0.00  0.00     0.003 A 
ATOM      7  C7  4XH d   1      18.052   9.701  10.731  0.00  0.00     0.010 A 
ATOM      8  C8  4XH d   1      16.724   9.820  10.345  0.00  0.00     0.068 A 
ATOM      9  C9  4XH d   1      18.430   9.933  12.046  0.00  0.00     0.023 A 
ATOM     10  N10 4XH d   1      16.322   9.608   9.082  0.00  0.00    -0.260 NA
ATOM     11 BR   4XH d   1      20.237   9.768  12.603  0.00  0.00    -0.050 Br
ATOM     12  H1  4XH d   1      15.427  10.653  13.365  0.00  0.00     0.083 H 
ATOM     13  H2  4XH d   1      19.317   8.873   7.703  0.00  0.00     0.085 H 
ATOM     14  H3  4XH d   1      20.026   9.236  10.055  0.00  0.00     0.085 H 
ATOM     15  H4  4XH d   1      14.759  10.250  11.046  0.00  0.00     0.087 H 
ATOM     16  H5  4XH d   1      17.801  10.462  14.025  0.00  0.00     0.085 H 
ATOM     17  H6  4XH d   1      16.942   9.107   7.164  0.00  0.00     0.114 H 
ENDROOT
TORSDOF 0
