REMARK  1 active torsions:
REMARK  status: ('A' for Active; 'I' for Inactive)
REMARK    1  A    between atoms: C1_1  and  C2_2 
ROOT
ATOM      1  C2  K2T d   1      17.827 -10.187 -12.519  0.00  0.00    -0.061 A 
ATOM      2  C3  K2T d   1      16.457 -10.303 -12.595  0.00  0.00    -0.075 A 
ATOM      3  C4  K2T d   1      15.633 -10.100 -11.511  0.00  0.00    -0.053 A 
ATOM      4  C5  K2T d   1      16.248  -9.772 -10.312  0.00  0.00     0.076 A 
ATOM      5  C6  K2T d   1      17.630  -9.654 -10.256  0.00  0.00     0.037 A 
ATOM      6  C7  K2T d   1      18.456  -9.852 -11.341  0.00  0.00    -0.058 A 
ATOM      7  S8  K2T d   1      18.089  -9.239  -8.656  0.00  0.00    -0.050 SA
ATOM      8  C9  K2T d   1      16.441  -9.250  -8.162  0.00  0.00     0.165 A 
ATOM      9  N10 K2T d   1      15.596  -9.539  -9.127  0.00  0.00    -0.224 NA
ATOM     10  N11 K2T d   1      16.097  -8.965  -6.888  0.00  0.00    -0.378 N 
ATOM     11  H4  K2T d   1      16.009 -10.565 -13.547  0.00  0.00     0.084 H 
ATOM     12  H5  K2T d   1      14.556 -10.192 -11.591  0.00  0.00     0.087 H 
ATOM     13  H6  K2T d   1      19.533  -9.750 -11.271  0.00  0.00     0.086 H 
ATOM     14  H7  K2T d   1      15.106  -8.976  -6.607  0.00  0.00     0.158 HD
ATOM     15  H8  K2T d   1      16.826  -8.737  -6.197  0.00  0.00     0.158 HD
ENDROOT
BRANCH   1  16
ATOM     16  C1  K2T d   1      18.656 -10.419 -13.731  0.00  0.00    -0.051 C 
ATOM     17  H1  K2T d   1      18.003 -10.675 -14.578  0.00  0.00     0.033 H 
ATOM     18  H2  K2T d   1      19.356 -11.247 -13.544  0.00  0.00     0.033 H 
ATOM     19  H3  K2T d   1      19.223  -9.507 -13.968  0.00  0.00     0.033 H 
ENDBRANCH   1  16
TORSDOF 1
