REMARK  11 active torsions:
REMARK  status: ('A' for Active; 'I' for Inactive)
REMARK    1  A    between atoms: C1_1  and  C2_2 
REMARK    2  A    between atoms: C2_2  and  C3_3 
REMARK    3  A    between atoms: C2_2  and  C4_4 
REMARK    4  A    between atoms: C2_2  and  C5_5 
REMARK    5  A    between atoms: C7_7  and  C13_13 
REMARK    6  A    between atoms: C8_8  and  O12_12 
REMARK    7  A    between atoms: C13_13  and  N14_14 
REMARK    8  A    between atoms: N14_14  and  C15_15 
REMARK    9  A    between atoms: C15_15  and  C16_16 
REMARK   10  A    between atoms: C16_16  and  C17_17 
REMARK   11  A    between atoms: C17_17  and  C18_18 
ROOT
ATOM      1  C13 K78 d   1      14.896  10.967  14.543  0.00  0.00     0.108 C 
ATOM      2  H13 K78 d   1      14.057  10.292  14.768  0.00  0.00     0.083 H 
ATOM      3  H14 K78 d   1      14.510  11.976  14.338  0.00  0.00     0.083 H 
ENDROOT
BRANCH   1   4
ATOM      4  C7  K78 d   1      15.560  10.467  13.284  0.00  0.00     0.002 A 
ATOM      5  C6  K78 d   1      16.904  10.120  13.247  0.00  0.00    -0.066 A 
ATOM      6  C5  K78 d   1      17.541   9.643  12.104  0.00  0.00    -0.049 A 
ATOM      7  H10 K78 d   1      17.488  10.226  14.154  0.00  0.00     0.085 H 
ATOM      8  C10 K78 d   1      16.750   9.496  10.968  0.00  0.00    -0.057 A 
ATOM      9  C9  K78 d   1      15.400   9.800  10.981  0.00  0.00     0.045 A 
ATOM     10  H11 K78 d   1      17.202   9.135  10.051  0.00  0.00     0.086 H 
ATOM     11  C8  K78 d   1      14.818  10.308  12.123  0.00  0.00     0.091 A 
ATOM     12 BR   K78 d   1      14.323   9.555   9.413  0.00  0.00    -0.048 Br
BRANCH   6  13
ATOM     13  C2  K78 d   1      19.033   9.334  12.097  0.00  0.00    -0.024 C 
BRANCH  13  14
ATOM     14  C1  K78 d   1      19.840  10.598  12.252  0.00  0.00    -0.066 C 
ATOM     15  H1  K78 d   1      20.912  10.352  12.244  0.00  0.00     0.028 H 
ATOM     16  H2  K78 d   1      19.582  11.083  13.205  0.00  0.00     0.028 H 
ATOM     17  H3  K78 d   1      19.615  11.281  11.420  0.00  0.00     0.028 H 
ENDBRANCH  13  14
BRANCH  13  18
ATOM     18  C3  K78 d   1      19.457   8.380  13.178  0.00  0.00    -0.066 C 
ATOM     19  H4  K78 d   1      18.883   7.446  13.089  0.00  0.00     0.028 H 
ATOM     20  H5  K78 d   1      19.269   8.834  14.162  0.00  0.00     0.028 H 
ATOM     21  H6  K78 d   1      20.530   8.162  13.074  0.00  0.00     0.028 H 
ENDBRANCH  13  18
BRANCH  13  22
ATOM     22  C4  K78 d   1      19.501   8.685  10.802  0.00  0.00    -0.066 C 
ATOM     23  H7  K78 d   1      19.227   9.326   9.951  0.00  0.00     0.028 H 
ATOM     24  H8  K78 d   1      19.021   7.702  10.690  0.00  0.00     0.028 H 
ATOM     25  H9  K78 d   1      20.593   8.558  10.829  0.00  0.00     0.028 H 
ENDBRANCH  13  22
ENDBRANCH   6  13
BRANCH  11  26
ATOM     26  O12 K78 d   1      13.464  10.626  12.096  0.00  0.00    -0.359 OA
ATOM     27  H12 K78 d   1      13.308  11.286  11.431  0.00  0.00     0.217 HD
ENDBRANCH  11  26
ENDBRANCH   1   4
BRANCH   1  28
ATOM     28  N14 K78 d   1      15.732  11.047  15.738  0.00  0.00    -0.071 N 
ATOM     29  H15 K78 d   1      16.460  11.729  15.597  0.00  0.00     0.277 HD
ATOM     30  H16 K78 d   1      16.146  10.147  15.923  0.00  0.00     0.277 HD
BRANCH  28  31
ATOM     31  C15 K78 d   1      14.889  11.450  16.882  0.00  0.00     0.082 C 
ATOM     32  H17 K78 d   1      14.274  10.590  17.187  0.00  0.00     0.075 H 
ATOM     33  H18 K78 d   1      14.234  12.275  16.564  0.00  0.00     0.075 H 
BRANCH  31  34
ATOM     34  C16 K78 d   1      15.718  11.916  18.088  0.00  0.00    -0.039 C 
ATOM     35  H19 K78 d   1      16.582  12.489  17.720  0.00  0.00     0.035 H 
ATOM     36  H20 K78 d   1      16.071  11.030  18.635  0.00  0.00     0.035 H 
BRANCH  34  37
ATOM     37  C17 K78 d   1      14.920  12.800  19.052  0.00  0.00    -0.040 C 
ATOM     38  H21 K78 d   1      14.554  13.692  18.522  0.00  0.00     0.040 H 
ATOM     39  H22 K78 d   1      15.562  13.109  19.890  0.00  0.00     0.040 H 
BRANCH  37  40
ATOM     40  C18 K78 d   1      13.764  12.011  19.567  0.00  0.00    -0.058 A 
ATOM     41  C19 K78 d   1      13.989  11.004  20.500  0.00  0.00    -0.077 A 
ATOM     42  C20 K78 d   1      12.906  10.261  20.951  0.00  0.00    -0.082 A 
ATOM     43  H23 K78 d   1      14.989  10.803  20.867  0.00  0.00     0.084 H 
ATOM     44  C21 K78 d   1      11.619  10.494  20.503  0.00  0.00    -0.083 A 
ATOM     45  H24 K78 d   1      13.075   9.474  21.677  0.00  0.00     0.083 H 
ATOM     46  C22 K78 d   1      11.424  11.505  19.576  0.00  0.00    -0.082 A 
ATOM     47  H25 K78 d   1      10.786   9.903  20.867  0.00  0.00     0.083 H 
ATOM     48  C23 K78 d   1      12.480  12.269  19.095  0.00  0.00    -0.077 A 
ATOM     49  H26 K78 d   1      10.421  11.705  19.216  0.00  0.00     0.083 H 
ATOM     50  H27 K78 d   1      12.307  13.052  18.365  0.00  0.00     0.084 H 
ENDBRANCH  37  40
ENDBRANCH  34  37
ENDBRANCH  31  34
ENDBRANCH  28  31
ENDBRANCH   1  28
TORSDOF 11
