REMARK  3 active torsions:
REMARK  status: ('A' for Active; 'I' for Inactive)
REMARK    1  A    between atoms: C3_3  and  O16_16 
REMARK    2  A    between atoms: C4_4  and  C13_13 
REMARK    3  A    between atoms: C6_6  and  C7_7 
ROOT
ATOM      1  C7  KWB d   1     -18.118  -9.589  10.832  0.00  0.00    -0.029 C 
ATOM      2  C8  KWB d   1     -18.160 -10.743  11.833  0.00  0.00    -0.058 C 
ATOM      3  C9  KWB d   1     -18.543 -10.320  13.239  0.00  0.00    -0.064 C 
ATOM      4  C10 KWB d   1     -19.779  -9.434  13.263  0.00  0.00    -0.065 C 
ATOM      5  C11 KWB d   1     -19.673  -8.231  12.335  0.00  0.00    -0.064 C 
ATOM      6  C12 KWB d   1     -18.431  -8.235  11.464  0.00  0.00    -0.058 C 
ATOM      7  H4  KWB d   1     -18.909  -9.780  10.092  0.00  0.00     0.047 H 
ATOM      8  H5  KWB d   1     -17.163 -11.207  11.870  0.00  0.00     0.034 H 
ATOM      9  H6  KWB d   1     -18.895 -11.481  11.481  0.00  0.00     0.034 H 
ATOM     10  H7  KWB d   1     -17.703  -9.765  13.682  0.00  0.00     0.033 H 
ATOM     11  H8  KWB d   1     -18.743 -11.222  13.837  0.00  0.00     0.033 H 
ATOM     12  H9  KWB d   1     -19.929  -9.071  14.290  0.00  0.00     0.033 H 
ATOM     13  H10 KWB d   1     -20.647 -10.036  12.957  0.00  0.00     0.033 H 
ATOM     14  H11 KWB d   1     -19.662  -7.319  12.950  0.00  0.00     0.033 H 
ATOM     15  H12 KWB d   1     -20.556  -8.220  11.679  0.00  0.00     0.033 H 
ATOM     16  H13 KWB d   1     -18.573  -7.501  10.657  0.00  0.00     0.034 H 
ATOM     17  H14 KWB d   1     -17.573  -7.937  12.084  0.00  0.00     0.034 H 
ENDROOT
BRANCH   1  18
ATOM     18  C6  KWB d   1     -16.811  -9.575  10.087  0.00  0.00    -0.053 A 
ATOM     19  C1  KWB d   1     -15.600  -9.401  10.742  0.00  0.00    -0.074 A 
ATOM     20  C2  KWB d   1     -14.406  -9.409  10.051  0.00  0.00    -0.049 A 
ATOM     21  H1  KWB d   1     -15.592  -9.256  11.816  0.00  0.00     0.084 H 
ATOM     22  C3  KWB d   1     -14.429  -9.581   8.692  0.00  0.00     0.082 A 
ATOM     23  H2  KWB d   1     -13.465  -9.281  10.575  0.00  0.00     0.087 H 
ATOM     24  C4  KWB d   1     -15.616  -9.762   8.010  0.00  0.00     0.074 A 
ATOM     25  C5  KWB d   1     -16.805  -9.762   8.718  0.00  0.00    -0.057 A 
ATOM     26  H3  KWB d   1     -17.742  -9.910   8.193  0.00  0.00     0.086 H 
BRANCH  22  27
ATOM     27  O16 KWB d   1     -13.230  -9.580   8.025  0.00  0.00    -0.360 OA
ATOM     28  H15 KWB d   1     -13.112 -10.415   7.588  0.00  0.00     0.217 HD
ENDBRANCH  22  27
BRANCH  24  29
ATOM     29  C13 KWB d   1     -15.607  -9.951   6.542  0.00  0.00     0.212 C 
ATOM     30  O14 KWB d   1     -14.758 -10.773   6.095  0.00  0.00    -0.644 OA
ATOM     31  O15 KWB d   1     -16.424  -9.260   5.864  0.00  0.00    -0.644 OA
ENDBRANCH  24  29
ENDBRANCH   1  18
TORSDOF 3
