REMARK  0 active torsions:
REMARK  status: ('A' for Active; 'I' for Inactive)
ROOT
ATOM      1  C1  KJU d   1      17.643 -10.081 -13.211  0.00  0.00    -0.059 A 
ATOM      2  C2  KJU d   1      16.360 -10.105 -12.697  0.00  0.00    -0.047 A 
ATOM      3  C3  KJU d   1      16.177 -10.077 -11.330  0.00  0.00     0.096 A 
ATOM      4  C4  KJU d   1      17.262 -10.021 -10.483  0.00  0.00     0.070 A 
ATOM      5  C5  KJU d   1      18.547  -9.983 -10.975  0.00  0.00    -0.033 A 
ATOM      6  C6  KJU d   1      18.714 -10.013 -12.345  0.00  0.00     0.036 A 
ATOM      7 CL7  KJU d   1      20.303  -9.966 -12.990  0.00  0.00    -0.084 Cl
ATOM      8  N8  KJU d   1      17.082  -9.993  -9.110  0.00  0.00    -0.323 N 
ATOM      9  C9  KJU d   1      15.832  -9.988  -8.553  0.00  0.00     0.246 C 
ATOM     10  O10 KJU d   1      15.646  -9.827  -7.358  0.00  0.00    -0.271 OA
ATOM     11  C11 KJU d   1      14.676 -10.250  -9.486  0.00  0.00     0.100 C 
ATOM     12  O12 KJU d   1      14.871 -10.083 -10.884  0.00  0.00    -0.340 OA
ATOM     13  H1  KJU d   1      17.805 -10.115 -14.282  0.00  0.00     0.086 H 
ATOM     14  H2  KJU d   1      15.505 -10.146 -13.362  0.00  0.00     0.087 H 
ATOM     15  H3  KJU d   1      19.400  -9.931 -10.308  0.00  0.00     0.089 H 
ATOM     16  H4  KJU d   1      17.884  -9.976  -8.512  0.00  0.00     0.169 HD
ATOM     17  H5  KJU d   1      13.862  -9.572  -9.190  0.00  0.00     0.089 H 
ATOM     18  H6  KJU d   1      14.361 -11.292  -9.326  0.00  0.00     0.089 H 
ENDROOT
TORSDOF 0
