REMARK  1 active torsions:
REMARK  status: ('A' for Active; 'I' for Inactive)
REMARK    1  A    between atoms: C2_9  and  C6_10 
ROOT
ATOM      1  O13 TGX d   1      13.107   9.584   7.970  0.00  0.00    -0.272 OA
ATOM      2  C11 TGX d   1      14.118   9.402   8.637  0.00  0.00     0.231 C 
ATOM      3  C12 TGX d   1      15.336   8.740   8.054  0.00  0.00     0.055 C 
ATOM      4  N10 TGX d   1      14.216   9.736   9.976  0.00  0.00    -0.325 N 
ATOM      5  C7  TGX d   1      15.405   9.913  10.712  0.00  0.00     0.051 A 
ATOM      6  C3  TGX d   1      16.652   9.936  10.112  0.00  0.00     0.028 A 
ATOM      7  C9  TGX d   1      15.280  10.075  12.074  0.00  0.00    -0.055 A 
ATOM      8  C5  TGX d   1      16.406  10.265  12.847  0.00  0.00    -0.075 A 
ATOM      9  C2  TGX d   1      17.653  10.289  12.260  0.00  0.00    -0.061 A 
ATOM     10  C1  TGX d   1      17.777  10.121  10.893  0.00  0.00    -0.059 A 
ATOM     11  S8  TGX d   1      16.815   9.735   8.364  0.00  0.00    -0.118 SA
ATOM     12  H1  TGX d   1      15.200   8.624   6.969  0.00  0.00     0.063 H 
ATOM     13  H2  TGX d   1      15.464   7.750   8.515  0.00  0.00     0.063 H 
ATOM     14  H3  TGX d   1      13.357   9.865  10.472  0.00  0.00     0.169 HD
ATOM     15  H4  TGX d   1      14.300  10.053  12.537  0.00  0.00     0.087 H 
ATOM     16  H5  TGX d   1      16.310  10.396  13.919  0.00  0.00     0.084 H 
ATOM     17  H9  TGX d   1      18.759  10.134  10.433  0.00  0.00     0.086 H 
ENDROOT
BRANCH   9  18
ATOM     18  C6  TGX d   1      18.847  10.494  13.121  0.00  0.00    -0.051 C 
ATOM     19  H6  TGX d   1      19.754  10.486  12.498  0.00  0.00     0.033 H 
ATOM     20  H7  TGX d   1      18.906   9.685  13.864  0.00  0.00     0.033 H 
ATOM     21  H8  TGX d   1      18.765  11.462  13.637  0.00  0.00     0.033 H 
ENDBRANCH   9  18
TORSDOF 1
