REMARK  3 active torsions:
REMARK  status: ('A' for Active; 'I' for Inactive)
REMARK    1  A    between atoms: C8_1  and  C7_4 
REMARK    2  A    between atoms: C7_4  and  C1_5 
REMARK    3  A    between atoms: C4_8  and  O4_11 
ROOT
ATOM      1  C1  4HP d   1      31.197  20.215  16.196  0.00  0.00    -0.048 A 
ATOM      2  C2  4HP d   1      31.057  18.884  15.536  0.00  0.00    -0.074 A 
ATOM      3  C3  4HP d   1      30.561  17.822  16.230  0.00  0.00    -0.051 A 
ATOM      4  C4  4HP d   1      30.167  17.981  17.657  0.00  0.00     0.065 A 
ATOM      5  C5  4HP d   1      30.299  19.196  18.270  0.00  0.00    -0.051 A 
ATOM      6  C6  4HP d   1      30.832  20.364  17.504  0.00  0.00    -0.074 A 
ATOM      7  H3  4HP d   1      31.351  18.762  14.500  0.00  0.00     0.084 H 
ATOM      8  H4  4HP d   1      30.453  16.860  15.743  0.00  0.00     0.087 H 
ATOM      9  H5  4HP d   1      30.017  19.312  19.310  0.00  0.00     0.087 H 
ATOM     10  H6  4HP d   1      30.929  21.330  17.987  0.00  0.00     0.084 H 
ENDROOT
BRANCH   1  11
ATOM     11  C7  4HP d   1      31.739  21.376  15.426  0.00  0.00     0.039 C 
ATOM     12  H1  4HP d   1      31.536  21.231  14.355  0.00  0.00     0.056 H 
ATOM     13  H2  4HP d   1      31.253  22.301  15.769  0.00  0.00     0.056 H 
BRANCH  11  14
ATOM     14  C8  4HP d   1      33.216  21.481  15.643  0.00  0.00     0.176 C 
ATOM     15  O1  4HP d   1      34.007  21.119  14.725  0.00  0.00    -0.648 OA
ATOM     16  O2  4HP d   1      33.670  21.933  16.737  0.00  0.00    -0.648 OA
ENDBRANCH  11  14
ENDBRANCH   1  11
BRANCH   4  17
ATOM     17  O4  4HP d   1      29.674  16.902  18.351  0.00  0.00    -0.361 OA
ATOM     18  H7  4HP d   1      29.649  16.144  17.779  0.00  0.00     0.217 HD
ENDBRANCH   4  17
TORSDOF 3
