REMARK  8 active torsions:
REMARK  status: ('A' for Active; 'I' for Inactive)
REMARK    1  A    between atoms: C1_1  and  N2_2 
REMARK    2  A    between atoms: N2_2  and  C3_3 
REMARK    3  A    between atoms: N2_2  and  C4_4 
REMARK    4  A    between atoms: C4_4  and  C5_5 
REMARK    5  A    between atoms: C5_5  and  C6_6 
REMARK    6  A    between atoms: C6_6  and  C7_7 
REMARK       I    between atoms: C7_7  and  N9_9 
REMARK    7  A    between atoms: N9_9  and  C10_10 
REMARK    8  A    between atoms: C12_12  and  C16_16 
ROOT
ATOM      1  C10 CWC d   1      33.027 -15.672   2.736  0.00  0.00     0.053 A 
ATOM      2  C11 CWC d   1      33.110 -14.300   2.724  0.00  0.00    -0.044 A 
ATOM      3  C12 CWC d   1      32.587 -13.581   3.776  0.00  0.00    -0.005 A 
ATOM      4  C13 CWC d   1      32.000 -14.299   4.796  0.00  0.00     0.013 A 
ATOM      5  N14 CWC d   1      31.893 -15.632   4.848  0.00  0.00    -0.270 NA
ATOM      6  C15 CWC d   1      32.413 -16.287   3.805  0.00  0.00     0.028 A 
ATOM      7  H15 CWC d   1      33.583 -13.788   1.894  0.00  0.00     0.088 H 
ATOM      8  H16 CWC d   1      31.590 -13.736   5.627  0.00  0.00     0.116 H 
ATOM      9  H17 CWC d   1      32.347 -17.369   3.800  0.00  0.00     0.118 H 
ENDROOT
BRANCH   1  10
ATOM     10  N9  CWC d   1      33.564 -16.377   1.649  0.00  0.00    -0.326 N 
ATOM     11  C7  CWC d   1      33.990 -17.684   1.702  0.00  0.00     0.222 C 
ATOM     12  O8  CWC d   1      34.204 -18.350   2.706  0.00  0.00    -0.273 OA
ATOM     13  H14 CWC d   1      33.643 -15.897   0.775  0.00  0.00     0.169 HD
BRANCH  11  14
ATOM     14  C6  CWC d   1      34.157 -18.216   0.315  0.00  0.00     0.011 C 
ATOM     15  H12 CWC d   1      33.332 -18.907   0.086  0.00  0.00     0.047 H 
ATOM     16  H13 CWC d   1      34.145 -17.381  -0.401  0.00  0.00     0.047 H 
BRANCH  14  17
ATOM     17  C5  CWC d   1      35.471 -18.951   0.208  0.00  0.00    -0.035 C 
ATOM     18  H10 CWC d   1      36.159 -18.384  -0.436  0.00  0.00     0.036 H 
ATOM     19  H11 CWC d   1      35.913 -19.063   1.209  0.00  0.00     0.036 H 
BRANCH  17  20
ATOM     20  C4  CWC d   1      35.225 -20.315  -0.392  0.00  0.00     0.083 C 
ATOM     21  H8  CWC d   1      34.917 -21.015   0.399  0.00  0.00     0.075 H 
ATOM     22  H9  CWC d   1      34.431 -20.246  -1.151  0.00  0.00     0.075 H 
BRANCH  20  23
ATOM     23  N2  CWC d   1      36.450 -20.791  -1.012  0.00  0.00    -0.079 N 
ATOM     24  H4  CWC d   1      37.187 -20.106  -0.957  0.00  0.00     0.278 HD
BRANCH  23  25
ATOM     25  C1  CWC d   1      36.815 -22.032  -0.350  0.00  0.00     0.066 C 
ATOM     26  H1  CWC d   1      37.742 -22.425  -0.793  0.00  0.00     0.068 H 
ATOM     27  H2  CWC d   1      36.007 -22.767  -0.478  0.00  0.00     0.068 H 
ATOM     28  H3  CWC d   1      36.973 -21.843   0.722  0.00  0.00     0.068 H 
ENDBRANCH  23  25
BRANCH  23  29
ATOM     29  C3  CWC d   1      36.129 -21.133  -2.388  0.00  0.00     0.066 C 
ATOM     30  H5  CWC d   1      35.844 -20.222  -2.935  0.00  0.00     0.068 H 
ATOM     31  H6  CWC d   1      35.292 -21.846  -2.403  0.00  0.00     0.068 H 
ATOM     32  H7  CWC d   1      37.008 -21.589  -2.867  0.00  0.00     0.068 H 
ENDBRANCH  23  29
ENDBRANCH  20  23
ENDBRANCH  17  20
ENDBRANCH  14  17
ENDBRANCH  11  14
ENDBRANCH   1  10
BRANCH   3  33
ATOM     33  C16 CWC d   1      32.658 -12.140   3.768  0.00  0.00    -0.012 A 
ATOM     34  C17 CWC d   1      33.814 -11.462   3.450  0.00  0.00    -0.071 A 
ATOM     35  C18 CWC d   1      33.883 -10.089   3.422  0.00  0.00    -0.080 A 
ATOM     36  H18 CWC d   1      34.704 -12.033   3.212  0.00  0.00     0.084 H 
ATOM     37  C19 CWC d   1      32.797  -9.296   3.710  0.00  0.00    -0.056 A 
ATOM     38  H19 CWC d   1      34.824  -9.616   3.165  0.00  0.00     0.083 H 
ATOM     39  C20 CWC d   1      31.650  -9.983   4.031  0.00  0.00     0.043 A 
ATOM     40  H20 CWC d   1      32.842  -8.213   3.686  0.00  0.00     0.086 H 
ATOM     41  C21 CWC d   1      31.549 -11.363   4.064  0.00  0.00     0.003 A 
ATOM     42  N24 CWC d   1      30.424  -9.479   4.360  0.00  0.00    -0.365 N 
ATOM     43  C22 CWC d   1      30.211 -11.663   4.428  0.00  0.00    -0.055 A 
ATOM     44  C23 CWC d   1      29.533 -10.481   4.607  0.00  0.00    -0.022 A 
ATOM     45  H21 CWC d   1      29.792 -12.661   4.546  0.00  0.00     0.087 H 
ATOM     46  H22 CWC d   1      28.488 -10.367   4.891  0.00  0.00     0.111 H 
ATOM     47  H23 CWC d   1      30.202  -8.475   4.414  0.00  0.00     0.165 HD
ENDBRANCH   3  33
TORSDOF 8
