REMARK  7 active torsions:
REMARK  status: ('A' for Active; 'I' for Inactive)
REMARK    1  A    between atoms: C1_1  and  O2_2 
REMARK    2  A    between atoms: O2_2  and  C3_3 
REMARK    3  A    between atoms: C3_3  and  C4_4 
REMARK    4  A    between atoms: C4_4  and  C5_5 
REMARK    5  A    between atoms: C5_5  and  N6_6 
REMARK       I    between atoms: N6_6  and  C7_7 
REMARK    6  A    between atoms: C7_7  and  C9_9 
REMARK    7  A    between atoms: C11_11  and  C14_14 
ROOT
ATOM      1  C9  M1W d   1      33.052 -15.714   3.078  0.00  0.00     0.264 A 
ATOM      2  N10 M1W d   1      31.972 -15.148   3.602  0.00  0.00    -0.195 NA
ATOM      3  C11 M1W d   1      32.281 -13.822   3.653  0.00  0.00     0.190 A 
ATOM      4  N12 M1W d   1      33.473 -13.682   3.143  0.00  0.00    -0.105 NA
ATOM      5  O13 M1W d   1      33.923 -14.744   2.816  0.00  0.00    -0.185 OA
ENDROOT
BRANCH   1   6
ATOM      6  C7  M1W d   1      33.380 -17.118   2.747  0.00  0.00     0.296 C 
ATOM      7  N6  M1W d   1      34.032 -17.296   1.571  0.00  0.00    -0.354 N 
ATOM      8  H10 M1W d   1      34.237 -16.482   1.027  0.00  0.00     0.162 HD
ATOM      9  O8  M1W d   1      33.092 -18.036   3.488  0.00  0.00    -0.264 OA
BRANCH   7  10
ATOM     10  C5  M1W d   1      34.458 -18.595   1.038  0.00  0.00    -0.003 C 
ATOM     11  H8  M1W d   1      34.739 -19.262   1.867  0.00  0.00     0.064 H 
ATOM     12  H9  M1W d   1      33.635 -19.048   0.466  0.00  0.00     0.064 H 
BRANCH  10  13
ATOM     13  C4  M1W d   1      35.665 -18.375   0.121  0.00  0.00    -0.030 C 
ATOM     14  H6  M1W d   1      35.741 -17.307  -0.132  0.00  0.00     0.038 H 
ATOM     15  H7  M1W d   1      36.580 -18.695   0.641  0.00  0.00     0.038 H 
BRANCH  13  16
ATOM     16  C3  M1W d   1      35.501 -19.190  -1.165  0.00  0.00     0.020 C 
ATOM     17  H4  M1W d   1      35.117 -20.191  -0.917  0.00  0.00     0.074 H 
ATOM     18  H5  M1W d   1      34.791 -18.680  -1.833  0.00  0.00     0.074 H 
BRANCH  16  19
ATOM     19  O2  M1W d   1      36.768 -19.315  -1.822  0.00  0.00    -0.396 OA
BRANCH  19  20
ATOM     20  C1  M1W d   1      36.954 -20.545  -2.531  0.00  0.00     0.004 C 
ATOM     21  H1  M1W d   1      37.949 -20.551  -3.000  0.00  0.00     0.066 H 
ATOM     22  H2  M1W d   1      36.181 -20.641  -3.308  0.00  0.00     0.066 H 
ATOM     23  H3  M1W d   1      36.875 -21.388  -1.829  0.00  0.00     0.066 H 
ENDBRANCH  19  20
ENDBRANCH  16  19
ENDBRANCH  13  16
ENDBRANCH  10  13
ENDBRANCH   7  10
ENDBRANCH   1   6
BRANCH   3  24
ATOM     24  C14 M1W d   1      31.494 -12.641   4.079  0.00  0.00     0.026 A 
ATOM     25  C15 M1W d   1      30.214 -12.723   4.619  0.00  0.00    -0.068 A 
ATOM     26  C16 M1W d   1      29.524 -11.562   4.949  0.00  0.00    -0.080 A 
ATOM     27  H11 M1W d   1      29.755 -13.691   4.782  0.00  0.00     0.085 H 
ATOM     28  C17 M1W d   1      30.077 -10.313   4.738  0.00  0.00    -0.056 A 
ATOM     29  H12 M1W d   1      28.532 -11.638   5.380  0.00  0.00     0.083 H 
ATOM     30  C18 M1W d   1      31.348 -10.202   4.181  0.00  0.00     0.043 A 
ATOM     31  H13 M1W d   1      29.522  -9.421   5.006  0.00  0.00     0.086 H 
ATOM     32  C19 M1W d   1      32.059 -11.368   3.845  0.00  0.00     0.006 A 
ATOM     33  N22 M1W d   1      32.154  -9.137   3.848  0.00  0.00    -0.365 N 
ATOM     34  C20 M1W d   1      33.339 -10.915   3.292  0.00  0.00    -0.055 A 
ATOM     35  C21 M1W d   1      33.333  -9.577   3.319  0.00  0.00    -0.022 A 
ATOM     36  H14 M1W d   1      34.145 -11.550   2.927  0.00  0.00     0.087 H 
ATOM     37  H15 M1W d   1      34.144  -8.938   2.972  0.00  0.00     0.111 H 
ATOM     38  H16 M1W d   1      31.903  -8.147   3.979  0.00  0.00     0.165 HD
ENDBRANCH   3  24
TORSDOF 7
