REMARK  7 active torsions:
REMARK  status: ('A' for Active; 'I' for Inactive)
REMARK    1  A    between atoms: C1_1  and  O2_2 
REMARK    2  A    between atoms: O2_2  and  C3_3 
REMARK    3  A    between atoms: C7_7  and  C9_9 
REMARK    4  A    between atoms: C12_12  and  C15_15 
REMARK       I    between atoms: C15_15  and  N17_17 
REMARK    5  A    between atoms: N17_17  and  C18_18 
REMARK    6  A    between atoms: N21_21  and  C24_24 
REMARK    7  A    between atoms: C24_24  and  C25_25 
ROOT
ATOM      1  C15 KRX d   1      12.335   4.781  -4.982  0.00  0.00     0.253 C 
ATOM      2  O16 KRX d   1      11.142   4.835  -4.667  0.00  0.00    -0.268 OA
ATOM      3  N17 KRX d   1      12.957   4.804  -6.221  0.00  0.00    -0.352 N 
ATOM      4  H11 KRX d   1      13.954   4.764  -6.279  0.00  0.00     0.163 HD
ENDROOT
BRANCH   1   5
ATOM      5  C12 KRX d   1      13.270   4.654  -3.873  0.00  0.00     0.049 A 
ATOM      6  C11 KRX d   1      14.384   3.865  -4.019  0.00  0.00    -0.064 A 
ATOM      7  C10 KRX d   1      15.208   3.775  -2.919  0.00  0.00    -0.053 A 
ATOM      8  H9  KRX d   1      14.602   3.344  -4.944  0.00  0.00     0.085 H 
ATOM      9  C9  KRX d   1      14.882   4.465  -1.759  0.00  0.00     0.066 A 
ATOM     10  H8  KRX d   1      16.106   3.169  -2.959  0.00  0.00     0.087 H 
ATOM     11  N14 KRX d   1      13.790   5.260  -1.612  0.00  0.00    -0.259 NA
ATOM     12  C13 KRX d   1      12.997   5.318  -2.686  0.00  0.00     0.018 A 
ATOM     13  H10 KRX d   1      12.094   5.915  -2.627  0.00  0.00     0.116 H 
BRANCH   9  14
ATOM     14  C7  KRX d   1      15.792   4.391  -0.641  0.00  0.00    -0.005 A 
ATOM     15  C6  KRX d   1      16.965   3.654  -0.713  0.00  0.00    -0.071 A 
ATOM     16  C5  KRX d   1      17.866   3.641   0.320  0.00  0.00    -0.080 A 
ATOM     17  H6  KRX d   1      17.174   3.076  -1.606  0.00  0.00     0.084 H 
ATOM     18  C4  KRX d   1      17.621   4.386   1.453  0.00  0.00    -0.051 A 
ATOM     19  H5  KRX d   1      18.769   3.046   0.246  0.00  0.00     0.083 H 
ATOM     20  C3  KRX d   1      16.457   5.117   1.527  0.00  0.00     0.069 A 
ATOM     21  H4  KRX d   1      18.332   4.396   2.271  0.00  0.00     0.087 H 
ATOM     22  C8  KRX d   1      15.548   5.119   0.498  0.00  0.00    -0.039 A 
ATOM     23  H7  KRX d   1      14.635   5.697   0.585  0.00  0.00     0.089 H 
BRANCH  20  24
ATOM     24  O2  KRX d   1      16.174   5.871   2.658  0.00  0.00    -0.356 OA
BRANCH  24  25
ATOM     25  C1  KRX d   1      16.512   7.202   2.298  0.00  0.00     0.010 C 
ATOM     26  H1  KRX d   1      16.316   7.873   3.148  0.00  0.00     0.066 H 
ATOM     27  H2  KRX d   1      15.904   7.514   1.436  0.00  0.00     0.066 H 
ATOM     28  H3  KRX d   1      17.578   7.250   2.031  0.00  0.00     0.066 H 
ENDBRANCH  24  25
ENDBRANCH  20  24
ENDBRANCH   9  14
ENDBRANCH   1   5
BRANCH   3  29
ATOM     29  C18 KRX d   1      12.166   4.886  -7.430  0.00  0.00     0.015 C 
ATOM     30  C19 KRX d   1      11.907   3.573  -8.127  0.00  0.00    -0.023 C 
ATOM     31  C20 KRX d   1      10.898   3.843  -9.230  0.00  0.00     0.086 C 
ATOM     32  H13 KRX d   1      11.499   2.841  -7.414  0.00  0.00     0.038 H 
ATOM     33  H14 KRX d   1      12.841   3.184  -8.558  0.00  0.00     0.038 H 
ATOM     34  N21 KRX d   1      11.573   4.735 -10.158  0.00  0.00    -0.063 N 
ATOM     35  H15 KRX d   1       9.998   4.324  -8.819  0.00  0.00     0.076 H 
ATOM     36  H16 KRX d   1      10.616   2.906  -9.732  0.00  0.00     0.076 H 
ATOM     37  C22 KRX d   1      11.672   6.047  -9.534  0.00  0.00     0.086 C 
ATOM     38  H17 KRX d   1      12.497   4.383 -10.354  0.00  0.00     0.280 HD
ATOM     39  C23 KRX d   1      12.705   5.891  -8.426  0.00  0.00    -0.023 C 
ATOM     40  H18 KRX d   1      10.701   6.348  -9.115  0.00  0.00     0.076 H 
ATOM     41  H19 KRX d   1      12.004   6.798 -10.267  0.00  0.00     0.076 H 
ATOM     42  H20 KRX d   1      13.654   5.528  -8.848  0.00  0.00     0.038 H 
ATOM     43  H21 KRX d   1      12.870   6.859  -7.929  0.00  0.00     0.038 H 
ATOM     44  H12 KRX d   1      11.182   5.260  -7.110  0.00  0.00     0.072 H 
BRANCH  34  45
ATOM     45  C24 KRX d   1      10.832   4.824 -11.383  0.00  0.00     0.172 C 
ATOM     46  H22 KRX d   1      10.064   5.606 -11.289  0.00  0.00     0.090 H 
ATOM     47  H23 KRX d   1      10.348   3.858 -11.588  0.00  0.00     0.090 H 
BRANCH  45  48
ATOM     48  C25 KRX d   1      11.769   5.172 -12.527  0.00  0.00     0.411 C 
ATOM     49  F26 KRX d   1      11.138   4.750 -13.639  0.00  0.00    -0.169 F 
ATOM     50  F27 KRX d   1      11.995   6.527 -12.652  0.00  0.00    -0.169 F 
ATOM     51  F28 KRX d   1      12.997   4.569 -12.457  0.00  0.00    -0.169 F 
ENDBRANCH  45  48
ENDBRANCH  34  45
ENDBRANCH   3  29
TORSDOF 7
