REMARK  29 active torsions:
REMARK  status: ('A' for Active; 'I' for Inactive)
REMARK    1  A    between atoms: O3_20  and  C1_1 
REMARK    2  A    between atoms: C2_2  and  O2_7 
REMARK    3  A    between atoms: C3_3  and  O3_8 
REMARK    4  A    between atoms: C4_4  and  O4_9 
REMARK    5  A    between atoms: C5_5  and  C6_6 
REMARK    6  A    between atoms: C1_11  and  O1L_25 
REMARK    7  A    between atoms: C2_12  and  N2_24 
REMARK    8  A    between atoms: C3_13  and  O3_20 
REMARK    9  A    between atoms: O4_21  and  C4_14 
REMARK   10  A    between atoms: C5_15  and  C6_16 
REMARK   11  A    between atoms: C6_16  and  O6_22 
REMARK   12  A    between atoms: C7_17  and  C8_18 
REMARK       I    between atoms: N2_24  and  C7_17 
REMARK   13  A    between atoms: C1_26  and  O4_21 
REMARK   14  A    between atoms: C2_27  and  O2_32 
REMARK   15  A    between atoms: O3_33  and  C3_28 
REMARK   16  A    between atoms: C4_29  and  O4_34 
REMARK   17  A    between atoms: C5_30  and  C6_31 
REMARK   18  A    between atoms: C6_31  and  O6_36 
REMARK   19  A    between atoms: C2_38  and  O3_33 
REMARK   20  A    between atoms: C2_38  and  C1_37 
REMARK   21  A    between atoms: C4_40  and  O4_51 
REMARK   22  A    between atoms: N5_48  and  C5_41 
REMARK   23  A    between atoms: C6_42  and  C7_43 
REMARK   24  A    between atoms: C7_43  and  C8_44 
REMARK   25  A    between atoms: C7_43  and  O7_53 
REMARK   26  A    between atoms: C8_44  and  C9_45 
REMARK   27  A    between atoms: C8_44  and  O8_54 
REMARK   28  A    between atoms: C9_45  and  O9_55 
REMARK   29  A    between atoms: C10_46  and  C11_47 
REMARK       I    between atoms: C10_46  and  N5_48 
ROOT
ATOM      1  H25 FUC d   1      43.592  68.615  11.698  0.00  0.00     0.133 H 
ATOM      2  H26 FUC d   1      40.651  69.170  11.460  0.00  0.00     0.094 H 
ATOM      3  H27 FUC d   1      42.741  70.052   9.425  0.00  0.00     0.091 H 
ATOM      4  H28 FUC d   1      42.535  72.302  10.222  0.00  0.00     0.091 H 
ATOM      5  H29 FUC d   1      44.169  70.912  11.378  0.00  0.00     0.090 H 
ATOM      6  C1  GAL d   1      42.632  68.954  12.114  0.00  0.00     0.159 C 
ATOM      7  C2  GAL d   1      41.645  69.054  11.004  0.00  0.00     0.110 C 
ATOM      8  C3  GAL d   1      41.877  70.262  10.073  0.00  0.00     0.099 C 
ATOM      9  C4  GAL d   1      42.169  71.514  10.896  0.00  0.00     0.090 C 
ATOM     10  C5  GAL d   1      43.263  71.231  11.914  0.00  0.00     0.089 C 
ATOM     11  O5  GAL d   1      42.845  70.171  12.820  0.00  0.00    -0.348 OA
ENDROOT
BRANCH   6  12
ATOM     12  O4  NDG d   1      42.133  67.973  13.088  0.00  0.00    -0.348 OA
BRANCH  12  13
ATOM     13  C4  NDG d   1      43.073  67.224  13.832  0.00  0.00     0.096 C 
ATOM     14  C3  NDG d   1      43.699  66.084  12.933  0.00  0.00     0.093 C 
ATOM     15  C2  NDG d   1      44.586  65.254  13.836  0.00  0.00     0.087 C 
ATOM     16  H14 FUC d   1      44.330  66.547  12.160  0.00  0.00     0.091 H 
ATOM     17  C1  NDG d   1      45.633  66.152  14.516  0.00  0.00     0.151 C 
ATOM     18  H13 FUC d   1      43.959  64.774  14.602  0.00  0.00     0.084 H 
ATOM     19  O   NDG d   1      45.031  67.207  15.289  0.00  0.00    -0.349 OA
ATOM     20  H12 FUC d   1      46.250  65.531  15.182  0.00  0.00     0.132 H 
ATOM     21  C5  NDG d   1      44.144  68.056  14.553  0.00  0.00     0.089 C 
ATOM     22  H16 FUC d   1      44.706  68.654  13.820  0.00  0.00     0.090 H 
ATOM     23  H15 FUC d   1      42.502  66.721  14.627  0.00  0.00     0.091 H 
BRANCH  14  24
ATOM     24  O3  NDG d   1      42.686  65.333  12.264  0.00  0.00    -0.348 OA
BRANCH  24  25
ATOM     25  C1  FUC d   1      41.766  64.567  13.044  0.00  0.00     0.159 C 
ATOM     26  C2  FUC d   1      40.383  64.592  12.459  0.00  0.00     0.110 C 
ATOM     27  C3  FUC d   1      40.325  63.810  11.166  0.00  0.00     0.092 C 
ATOM     28  H2  FUC d   1      39.693  64.140  13.187  0.00  0.00     0.094 H 
ATOM     29  C4  FUC d   1      40.813  62.399  11.435  0.00  0.00     0.087 C 
ATOM     30  H3  FUC d   1      40.999  64.280  10.435  0.00  0.00     0.091 H 
ATOM     31  C5  FUC d   1      42.226  62.452  12.001  0.00  0.00     0.065 C 
ATOM     32  H4  FUC d   1      40.821  61.836  10.490  0.00  0.00     0.091 H 
ATOM     33  O5  FUC d   1      42.200  63.211  13.190  0.00  0.00    -0.351 OA
ATOM     34  H5  FUC d   1      42.879  62.963  11.278  0.00  0.00     0.086 H 
ATOM     35  H1  FUC d   1      41.720  65.020  14.045  0.00  0.00     0.133 H 
BRANCH  26  36
ATOM     36  O2  FUC d   1      39.950  65.910  12.169  0.00  0.00    -0.388 OA
ATOM     37  H9  FUC d   1      40.525  66.295  11.518  0.00  0.00     0.210 HD
ENDBRANCH  26  36
BRANCH  27  38
ATOM     38  O3  FUC d   1      38.997  63.829  10.625  0.00  0.00    -0.390 OA
ATOM     39  H10 FUC d   1      38.400  63.422  11.241  0.00  0.00     0.210 HD
ENDBRANCH  27  38
BRANCH  29  40
ATOM     40  O4  FUC d   1      39.958  61.744  12.356  0.00  0.00    -0.390 OA
ATOM     41  H11 FUC d   1      39.077  61.712  12.001  0.00  0.00     0.210 HD
ENDBRANCH  29  40
BRANCH  31  42
ATOM     42  C6  FUC d   1      42.772  61.037  12.212  0.00  0.00    -0.050 C 
ATOM     43  H6  FUC d   1      43.792  61.095  12.621  0.00  0.00     0.031 H 
ATOM     44  H7  FUC d   1      42.792  60.504  11.250  0.00  0.00     0.031 H 
ATOM     45  H8  FUC d   1      42.124  60.495  12.917  0.00  0.00     0.031 H 
ENDBRANCH  31  42
ENDBRANCH  24  25
ENDBRANCH  14  24
BRANCH  15  46
ATOM     46  N2  NDG d   1      45.309  64.225  13.094  0.00  0.00    -0.349 N 
ATOM     47  C7  NDG d   1      45.578  63.063  13.709  0.00  0.00     0.214 C 
ATOM     48  O7  NDG d   1      45.250  62.782  14.869  0.00  0.00    -0.274 OA
ATOM     49  H23 FUC d   1      45.597  64.383  12.149  0.00  0.00     0.163 HD
BRANCH  47  50
ATOM     50  C8  NDG d   1      46.371  62.066  12.943  0.00  0.00    -0.003 C 
ATOM     51  H19 FUC d   1      46.582  62.460  11.938  0.00  0.00     0.040 H 
ATOM     52  H20 FUC d   1      45.799  61.130  12.858  0.00  0.00     0.040 H 
ATOM     53  H21 FUC d   1      47.318  61.871  13.467  0.00  0.00     0.040 H 
ENDBRANCH  47  50
ENDBRANCH  15  46
BRANCH  17  54
ATOM     54  O1L NDG d   1      46.445  66.738  13.540  0.00  0.00    -0.369 OA
ATOM     55  H24 FUC d   1      46.852  66.057  13.018  0.00  0.00     0.212 HD
ENDBRANCH  17  54
BRANCH  21  56
ATOM     56  C6  NDG d   1      43.475  68.955  15.578  0.00  0.00     0.043 C 
ATOM     57  H17 FUC d   1      43.380  68.427  16.538  0.00  0.00     0.078 H 
ATOM     58  H18 FUC d   1      42.477  69.254  15.223  0.00  0.00     0.078 H 
BRANCH  56  59
ATOM     59  O6  NDG d   1      44.306  70.109  15.734  0.00  0.00    -0.398 OA
ATOM     60  H22 FUC d   1      44.386  70.555  14.899  0.00  0.00     0.209 HD
ENDBRANCH  56  59
ENDBRANCH  21  56
ENDBRANCH  12  13
ENDBRANCH   6  12
BRANCH   7  61
ATOM     61  O2  GAL d   1      41.640  67.851  10.212  0.00  0.00    -0.388 OA
ATOM     62  H32 FUC d   1      41.498  67.101  10.778  0.00  0.00     0.210 HD
ENDBRANCH   7  61
BRANCH   8  63
ATOM     63  O3  GAL d   1      40.729  70.476   9.258  0.00  0.00    -0.336 OA
BRANCH  63  64
ATOM     64  C2  SIA d   1      40.926  70.344   7.782  0.00  0.00     0.259 C 
ATOM     65  C3  SIA d   1      39.541  70.446   7.126  0.00  0.00     0.024 C 
ATOM     66  C4  SIA d   1      39.536  69.914   5.695  0.00  0.00     0.063 C 
ATOM     67  H35 FUC d   1      39.233  71.502   7.112  0.00  0.00     0.045 H 
ATOM     68  H36 FUC d   1      38.824  69.863   7.722  0.00  0.00     0.045 H 
ATOM     69  C5  SIA d   1      40.244  68.566   5.578  0.00  0.00     0.064 C 
ATOM     70  H37 FUC d   1      40.068  70.630   5.051  0.00  0.00     0.086 H 
ATOM     71  C6  SIA d   1      41.643  68.736   6.102  0.00  0.00     0.091 C 
ATOM     72  H38 FUC d   1      39.730  67.816   6.197  0.00  0.00     0.080 H 
ATOM     73  O6  SIA d   1      41.560  69.085   7.506  0.00  0.00    -0.336 OA
ATOM     74  H39 FUC d   1      42.124  69.544   5.531  0.00  0.00     0.090 H 
BRANCH  64  75
ATOM     75  C1  SIA d   1      41.828  71.477   7.298  0.00  0.00     0.239 C 
ATOM     76  O1A SIA d   1      41.349  72.636   7.320  0.00  0.00    -0.644 OA
ATOM     77  O1B SIA d   1      43.038  71.239   6.992  0.00  0.00    -0.644 OA
ENDBRANCH  64  75
BRANCH  66  78
ATOM     78  O4  SIA d   1      38.192  69.841   5.276  0.00  0.00    -0.393 OA
ATOM     79  H48 FUC d   1      37.787  70.696   5.364  0.00  0.00     0.210 HD
ENDBRANCH  66  78
BRANCH  69  80
ATOM     80  N5  SIA d   1      40.156  68.149   4.164  0.00  0.00    -0.352 N 
ATOM     81  C10 SIA d   1      40.074  66.855   3.824  0.00  0.00     0.214 C 
ATOM     82  O10 SIA d   1      40.112  65.973   4.643  0.00  0.00    -0.274 OA
ATOM     83  H47 FUC d   1      40.158  68.845   3.446  0.00  0.00     0.163 HD
BRANCH  81  84
ATOM     84  C11 SIA d   1      40.006  66.596   2.354  0.00  0.00    -0.003 C 
ATOM     85  H44 FUC d   1      39.941  65.513   2.175  0.00  0.00     0.040 H 
ATOM     86  H45 FUC d   1      40.910  66.994   1.869  0.00  0.00     0.040 H 
ATOM     87  H46 FUC d   1      39.117  67.091   1.935  0.00  0.00     0.040 H 
ENDBRANCH  81  84
ENDBRANCH  69  80
BRANCH  71  88
ATOM     88  C7  SIA d   1      42.549  67.504   6.069  0.00  0.00     0.089 C 
ATOM     89  H40 FUC d   1      42.759  67.219   5.028  0.00  0.00     0.091 H 
BRANCH  88  90
ATOM     90  C8  SIA d   1      43.843  67.731   6.812  0.00  0.00     0.083 C 
ATOM     91  H41 FUC d   1      43.616  67.777   7.887  0.00  0.00     0.090 H 
BRANCH  90  92
ATOM     92  C9  SIA d   1      44.822  66.588   6.573  0.00  0.00     0.043 C 
ATOM     93  H42 FUC d   1      45.124  66.559   5.516  0.00  0.00     0.078 H 
ATOM     94  H43 FUC d   1      44.362  65.628   6.849  0.00  0.00     0.078 H 
BRANCH  92  95
ATOM     95  O9  SIA d   1      45.971  66.856   7.417  0.00  0.00    -0.398 OA
ATOM     96  H51 FUC d   1      46.354  67.691   7.173  0.00  0.00     0.209 HD
ENDBRANCH  92  95
ENDBRANCH  90  92
BRANCH  90  97
ATOM     97  O8  SIA d   1      44.461  68.979   6.421  0.00  0.00    -0.391 OA
ATOM     98  H50 FUC d   1      43.852  69.693   6.569  0.00  0.00     0.210 HD
ENDBRANCH  90  97
ENDBRANCH  88  90
BRANCH  88  99
ATOM     99  O7  SIA d   1      41.849  66.462   6.756  0.00  0.00    -0.390 OA
ATOM    100  H49 FUC d   1      41.025  66.291   6.315  0.00  0.00     0.210 HD
ENDBRANCH  88  99
ENDBRANCH  71  88
ENDBRANCH  63  64
ENDBRANCH   8  63
BRANCH  10 101
ATOM    101  C6  GAL d   1      43.583  72.465  12.729  0.00  0.00     0.043 C 
ATOM    102  H30 FUC d   1      42.653  72.867  13.158  0.00  0.00     0.078 H 
ATOM    103  H31 FUC d   1      44.042  73.221  12.075  0.00  0.00     0.078 H 
BRANCH 101 104
ATOM    104  O6  GAL d   1      44.491  72.145  13.790  0.00  0.00    -0.398 OA
ATOM    105  H34 FUC d   1      44.096  71.494  14.358  0.00  0.00     0.209 HD
ENDBRANCH 101 104
ENDBRANCH  10 101
BRANCH   9 106
ATOM    106  O4  GAL d   1      40.946  71.966  11.483  0.00  0.00    -0.390 OA
ATOM    107  H33 FUC d   1      40.307  72.124  10.798  0.00  0.00     0.210 HD
ENDBRANCH   9 106
TORSDOF 29
