REMARK WARNING: 32 MAX_TORS EXCEEDED!!!
REMARK  56 active torsions:
REMARK  status: ('A' for Active; 'I' for Inactive)
REMARK    1  A    between atoms: CA_1  and  C_2 
REMARK       I    between atoms: C_2  and  N_4 
REMARK    2  A    between atoms: N_4  and  CA_5 
REMARK    3  A    between atoms: CA_5  and  C_6 
REMARK       I    between atoms: C_6  and  N_8 
REMARK    4  A    between atoms: N_8  and  CA_9 
REMARK    5  A    between atoms: CA_9  and  C_10 
REMARK    6  A    between atoms: CA_9  and  CB_12 
REMARK       I    between atoms: C_10  and  N_15 
REMARK    7  A    between atoms: CB_12  and  OG1_13 
REMARK    8  A    between atoms: CB_12  and  CG2_14 
REMARK    9  A    between atoms: N_15  and  CA_16 
REMARK   10  A    between atoms: CA_16  and  C_17 
REMARK   11  A    between atoms: CA_16  and  CB_19 
REMARK       I    between atoms: C_17  and  N_22 
REMARK   12  A    between atoms: CB_19  and  OG1_20 
REMARK   13  A    between atoms: CB_19  and  CG2_21 
REMARK   14  A    between atoms: CA_23  and  C_24 
REMARK       I    between atoms: C_24  and  N_29 
REMARK   15  A    between atoms: N_29  and  CA_30 
REMARK   16  A    between atoms: CA_30  and  C_31 
REMARK   17  A    between atoms: CA_30  and  CB_33 
REMARK       I    between atoms: C_31  and  N_35 
REMARK   18  A    between atoms: CB_33  and  OG_34 
REMARK   19  A    between atoms: CA_36  and  C_37 
REMARK       I    between atoms: C_37  and  N_42 
REMARK   20  A    between atoms: N_42  and  CA_43 
REMARK   21  A    between atoms: CA_43  and  C_44 
REMARK   22  A    between atoms: CA_43  and  CB_46 
REMARK       I    between atoms: C_44  and  N_49 
REMARK   23  A    between atoms: CB_46  and  CG1_47 
REMARK   24  A    between atoms: CB_46  and  CG2_48 
REMARK   25  A    between atoms: CA_50  and  C_51 
REMARK       I    between atoms: C_51  and  N_56 
REMARK   26  A    between atoms: N_56  and  CA_57 
REMARK   27  A    between atoms: CA_57  and  C_58 
REMARK   28  A    between atoms: CA_57  and  CB_60 
REMARK       I    between atoms: C_58  and  N_63 
REMARK   29  A    between atoms: CB_60  and  OG1_61 
REMARK   30  A    between atoms: CB_60  and  CG2_62 
REMARK   31  A    between atoms: N_63  and  CA_64 
REMARK   32  A    between atoms: CA_64  and  C_65 
REMARK   33  A    between atoms: CA_64  and  CB_67 
REMARK       I    between atoms: C_65  and  N_70 
REMARK   34  A    between atoms: CB_67  and  OG1_68 
REMARK   35  A    between atoms: CB_67  and  CG2_69 
REMARK   36  A    between atoms: N_70  and  CA_71 
REMARK   37  A    between atoms: CA_71  and  C_72 
REMARK   38  A    between atoms: CA_71  and  CB_74 
REMARK       I    between atoms: C_72  and  N_76 
REMARK   39  A    between atoms: CB_74  and  OG_75 
REMARK   40  A    between atoms: N_76  and  CA_77 
REMARK   41  A    between atoms: CA_77  and  C_78 
REMARK   42  A    between atoms: CA_77  and  CB_80 
REMARK       I    between atoms: C_78  and  N_83 
REMARK   43  A    between atoms: CB_80  and  OG1_81 
REMARK   44  A    between atoms: CB_80  and  CG2_82 
REMARK   45  A    between atoms: N_83  and  CA_84 
REMARK   46  A    between atoms: CA_84  and  C_85 
REMARK   47  A    between atoms: CA_84  and  CB_87 
REMARK       I    between atoms: C_85  and  N_90 
REMARK   48  A    between atoms: CB_87  and  OG1_88 
REMARK   49  A    between atoms: CB_87  and  CG2_89 
REMARK   50  A    between atoms: N_90  and  CA_91 
REMARK   51  A    between atoms: CA_91  and  C_92 
REMARK   52  A    between atoms: CA_91  and  CB_94 
REMARK       I    between atoms: C_92  and  N_96 
REMARK   53  A    between atoms: CB_94  and  OG_95 
REMARK   54  A    between atoms: N_96  and  CA_97 
REMARK   55  A    between atoms: CA_97  and  C_98 
REMARK   56  A    between atoms: CA_97  and  CB_100 
REMARK       I    between atoms: C_98  and  N_101 
ROOT
ATOM      1  N   PRO d   1      29.550  42.166  -5.173  0.00  0.00    -0.337 N 
ATOM      2  CA  PRO d   1      29.235  41.330  -6.351  0.00  0.00     0.091 C 
ATOM      3  CB  PRO d   1      27.691  41.304  -6.378  0.00  0.00    -0.036 C 
ATOM      4  CG  PRO d   1      27.254  41.828  -5.107  0.00  0.00    -0.048 C 
ATOM      5  CD  PRO d   1      28.337  42.682  -4.511  0.00  0.00    -0.001 C 
ATOM      6  H49 PRO d   1      29.624  40.312  -6.206  0.00  0.00     0.087 H 
ATOM      7  H50 PRO d   1      27.330  40.273  -6.509  0.00  0.00     0.036 H 
ATOM      8  H51 PRO d   1      27.314  41.932  -7.199  0.00  0.00     0.036 H 
ATOM      9  H52 PRO d   1      27.029  40.994  -4.426  0.00  0.00     0.035 H 
ATOM     10  H53 PRO d   1      26.349  42.435  -5.254  0.00  0.00     0.035 H 
ATOM     11  H54 PRO d   1      28.178  43.745  -4.744  0.00  0.00     0.064 H 
ATOM     12  H55 PRO d   1      28.392  42.550  -3.420  0.00  0.00     0.064 H 
ATOM     13  C   VAL d   1      30.830  42.241  -4.730  0.00  0.00     0.243 C 
ATOM     14  O   VAL d   1      31.695  41.592  -5.292  0.00  0.00    -0.271 OA
ENDROOT
BRANCH  13  15
ATOM     15  CA  VAL d   1      31.171  43.091  -3.484  0.00  0.00     0.092 C 
ATOM     16  H41 VAL d   1      30.255  43.310  -2.915  0.00  0.00     0.088 H 
BRANCH  15  17
ATOM     17  N   VAL d   1      32.121  42.281  -2.615  0.00  0.00    -0.346 N 
ATOM     18  C   PRO d   1      31.810  41.055  -2.191  0.00  0.00     0.241 C 
ATOM     19  O   PRO d   1      30.756  40.520  -2.393  0.00  0.00    -0.271 OA
ATOM     20  H40 VAL d   1      33.001  42.678  -2.355  0.00  0.00     0.163 HD
BRANCH  18  21
ATOM     21  CA  PRO d   1      32.845  40.263  -1.360  0.00  0.00     0.091 C 
ATOM     22  N   PRO d   1      32.254  39.626  -0.199  0.00  0.00    -0.337 N 
ATOM     23  C   SER d   1      32.090  40.366   0.896  0.00  0.00     0.245 C 
ATOM     24  CD  PRO d   1      32.082  38.164  -0.378  0.00  0.00    -0.001 C 
ATOM     25  O   SER d   1      32.398  41.578   0.946  0.00  0.00    -0.271 OA
ATOM     26  CG  PRO d   1      32.532  37.916  -1.788  0.00  0.00    -0.048 C 
ATOM     27  H38 PRO d   1      31.029  37.875  -0.247  0.00  0.00     0.064 H 
ATOM     28  H39 PRO d   1      32.706  37.606   0.336  0.00  0.00     0.064 H 
ATOM     29  CB  PRO d   1      33.406  39.080  -2.144  0.00  0.00    -0.036 C 
ATOM     30  H36 PRO d   1      33.100  36.976  -1.850  0.00  0.00     0.035 H 
ATOM     31  H37 PRO d   1      31.666  37.866  -2.464  0.00  0.00     0.035 H 
ATOM     32  H34 PRO d   1      34.448  38.883  -1.851  0.00  0.00     0.036 H 
ATOM     33  H35 PRO d   1      33.361  39.279  -3.225  0.00  0.00     0.036 H 
ATOM     34  H33 PRO d   1      33.652  40.946  -1.056  0.00  0.00     0.087 H 
BRANCH  23  35
ATOM     35  CA  SER d   1      31.542  39.624   2.109  0.00  0.00     0.109 C 
ATOM     36  H29 SER d   1      31.818  38.561   2.049  0.00  0.00     0.090 H 
BRANCH  35  37
ATOM     37  N   SER d   1      32.182  40.248   3.277  0.00  0.00    -0.344 N 
ATOM     38  C   PRO d   1      33.191  39.682   3.968  0.00  0.00     0.241 C 
ATOM     39  O   PRO d   1      33.823  38.675   3.615  0.00  0.00    -0.271 OA
ATOM     40  H28 SER d   1      31.850  41.143   3.575  0.00  0.00     0.163 HD
BRANCH  38  41
ATOM     41  CA  PRO d   1      33.476  40.326   5.317  0.00  0.00     0.091 C 
ATOM     42  N   PRO d   1      33.525  39.307   6.374  0.00  0.00    -0.337 N 
ATOM     43  C   THR d   1      32.569  38.394   6.549  0.00  0.00     0.245 C 
ATOM     44  CD  PRO d   1      34.605  39.567   7.341  0.00  0.00    -0.001 C 
ATOM     45  O   THR d   1      31.514  38.411   5.907  0.00  0.00    -0.271 OA
ATOM     46  CG  PRO d   1      35.239  40.816   6.826  0.00  0.00    -0.048 C 
ATOM     47  H26 PRO d   1      35.327  38.737   7.357  0.00  0.00     0.064 H 
ATOM     48  H27 PRO d   1      34.199  39.720   8.352  0.00  0.00     0.064 H 
ATOM     49  CB  PRO d   1      34.866  40.953   5.388  0.00  0.00    -0.036 C 
ATOM     50  H24 PRO d   1      34.872  41.684   7.393  0.00  0.00     0.035 H 
ATOM     51  H25 PRO d   1      36.333  40.749   6.925  0.00  0.00     0.035 H 
ATOM     52  H22 PRO d   1      34.835  42.011   5.089  0.00  0.00     0.036 H 
ATOM     53  H23 PRO d   1      35.575  40.411   4.745  0.00  0.00     0.036 H 
ATOM     54  H21 PRO d   1      32.701  41.078   5.528  0.00  0.00     0.087 H 
BRANCH  43  55
ATOM     55  CA  THR d   1      32.817  37.303   7.584  0.00  0.00     0.114 C 
ATOM     56  H15 THR d   1      33.444  37.697   8.398  0.00  0.00     0.091 H 
BRANCH  55  57
ATOM     57  N   THR d   1      31.540  36.879   8.137  0.00  0.00    -0.344 N 
ATOM     58  C   THR d   1      30.920  37.680   8.961  0.00  0.00     0.243 C 
ATOM     59  O   THR d   1      31.446  38.668   9.429  0.00  0.00    -0.271 OA
ATOM     60  H14 THR d   1      31.146  35.993   7.891  0.00  0.00     0.163 HD
BRANCH  58  61
ATOM     61  CA  THR d   1      29.497  37.286   9.319  0.00  0.00     0.113 C 
ATOM     62  H8  THR d   1      29.430  36.193   9.418  0.00  0.00     0.091 H 
BRANCH  61  63
ATOM     63  N   THR d   1      29.098  37.893  10.553  0.00  0.00    -0.344 N 
ATOM     64  C   GLY d   1      29.493  37.443  11.723  0.00  0.00     0.236 C 
ATOM     65  O   GLY d   1      30.043  36.401  11.864  0.00  0.00    -0.272 OA
ATOM     66  H7  THR d   1      28.495  38.690  10.523  0.00  0.00     0.163 HD
BRANCH  64  67
ATOM     67  CA  GLY d   1      29.195  38.396  12.879  0.00  0.00     0.069 C 
ATOM     68  H5  GLY d   1      30.022  39.119  12.937  0.00  0.00     0.078 H 
ATOM     69  H6  GLY d   1      28.261  38.926  12.642  0.00  0.00     0.078 H 
BRANCH  67  70
ATOM     70  N   GLY d   1      29.042  37.802  14.182  0.00  0.00    -0.353 N 
ATOM     71  C   ALA d   1      27.877  37.347  14.574  0.00  0.00     0.213 C 
ATOM     72  O   ALA d   1      26.913  37.384  13.896  0.00  0.00    -0.274 OA
ATOM     73  H4  GLY d   1      29.831  37.736  14.793  0.00  0.00     0.162 HD
BRANCH  71  74
ATOM     74  CA  ALA d   1      27.779  36.740  15.951  0.00  0.00    -0.003 C 
ATOM     75  H1  ALA d   1      28.762  36.786  16.443  0.00  0.00     0.040 H 
ATOM     76  H2  ALA d   1      27.460  35.691  15.867  0.00  0.00     0.040 H 
ATOM     77  H3  ALA d   1      27.044  37.300  16.547  0.00  0.00     0.040 H 
ENDBRANCH  71  74
ENDBRANCH  67  70
ENDBRANCH  64  67
ENDBRANCH  61  63
BRANCH  61  78
ATOM     78  CB  THR d   1      28.585  37.763   8.172  0.00  0.00     0.060 C 
ATOM     79  H9  THR d   1      28.981  37.379   7.220  0.00  0.00     0.086 H 
BRANCH  78  80
ATOM     80  OG1 THR d   1      28.574  39.192   8.135  0.00  0.00    -0.393 OA
ATOM     81  H10 THR d   1      28.246  39.527   8.961  0.00  0.00     0.210 HD
ENDBRANCH  78  80
BRANCH  78  82
ATOM     82  CG2 THR d   1      27.194  37.266   8.351  0.00  0.00    -0.050 C 
ATOM     83  H11 THR d   1      26.568  37.621   7.519  0.00  0.00     0.031 H 
ATOM     84  H12 THR d   1      26.789  37.643   9.302  0.00  0.00     0.031 H 
ATOM     85  H13 THR d   1      27.196  36.166   8.364  0.00  0.00     0.031 H 
ENDBRANCH  78  82
ENDBRANCH  61  78
ENDBRANCH  58  61
ENDBRANCH  55  57
BRANCH  55  86
ATOM     86  CB  THR d   1      33.554  36.167   6.894  0.00  0.00     0.060 C 
ATOM     87  H16 THR d   1      34.330  36.576   6.230  0.00  0.00     0.086 H 
BRANCH  86  88
ATOM     88  OG1 THR d   1      32.605  35.405   6.125  0.00  0.00    -0.393 OA
ATOM     89  H17 THR d   1      31.938  35.054   6.704  0.00  0.00     0.210 HD
ENDBRANCH  86  88
BRANCH  86  90
ATOM     90  CG2 THR d   1      34.197  35.271   7.935  0.00  0.00    -0.050 C 
ATOM     91  H18 THR d   1      34.730  34.450   7.433  0.00  0.00     0.031 H 
ATOM     92  H19 THR d   1      33.419  34.856   8.592  0.00  0.00     0.031 H 
ATOM     93  H20 THR d   1      34.909  35.858   8.534  0.00  0.00     0.031 H 
ENDBRANCH  86  90
ENDBRANCH  55  86
ENDBRANCH  43  55
ENDBRANCH  38  41
ENDBRANCH  35  37
BRANCH  35  94
ATOM     94  CB  SER d   1      29.996  39.735   2.218  0.00  0.00     0.044 C 
ATOM     95  H30 SER d   1      29.703  40.757   1.935  0.00  0.00     0.077 H 
ATOM     96  H31 SER d   1      29.710  39.548   3.264  0.00  0.00     0.077 H 
BRANCH  94  97
ATOM     97  OG  SER d   1      29.273  38.807   1.378  0.00  0.00    -0.398 OA
ATOM     98  H32 SER d   1      28.339  38.934   1.498  0.00  0.00     0.209 HD
ENDBRANCH  94  97
ENDBRANCH  35  94
ENDBRANCH  23  35
ENDBRANCH  18  21
ENDBRANCH  15  17
BRANCH  15  99
ATOM     99  CB  VAL d   1      31.804  44.415  -3.954  0.00  0.00    -0.033 C 
ATOM    100  H42 VAL d   1      32.769  44.180  -4.426  0.00  0.00     0.042 H 
BRANCH  99 101
ATOM    101  CG1 VAL d   1      30.937  45.101  -4.979  0.00  0.00    -0.071 C 
ATOM    102  H43 VAL d   1      31.415  46.041  -5.294  0.00  0.00     0.028 H 
ATOM    103  H44 VAL d   1      29.953  45.320  -4.539  0.00  0.00     0.028 H 
ATOM    104  H45 VAL d   1      30.811  44.444  -5.852  0.00  0.00     0.028 H 
ENDBRANCH  99 101
BRANCH  99 105
ATOM    105  CG2 VAL d   1      32.061  45.324  -2.802  0.00  0.00    -0.071 C 
ATOM    106  H46 VAL d   1      32.694  44.810  -2.064  0.00  0.00     0.028 H 
ATOM    107  H47 VAL d   1      31.105  45.603  -2.335  0.00  0.00     0.028 H 
ATOM    108  H48 VAL d   1      32.574  46.230  -3.157  0.00  0.00     0.028 H 
ENDBRANCH  99 105
ENDBRANCH  15  99
ENDBRANCH  13  15
BRANCH   2 109
ATOM    109  C   PRO d   1      29.837  41.893  -7.627  0.00  0.00     0.241 C 
ATOM    110  O   PRO d   1      29.344  42.887  -8.151  0.00  0.00    -0.271 OA
ATOM    111  N   THR d   1      30.932  41.297  -8.077  0.00  0.00    -0.344 N 
ATOM    112  H56 THR d   1      31.324  40.545  -7.547  0.00  0.00     0.163 HD
BRANCH 111 113
ATOM    113  CA  THR d   1      31.589  41.700  -9.324  0.00  0.00     0.113 C 
ATOM    114  H57 THR d   1      30.817  42.069 -10.015  0.00  0.00     0.091 H 
BRANCH 113 115
ATOM    115  C   THR d   1      32.253  40.489  -9.934  0.00  0.00     0.243 C 
ATOM    116  O   THR d   1      32.362  39.445  -9.296  0.00  0.00    -0.271 OA
ATOM    117  N   THR d   1      32.647  40.625 -11.177  0.00  0.00    -0.344 N 
ATOM    118  H63 THR d   1      32.488  41.497 -11.639  0.00  0.00     0.163 HD
BRANCH 117 119
ATOM    119  CA  THR d   1      33.308  39.553 -11.911  0.00  0.00     0.113 C 
ATOM    120  H64 THR d   1      33.908  38.967 -11.199  0.00  0.00     0.091 H 
BRANCH 119 121
ATOM    121  C   THR d   1      34.266  40.175 -12.922  0.00  0.00     0.243 C 
ATOM    122  O   THR d   1      34.476  41.405 -12.959  0.00  0.00    -0.271 OA
ATOM    123  N   SER d   1      34.858  39.353 -13.754  0.00  0.00    -0.344 N 
ATOM    124  H70 SER d   1      34.711  38.368 -13.664  0.00  0.00     0.163 HD
BRANCH 123 125
ATOM    125  CA  SER d   1      35.726  39.858 -14.806  0.00  0.00     0.109 C 
ATOM    126  H71 SER d   1      36.596  40.341 -14.337  0.00  0.00     0.090 H 
BRANCH 125 127
ATOM    127  C   SER d   1      35.015  40.883 -15.676  0.00  0.00     0.243 C 
ATOM    128  O   SER d   1      33.809  40.707 -15.996  0.00  0.00    -0.271 OA
ATOM    129  N   THR d   1      35.748  41.892 -16.131  0.00  0.00    -0.344 N 
ATOM    130  H75 THR d   1      36.696  41.999 -15.830  0.00  0.00     0.163 HD
BRANCH 129 131
ATOM    131  CA  THR d   1      35.167  42.847 -17.074  0.00  0.00     0.113 C 
ATOM    132  H76 THR d   1      34.084  42.869 -16.884  0.00  0.00     0.091 H 
BRANCH 131 133
ATOM    133  C   THR d   1      35.364  42.475 -18.519  0.00  0.00     0.243 C 
ATOM    134  O   THR d   1      35.026  43.249 -19.421  0.00  0.00    -0.271 OA
ATOM    135  N   THR d   1      35.854  41.276 -18.794  0.00  0.00    -0.344 N 
ATOM    136  H82 THR d   1      36.220  40.717 -18.050  0.00  0.00     0.163 HD
BRANCH 135 137
ATOM    137  CA  THR d   1      35.873  40.753 -20.145  0.00  0.00     0.113 C 
ATOM    138  H83 THR d   1      35.300  41.449 -20.775  0.00  0.00     0.091 H 
BRANCH 137 139
ATOM    139  C   THR d   1      35.225  39.386 -20.246  0.00  0.00     0.243 C 
ATOM    140  O   THR d   1      34.957  38.733 -19.239  0.00  0.00    -0.271 OA
ATOM    141  N   SER d   1      34.968  38.967 -21.486  0.00  0.00    -0.344 N 
ATOM    142  H89 SER d   1      35.186  39.571 -22.252  0.00  0.00     0.163 HD
BRANCH 141 143
ATOM    143  CA  SER d   1      34.376  37.651 -21.770  0.00  0.00     0.109 C 
ATOM    144  H90 SER d   1      33.825  37.313 -20.880  0.00  0.00     0.090 H 
BRANCH 143 145
ATOM    145  C   SER d   1      35.407  36.618 -22.135  0.00  0.00     0.243 C 
ATOM    146  O   SER d   1      36.311  36.913 -22.892  0.00  0.00    -0.271 OA
ATOM    147  N   ALA d   1      35.257  35.405 -21.674  0.00  0.00    -0.346 N 
ATOM    148  H94 ALA d   1      34.544  35.222 -20.997  0.00  0.00     0.163 HD
BRANCH 147 149
ATOM    149  CA  ALA d   1      36.104  34.321 -22.124  0.00  0.00     0.086 C 
ATOM    150  H95 ALA d   1      37.147  34.647 -21.995  0.00  0.00     0.086 H 
BRANCH 149 151
ATOM    151  C   ALA d   1      35.921  33.936 -23.614  0.00  0.00     0.237 C 
ATOM    152  O   ALA d   1      34.911  34.219 -24.179  0.00  0.00    -0.271 OA
ATOM    153  N   ALA d   1      36.958  33.322 -24.187  0.00  0.00    -0.368 N 
ATOM    154  H99 ALA d   1      36.907  33.046 -25.147  0.00  0.00     0.159 HD
ATOM    155 0H10 ALA d   1      37.786  33.138 -23.657  0.00  0.00     0.159 HD
ENDBRANCH 149 151
BRANCH 149 156
ATOM    156  CB  ALA d   1      35.880  33.113 -21.267  0.00  0.00    -0.049 C 
ATOM    157  H96 ALA d   1      36.526  32.293 -21.613  0.00  0.00     0.030 H 
ATOM    158  H97 ALA d   1      34.827  32.804 -21.337  0.00  0.00     0.030 H 
ATOM    159  H98 ALA d   1      36.123  33.355 -20.222  0.00  0.00     0.030 H 
ENDBRANCH 149 156
ENDBRANCH 147 149
ENDBRANCH 143 145
BRANCH 143 160
ATOM    160  CB  SER d   1      33.422  37.767 -22.959  0.00  0.00     0.044 C 
ATOM    161  H91 SER d   1      33.048  36.770 -23.233  0.00  0.00     0.077 H 
ATOM    162  H92 SER d   1      33.950  38.209 -23.817  0.00  0.00     0.077 H 
BRANCH 160 163
ATOM    163  OG  SER d   1      32.356  38.584 -22.593  0.00  0.00    -0.398 OA
ATOM    164  H93 SER d   1      31.755  38.665 -23.324  0.00  0.00     0.209 HD
ENDBRANCH 160 163
ENDBRANCH 143 160
ENDBRANCH 141 143
ENDBRANCH 137 139
BRANCH 137 165
ATOM    165  CB  THR d   1      37.318  40.661 -20.714  0.00  0.00     0.060 C 
ATOM    166  H84 THR d   1      37.277  40.372 -21.775  0.00  0.00     0.086 H 
BRANCH 165 167
ATOM    167  OG1 THR d   1      38.065  39.677 -19.960  0.00  0.00    -0.393 OA
ATOM    168  H85 THR d   1      38.948  39.619 -20.305  0.00  0.00     0.210 HD
ENDBRANCH 165 167
BRANCH 165 169
ATOM    169  CG2 THR d   1      38.010  41.952 -20.576  0.00  0.00    -0.050 C 
ATOM    170  H86 THR d   1      39.028  41.867 -20.983  0.00  0.00     0.031 H 
ATOM    171  H87 THR d   1      38.062  42.228 -19.513  0.00  0.00     0.031 H 
ATOM    172  H88 THR d   1      37.457  42.725 -21.129  0.00  0.00     0.031 H 
ENDBRANCH 165 169
ENDBRANCH 137 165
ENDBRANCH 135 137
ENDBRANCH 131 133
BRANCH 131 173
ATOM    173  CB  THR d   1      35.708  44.234 -16.843  0.00  0.00     0.060 C 
ATOM    174  H77 THR d   1      35.308  44.922 -17.602  0.00  0.00     0.086 H 
BRANCH 173 175
ATOM    175  OG1 THR d   1      37.130  44.166 -16.986  0.00  0.00    -0.393 OA
ATOM    176  H78 THR d   1      37.503  45.028 -16.846  0.00  0.00     0.210 HD
ENDBRANCH 173 175
BRANCH 173 177
ATOM    177  CG2 THR d   1      35.254  44.709 -15.475  0.00  0.00    -0.050 C 
ATOM    178  H79 THR d   1      35.642  45.722 -15.291  0.00  0.00     0.031 H 
ATOM    179  H80 THR d   1      35.637  44.025 -14.704  0.00  0.00     0.031 H 
ATOM    180  H81 THR d   1      34.155  44.725 -15.439  0.00  0.00     0.031 H 
ENDBRANCH 173 177
ENDBRANCH 131 173
ENDBRANCH 129 131
ENDBRANCH 125 127
BRANCH 125 181
ATOM    181  CB  SER d   1      36.214  38.704 -15.681  0.00  0.00     0.044 C 
ATOM    182  H72 SER d   1      35.341  38.174 -16.090  0.00  0.00     0.077 H 
ATOM    183  H73 SER d   1      36.805  38.014 -15.061  0.00  0.00     0.077 H 
BRANCH 181 184
ATOM    184  OG  SER d   1      37.021  39.159 -16.759  0.00  0.00    -0.398 OA
ATOM    185  H74 SER d   1      37.781  39.613 -16.415  0.00  0.00     0.209 HD
ENDBRANCH 181 184
ENDBRANCH 125 181
ENDBRANCH 123 125
ENDBRANCH 119 121
BRANCH 119 186
ATOM    186  CB  THR d   1      32.278  38.594 -12.537  0.00  0.00     0.060 C 
ATOM    187  H65 THR d   1      31.547  38.317 -11.764  0.00  0.00     0.086 H 
BRANCH 186 188
ATOM    188  OG1 THR d   1      32.920  37.392 -13.019  0.00  0.00    -0.393 OA
ATOM    189  H66 THR d   1      33.348  36.951 -12.295  0.00  0.00     0.210 HD
ENDBRANCH 186 188
BRANCH 186 190
ATOM    190  CG2 THR d   1      31.533  39.276 -13.699  0.00  0.00    -0.050 C 
ATOM    191  H67 THR d   1      30.804  38.574 -14.130  0.00  0.00     0.031 H 
ATOM    192  H68 THR d   1      32.255  39.575 -14.473  0.00  0.00     0.031 H 
ATOM    193  H69 THR d   1      31.007  40.167 -13.325  0.00  0.00     0.031 H 
ENDBRANCH 186 190
ENDBRANCH 119 186
ENDBRANCH 117 119
ENDBRANCH 113 115
BRANCH 113 194
ATOM    194  CB  THR d   1      32.625  42.817  -9.129  0.00  0.00     0.060 C 
ATOM    195  H58 THR d   1      33.214  42.915 -10.053  0.00  0.00     0.086 H 
BRANCH 194 196
ATOM    196  OG1 THR d   1      33.501  42.499  -8.041  0.00  0.00    -0.393 OA
ATOM    197  H59 THR d   1      32.993  42.404  -7.244  0.00  0.00     0.210 HD
ENDBRANCH 194 196
BRANCH 194 198
ATOM    198  CG2 THR d   1      31.957  44.139  -8.826  0.00  0.00    -0.050 C 
ATOM    199  H60 THR d   1      32.725  44.916  -8.692  0.00  0.00     0.031 H 
ATOM    200  H61 THR d   1      31.364  44.047  -7.904  0.00  0.00     0.031 H 
ATOM    201  H62 THR d   1      31.297  44.416  -9.661  0.00  0.00     0.031 H 
ENDBRANCH 194 198
ENDBRANCH 113 194
ENDBRANCH 111 113
ENDBRANCH   2 109
TORSDOF 56
