REMARK WARNING: 32 MAX_TORS EXCEEDED!!!
REMARK  53 active torsions:
REMARK  status: ('A' for Active; 'I' for Inactive)
REMARK    1  A    between atoms: N_1  and  CA_2 
REMARK    2  A    between atoms: CA_2  and  C_3 
REMARK    3  A    between atoms: CA_2  and  CB_5 
REMARK       I    between atoms: C_3  and  N_8 
REMARK    4  A    between atoms: CB_5  and  OG1_6 
REMARK    5  A    between atoms: CB_5  and  CG2_7 
REMARK    6  A    between atoms: N_8  and  CA_9 
REMARK    7  A    between atoms: CA_9  and  C_10 
REMARK    8  A    between atoms: CA_9  and  CB_12 
REMARK       I    between atoms: C_10  and  N_15 
REMARK    9  A    between atoms: CB_12  and  OG1_13 
REMARK   10  A    between atoms: CB_12  and  CG2_14 
REMARK   11  A    between atoms: CA_16  and  C_17 
REMARK       I    between atoms: C_17  and  N_22 
REMARK   12  A    between atoms: N_22  and  CA_23 
REMARK   13  A    between atoms: CA_23  and  C_24 
REMARK   14  A    between atoms: CA_23  and  CB_26 
REMARK       I    between atoms: C_24  and  N_28 
REMARK   15  A    between atoms: CB_26  and  OG_27 
REMARK   16  A    between atoms: CA_29  and  C_30 
REMARK       I    between atoms: C_30  and  N_35 
REMARK   17  A    between atoms: N_35  and  CA_36 
REMARK   18  A    between atoms: CA_36  and  C_37 
REMARK   19  A    between atoms: CA_36  and  CB_39 
REMARK       I    between atoms: C_37  and  N_42 
REMARK   20  A    between atoms: CB_39  and  CG1_40 
REMARK   21  A    between atoms: CB_39  and  CG2_41 
REMARK   22  A    between atoms: CA_43  and  C_44 
REMARK       I    between atoms: C_44  and  N_49 
REMARK   23  A    between atoms: N_49  and  CA_50 
REMARK   24  A    between atoms: CA_50  and  C_51 
REMARK   25  A    between atoms: CA_50  and  CB_53 
REMARK       I    between atoms: C_51  and  N_56 
REMARK   26  A    between atoms: CB_53  and  OG1_54 
REMARK   27  A    between atoms: CB_53  and  CG2_55 
REMARK   28  A    between atoms: N_56  and  CA_57 
REMARK   29  A    between atoms: CA_57  and  C_58 
REMARK   30  A    between atoms: CA_57  and  CB_60 
REMARK       I    between atoms: C_58  and  N_63 
REMARK   31  A    between atoms: CB_60  and  OG1_61 
REMARK   32  A    between atoms: CB_60  and  CG2_62 
REMARK   33  A    between atoms: N_63  and  CA_64 
REMARK   34  A    between atoms: CA_64  and  C_65 
REMARK   35  A    between atoms: CA_64  and  CB_67 
REMARK       I    between atoms: C_65  and  N_69 
REMARK   36  A    between atoms: CB_67  and  OG_68 
REMARK   37  A    between atoms: N_69  and  CA_70 
REMARK   38  A    between atoms: CA_70  and  C_71 
REMARK   39  A    between atoms: CA_70  and  CB_73 
REMARK       I    between atoms: C_71  and  N_76 
REMARK   40  A    between atoms: CB_73  and  OG1_74 
REMARK   41  A    between atoms: CB_73  and  CG2_75 
REMARK   42  A    between atoms: N_76  and  CA_77 
REMARK   43  A    between atoms: CA_77  and  C_78 
REMARK   44  A    between atoms: CA_77  and  CB_80 
REMARK       I    between atoms: C_78  and  N_83 
REMARK   45  A    between atoms: CB_80  and  OG1_81 
REMARK   46  A    between atoms: CB_80  and  CG2_82 
REMARK   47  A    between atoms: N_83  and  CA_84 
REMARK   48  A    between atoms: CA_84  and  C_85 
REMARK   49  A    between atoms: CA_84  and  CB_87 
REMARK       I    between atoms: C_85  and  N_89 
REMARK   50  A    between atoms: CB_87  and  OG_88 
REMARK   51  A    between atoms: N_89  and  CA_90 
REMARK   52  A    between atoms: CA_90  and  C_91 
REMARK   53  A    between atoms: CA_90  and  CB_93 
REMARK       I    between atoms: C_91  and  N_94 
ROOT
ATOM      1  N   PRO d   1       1.418  14.099   4.997  0.00  0.00    -0.337 N 
ATOM      2  CA  PRO d   1       2.217  14.406   6.201  0.00  0.00     0.091 C 
ATOM      3  CB  PRO d   1       2.288  15.929   6.238  0.00  0.00    -0.036 C 
ATOM      4  CG  PRO d   1       1.625  16.409   5.008  0.00  0.00    -0.048 C 
ATOM      5  CD  PRO d   1       0.957  15.308   4.302  0.00  0.00    -0.001 C 
ATOM      6  H45 PRO d   1       3.225  13.981   6.085  0.00  0.00     0.087 H 
ATOM      7  H46 PRO d   1       3.337  16.260   6.259  0.00  0.00     0.036 H 
ATOM      8  H47 PRO d   1       1.765  16.312   7.126  0.00  0.00     0.036 H 
ATOM      9  H48 PRO d   1       2.380  16.856   4.344  0.00  0.00     0.035 H 
ATOM     10  H49 PRO d   1       0.877  17.169   5.277  0.00  0.00     0.035 H 
ATOM     11  H50 PRO d   1      -0.136  15.406   4.373  0.00  0.00     0.064 H 
ATOM     12  H51 PRO d   1       1.255  15.286   3.243  0.00  0.00     0.064 H 
ATOM     13  C   VAL d   1       1.363  12.870   4.489  0.00  0.00     0.243 C 
ATOM     14  O   VAL d   1       1.936  11.938   5.024  0.00  0.00    -0.271 OA
ENDROOT
BRANCH   2  15
ATOM     15  C   PRO d   1       1.637  13.895   7.487  0.00  0.00     0.241 C 
ATOM     16  O   PRO d   1       0.712  14.511   8.057  0.00  0.00    -0.271 OA
ATOM     17  N   THR d   1       2.196  12.781   7.941  0.00  0.00    -0.344 N 
ATOM     18  H52 THR d   1       2.903  12.340   7.388  0.00  0.00     0.163 HD
BRANCH  17  19
ATOM     19  CA  THR d   1       1.819  12.169   9.222  0.00  0.00     0.113 C 
ATOM     20  H53 THR d   1       1.400  12.942   9.883  0.00  0.00     0.091 H 
BRANCH  19  21
ATOM     21  C   THR d   1       3.058  11.576   9.851  0.00  0.00     0.243 C 
ATOM     22  O   THR d   1       4.109  11.516   9.226  0.00  0.00    -0.271 OA
ATOM     23  N   THR d   1       2.911  11.106  11.082  0.00  0.00    -0.344 N 
ATOM     24  H59 THR d   1       2.028  11.205  11.540  0.00  0.00     0.163 HD
BRANCH  23  25
ATOM     25  CA  THR d   1       4.000  10.453  11.779  0.00  0.00     0.113 C 
ATOM     26  H60 THR d   1       4.563   9.839  11.060  0.00  0.00     0.091 H 
BRANCH  25  27
ATOM     27  C   THR d   1       3.365   9.516  12.825  0.00  0.00     0.243 C 
ATOM     28  O   THR d   1       2.135   9.337  12.881  0.00  0.00    -0.271 OA
ATOM     29  N   SER d   1       4.203   8.923  13.646  0.00  0.00    -0.344 N 
ATOM     30  H66 SER d   1       5.185   9.092  13.560  0.00  0.00     0.163 HD
BRANCH  29  31
ATOM     31  CA  SER d   1       3.716   8.028  14.674  0.00  0.00     0.109 C 
ATOM     32  H67 SER d   1       3.264   7.139  14.210  0.00  0.00     0.090 H 
BRANCH  31  33
ATOM     33  C   SER d   1       2.695   8.747  15.535  0.00  0.00     0.243 C 
ATOM     34  O   SER d   1       2.847   9.948  15.820  0.00  0.00    -0.271 OA
ATOM     35  N   THR d   1       1.701   8.005  16.005  0.00  0.00    -0.344 N 
ATOM     36  H71 THR d   1       1.621   7.049  15.723  0.00  0.00     0.163 HD
BRANCH  35  37
ATOM     37  CA  THR d   1       0.727   8.565  16.925  0.00  0.00     0.113 C 
ATOM     38  H72 THR d   1       0.691   9.649  16.742  0.00  0.00     0.091 H 
BRANCH  37  39
ATOM     39  C   THR d   1       1.093   8.367  18.386  0.00  0.00     0.243 C 
ATOM     40  O   THR d   1       0.287   8.662  19.261  0.00  0.00    -0.271 OA
ATOM     41  N   THR d   1       2.289   7.886  18.666  0.00  0.00    -0.344 N 
ATOM     42  H78 THR d   1       2.872   7.547  17.928  0.00  0.00     0.163 HD
BRANCH  41  43
ATOM     43  CA  THR d   1       2.765   7.845  20.035  0.00  0.00     0.113 C 
ATOM     44  H79 THR d   1       2.060   8.415  20.658  0.00  0.00     0.091 H 
BRANCH  43  45
ATOM     45  C   THR d   1       4.132   8.493  20.136  0.00  0.00     0.243 C 
ATOM     46  O   THR d   1       4.785   8.774  19.135  0.00  0.00    -0.271 OA
ATOM     47  N   SER d   1       4.551   8.734  21.374  0.00  0.00    -0.344 N 
ATOM     48  H85 SER d   1       3.937   8.531  22.137  0.00  0.00     0.163 HD
BRANCH  47  49
ATOM     49  CA  SER d   1       5.880   9.286  21.666  0.00  0.00     0.109 C 
ATOM     50  H86 SER d   1       6.276   9.720  20.736  0.00  0.00     0.090 H 
BRANCH  49  51
ATOM     51  C   SER d   1       6.860   8.268  22.160  0.00  0.00     0.243 C 
ATOM     52  O   SER d   1       6.480   7.404  22.944  0.00  0.00    -0.271 OA
ATOM     53  N   ALA d   1       8.115   8.367  21.703  0.00  0.00    -0.346 N 
ATOM     54  H90 ALA d   1       8.333   9.072  21.029  0.00  0.00     0.163 HD
BRANCH  53  55
ATOM     55  CA  ALA d   1       9.186   7.461  22.169  0.00  0.00     0.086 C 
ATOM     56  H91 ALA d   1       8.873   6.424  21.977  0.00  0.00     0.086 H 
BRANCH  55  57
ATOM     57  C   ALA d   1       9.425   7.624  23.658  0.00  0.00     0.237 C 
ATOM     58  O   ALA d   1       9.223   8.730  24.174  0.00  0.00    -0.271 OA
ATOM     59  N   ALA d   1       9.759   6.512  24.540  0.00  0.00    -0.368 N 
ATOM     60  H95 ALA d   1       9.907   6.675  25.516  0.00  0.00     0.159 HD
ATOM     61  H96 ALA d   1       9.840   5.587  24.169  0.00  0.00     0.159 HD
ENDBRANCH  55  57
BRANCH  55  62
ATOM     62  CB  ALA d   1      10.470   7.728  21.406  0.00  0.00    -0.049 C 
ATOM     63  H92 ALA d   1      11.257   7.047  21.763  0.00  0.00     0.030 H 
ATOM     64  H93 ALA d   1      10.784   8.769  21.570  0.00  0.00     0.030 H 
ATOM     65  H94 ALA d   1      10.300   7.561  20.332  0.00  0.00     0.030 H 
ENDBRANCH  55  62
ENDBRANCH  53  55
ENDBRANCH  49  51
BRANCH  49  66
ATOM     66  CB  SER d   1       5.767  10.394  22.723  0.00  0.00     0.044 C 
ATOM     67  H87 SER d   1       6.770  10.697  23.057  0.00  0.00     0.077 H 
ATOM     68  H88 SER d   1       5.187  10.032  23.585  0.00  0.00     0.077 H 
BRANCH  66  69
ATOM     69  OG  SER d   1       5.112  11.483  22.131  0.00  0.00    -0.398 OA
ATOM     70  H89 SER d   1       5.029  12.185  22.766  0.00  0.00     0.209 HD
ENDBRANCH  66  69
ENDBRANCH  49  66
ENDBRANCH  47  49
ENDBRANCH  43  45
BRANCH  43  71
ATOM     71  CB  THR d   1       2.836   6.404  20.582  0.00  0.00     0.060 C 
ATOM     72  H80 THR d   1       3.114   6.426  21.646  0.00  0.00     0.086 H 
BRANCH  71  73
ATOM     73  OG1 THR d   1       3.824   5.676  19.840  0.00  0.00    -0.393 OA
ATOM     74  H81 THR d   1       3.875   4.787  20.170  0.00  0.00     0.210 HD
ENDBRANCH  71  73
BRANCH  71  75
ATOM     75  CG2 THR d   1       1.508   5.739  20.429  0.00  0.00    -0.050 C 
ATOM     76  H82 THR d   1       1.565   4.713  20.820  0.00  0.00     0.031 H 
ATOM     77  H83 THR d   1       1.232   5.711  19.364  0.00  0.00     0.031 H 
ATOM     78  H84 THR d   1       0.748   6.304  20.989  0.00  0.00     0.031 H 
ENDBRANCH  71  75
ENDBRANCH  43  71
ENDBRANCH  41  43
ENDBRANCH  37  39
BRANCH  37  79
ATOM     79  CB  THR d   1      -0.662   7.996  16.641  0.00  0.00     0.060 C 
ATOM     80  H73 THR d   1      -1.380   8.389  17.376  0.00  0.00     0.086 H 
BRANCH  79  81
ATOM     81  OG1 THR d   1      -0.601   6.579  16.745  0.00  0.00    -0.393 OA
ATOM     82  H74 THR d   1      -1.460   6.213  16.570  0.00  0.00     0.210 HD
ENDBRANCH  79  81
BRANCH  79  83
ATOM     83  CG2 THR d   1      -1.112   8.409  15.208  0.00  0.00    -0.050 C 
ATOM     84  H75 THR d   1      -2.112   7.998  15.005  0.00  0.00     0.031 H 
ATOM     85  H76 THR d   1      -0.397   8.014  14.471  0.00  0.00     0.031 H 
ATOM     86  H77 THR d   1      -1.144   9.506  15.136  0.00  0.00     0.031 H 
ENDBRANCH  79  83
ENDBRANCH  37  79
ENDBRANCH  35  37
ENDBRANCH  31  33
BRANCH  31  87
ATOM     87  CB  SER d   1       4.859   7.622  15.576  0.00  0.00     0.044 C 
ATOM     88  H68 SER d   1       5.292   8.526  16.028  0.00  0.00     0.077 H 
ATOM     89  H69 SER d   1       5.623   7.112  14.972  0.00  0.00     0.077 H 
BRANCH  87  90
ATOM     90  OG  SER d   1       4.435   6.744  16.619  0.00  0.00    -0.398 OA
ATOM     91  H70 SER d   1       4.064   5.957  16.238  0.00  0.00     0.209 HD
ENDBRANCH  87  90
ENDBRANCH  31  87
ENDBRANCH  29  31
ENDBRANCH  25  27
BRANCH  25  92
ATOM     92  CB  THR d   1       4.999  11.490  12.394  0.00  0.00     0.060 C 
ATOM     93  H61 THR d   1       5.315  12.179  11.597  0.00  0.00     0.086 H 
BRANCH  92  94
ATOM     94  OG1 THR d   1       6.177  10.827  12.933  0.00  0.00    -0.393 OA
ATOM     95  H62 THR d   1       6.619  10.354  12.238  0.00  0.00     0.210 HD
ENDBRANCH  92  94
BRANCH  92  96
ATOM     96  CG2 THR d   1       4.340  12.294  13.500  0.00  0.00    -0.050 C 
ATOM     97  H63 THR d   1       5.064  13.012  13.912  0.00  0.00     0.031 H 
ATOM     98  H64 THR d   1       4.004  11.614  14.297  0.00  0.00     0.031 H 
ATOM     99  H65 THR d   1       3.475  12.838  13.092  0.00  0.00     0.031 H 
ENDBRANCH  92  96
ENDBRANCH  25  92
ENDBRANCH  23  25
ENDBRANCH  19  21
BRANCH  19 100
ATOM    100  CB  THR d   1       0.779  11.051   9.031  0.00  0.00     0.060 C 
ATOM    101  H54 THR d   1       0.487  10.666  10.019  0.00  0.00     0.086 H 
BRANCH 100 102
ATOM    102  OG1 THR d   1       1.348   9.982   8.261  0.00  0.00    -0.393 OA
ATOM    103  H55 THR d   1       1.614  10.312   7.411  0.00  0.00     0.210 HD
ENDBRANCH 100 102
BRANCH 100 104
ATOM    104  CG2 THR d   1      -0.451  11.576   8.328  0.00  0.00    -0.050 C 
ATOM    105  H56 THR d   1      -1.178  10.760   8.203  0.00  0.00     0.031 H 
ATOM    106  H57 THR d   1      -0.169  11.970   7.340  0.00  0.00     0.031 H 
ATOM    107  H58 THR d   1      -0.901  12.380   8.928  0.00  0.00     0.031 H 
ENDBRANCH 100 104
ENDBRANCH  19 100
ENDBRANCH  17  19
ENDBRANCH   2  15
BRANCH  13 108
ATOM    108  CA  VAL d   1       0.603  12.653   3.182  0.00  0.00     0.092 C 
ATOM    109  H37 VAL d   1       0.538  13.605   2.635  0.00  0.00     0.088 H 
BRANCH 108 110
ATOM    110  N   VAL d   1       1.322  11.676   2.339  0.00  0.00    -0.346 N 
ATOM    111  C   PRO d   1       2.602  11.846   2.006  0.00  0.00     0.241 C 
ATOM    112  O   PRO d   1       3.204  12.888   2.216  0.00  0.00    -0.271 OA
ATOM    113  H36 VAL d   1       0.836  10.866   2.010  0.00  0.00     0.163 HD
BRANCH 111 114
ATOM    114  CA  PRO d   1       3.309  10.669   1.331  0.00  0.00     0.091 C 
ATOM    115  N   PRO d   1       4.339  11.082   0.378  0.00  0.00    -0.337 N 
ATOM    116  C   SER d   1       3.987  11.377  -0.854  0.00  0.00     0.245 C 
ATOM    117  CD  PRO d   1       5.691  10.992   0.937  0.00  0.00    -0.001 C 
ATOM    118  O   SER d   1       2.822  11.361  -1.197  0.00  0.00    -0.271 OA
ATOM    119  CG  PRO d   1       5.455  10.512   2.331  0.00  0.00    -0.048 C 
ATOM    120  H34 PRO d   1       6.184  11.976   0.937  0.00  0.00     0.064 H 
ATOM    121  H35 PRO d   1       6.304  10.275   0.372  0.00  0.00     0.064 H 
ATOM    122  CB  PRO d   1       4.118   9.887   2.361  0.00  0.00    -0.036 C 
ATOM    123  H32 PRO d   1       6.222   9.774   2.610  0.00  0.00     0.035 H 
ATOM    124  H33 PRO d   1       5.490  11.359   3.032  0.00  0.00     0.035 H 
ATOM    125  H30 PRO d   1       4.179   8.825   2.083  0.00  0.00     0.036 H 
ATOM    126  H31 PRO d   1       3.668   9.979   3.361  0.00  0.00     0.036 H 
ATOM    127  H29 PRO d   1       2.560  10.030   0.841  0.00  0.00     0.087 H 
BRANCH 116 128
ATOM    128  CA  SER d   1       5.103  11.675  -1.839  0.00  0.00     0.109 C 
ATOM    129  H25 SER d   1       6.062  11.384  -1.385  0.00  0.00     0.090 H 
BRANCH 128 130
ATOM    130  N   SER d   1       4.915  10.889  -3.080  0.00  0.00    -0.344 N 
ATOM    131  C   PRO d   1       4.845   9.570  -3.024  0.00  0.00     0.241 C 
ATOM    132  O   PRO d   1       4.836   8.972  -1.952  0.00  0.00    -0.271 OA
ATOM    133  H24 SER d   1       4.841  11.356  -3.961  0.00  0.00     0.163 HD
BRANCH 131 134
ATOM    134  CA  PRO d   1       4.668   8.856  -4.349  0.00  0.00     0.091 C 
ATOM    135  N   PRO d   1       4.567   7.409  -4.228  0.00  0.00    -0.337 N 
ATOM    136  C   THR d   1       5.658   6.712  -3.908  0.00  0.00     0.245 C 
ATOM    137  CD  PRO d   1       3.212   6.900  -4.502  0.00  0.00    -0.001 C 
ATOM    138  O   THR d   1       6.745   7.261  -3.710  0.00  0.00    -0.271 OA
ATOM    139  CG  PRO d   1       2.553   8.040  -5.183  0.00  0.00    -0.048 C 
ATOM    140  H22 PRO d   1       2.691   6.644  -3.568  0.00  0.00     0.064 H 
ATOM    141  H23 PRO d   1       3.247   6.017  -5.157  0.00  0.00     0.064 H 
ATOM    142  CB  PRO d   1       3.326   9.258  -4.925  0.00  0.00    -0.036 C 
ATOM    143  H20 PRO d   1       2.513   7.850  -6.266  0.00  0.00     0.035 H 
ATOM    144  H21 PRO d   1       1.531   8.162  -4.794  0.00  0.00     0.035 H 
ATOM    145  H18 PRO d   1       3.475   9.810  -5.865  0.00  0.00     0.036 H 
ATOM    146  H19 PRO d   1       2.788   9.895  -4.207  0.00  0.00     0.036 H 
ATOM    147  H17 PRO d   1       5.494   9.126  -5.024  0.00  0.00     0.087 H 
BRANCH 136 148
ATOM    148  CA  THR d   1       5.491   5.192  -3.814  0.00  0.00     0.114 C 
ATOM    149  H11 THR d   1       4.696   4.892  -4.512  0.00  0.00     0.091 H 
BRANCH 148 150
ATOM    150  N   THR d   1       6.723   4.514  -4.226  0.00  0.00    -0.344 N 
ATOM    151  C   THR d   1       6.825   4.011  -5.454  0.00  0.00     0.251 C 
ATOM    152  O   THR d   1       5.983   4.224  -6.336  0.00  0.00    -0.271 OA
ATOM    153  H10 THR d   1       7.486   4.429  -3.585  0.00  0.00     0.163 HD
BRANCH 151 154
ATOM    154  CA  THR d   1       8.064   3.179  -5.759  0.00  0.00     0.199 C 
ATOM    155  H4  THR d   1       8.793   3.299  -4.944  0.00  0.00     0.103 H 
BRANCH 154 156
ATOM    156  N   THR d   1       7.679   1.743  -5.858  0.00  0.00    -0.064 N 
ATOM    157  H1  THR d   1       7.269   1.444  -4.987  0.00  0.00     0.275 HD
ATOM    158  H2  THR d   1       8.498   1.188  -6.052  0.00  0.00     0.275 HD
ATOM    159  H3  THR d   1       7.009   1.625  -6.602  0.00  0.00     0.275 HD
ENDBRANCH 154 156
BRANCH 154 160
ATOM    160  CB  THR d   1       8.697   3.675  -7.077  0.00  0.00     0.068 C 
ATOM    161  H5  THR d   1       7.910   3.750  -7.842  0.00  0.00     0.086 H 
BRANCH 160 162
ATOM    162  OG1 THR d   1       9.697   2.742  -7.515  0.00  0.00    -0.393 OA
ATOM    163  H6  THR d   1      10.084   3.051  -8.326  0.00  0.00     0.210 HD
ENDBRANCH 160 162
BRANCH 160 164
ATOM    164  CG2 THR d   1       9.342   5.032  -6.901  0.00  0.00    -0.050 C 
ATOM    165  H7  THR d   1       9.782   5.355  -7.856  0.00  0.00     0.031 H 
ATOM    166  H8  THR d   1      10.131   4.967  -6.137  0.00  0.00     0.031 H 
ATOM    167  H9  THR d   1       8.582   5.761  -6.582  0.00  0.00     0.031 H 
ENDBRANCH 160 164
ENDBRANCH 154 160
ENDBRANCH 151 154
ENDBRANCH 148 150
BRANCH 148 168
ATOM    168  CB  THR d   1       5.044   4.788  -2.392  0.00  0.00     0.060 C 
ATOM    169  H12 THR d   1       4.032   5.176  -2.206  0.00  0.00     0.086 H 
BRANCH 168 170
ATOM    170  OG1 THR d   1       5.947   5.312  -1.444  0.00  0.00    -0.393 OA
ATOM    171  H13 THR d   1       6.816   4.967  -1.612  0.00  0.00     0.210 HD
ENDBRANCH 168 170
BRANCH 168 172
ATOM    172  CG2 THR d   1       5.057   3.278  -2.222  0.00  0.00    -0.050 C 
ATOM    173  H14 THR d   1       4.735   3.021  -1.202  0.00  0.00     0.031 H 
ATOM    174  H15 THR d   1       6.075   2.899  -2.391  0.00  0.00     0.031 H 
ATOM    175  H16 THR d   1       4.370   2.821  -2.950  0.00  0.00     0.031 H 
ENDBRANCH 168 172
ENDBRANCH 148 168
ENDBRANCH 136 148
ENDBRANCH 131 134
ENDBRANCH 128 130
BRANCH 128 176
ATOM    176  CB  SER d   1       5.140  13.179  -2.133  0.00  0.00     0.044 C 
ATOM    177  H26 SER d   1       5.213  13.731  -1.184  0.00  0.00     0.077 H 
ATOM    178  H27 SER d   1       4.216  13.468  -2.655  0.00  0.00     0.077 H 
BRANCH 176 179
ATOM    179  OG  SER d   1       6.261  13.505  -2.952  0.00  0.00    -0.398 OA
ATOM    180  H28 SER d   1       7.062  13.259  -2.503  0.00  0.00     0.209 HD
ENDBRANCH 176 179
ENDBRANCH 128 176
ENDBRANCH 116 128
ENDBRANCH 111 114
ENDBRANCH 108 110
BRANCH 108 181
ATOM    181  CB  VAL d   1      -0.823  12.181   3.536  0.00  0.00    -0.033 C 
ATOM    182  H38 VAL d   1      -0.756  11.187   4.003  0.00  0.00     0.042 H 
BRANCH 181 183
ATOM    183  CG1 VAL d   1      -1.503  13.145   4.504  0.00  0.00    -0.071 C 
ATOM    184  H39 VAL d   1      -2.515  12.780   4.735  0.00  0.00     0.028 H 
ATOM    185  H40 VAL d   1      -1.569  14.142   4.043  0.00  0.00     0.028 H 
ATOM    186  H41 VAL d   1      -0.915  13.208   5.432  0.00  0.00     0.028 H 
ENDBRANCH 181 183
BRANCH 181 187
ATOM    187  CG2 VAL d   1      -1.672  12.094   2.321  0.00  0.00    -0.071 C 
ATOM    188  H42 VAL d   1      -1.210  11.405   1.599  0.00  0.00     0.028 H 
ATOM    189  H43 VAL d   1      -1.766  13.091   1.867  0.00  0.00     0.028 H 
ATOM    190  H44 VAL d   1      -2.670  11.721   2.597  0.00  0.00     0.028 H 
ENDBRANCH 181 187
ENDBRANCH 108 181
ENDBRANCH  13 108
TORSDOF 53
