REMARK  8 active torsions:
REMARK  status: ('A' for Active; 'I' for Inactive)
REMARK    1  A    between atoms: CAS_6  and  NAB_7 
REMARK    2  A    between atoms: CAV_12  and  OAQ_13 
REMARK    3  A    between atoms: OAQ_13  and  CAU_14 
REMARK    4  A    between atoms: CAT_19  and  NAO_20 
REMARK       I    between atoms: NAO_20  and  C_21 
REMARK    5  A    between atoms: C_21  and  CA_23 
REMARK    6  A    between atoms: CA_23  and  N_24 
REMARK    7  A    between atoms: CA_23  and  CB_25 
REMARK    8  A    between atoms: CB_25  and  OG_26 
ROOT
ATOM      1  CAM 8R2 d   1      42.409 -38.923  13.109  0.00  0.00    -0.037 A 
ATOM      2  CAY 8R2 d   1      41.954 -40.067  12.576  0.00  0.00     0.017 A 
ATOM      3  CAW 8R2 d   1      42.543 -41.219  12.231  0.00  0.00     0.086 A 
ATOM      4  CAF 8R2 d   1      43.909 -41.544  12.367  0.00  0.00     0.024 C 
ATOM      5  NAA 8R2 d   1      45.070 -41.875  12.471  0.00  0.00    -0.096 N 
ATOM      6  CAS 8R2 d   1      41.650 -42.041  11.724  0.00  0.00     0.120 A 
ATOM      7  NAP 8R2 d   1      40.466 -41.423  11.730  0.00  0.00    -0.341 N 
ATOM      8  CAX 8R2 d   1      40.653 -40.195  12.262  0.00  0.00     0.045 A 
ATOM      9  CAL 8R2 d   1      39.789 -39.183  12.494  0.00  0.00    -0.054 A 
ATOM     10  CAK 8R2 d   1      40.203 -37.982  13.051  0.00  0.00    -0.048 A 
ATOM     11  CAV 8R2 d   1      41.547 -37.855  13.363  0.00  0.00     0.077 A 
ATOM     12  H1  8R2 d   1      43.462 -38.827  13.346  0.00  0.00     0.089 H 
ATOM     13  H4  8R2 d   1      39.574 -41.811  11.391  0.00  0.00     0.167 HD
ATOM     14  H5  8R2 d   1      38.744 -39.313  12.238  0.00  0.00     0.087 H 
ATOM     15  H6  8R2 d   1      39.503 -37.175  13.235  0.00  0.00     0.087 H 
ENDROOT
BRANCH   6  16
ATOM     16  NAB 8R2 d   1      41.841 -43.269  11.272  0.00  0.00    -0.384 N 
ATOM     17  H2  8R2 d   1      41.048 -43.809  10.898  0.00  0.00     0.157 HD
ATOM     18  H3  8R2 d   1      42.783 -43.685  11.294  0.00  0.00     0.157 HD
ENDBRANCH   6  16
BRANCH  11  19
ATOM     19  OAQ 8R2 d   1      42.023 -36.709  13.915  0.00  0.00    -0.311 OA
BRANCH  19  20
ATOM     20  CAU 8R2 d   1      41.530 -36.362  15.136  0.00  0.00     0.076 A 
ATOM     21  CAJ 8R2 d   1      41.046 -37.260  16.084  0.00  0.00    -0.048 A 
ATOM     22  CAH 8R2 d   1      40.565 -36.819  17.321  0.00  0.00    -0.054 A 
ATOM     23  H7  8R2 d   1      41.042 -38.320  15.859  0.00  0.00     0.087 H 
ATOM     24  CAT 8R2 d   1      40.563 -35.463  17.648  0.00  0.00     0.035 A 
ATOM     25  H8  8R2 d   1      40.188 -37.541  18.036  0.00  0.00     0.087 H 
ATOM     26  CAG 8R2 d   1      41.075 -34.593  16.688  0.00  0.00    -0.054 A 
ATOM     27  CAI 8R2 d   1      41.540 -35.030  15.456  0.00  0.00    -0.048 A 
ATOM     28  H10 8R2 d   1      41.111 -33.533  16.912  0.00  0.00     0.087 H 
ATOM     29  H9  8R2 d   1      41.915 -34.309  14.739  0.00  0.00     0.087 H 
BRANCH  24  30
ATOM     30  NAO 8R2 d   1      40.153 -34.895  18.803  0.00  0.00    -0.325 N 
ATOM     31  C   8R2 d   1      40.101 -35.565  19.976  0.00  0.00     0.255 C 
ATOM     32  O   8R2 d   1      40.373 -36.755  20.139  0.00  0.00    -0.271 OA
ATOM     33  H11 8R2 d   1      39.875 -33.934  18.790  0.00  0.00     0.169 HD
BRANCH  31  34
ATOM     34  CA  8R2 d   1      39.775 -34.715  21.213  0.00  0.00     0.196 C 
ATOM     35  H12 8R2 d   1      39.495 -33.695  20.911  0.00  0.00     0.102 H 
BRANCH  34  36
ATOM     36  N   8R2 d   1      38.652 -35.290  22.007  0.00  0.00    -0.064 N 
ATOM     37  H13 8R2 d   1      38.471 -34.704  22.807  0.00  0.00     0.275 HD
ATOM     38  H14 8R2 d   1      38.900 -36.216  22.319  0.00  0.00     0.275 HD
ATOM     39  H15 8R2 d   1      37.825 -35.339  21.433  0.00  0.00     0.275 HD
ENDBRANCH  34  36
BRANCH  34  40
ATOM     40  CB  8R2 d   1      41.101 -34.688  21.968  0.00  0.00     0.051 C 
ATOM     41  H16 8R2 d   1      41.947 -34.789  21.273  0.00  0.00     0.077 H 
ATOM     42  H17 8R2 d   1      41.141 -35.495  22.714  0.00  0.00     0.077 H 
BRANCH  40  43
ATOM     43  OG  8R2 d   1      41.120 -33.418  22.601  0.00  0.00    -0.398 OA
ATOM     44  H18 8R2 d   1      41.072 -32.736  21.942  0.00  0.00     0.209 HD
ENDBRANCH  40  43
ENDBRANCH  34  40
ENDBRANCH  31  34
ENDBRANCH  24  30
ENDBRANCH  19  20
ENDBRANCH  11  19
TORSDOF 8
