REMARK  8 active torsions:
REMARK  status: ('A' for Active; 'I' for Inactive)
REMARK    1  A    between atoms: C22_2  and  C23_3 
REMARK       I    between atoms: C22_2  and  N3_5 
REMARK    2  A    between atoms: C23_3  and  N4_4 
REMARK    3  A    between atoms: N3_5  and  C19_6 
REMARK    4  A    between atoms: C16_11  and  O_12 
REMARK    5  A    between atoms: O_12  and  C10_13 
REMARK    6  A    between atoms: C14_22  and  N1_23 
REMARK    7  A    between atoms: N_24  and  C6_25 
REMARK    8  A    between atoms: C6_25  and  C3_26 
ROOT
ATOM      1  C10 S6L d   1     -41.642 -38.153 -13.098  0.00  0.00     0.077 A 
ATOM      2  C9  S6L d   1     -40.311 -38.354 -12.752  0.00  0.00    -0.048 A 
ATOM      3  C8  S6L d   1     -39.909 -39.564 -12.212  0.00  0.00    -0.053 A 
ATOM      4  C11 S6L d   1     -42.589 -39.159 -12.929  0.00  0.00    -0.037 A 
ATOM      5  C12 S6L d   1     -42.196 -40.380 -12.377  0.00  0.00     0.018 A 
ATOM      6  C7  S6L d   1     -40.854 -40.567 -12.012  0.00  0.00     0.048 A 
ATOM      7  C13 S6L d   1     -42.868 -41.608 -12.056  0.00  0.00     0.100 A 
ATOM      8  C15 S6L d   1     -44.269 -41.866 -12.204  0.00  0.00     0.104 C 
ATOM      9  N2  S6L d   1     -45.396 -41.989 -12.348  0.00  0.00    -0.191 NA
ATOM     10  C14 S6L d   1     -41.939 -42.479 -11.473  0.00  0.00     0.123 A 
ATOM     11  N   S6L d   1     -40.724 -41.837 -11.430  0.00  0.00    -0.327 N 
ATOM     12  H11 S6L d   1     -39.587 -37.562 -12.905  0.00  0.00     0.087 H 
ATOM     13  H12 S6L d   1     -38.871 -39.729 -11.948  0.00  0.00     0.087 H 
ATOM     14  H13 S6L d   1     -43.620 -38.996 -13.223  0.00  0.00     0.089 H 
ENDROOT
BRANCH  10  15
ATOM     15  N1  S6L d   1     -42.134 -43.729 -11.021  0.00  0.00    -0.384 N 
ATOM     16  H14 S6L d   1     -43.069 -44.158 -11.080  0.00  0.00     0.157 HD
ATOM     17  H15 S6L d   1     -41.349 -44.258 -10.616  0.00  0.00     0.157 HD
ENDBRANCH  10  15
BRANCH  11  18
ATOM     18  C6  S6L d   1     -39.481 -42.374 -10.827  0.00  0.00     0.025 C 
ATOM     19  H16 S6L d   1     -39.743 -43.270 -10.246  0.00  0.00     0.072 H 
ATOM     20  H17 S6L d   1     -39.069 -41.608 -10.154  0.00  0.00     0.072 H 
BRANCH  18  21
ATOM     21  C3  S6L d   1     -38.406 -42.755 -11.818  0.00  0.00    -0.040 A 
ATOM     22  C2  S6L d   1     -37.061 -42.598 -11.496  0.00  0.00    -0.075 A 
ATOM     23  C1  S6L d   1     -36.066 -42.989 -12.385  0.00  0.00    -0.082 A 
ATOM     24  H18 S6L d   1     -36.786 -42.166 -10.541  0.00  0.00     0.084 H 
ATOM     25  C   S6L d   1     -36.403 -43.561 -13.598  0.00  0.00    -0.083 A 
ATOM     26  H19 S6L d   1     -35.023 -42.845 -12.127  0.00  0.00     0.083 H 
ATOM     27  C5  S6L d   1     -37.735 -43.729 -13.927  0.00  0.00    -0.082 A 
ATOM     28  H22 S6L d   1     -35.627 -43.876 -14.287  0.00  0.00     0.083 H 
ATOM     29  C4  S6L d   1     -38.730 -43.320 -13.048  0.00  0.00    -0.075 A 
ATOM     30  H21 S6L d   1     -38.004 -44.182 -14.874  0.00  0.00     0.083 H 
ATOM     31  H20 S6L d   1     -39.771 -43.442 -13.323  0.00  0.00     0.084 H 
ENDBRANCH  18  21
ENDBRANCH  11  18
BRANCH   1  32
ATOM     32  O   S6L d   1     -42.047 -36.904 -13.580  0.00  0.00    -0.311 OA
BRANCH  32  33
ATOM     33  C16 S6L d   1     -41.613 -36.417 -14.818  0.00  0.00     0.076 A 
ATOM     34  C17 S6L d   1     -41.697 -35.053 -15.067  0.00  0.00    -0.048 A 
ATOM     35  C18 S6L d   1     -41.378 -34.562 -16.323  0.00  0.00    -0.054 A 
ATOM     36  H8  S6L d   1     -42.011 -34.375 -14.282  0.00  0.00     0.087 H 
ATOM     37  C19 S6L d   1     -40.957 -35.425 -17.331  0.00  0.00     0.034 A 
ATOM     38  H7  S6L d   1     -41.457 -33.499 -16.522  0.00  0.00     0.087 H 
ATOM     39  C20 S6L d   1     -40.835 -36.787 -17.058  0.00  0.00    -0.054 A 
ATOM     40  C21 S6L d   1     -41.171 -37.284 -15.811  0.00  0.00    -0.048 A 
ATOM     41  H9  S6L d   1     -40.475 -37.461 -17.827  0.00  0.00     0.087 H 
ATOM     42  H10 S6L d   1     -41.090 -38.346 -15.609  0.00  0.00     0.087 H 
BRANCH  37  43
ATOM     43  N3  S6L d   1     -40.749 -34.895 -18.630  0.00  0.00    -0.326 N 
ATOM     44  C22 S6L d   1     -40.362 -35.532 -19.760  0.00  0.00     0.247 C 
ATOM     45  O1  S6L d   1     -39.941 -36.685 -19.803  0.00  0.00    -0.271 OA
ATOM     46  H6  S6L d   1     -40.911 -33.913 -18.724  0.00  0.00     0.169 HD
BRANCH  44  47
ATOM     47  C23 S6L d   1     -40.457 -34.746 -21.067  0.00  0.00     0.152 C 
ATOM     48  H1  S6L d   1     -40.638 -33.685 -20.838  0.00  0.00     0.090 H 
ATOM     49  H2  S6L d   1     -41.291 -35.140 -21.666  0.00  0.00     0.090 H 
BRANCH  47  50
ATOM     50  N4  S6L d   1     -39.200 -34.869 -21.843  0.00  0.00    -0.071 N 
ATOM     51  H3  S6L d   1     -39.282 -34.345 -22.700  0.00  0.00     0.274 HD
ATOM     52  H4  S6L d   1     -39.031 -35.839 -22.057  0.00  0.00     0.274 HD
ATOM     53  H5  S6L d   1     -38.433 -34.506 -21.299  0.00  0.00     0.274 HD
ENDBRANCH  47  50
ENDBRANCH  44  47
ENDBRANCH  37  43
ENDBRANCH  32  33
ENDBRANCH   1  32
TORSDOF 8
