REMARK  8 active torsions:
REMARK  status: ('A' for Active; 'I' for Inactive)
REMARK    1  A    between atoms: C12_7  and  O1_20 
REMARK    2  A    between atoms: N1_11  and  C5_12 
REMARK    3  A    between atoms: C5_12  and  C2_13 
REMARK    4  A    between atoms: C3_14  and  C4_15 
REMARK    5  A    between atoms: C1_18  and  C_19 
REMARK    6  A    between atoms: O1_20  and  C14_21 
REMARK    7  A    between atoms: C17_24  and  N2_27 
REMARK       I    between atoms: N2_27  and  C20_28 
REMARK    8  A    between atoms: C20_28  and  C21_30 
ROOT
ATOM      1  N4  FD9 d   1     -45.481 -41.644 -12.699  0.00  0.00    -0.191 NA
ATOM      2  C25 FD9 d   1     -44.347 -41.563 -12.523  0.00  0.00     0.102 C 
ATOM      3  C7  FD9 d   1     -42.935 -41.400 -12.322  0.00  0.00     0.072 A 
ATOM      4  C6  FD9 d   1     -42.059 -42.335 -11.813  0.00  0.00     0.001 A 
ATOM      5  C8  FD9 d   1     -42.179 -40.223 -12.621  0.00  0.00     0.015 A 
ATOM      6  C13 FD9 d   1     -42.468 -38.977 -13.133  0.00  0.00    -0.037 A 
ATOM      7  C12 FD9 d   1     -41.455 -38.041 -13.307  0.00  0.00     0.077 A 
ATOM      8  C11 FD9 d   1     -40.145 -38.330 -12.950  0.00  0.00    -0.048 A 
ATOM      9  C10 FD9 d   1     -39.809 -39.573 -12.427  0.00  0.00    -0.053 A 
ATOM     10  C9  FD9 d   1     -40.830 -40.517 -12.266  0.00  0.00     0.046 A 
ATOM     11  N1  FD9 d   1     -40.794 -41.828 -11.770  0.00  0.00    -0.350 N 
ATOM     12  H1  FD9 d   1     -42.338 -43.337 -11.491  0.00  0.00     0.114 H 
ATOM     13  H2  FD9 d   1     -43.488 -38.726 -13.401  0.00  0.00     0.089 H 
ATOM     14  H3  FD9 d   1     -39.376 -37.578 -13.081  0.00  0.00     0.087 H 
ATOM     15  H4  FD9 d   1     -38.786 -39.805 -12.152  0.00  0.00     0.087 H 
ENDROOT
BRANCH  11  16
ATOM     16  C5  FD9 d   1     -39.621 -42.549 -11.286  0.00  0.00     0.028 C 
ATOM     17  H5  FD9 d   1     -39.947 -43.534 -10.921  0.00  0.00     0.072 H 
ATOM     18  H6  FD9 d   1     -39.182 -41.977 -10.455  0.00  0.00     0.072 H 
BRANCH  16  19
ATOM     19  C2  FD9 d   1     -38.562 -42.758 -12.324  0.00  0.00     0.018 A 
ATOM     20  C3  FD9 d   1     -38.691 -43.326 -13.541  0.00  0.00     0.085 A 
ATOM     21  O   FD9 d   1     -37.534 -43.365 -14.237  0.00  0.00    -0.217 OA
ATOM     22  N   FD9 d   1     -36.558 -42.755 -13.371  0.00  0.00    -0.133 NA
ATOM     23  C1  FD9 d   1     -37.170 -42.378 -12.198  0.00  0.00     0.068 A 
BRANCH  20  24
ATOM     24  C4  FD9 d   1     -39.835 -43.920 -14.281  0.00  0.00    -0.029 C 
ATOM     25  H7  FD9 d   1     -39.492 -44.274 -15.264  0.00  0.00     0.036 H 
ATOM     26  H8  FD9 d   1     -40.617 -43.159 -14.418  0.00  0.00     0.036 H 
ATOM     27  H9  FD9 d   1     -40.243 -44.766 -13.708  0.00  0.00     0.036 H 
ENDBRANCH  20  24
BRANCH  23  28
ATOM     28  C   FD9 d   1     -36.529 -41.786 -11.196  0.00  0.00    -0.033 C 
ATOM     29  H10 FD9 d   1     -35.470 -41.657 -11.463  0.00  0.00     0.035 H 
ATOM     30  H11 FD9 d   1     -36.606 -42.409 -10.293  0.00  0.00     0.035 H 
ATOM     31  H12 FD9 d   1     -36.980 -40.802 -11.002  0.00  0.00     0.035 H 
ENDBRANCH  23  28
ENDBRANCH  16  19
ENDBRANCH  11  16
BRANCH   7  32
ATOM     32  O1  FD9 d   1     -41.795 -36.798 -13.807  0.00  0.00    -0.311 OA
BRANCH  32  33
ATOM     33  C14 FD9 d   1     -41.443 -36.427 -15.116  0.00  0.00     0.076 A 
ATOM     34  C19 FD9 d   1     -41.556 -35.070 -15.437  0.00  0.00    -0.048 A 
ATOM     35  C18 FD9 d   1     -41.230 -34.621 -16.706  0.00  0.00    -0.054 A 
ATOM     36  H13 FD9 d   1     -41.901 -34.366 -14.688  0.00  0.00     0.087 H 
ATOM     37  C17 FD9 d   1     -40.785 -35.516 -17.670  0.00  0.00     0.035 A 
ATOM     38  H14 FD9 d   1     -41.322 -33.568 -16.947  0.00  0.00     0.087 H 
ATOM     39  C16 FD9 d   1     -40.672 -36.865 -17.346  0.00  0.00    -0.054 A 
ATOM     40  C15 FD9 d   1     -40.994 -37.341 -16.086  0.00  0.00    -0.048 A 
ATOM     41  H15 FD9 d   1     -40.323 -37.561 -18.100  0.00  0.00     0.087 H 
ATOM     42  H16 FD9 d   1     -40.902 -38.395 -15.852  0.00  0.00     0.087 H 
BRANCH  37  43
ATOM     43  N2  FD9 d   1     -40.471 -34.959 -18.956  0.00  0.00    -0.325 N 
ATOM     44  C20 FD9 d   1     -40.019 -35.585 -20.078  0.00  0.00     0.253 C 
ATOM     45  O2  FD9 d   1     -39.810 -36.788 -20.132  0.00  0.00    -0.271 OA
ATOM     46  H17 FD9 d   1     -40.603 -33.971 -19.040  0.00  0.00     0.169 HD
BRANCH  44  47
ATOM     47  C21 FD9 d   1     -39.771 -34.693 -21.315  0.00  0.00     0.178 C 
ATOM     48  N3  FD9 d   1     -38.923 -35.327 -22.339  0.00  0.00    -0.062 N 
ATOM     49  C24 FD9 d   1     -39.420 -34.921 -23.661  0.00  0.00     0.083 C 
ATOM     50  H19 FD9 d   1     -38.971 -36.330 -22.249  0.00  0.00     0.278 HD
ATOM     51  H20 FD9 d   1     -37.968 -35.025 -22.226  0.00  0.00     0.278 HD
ATOM     52  C23 FD9 d   1     -40.924 -34.813 -23.482  0.00  0.00    -0.040 C 
ATOM     53  H21 FD9 d   1     -39.172 -35.678 -24.420  0.00  0.00     0.075 H 
ATOM     54  H22 FD9 d   1     -38.993 -33.952 -23.957  0.00  0.00     0.075 H 
ATOM     55  C22 FD9 d   1     -41.085 -34.371 -22.041  0.00  0.00    -0.028 C 
ATOM     56  H23 FD9 d   1     -41.410 -35.785 -23.650  0.00  0.00     0.035 H 
ATOM     57  H24 FD9 d   1     -41.348 -34.067 -24.170  0.00  0.00     0.035 H 
ATOM     58  H25 FD9 d   1     -41.283 -33.290 -21.999  0.00  0.00     0.036 H 
ATOM     59  H26 FD9 d   1     -41.918 -34.915 -21.571  0.00  0.00     0.036 H 
ATOM     60  H18 FD9 d   1     -39.295 -33.762 -20.974  0.00  0.00     0.099 H 
ENDBRANCH  44  47
ENDBRANCH  37  43
ENDBRANCH  32  33
ENDBRANCH   7  32
TORSDOF 8
