REMARK  7 active torsions:
REMARK  status: ('A' for Active; 'I' for Inactive)
REMARK    1  A    between atoms: N_2  and  C_1 
REMARK    2  A    between atoms: O_3  and  C9_17 
REMARK    3  A    between atoms: C12_20  and  O_3 
REMARK    4  A    between atoms: C4_11  and  C2_7 
REMARK    5  A    between atoms: N3_10  and  C15_23 
REMARK       I    between atoms: C18_26  and  N3_10 
REMARK    6  A    between atoms: C19_27  and  N4_12 
REMARK    7  A    between atoms: C18_26  and  C19_27 
ROOT
ATOM      1  N2  87T d   1     -43.081 -42.200 -12.272  0.00  0.00    -0.364 N 
ATOM      2  C4  87T d   1     -40.858 -41.944 -12.059  0.00  0.00     0.005 A 
ATOM      3  C5  87T d   1     -41.908 -42.825 -11.950  0.00  0.00    -0.011 A 
ATOM      4  C6  87T d   1     -42.820 -40.885 -12.582  0.00  0.00     0.043 A 
ATOM      5  C7  87T d   1     -41.435 -40.676 -12.445  0.00  0.00     0.006 A 
ATOM      6  C8  87T d   1     -40.913 -39.410 -12.702  0.00  0.00    -0.037 A 
ATOM      7  C9  87T d   1     -41.781 -38.387 -13.068  0.00  0.00     0.077 A 
ATOM      8  C10 87T d   1     -43.156 -38.593 -13.169  0.00  0.00    -0.048 A 
ATOM      9  C11 87T d   1     -43.683 -39.856 -12.958  0.00  0.00    -0.054 A 
ATOM     10  H5  87T d   1     -44.011 -42.643 -12.281  0.00  0.00     0.165 HD
ATOM     11  H11 87T d   1     -41.819 -43.868 -11.651  0.00  0.00     0.112 H 
ATOM     12  H12 87T d   1     -39.848 -39.225 -12.618  0.00  0.00     0.089 H 
ATOM     13  H13 87T d   1     -43.812 -37.765 -13.412  0.00  0.00     0.087 H 
ATOM     14  H14 87T d   1     -44.744 -40.041 -13.082  0.00  0.00     0.087 H 
ENDROOT
BRANCH   7  15
ATOM     15  O   87T d   1     -41.245 -37.131 -13.322  0.00  0.00    -0.311 OA
BRANCH  15  16
ATOM     16  C12 87T d   1     -41.164 -36.676 -14.635  0.00  0.00     0.076 A 
ATOM     17  C13 87T d   1     -41.000 -37.558 -15.697  0.00  0.00    -0.048 A 
ATOM     18  C14 87T d   1     -40.911 -37.067 -16.987  0.00  0.00    -0.054 A 
ATOM     19  H15 87T d   1     -40.942 -38.625 -15.515  0.00  0.00     0.087 H 
ATOM     20  C15 87T d   1     -40.927 -35.693 -17.220  0.00  0.00     0.034 A 
ATOM     21  H16 87T d   1     -40.828 -37.754 -17.821  0.00  0.00     0.087 H 
ATOM     22  C16 87T d   1     -41.103 -34.821 -16.149  0.00  0.00    -0.054 A 
ATOM     23  C17 87T d   1     -41.203 -35.309 -14.858  0.00  0.00    -0.048 A 
ATOM     24  H17 87T d   1     -41.162 -33.753 -16.328  0.00  0.00     0.087 H 
ATOM     25  H18 87T d   1     -41.311 -34.625 -14.024  0.00  0.00     0.087 H 
BRANCH  20  26
ATOM     26  N3  87T d   1     -40.836 -35.136 -18.521  0.00  0.00    -0.326 N 
ATOM     27  C18 87T d   1     -40.499 -35.748 -19.678  0.00  0.00     0.247 C 
ATOM     28  O1  87T d   1     -40.082 -36.903 -19.759  0.00  0.00    -0.271 OA
ATOM     29  H7  87T d   1     -41.049 -34.162 -18.592  0.00  0.00     0.169 HD
BRANCH  27  30
ATOM     30  C19 87T d   1     -40.648 -34.925 -20.975  0.00  0.00     0.152 C 
ATOM     31  H19 87T d   1     -41.621 -35.155 -21.433  0.00  0.00     0.090 H 
ATOM     32  H20 87T d   1     -40.604 -33.855 -20.725  0.00  0.00     0.090 H 
BRANCH  30  33
ATOM     33  N4  87T d   1     -39.612 -35.224 -21.913  0.00  0.00    -0.071 N 
ATOM     34  H8  87T d   1     -39.742 -34.670 -22.745  0.00  0.00     0.274 HD
ATOM     35  H9  87T d   1     -39.648 -36.203 -22.152  0.00  0.00     0.274 HD
ATOM     36  H10 87T d   1     -38.716 -35.011 -21.503  0.00  0.00     0.274 HD
ENDBRANCH  30  33
ENDBRANCH  27  30
ENDBRANCH  20  26
ENDBRANCH  15  16
ENDBRANCH   7  15
BRANCH   2  37
ATOM     37  C2  87T d   1     -39.445 -42.238 -11.775  0.00  0.00     0.013 A 
ATOM     38  C1  87T d   1     -38.369 -42.170 -12.640  0.00  0.00     0.010 A 
ATOM     39  N   87T d   1     -37.275 -42.458 -11.924  0.00  0.00    -0.285 N 
ATOM     40  H4  87T d   1     -38.404 -41.928 -13.701  0.00  0.00     0.115 H 
ATOM     41  N1  87T d   1     -37.559 -42.706 -10.624  0.00  0.00    -0.185 NA
ATOM     42  C3  87T d   1     -38.872 -42.556 -10.530  0.00  0.00     0.034 A 
ATOM     43  H6  87T d   1     -39.437 -42.665  -9.605  0.00  0.00     0.118 H 
BRANCH  39  44
ATOM     44  C   87T d   1     -35.897 -42.539 -12.399  0.00  0.00     0.002 C 
ATOM     45  H1  87T d   1     -35.865 -42.307 -13.474  0.00  0.00     0.059 H 
ATOM     46  H2  87T d   1     -35.511 -43.555 -12.232  0.00  0.00     0.059 H 
ATOM     47  H3  87T d   1     -35.276 -41.816 -11.849  0.00  0.00     0.059 H 
ENDBRANCH  39  44
ENDBRANCH   2  37
TORSDOF 7
