REMARK  5 active torsions:
REMARK  status: ('A' for Active; 'I' for Inactive)
REMARK    1  A    between atoms: C8_11  and  O1_12 
REMARK    2  A    between atoms: O1_12  and  C2_13 
REMARK    3  A    between atoms: C5_17  and  N_19 
REMARK       I    between atoms: N_19  and  C6_20 
REMARK    4  A    between atoms: C6_20  and  C7_22 
REMARK    5  A    between atoms: C7_22  and  N1_23 
ROOT
ATOM      1  N3  MJP d   1     -45.674 -41.820 -12.387  0.00  0.00    -0.191 NA
ATOM      2  C16 MJP d   1     -44.549 -41.771 -12.200  0.00  0.00     0.102 C 
ATOM      3  C14 MJP d   1     -43.135 -41.641 -11.971  0.00  0.00     0.072 A 
ATOM      4  C15 MJP d   1     -42.290 -42.567 -11.409  0.00  0.00    -0.002 A 
ATOM      5  N2  MJP d   1     -41.040 -42.029 -11.293  0.00  0.00    -0.364 N 
ATOM      6  C11 MJP d   1     -41.050 -40.749 -11.802  0.00  0.00     0.044 A 
ATOM      7  C10 MJP d   1     -40.031 -39.807 -11.901  0.00  0.00    -0.054 A 
ATOM      8  C9  MJP d   1     -40.330 -38.550 -12.403  0.00  0.00    -0.048 A 
ATOM      9  C12 MJP d   1     -42.365 -40.467 -12.226  0.00  0.00     0.015 A 
ATOM     10  C13 MJP d   1     -42.645 -39.201 -12.745  0.00  0.00    -0.037 A 
ATOM     11  C8  MJP d   1     -41.625 -38.255 -12.813  0.00  0.00     0.077 A 
ATOM     12  H1  MJP d   1     -42.573 -43.573 -11.104  0.00  0.00     0.113 H 
ATOM     13  H2  MJP d   1     -40.220 -42.505 -10.889  0.00  0.00     0.165 HD
ATOM     14  H3  MJP d   1     -39.021 -40.052 -11.591  0.00  0.00     0.087 H 
ATOM     15  H4  MJP d   1     -39.554 -37.797 -12.476  0.00  0.00     0.087 H 
ATOM     16  H5  MJP d   1     -43.643 -38.958 -13.090  0.00  0.00     0.089 H 
ENDROOT
BRANCH  11  17
ATOM     17  O1  MJP d   1     -41.920 -36.967 -13.256  0.00  0.00    -0.311 OA
BRANCH  17  18
ATOM     18  C2  MJP d   1     -41.470 -36.501 -14.493  0.00  0.00     0.076 A 
ATOM     19  C1  MJP d   1     -41.122 -37.382 -15.512  0.00  0.00    -0.048 A 
ATOM     20  C   MJP d   1     -40.822 -36.891 -16.770  0.00  0.00    -0.054 A 
ATOM     21  H6  MJP d   1     -41.086 -38.448 -15.321  0.00  0.00     0.087 H 
ATOM     22  C5  MJP d   1     -40.872 -35.521 -17.026  0.00  0.00     0.034 A 
ATOM     23  H9  MJP d   1     -40.546 -37.577 -17.563  0.00  0.00     0.087 H 
ATOM     24  C4  MJP d   1     -41.193 -34.645 -15.989  0.00  0.00    -0.054 A 
ATOM     25  C3  MJP d   1     -41.483 -35.132 -14.724  0.00  0.00    -0.048 A 
ATOM     26  H8  MJP d   1     -41.216 -33.577 -16.174  0.00  0.00     0.087 H 
ATOM     27  H7  MJP d   1     -41.719 -34.447 -13.918  0.00  0.00     0.087 H 
BRANCH  22  28
ATOM     28  N   MJP d   1     -40.643 -34.998 -18.327  0.00  0.00    -0.326 N 
ATOM     29  C6  MJP d   1     -40.353 -35.668 -19.467  0.00  0.00     0.247 C 
ATOM     30  O   MJP d   1     -40.064 -36.861 -19.519  0.00  0.00    -0.271 OA
ATOM     31  H10 MJP d   1     -40.704 -34.004 -18.412  0.00  0.00     0.169 HD
BRANCH  29  32
ATOM     32  C7  MJP d   1     -40.367 -34.827 -20.753  0.00  0.00     0.152 C 
ATOM     33  H11 MJP d   1     -40.239 -33.764 -20.503  0.00  0.00     0.090 H 
ATOM     34  H12 MJP d   1     -41.323 -34.967 -21.278  0.00  0.00     0.090 H 
BRANCH  32  35
ATOM     35  N1  MJP d   1     -39.267 -35.269 -21.606  0.00  0.00    -0.071 N 
ATOM     36  H13 MJP d   1     -39.262 -34.727 -22.456  0.00  0.00     0.274 HD
ATOM     37  H14 MJP d   1     -39.387 -36.244 -21.831  0.00  0.00     0.274 HD
ATOM     38  H15 MJP d   1     -38.393 -35.141 -21.120  0.00  0.00     0.274 HD
ENDBRANCH  32  35
ENDBRANCH  29  32
ENDBRANCH  22  28
ENDBRANCH  17  18
ENDBRANCH  11  17
TORSDOF 5
