REMARK  7 active torsions:
REMARK  status: ('A' for Active; 'I' for Inactive)
REMARK    1  A    between atoms: C15_2  and  C16_3 
REMARK       I    between atoms: C15_2  and  N1_8 
REMARK    2  A    between atoms: N1_8  and  C12_9 
REMARK    3  A    between atoms: C9_14  and  O_15 
REMARK    4  A    between atoms: O_15  and  C7_16 
REMARK    5  A    between atoms: N_20  and  C_21 
REMARK    6  A    between atoms: C2_24  and  C20_26 
REMARK    7  A    between atoms: N4_28  and  C23_29 
ROOT
ATOM      1  O   8V1 d   1     -42.132 -37.360 -13.425  0.00  0.00    -0.311 OA
ENDROOT
BRANCH   1   2
ATOM      2  C9  8V1 d   1     -41.904 -36.939 -14.738  0.00  0.00     0.076 A 
ATOM      3  C10 8V1 d   1     -41.618 -37.838 -15.762  0.00  0.00    -0.048 A 
ATOM      4  C11 8V1 d   1     -41.402 -37.368 -17.048  0.00  0.00    -0.054 A 
ATOM      5  H12 8V1 d   1     -41.565 -38.901 -15.555  0.00  0.00     0.087 H 
ATOM      6  C12 8V1 d   1     -41.411 -35.997 -17.311  0.00  0.00     0.035 A 
ATOM      7  H11 8V1 d   1     -41.225 -38.070 -17.855  0.00  0.00     0.087 H 
ATOM      8  C13 8V1 d   1     -41.673 -35.106 -16.273  0.00  0.00    -0.054 A 
ATOM      9  C14 8V1 d   1     -41.927 -35.574 -14.992  0.00  0.00    -0.048 A 
ATOM     10  H13 8V1 d   1     -41.678 -34.040 -16.467  0.00  0.00     0.087 H 
ATOM     11  H14 8V1 d   1     -42.143 -34.876 -14.191  0.00  0.00     0.087 H 
BRANCH   6  12
ATOM     12  N1  8V1 d   1     -41.143 -35.456 -18.598  0.00  0.00    -0.325 N 
ATOM     13  C15 8V1 d   1     -40.838 -36.108 -19.746  0.00  0.00     0.253 C 
ATOM     14  O1  8V1 d   1     -40.696 -37.322 -19.839  0.00  0.00    -0.271 OA
ATOM     15  H10 8V1 d   1     -41.185 -34.459 -18.665  0.00  0.00     0.169 HD
BRANCH  13  16
ATOM     16  C16 8V1 d   1     -40.586 -35.209 -20.955  0.00  0.00     0.178 C 
ATOM     17  N2  8V1 d   1     -39.599 -35.824 -21.861  0.00  0.00    -0.062 N 
ATOM     18  C19 8V1 d   1     -40.112 -35.771 -23.241  0.00  0.00     0.083 C 
ATOM     19  H2  8V1 d   1     -39.448 -36.784 -21.594  0.00  0.00     0.278 HD
ATOM     20  H3  8V1 d   1     -38.729 -35.319 -21.805  0.00  0.00     0.278 HD
ATOM     21  C18 8V1 d   1     -41.621 -35.795 -23.087  0.00  0.00    -0.040 C 
ATOM     22  H4  8V1 d   1     -39.766 -36.641 -23.818  0.00  0.00     0.075 H 
ATOM     23  H5  8V1 d   1     -39.787 -34.847 -23.741  0.00  0.00     0.075 H 
ATOM     24  C17 8V1 d   1     -41.864 -35.015 -21.787  0.00  0.00    -0.028 C 
ATOM     25  H6  8V1 d   1     -41.990 -36.827 -23.000  0.00  0.00     0.035 H 
ATOM     26  H7  8V1 d   1     -42.111 -35.300 -23.939  0.00  0.00     0.035 H 
ATOM     27  H8  8V1 d   1     -42.026 -33.948 -22.002  0.00  0.00     0.036 H 
ATOM     28  H9  8V1 d   1     -42.737 -35.418 -21.253  0.00  0.00     0.036 H 
ATOM     29  H1  8V1 d   1     -40.218 -34.234 -20.604  0.00  0.00     0.099 H 
ENDBRANCH  13  16
ENDBRANCH   6  12
ENDBRANCH   1   2
BRANCH   1  30
ATOM     30  C7  8V1 d   1     -42.542 -38.668 -13.161  0.00  0.00     0.077 A 
ATOM     31  C6  8V1 d   1     -43.889 -38.986 -13.300  0.00  0.00    -0.048 A 
ATOM     32  C5  8V1 d   1     -44.321 -40.284 -13.075  0.00  0.00    -0.054 A 
ATOM     33  H15 8V1 d   1     -44.601 -38.219 -13.584  0.00  0.00     0.087 H 
ATOM     34  C4  8V1 d   1     -43.390 -41.244 -12.684  0.00  0.00     0.045 A 
ATOM     35  H16 8V1 d   1     -45.365 -40.547 -13.201  0.00  0.00     0.087 H 
ATOM     36  N   8V1 d   1     -43.549 -42.587 -12.418  0.00  0.00    -0.360 N 
ATOM     37  C3  8V1 d   1     -42.025 -40.940 -12.571  0.00  0.00     0.006 A 
ATOM     38  C1  8V1 d   1     -42.323 -43.127 -12.142  0.00  0.00    -0.009 A 
ATOM     39  C2  8V1 d   1     -41.350 -42.167 -12.211  0.00  0.00     0.005 A 
ATOM     40  H21 8V1 d   1     -42.146 -44.174 -11.901  0.00  0.00     0.113 H 
ATOM     41  C8  8V1 d   1     -41.596 -39.634 -12.831  0.00  0.00    -0.037 A 
ATOM     42  H20 8V1 d   1     -40.544 -39.379 -12.776  0.00  0.00     0.089 H 
BRANCH  36  43
ATOM     43  C   8V1 d   1     -44.820 -43.302 -12.385  0.00  0.00    -0.014 C 
ATOM     44  H17 8V1 d   1     -44.639 -44.361 -12.147  0.00  0.00     0.057 H 
ATOM     45  H18 8V1 d   1     -45.309 -43.225 -13.367  0.00  0.00     0.057 H 
ATOM     46  H19 8V1 d   1     -45.470 -42.859 -11.616  0.00  0.00     0.057 H 
ENDBRANCH  36  43
BRANCH  39  47
ATOM     47  C20 8V1 d   1     -39.910 -42.385 -12.019  0.00  0.00     0.013 A 
ATOM     48  C22 8V1 d   1     -38.980 -41.513 -11.486  0.00  0.00     0.010 A 
ATOM     49  N4  8V1 d   1     -37.805 -42.150 -11.517  0.00  0.00    -0.285 N 
ATOM     50  H22 8V1 d   1     -39.167 -40.507 -11.114  0.00  0.00     0.115 H 
ATOM     51  N3  8V1 d   1     -37.914 -43.407 -12.015  0.00  0.00    -0.185 NA
ATOM     52  C21 8V1 d   1     -39.189 -43.555 -12.328  0.00  0.00     0.034 A 
ATOM     53  H26 8V1 d   1     -39.621 -44.455 -12.763  0.00  0.00     0.118 H 
BRANCH  49  54
ATOM     54  C23 8V1 d   1     -36.509 -41.654 -11.070  0.00  0.00     0.002 C 
ATOM     55  H23 8V1 d   1     -35.744 -42.427 -11.234  0.00  0.00     0.059 H 
ATOM     56  H24 8V1 d   1     -36.559 -41.410  -9.999  0.00  0.00     0.059 H 
ATOM     57  H25 8V1 d   1     -36.246 -40.751 -11.640  0.00  0.00     0.059 H 
ENDBRANCH  49  54
ENDBRANCH  39  47
ENDBRANCH   1  30
TORSDOF 7
