REMARK  7 active torsions:
REMARK  status: ('A' for Active; 'I' for Inactive)
REMARK    1  A    between atoms: C1_1  and  C2_2 
REMARK    2  A    between atoms: C7_7  and  C8_8 
REMARK    3  A    between atoms: C9_9  and  C20_20 
REMARK    4  A    between atoms: C13_13  and  O19_19 
REMARK    5  A    between atoms: C20_20  and  C21_21 
REMARK    6  A    between atoms: C24_24  and  C27_27 
REMARK    7  A    between atoms: C28_28  and  C29_29 
ROOT
ATOM      1  C8  85Z d   1      31.177  10.136  11.232  0.00  0.00     0.058 A 
ATOM      2  C9  85Z d   1      30.272  11.137  11.333  0.00  0.00    -0.024 A 
ATOM      3  C10 85Z d   1      29.117  10.940  12.178  0.00  0.00     0.006 A 
ATOM      4  C11 85Z d   1      28.115  11.895  12.348  0.00  0.00    -0.067 A 
ATOM      5  C12 85Z d   1      27.029  11.631  13.162  0.00  0.00    -0.050 A 
ATOM      6  C13 85Z d   1      26.945  10.421  13.836  0.00  0.00     0.068 A 
ATOM      7  C14 85Z d   1      27.930   9.454  13.690  0.00  0.00    -0.017 A 
ATOM      8  C15 85Z d   1      28.992   9.726  12.855  0.00  0.00     0.093 A 
ATOM      9  O16 85Z d   1      29.939   8.733  12.740  0.00  0.00    -0.274 OA
ATOM     10  C17 85Z d   1      31.060   8.898  11.975  0.00  0.00     0.300 A 
ATOM     11  O18 85Z d   1      31.844   7.983  11.953  0.00  0.00    -0.259 OA
ATOM     12  H7  85Z d   1      28.188  12.849  11.839  0.00  0.00     0.085 H 
ATOM     13  H8  85Z d   1      26.243  12.369  13.274  0.00  0.00     0.087 H 
ATOM     14  H9  85Z d   1      27.866   8.510  14.219  0.00  0.00     0.092 H 
ENDROOT
BRANCH   2  15
ATOM     15  C20 85Z d   1      30.346  12.414  10.543  0.00  0.00    -0.015 C 
ATOM     16  H11 85Z d   1      29.332  12.629  10.175  0.00  0.00     0.047 H 
ATOM     17  H12 85Z d   1      31.014  12.230   9.689  0.00  0.00     0.047 H 
BRANCH  15  18
ATOM     18  C21 85Z d   1      30.838  13.650  11.233  0.00  0.00    -0.054 A 
ATOM     19  C22 85Z d   1      31.055  14.782  10.469  0.00  0.00    -0.076 A 
ATOM     20  C23 85Z d   1      31.489  15.952  11.052  0.00  0.00    -0.072 A 
ATOM     21  H13 85Z d   1      30.882  14.748   9.399  0.00  0.00     0.084 H 
ATOM     22  C24 85Z d   1      31.734  16.015  12.419  0.00  0.00    -0.036 A 
ATOM     23  H14 85Z d   1      31.641  16.833  10.439  0.00  0.00     0.084 H 
ATOM     24  C25 85Z d   1      31.523  14.868  13.181  0.00  0.00    -0.072 A 
ATOM     25  C26 85Z d   1      31.088  13.696  12.595  0.00  0.00    -0.076 A 
ATOM     26  H15 85Z d   1      31.703  14.896  14.250  0.00  0.00     0.084 H 
ATOM     27  H16 85Z d   1      30.942  12.810  13.202  0.00  0.00     0.084 H 
BRANCH  22  28
ATOM     28  C27 85Z d   1      32.141  17.286  12.987  0.00  0.00    -0.067 C 
ATOM     29  C28 85Z d   1      31.737  17.676  14.185  0.00  0.00    -0.009 C 
ATOM     30  H18 85Z d   1      31.152  17.032  14.840  0.00  0.00     0.094 H 
ATOM     31  H17 85Z d   1      32.797  17.937  12.412  0.00  0.00     0.085 H 
BRANCH  29  32
ATOM     32  C29 85Z d   1      32.132  19.036  14.571  0.00  0.00     0.198 C 
ATOM     33  O30 85Z d   1      32.696  19.744  13.740  0.00  0.00    -0.645 OA
ATOM     34  O31 85Z d   1      31.770  19.463  15.737  0.00  0.00    -0.645 OA
ENDBRANCH  29  32
ENDBRANCH  22  28
ENDBRANCH  15  18
ENDBRANCH   2  15
BRANCH   1  35
ATOM     35  C7  85Z d   1      32.379  10.284  10.433  0.00  0.00    -0.013 A 
ATOM     36  C2  85Z d   1      32.547   9.594   9.225  0.00  0.00    -0.048 A 
ATOM     37  C3  85Z d   1      33.740   9.772   8.534  0.00  0.00    -0.039 A 
ATOM     38  C4  85Z d   1      34.699  10.596   9.059  0.00  0.00     0.117 A 
ATOM     39  H4  85Z d   1      33.909   9.265   7.591  0.00  0.00     0.089 H 
ATOM     40  C5  85Z d   1      34.564  11.263  10.241  0.00  0.00    -0.045 A 
ATOM     41  F32 85Z d   1      35.857  10.749   8.365  0.00  0.00    -0.206 F 
ATOM     42  C6  85Z d   1      33.382  11.109  10.935  0.00  0.00    -0.069 A 
ATOM     43  H5  85Z d   1      35.359  11.893  10.622  0.00  0.00     0.088 H 
ATOM     44  H6  85Z d   1      33.234  11.631  11.873  0.00  0.00     0.085 H 
BRANCH  36  45
ATOM     45  C1  85Z d   1      31.490   8.685   8.641  0.00  0.00    -0.050 C 
ATOM     46  H1  85Z d   1      31.854   8.261   7.693  0.00  0.00     0.033 H 
ATOM     47  H2  85Z d   1      30.572   9.262   8.456  0.00  0.00     0.033 H 
ATOM     48  H3  85Z d   1      31.275   7.871   9.348  0.00  0.00     0.033 H 
ENDBRANCH  36  45
ENDBRANCH   1  35
BRANCH   6  49
ATOM     49  O19 85Z d   1      25.917  10.128  14.673  0.00  0.00    -0.361 OA
ATOM     50  H10 85Z d   1      25.309  10.858  14.693  0.00  0.00     0.217 HD
ENDBRANCH   6  49
TORSDOF 7
