REMARK  1 active torsions:
REMARK  status: ('A' for Active; 'I' for Inactive)
REMARK    1  A    between atoms: C8_8  and  N10_10 
ROOT
ATOM      1  C1  XM0 d   1     -13.821 -13.923  26.962  0.00  0.00    -0.082 A 
ATOM      2  C2  XM0 d   1     -13.056 -14.621  27.984  0.00  0.00    -0.082 A 
ATOM      3  C3  XM0 d   1     -11.943 -13.895  28.626  0.00  0.00    -0.076 A 
ATOM      4  C4  XM0 d   1     -11.582 -12.507  28.249  0.00  0.00    -0.050 A 
ATOM      5  C5  XM0 d   1     -12.361 -11.839  27.223  0.00  0.00    -0.050 A 
ATOM      6  C6  XM0 d   1     -13.509 -12.535  26.548  0.00  0.00    -0.076 A 
ATOM      7  C7  XM0 d   1     -11.803 -10.447  27.028  0.00  0.00    -0.014 A 
ATOM      8  C8  XM0 d   1     -10.586 -10.324  27.986  0.00  0.00     0.107 A 
ATOM      9  C9  XM0 d   1     -10.468 -11.608  28.793  0.00  0.00    -0.014 A 
ATOM     10  H1  XM0 d   1     -14.649 -14.437  26.486  0.00  0.00     0.083 H 
ATOM     11  H2  XM0 d   1     -13.296 -15.640  28.265  0.00  0.00     0.083 H 
ATOM     12  H3  XM0 d   1     -11.370 -14.393  29.399  0.00  0.00     0.084 H 
ATOM     13  H4  XM0 d   1     -14.091 -12.037  25.781  0.00  0.00     0.084 H 
ATOM     14  H5  XM0 d   1     -12.563  -9.693  27.280  0.00  0.00     0.043 H 
ATOM     15  H6  XM0 d   1     -11.482 -10.309  25.985  0.00  0.00     0.043 H 
ATOM     16  H7  XM0 d   1     -10.698  -9.445  28.638  0.00  0.00     0.084 H 
ATOM     17  H8  XM0 d   1      -9.483 -12.074  28.640  0.00  0.00     0.043 H 
ATOM     18  H9  XM0 d   1     -10.617 -11.409  29.864  0.00  0.00     0.043 H 
ENDROOT
BRANCH   8  19
ATOM     19  N10 XM0 d   1      -9.360 -10.262  27.230  0.00  0.00    -0.074 N 
ATOM     20  H10 XM0 d   1      -9.358  -9.430  26.661  0.00  0.00     0.274 HD
ATOM     21  H11 XM0 d   1      -9.289 -11.074  26.637  0.00  0.00     0.274 HD
ATOM     22  H12 XM0 d   1      -8.576 -10.238  27.863  0.00  0.00     0.274 HD
ENDBRANCH   8  19
TORSDOF 1
