REMARK  2 active torsions:
REMARK  status: ('A' for Active; 'I' for Inactive)
REMARK    1  A    between atoms: C1_1  and  C2_2 
REMARK    2  A    between atoms: C3_3  and  C6_4 
ROOT
ATOM      1  C1  GVG d   1      17.587  10.306  13.133  0.00  0.00     0.036 A 
ATOM      2  C3  GVG d   1      16.731   9.970  12.078  0.00  0.00     0.017 A 
ATOM      3  C12 GVG d   1      15.436  10.029  12.604  0.00  0.00     0.034 A 
ATOM      4  N13 GVG d   1      15.570  10.389  13.915  0.00  0.00    -0.186 NA
ATOM      5  N3  GVG d   1      16.850  10.546  14.217  0.00  0.00    -0.282 N 
ATOM      6  H9  GVG d   1      14.506   9.828  12.074  0.00  0.00     0.118 H 
ATOM      7  H10 GVG d   1      17.217  10.811  15.142  0.00  0.00     0.189 HD
ENDROOT
BRANCH   2   8
ATOM      8  C6  GVG d   1      17.002   9.640  10.712  0.00  0.00    -0.022 A 
ATOM      9  C7  GVG d   1      15.950   9.780   9.762  0.00  0.00    -0.072 A 
ATOM     10  C9  GVG d   1      16.187   9.477   8.397  0.00  0.00    -0.082 A 
ATOM     11  H4  GVG d   1      14.971  10.117  10.082  0.00  0.00     0.084 H 
ATOM     12  C11 GVG d   1      17.471   9.033   7.967  0.00  0.00    -0.083 A 
ATOM     13  H6  GVG d   1      15.385   9.584   7.675  0.00  0.00     0.083 H 
ATOM     14  C10 GVG d   1      18.528   8.890   8.904  0.00  0.00    -0.082 A 
ATOM     15  H8  GVG d   1      17.641   8.804   6.921  0.00  0.00     0.083 H 
ATOM     16  C8  GVG d   1      18.286   9.197  10.285  0.00  0.00    -0.072 A 
ATOM     17  H7  GVG d   1      19.506   8.553   8.580  0.00  0.00     0.083 H 
ATOM     18  H5  GVG d   1      19.087   9.091  11.008  0.00  0.00     0.084 H 
ENDBRANCH   2   8
BRANCH   1  19
ATOM     19  C2  GVG d   1      19.055  10.439  13.261  0.00  0.00    -0.035 C 
ATOM     20  H1  GVG d   1      19.308  10.728  14.292  0.00  0.00     0.035 H 
ATOM     21  H2  GVG d   1      19.415  11.211  12.565  0.00  0.00     0.035 H 
ATOM     22  H3  GVG d   1      19.533   9.477  13.022  0.00  0.00     0.035 H 
ENDBRANCH   1  19
TORSDOF 2
