REMARK  4 active torsions:
REMARK  status: ('A' for Active; 'I' for Inactive)
REMARK    1  A    between atoms: C16_6  and  C11_2 
REMARK    2  A    between atoms: C15_5  and  C14_4 
REMARK    3  A    between atoms: C15_5  and  C16_6 
REMARK    4  A    between atoms: C7_7  and  C8_9 
ROOT
ATOM      1  N10 V2Z d   1     -16.342  -9.354   8.911  0.00  0.00    -0.246 NA
ATOM      2  C11 V2Z d   1     -15.356  -9.240   8.063  0.00  0.00     0.103 A 
ATOM      3  C12 V2Z d   1     -13.903  -9.334   8.470  0.00  0.00     0.270 A 
ATOM      4  C7  V2Z d   1     -16.038  -9.574  10.239  0.00  0.00     0.084 A 
ATOM      5  C6  V2Z d   1     -14.780  -9.677  10.675  0.00  0.00     0.009 A 
ATOM      6  O6  V2Z d   1     -13.014  -9.210   7.633  0.00  0.00    -0.266 OA
ATOM      7  N7  V2Z d   1     -13.727  -9.554   9.811  0.00  0.00    -0.330 N 
ATOM      8  H8  V2Z d   1     -14.590  -9.861  11.731  0.00  0.00     0.115 H 
ATOM      9  H13 V2Z d   1     -12.797  -9.627  10.170  0.00  0.00     0.168 HD
ENDROOT
BRANCH   2  10
ATOM     10  C16 V2Z d   1     -15.632  -8.988   6.616  0.00  0.00    -0.020 C 
ATOM     11  H6  V2Z d   1     -16.579  -9.466   6.327  0.00  0.00     0.042 H 
ATOM     12  H7  V2Z d   1     -14.814  -9.395   6.003  0.00  0.00     0.042 H 
BRANCH  10  13
ATOM     13  C15 V2Z d   1     -15.730  -7.487   6.415  0.00  0.00    -0.063 C 
ATOM     14  H4  V2Z d   1     -16.685  -7.253   5.922  0.00  0.00     0.033 H 
ATOM     15  H5  V2Z d   1     -15.693  -6.991   7.396  0.00  0.00     0.033 H 
BRANCH  13  16
ATOM     16  C14 V2Z d   1     -14.593  -6.969   5.557  0.00  0.00    -0.076 C 
ATOM     17  H1  V2Z d   1     -14.694  -5.881   5.432  0.00  0.00     0.027 H 
ATOM     18  H2  V2Z d   1     -14.626  -7.456   4.571  0.00  0.00     0.027 H 
ATOM     19  H3  V2Z d   1     -13.633  -7.194   6.045  0.00  0.00     0.027 H 
ENDBRANCH  13  16
ENDBRANCH  10  13
ENDBRANCH   2  10
BRANCH   4  20
ATOM     20  C8  V2Z d   1     -17.105  -9.719  11.232  0.00  0.00     0.011 A 
ATOM     21  C9  V2Z d   1     -18.399  -9.340  10.939  0.00  0.00    -0.068 A 
ATOM     22  C1  V2Z d   1     -19.379  -9.486  11.902  0.00  0.00    -0.065 A 
ATOM     23  H9  V2Z d   1     -18.644  -8.932   9.965  0.00  0.00     0.085 H 
ATOM     24  C2  V2Z d   1     -19.029 -10.031  13.121  0.00  0.00     0.002 A 
ATOM     25  H12 V2Z d   1     -20.400  -9.179  11.705  0.00  0.00     0.085 H 
ATOM     26  N3  V2Z d   1     -17.795 -10.420  13.449  0.00  0.00    -0.272 NA
ATOM     27  H11 V2Z d   1     -19.810 -10.151  13.863  0.00  0.00     0.114 H 
ATOM     28  C4  V2Z d   1     -16.872 -10.247  12.491  0.00  0.00     0.014 A 
ATOM     29  H10 V2Z d   1     -15.856 -10.546  12.722  0.00  0.00     0.116 H 
ENDBRANCH   4  20
TORSDOF 4
