REMARK  4 active torsions:
REMARK  status: ('A' for Active; 'I' for Inactive)
REMARK    1  A    between atoms: C3_3  and  S8_8 
REMARK    2  A    between atoms: S8_8  and  C9_9 
REMARK    3  A    between atoms: C9_9  and  C10_10 
REMARK    4  A    between atoms: C10_10  and  O11_11 
ROOT
ATOM      1  C1  YPN d   1      13.273 -12.355 -21.876  0.00  0.00    -0.058 A 
ATOM      2  C2  YPN d   1      13.518 -12.906 -20.645  0.00  0.00    -0.047 A 
ATOM      3  C3  YPN d   1      14.094 -12.130 -19.666  0.00  0.00     0.093 A 
ATOM      4  N4  YPN d   1      14.431 -10.847 -19.859  0.00  0.00    -0.252 NA
ATOM      5  C5  YPN d   1      14.180 -10.330 -21.068  0.00  0.00     0.024 A 
ATOM      6  C6  YPN d   1      13.612 -11.040 -22.098  0.00  0.00     0.051 A 
ATOM      7 CL7  YPN d   1      13.347 -10.320 -23.627  0.00  0.00    -0.083 Cl
ATOM      8  H1  YPN d   1      12.819 -12.946 -22.663  0.00  0.00     0.086 H 
ATOM      9  H2  YPN d   1      13.261 -13.940 -20.445  0.00  0.00     0.087 H 
ATOM     10  H3  YPN d   1      14.440  -9.292 -21.244  0.00  0.00     0.117 H 
ENDROOT
BRANCH   3  11
ATOM     11  S8  YPN d   1      14.368 -12.933 -18.127  0.00  0.00    -0.108 SA
BRANCH  11  12
ATOM     12  C9  YPN d   1      15.077 -11.661 -17.046  0.00  0.00     0.002 C 
ATOM     13  H4  YPN d   1      14.996 -11.981 -15.997  0.00  0.00     0.052 H 
ATOM     14  H5  YPN d   1      14.533 -10.715 -17.183  0.00  0.00     0.052 H 
BRANCH  12  15
ATOM     15  C10 YPN d   1      16.517 -11.469 -17.403  0.00  0.00     0.025 C 
ATOM     16  H6  YPN d   1      16.595 -10.910 -18.347  0.00  0.00     0.075 H 
ATOM     17  H7  YPN d   1      17.006 -12.448 -17.514  0.00  0.00     0.075 H 
BRANCH  15  18
ATOM     18  O11 YPN d   1      17.137 -10.740 -16.364  0.00  0.00    -0.400 OA
ATOM     19  H8  YPN d   1      18.054 -10.609 -16.574  0.00  0.00     0.209 HD
ENDBRANCH  15  18
ENDBRANCH  12  15
ENDBRANCH  11  12
ENDBRANCH   3  11
TORSDOF 4
