REMARK  1 active torsions:
REMARK  status: ('A' for Active; 'I' for Inactive)
REMARK    1  A    between atoms: N16_20  and  C9_10 
REMARK       I    between atoms: N19_19  and  C17_13 
REMARK       I    between atoms: C17_13  and  N16_20 
ROOT
ATOM      1  C1  6N0 d   1     -17.825  -5.523  12.164  0.00  0.00    -0.082 A 
ATOM      2  C2  6N0 d   1     -18.930  -5.494  11.332  0.00  0.00    -0.082 A 
ATOM      3  C6  6N0 d   1     -17.497  -6.664  12.876  0.00  0.00    -0.071 A 
ATOM      4  C10 6N0 d   1     -18.110 -11.681  14.305  0.00  0.00    -0.056 A 
ATOM      5  C3  6N0 d   1     -19.733  -6.610  11.187  0.00  0.00    -0.061 A 
ATOM      6  C11 6N0 d   1     -19.100 -11.293  13.422  0.00  0.00    -0.059 A 
ATOM      7  C8  6N0 d   1     -17.124  -9.481  14.248  0.00  0.00    -0.045 A 
ATOM      8  C5  6N0 d   1     -18.291  -7.786  12.753  0.00  0.00    -0.003 A 
ATOM      9  C7  6N0 d   1     -18.112  -9.077  13.373  0.00  0.00    -0.000 A 
ATOM     10  C9  6N0 d   1     -17.137 -10.788  14.714  0.00  0.00     0.037 A 
ATOM     11  C4  6N0 d   1     -19.379  -7.725  11.914  0.00  0.00     0.075 A 
ATOM     12  C12 6N0 d   1     -19.059  -9.994  12.985  0.00  0.00     0.075 A 
ATOM     13  O14 6N0 d   1     -21.490  -9.191  12.581  0.00  0.00    -0.217 OA
ATOM     14  O15 6N0 d   1     -20.064  -9.861  10.559  0.00  0.00    -0.217 OA
ATOM     15  S13 6N0 d   1     -20.230  -9.272  11.874  0.00  0.00     0.208 S 
ATOM     16  H1  6N0 d   1     -17.206  -4.638  12.260  0.00  0.00     0.083 H 
ATOM     17  H2  6N0 d   1     -19.169  -4.587  10.788  0.00  0.00     0.083 H 
ATOM     18  H3  6N0 d   1     -16.627  -6.676  13.522  0.00  0.00     0.084 H 
ATOM     19  H4  6N0 d   1     -18.096 -12.697  14.681  0.00  0.00     0.087 H 
ATOM     20  H5  6N0 d   1     -20.598  -6.608  10.534  0.00  0.00     0.085 H 
ATOM     21  H6  6N0 d   1     -19.870 -11.981  13.092  0.00  0.00     0.086 H 
ATOM     22  H7  6N0 d   1     -16.352  -8.790  14.566  0.00  0.00     0.088 H 
ENDROOT
BRANCH  10  23
ATOM     23  N16 6N0 d   1     -16.152 -11.247  15.601  0.00  0.00    -0.309 N 
ATOM     24  C17 6N0 d   1     -15.887 -10.583  16.778  0.00  0.00     0.322 C 
ATOM     25  N19 6N0 d   1     -14.800 -11.035  17.499  0.00  0.00    -0.334 N 
ATOM     26  O18 6N0 d   1     -16.576  -9.652  17.163  0.00  0.00    -0.247 OA
ATOM     27  C20 6N0 d   1     -13.950 -12.114  17.048  0.00  0.00     0.004 C 
ATOM     28  C24 6N0 d   1     -14.573 -10.541  18.849  0.00  0.00     0.004 C 
ATOM     29  C21 6N0 d   1     -14.052 -13.288  18.012  0.00  0.00     0.011 C 
ATOM     30  H12 6N0 d   1     -14.269 -12.436  16.046  0.00  0.00     0.064 H 
ATOM     31  H13 6N0 d   1     -12.908 -11.765  17.007  0.00  0.00     0.064 H 
ATOM     32  C22 6N0 d   1     -13.741 -12.852  19.428  0.00  0.00     0.246 C 
ATOM     33  H8  6N0 d   1     -13.336 -14.066  17.709  0.00  0.00     0.044 H 
ATOM     34  H9  6N0 d   1     -15.073 -13.696  17.977  0.00  0.00     0.044 H 
ATOM     35  C23 6N0 d   1     -14.589 -11.669  19.868  0.00  0.00     0.011 C 
ATOM     36  F25 6N0 d   1     -13.946 -13.913  20.261  0.00  0.00    -0.206 F 
ATOM     37  F26 6N0 d   1     -12.418 -12.516  19.533  0.00  0.00    -0.206 F 
ATOM     38  H10 6N0 d   1     -15.626 -12.008  20.005  0.00  0.00     0.044 H 
ATOM     39  H11 6N0 d   1     -14.198 -11.289  20.823  0.00  0.00     0.044 H 
ATOM     40  H14 6N0 d   1     -13.594 -10.040  18.886  0.00  0.00     0.064 H 
ATOM     41  H15 6N0 d   1     -15.364  -9.820  19.103  0.00  0.00     0.064 H 
ATOM     42  H16 6N0 d   1     -15.633 -12.071  15.375  0.00  0.00     0.170 HD
ENDBRANCH  10  23
TORSDOF 1
