REMARK  1 active torsions:
REMARK  status: ('A' for Active; 'I' for Inactive)
REMARK    1  A    between atoms: C9_9  and  N11_11 
ROOT
ATOM      1  C1  6N6 d   1      12.630  12.839  26.981  0.00  0.00    -0.075 A 
ATOM      2  C2  6N6 d   1      13.613  11.968  26.541  0.00  0.00    -0.063 A 
ATOM      3  C3  6N6 d   1      13.230  11.052  25.613  0.00  0.00     0.042 A 
ATOM      4  S4  6N6 d   1      11.587  11.332  25.296  0.00  0.00    -0.099 SA
ATOM      5  C5  6N6 d   1      11.477  12.603  26.377  0.00  0.00    -0.044 A 
ATOM      6  C6  6N6 d   1      13.988  10.020  24.938  0.00  0.00     0.140 A 
ATOM      7  N7  6N6 d   1      13.630   9.384  23.856  0.00  0.00    -0.139 NA
ATOM      8  N8  6N6 d   1      14.540   8.511  23.465  0.00  0.00    -0.124 NA
ATOM      9  C9  6N6 d   1      15.591   8.453  24.205  0.00  0.00     0.188 A 
ATOM     10  S10 6N6 d   1      15.527   9.538  25.520  0.00  0.00    -0.028 SA
ATOM     11  H1  6N6 d   1      12.786  13.617  27.727  0.00  0.00     0.084 H 
ATOM     12  H2  6N6 d   1      14.634  12.014  26.917  0.00  0.00     0.085 H 
ATOM     13  H3  6N6 d   1      10.565  13.169  26.562  0.00  0.00     0.095 H 
ENDROOT
BRANCH   9  14
ATOM     14  N11 6N6 d   1      16.627   7.638  23.978  0.00  0.00    -0.377 N 
ATOM     15  H4  6N6 d   1      16.614   7.002  23.168  0.00  0.00     0.158 HD
ATOM     16  H5  6N6 d   1      17.438   7.647  24.613  0.00  0.00     0.158 HD
ENDBRANCH   9  14
TORSDOF 1
