REMARK  3 active torsions:
REMARK  status: ('A' for Active; 'I' for Inactive)
REMARK    1  A    between atoms: C11_14  and  C3_10 
REMARK    2  A    between atoms: C12_12  and  C16_11 
REMARK    3  A    between atoms: C5_13  and  C7_15 
ROOT
ATOM      1  C13 6NM d   1     -14.466  -9.911   9.657  0.00  0.00     0.035 A 
ATOM      2  C12 6NM d   1     -15.825  -9.753   9.823  0.00  0.00     0.022 A 
ATOM      3  C11 6NM d   1     -16.073 -10.090  11.184  0.00  0.00     0.073 A 
ATOM      4  N15 6NM d   1     -14.929 -10.434  11.799  0.00  0.00    -0.277 N 
ATOM      5  N14 6NM d   1     -13.987 -10.341  10.857  0.00  0.00    -0.186 NA
ATOM      6  H9  6NM d   1     -13.892  -9.729   8.750  0.00  0.00     0.118 H 
ATOM      7  H10 6NM d   1     -14.805 -10.710  12.784  0.00  0.00     0.189 HD
ENDROOT
BRANCH   3   8
ATOM      8  C3  6NM d   1     -17.312 -10.056  11.941  0.00  0.00    -0.006 A 
ATOM      9  C2  6NM d   1     -17.606 -11.014  12.893  0.00  0.00    -0.071 A 
ATOM     10  C1  6NM d   1     -18.780 -10.940  13.613  0.00  0.00    -0.081 A 
ATOM     11  H2  6NM d   1     -16.911 -11.826  13.074  0.00  0.00     0.084 H 
ATOM     12  C6  6NM d   1     -19.670  -9.911  13.397  0.00  0.00    -0.068 A 
ATOM     13  H1  6NM d   1     -19.004 -11.698  14.355  0.00  0.00     0.083 H 
ATOM     14  C5  6NM d   1     -19.380  -8.945  12.459  0.00  0.00     0.048 A 
ATOM     15  H3  6NM d   1     -20.594  -9.862  13.962  0.00  0.00     0.084 H 
ATOM     16  C4  6NM d   1     -18.199  -9.017  11.751  0.00  0.00    -0.056 A 
ATOM     17  H6  6NM d   1     -17.963  -8.242  11.031  0.00  0.00     0.086 H 
BRANCH  14  18
ATOM     18  C7  6NM d   1     -20.287  -7.799  12.189  0.00  0.00     0.417 C 
ATOM     19  F8  6NM d   1     -21.593  -8.011  12.492  0.00  0.00    -0.166 F 
ATOM     20  F9  6NM d   1     -19.937  -6.680  12.872  0.00  0.00    -0.166 F 
ATOM     21  F10 6NM d   1     -20.253  -7.464  10.875  0.00  0.00    -0.166 F 
ENDBRANCH  14  18
ENDBRANCH   3   8
BRANCH   2  22
ATOM     22  C16 6NM d   1     -16.671  -9.293   8.740  0.00  0.00    -0.019 A 
ATOM     23  C17 6NM d   1     -17.933  -9.816   8.543  0.00  0.00    -0.055 A 
ATOM     24  C18 6NM d   1     -18.673  -9.338   7.481  0.00  0.00     0.003 A 
ATOM     25  H4  6NM d   1     -18.331 -10.579   9.202  0.00  0.00     0.087 H 
ATOM     26  N19 6NM d   1     -18.258  -8.395   6.621  0.00  0.00    -0.273 NA
ATOM     27  H7  6NM d   1     -19.662  -9.755   7.330  0.00  0.00     0.114 H 
ATOM     28  C20 6NM d   1     -17.026  -7.908   6.836  0.00  0.00     0.003 A 
ATOM     29  C21 6NM d   1     -16.207  -8.325   7.865  0.00  0.00    -0.055 A 
ATOM     30  H8  6NM d   1     -16.653  -7.144   6.163  0.00  0.00     0.114 H 
ATOM     31  H5  6NM d   1     -15.216  -7.902   7.987  0.00  0.00     0.087 H 
ENDBRANCH   2  22
TORSDOF 3
