REMARK  4 active torsions:
REMARK  status: ('A' for Active; 'I' for Inactive)
REMARK    1  A    between atoms: C6_6  and  C7_7 
REMARK    2  A    between atoms: C9_9  and  N12_12 
REMARK    3  A    between atoms: N12_12  and  C13_13 
REMARK    4  A    between atoms: C13_13  and  C14_14 
ROOT
ATOM      1  C13 6NF d   1      18.979 -10.824 -14.088  0.00  0.00    -0.003 C 
ATOM      2  H8  6NF d   1      19.426 -10.334 -14.966  0.00  0.00     0.064 H 
ATOM      3  H9  6NF d   1      19.686 -11.561 -13.680  0.00  0.00     0.064 H 
ENDROOT
BRANCH   1   4
ATOM      4  N12 6NF d   1      17.751 -11.481 -14.466  0.00  0.00    -0.373 N 
ATOM      5  H7  6NF d   1      17.406 -12.278 -13.912  0.00  0.00     0.161 HD
BRANCH   4   6
ATOM      6  C9  6NF d   1      17.055 -11.063 -15.533  0.00  0.00     0.145 A 
ATOM      7  C8  6NF d   1      16.037 -11.718 -16.160  0.00  0.00    -0.009 A 
ATOM      8  C7  6NF d   1      15.653 -10.931 -17.251  0.00  0.00     0.064 A 
ATOM      9  H5  6NF d   1      15.604 -12.674 -15.867  0.00  0.00     0.093 H 
ATOM     10  N11 6NF d   1      16.404  -9.819 -17.275  0.00  0.00    -0.276 N 
ATOM     11  N10 6NF d   1      17.207  -9.884 -16.193  0.00  0.00    -0.157 NA
ATOM     12  H6  6NF d   1      16.373  -9.067 -17.978  0.00  0.00     0.189 HD
BRANCH   8  13
ATOM     13  C6  6NF d   1      14.815 -11.419 -18.309  0.00  0.00    -0.005 A 
ATOM     14  C1  6NF d   1      14.720 -12.793 -18.448  0.00  0.00    -0.054 A 
ATOM     15  C2  6NF d   1      13.995 -13.312 -19.499  0.00  0.00     0.003 A 
ATOM     16  H1  6NF d   1      15.209 -13.452 -17.740  0.00  0.00     0.087 H 
ATOM     17  N3  6NF d   1      13.400 -12.556 -20.433  0.00  0.00    -0.273 NA
ATOM     18  H2  6NF d   1      13.901 -14.389 -19.575  0.00  0.00     0.114 H 
ATOM     19  C4  6NF d   1      13.532 -11.227 -20.275  0.00  0.00     0.003 A 
ATOM     20  C5  6NF d   1      14.213 -10.605 -19.247  0.00  0.00    -0.054 A 
ATOM     21  H3  6NF d   1      13.064 -10.590 -21.017  0.00  0.00     0.114 H 
ATOM     22  H4  6NF d   1      14.272  -9.525 -19.180  0.00  0.00     0.087 H 
ENDBRANCH   8  13
ENDBRANCH   4   6
ENDBRANCH   1   4
BRANCH   1  23
ATOM     23  C14 6NF d   1      18.652  -9.797 -13.041  0.00  0.00    -0.039 C 
ATOM     24  C15 6NF d   1      17.896 -10.449 -11.891  0.00  0.00    -0.060 C 
ATOM     25  C16 6NF d   1      17.698  -9.489 -10.726  0.00  0.00    -0.065 C 
ATOM     26  H11 6NF d   1      18.466 -11.322 -11.540  0.00  0.00     0.033 H 
ATOM     27  H12 6NF d   1      16.910 -10.777 -12.254  0.00  0.00     0.033 H 
ATOM     28  C17 6NF d   1      19.010  -8.834 -10.327  0.00  0.00    -0.065 C 
ATOM     29  H13 6NF d   1      17.298 -10.046  -9.866  0.00  0.00     0.033 H 
ATOM     30  H14 6NF d   1      16.982  -8.708 -11.022  0.00  0.00     0.033 H 
ATOM     31  C18 6NF d   1      19.673  -8.141 -11.510  0.00  0.00    -0.065 C 
ATOM     32  H15 6NF d   1      19.691  -9.606  -9.938  0.00  0.00     0.033 H 
ATOM     33  H16 6NF d   1      18.813  -8.089  -9.542  0.00  0.00     0.033 H 
ATOM     34  C19 6NF d   1      19.964  -9.159 -12.598  0.00  0.00    -0.060 C 
ATOM     35  H17 6NF d   1      20.615  -7.677 -11.182  0.00  0.00     0.033 H 
ATOM     36  H18 6NF d   1      19.000  -7.366 -11.905  0.00  0.00     0.033 H 
ATOM     37  H19 6NF d   1      20.439  -8.658 -13.455  0.00  0.00     0.033 H 
ATOM     38  H20 6NF d   1      20.638  -9.935 -12.207  0.00  0.00     0.033 H 
ATOM     39  H10 6NF d   1      18.010  -9.019 -13.480  0.00  0.00     0.042 H 
ENDBRANCH   1  23
TORSDOF 4
