REMARK  4 active torsions:
REMARK  status: ('A' for Active; 'I' for Inactive)
REMARK    1  A    between atoms: C8_8  and  S10_10 
REMARK    2  A    between atoms: S10_10  and  C11_11 
REMARK    3  A    between atoms: C11_11  and  C12_12 
REMARK    4  A    between atoms: C12_12  and  O13_13 
ROOT
ATOM      1  C1  6N4 d   1      19.682  10.305  12.343  0.00  0.00    -0.081 A 
ATOM      2  C2  6N4 d   1      19.554   8.890  12.636  0.00  0.00    -0.081 A 
ATOM      3  C3  6N4 d   1      18.564   8.397  13.579  0.00  0.00    -0.053 A 
ATOM      4  C4  6N4 d   1      17.753   9.405  14.226  0.00  0.00     0.086 A 
ATOM      5  C5  6N4 d   1      17.867  10.791  13.952  0.00  0.00     0.063 A 
ATOM      6  C6  6N4 d   1      18.809  11.293  12.996  0.00  0.00    -0.055 A 
ATOM      7  N7  6N4 d   1      16.896  11.419  14.791  0.00  0.00    -0.333 N 
ATOM      8  C8  6N4 d   1      16.282  10.441  15.512  0.00  0.00     0.167 A 
ATOM      9  N9  6N4 d   1      16.782   9.238  15.164  0.00  0.00    -0.223 NA
ATOM     10  H1  6N4 d   1      20.431  10.639  11.634  0.00  0.00     0.083 H 
ATOM     11  H2  6N4 d   1      20.211   8.185  12.141  0.00  0.00     0.083 H 
ATOM     12  H3  6N4 d   1      18.441   7.340  13.785  0.00  0.00     0.087 H 
ATOM     13  H4  6N4 d   1      18.875  12.350  12.765  0.00  0.00     0.087 H 
ATOM     14  H5  6N4 d   1      16.697  12.428  14.841  0.00  0.00     0.168 HD
ENDROOT
BRANCH   8  15
ATOM     15  S10 6N4 d   1      15.048  10.648  16.660  0.00  0.00    -0.090 SA
BRANCH  15  16
ATOM     16  C11 6N4 d   1      15.703  11.874  17.970  0.00  0.00     0.004 C 
ATOM     17  H6  6N4 d   1      16.585  12.384  17.556  0.00  0.00     0.052 H 
ATOM     18  H7  6N4 d   1      15.995  11.303  18.863  0.00  0.00     0.052 H 
BRANCH  16  19
ATOM     19  C12 6N4 d   1      14.624  13.001  18.415  0.00  0.00     0.025 C 
ATOM     20  H8  6N4 d   1      14.089  13.402  17.541  0.00  0.00     0.075 H 
ATOM     21  H9  6N4 d   1      15.114  13.825  18.954  0.00  0.00     0.075 H 
BRANCH  19  22
ATOM     22  O13 6N4 d   1      13.703  12.254  19.307  0.00  0.00    -0.400 OA
ATOM     23  H10 6N4 d   1      14.191  11.906  20.044  0.00  0.00     0.209 HD
ENDBRANCH  19  22
ENDBRANCH  16  19
ENDBRANCH  15  16
ENDBRANCH   8  15
TORSDOF 4
