REMARK  0 active torsions:
REMARK  status: ('A' for Active; 'I' for Inactive)
ROOT
ATOM      1  O8  1P8 d   1       7.737 -10.064 -25.194  0.00  0.00    -0.273 OA
ATOM      2  C7  1P8 d   1       8.604 -10.609 -25.857  0.00  0.00     0.226 C 
ATOM      3  C6  1P8 d   1       8.490 -10.876 -27.338  0.00  0.00     0.035 C 
ATOM      4  N9  1P8 d   1       9.818 -11.084 -25.401  0.00  0.00    -0.326 N 
ATOM      5  C10 1P8 d   1      10.430 -11.802 -26.418  0.00  0.00     0.042 A 
ATOM      6  C11 1P8 d   1      11.594 -12.532 -26.353  0.00  0.00    -0.040 A 
ATOM      7  C2  1P8 d   1      11.985 -13.166 -27.521  0.00  0.00     0.013 A 
ATOM      8 BR1  1P8 d   1      13.570 -14.196 -27.511  0.00  0.00    -0.051 Br
ATOM      9  C5  1P8 d   1       9.690 -11.703 -27.565  0.00  0.00    -0.023 A 
ATOM     10  C4  1P8 d   1      10.078 -12.336 -28.725  0.00  0.00    -0.073 A 
ATOM     11  C3  1P8 d   1      11.246 -13.076 -28.692  0.00  0.00    -0.066 A 
ATOM     12  H1  1P8 d   1       8.525  -9.944 -27.921  0.00  0.00     0.054 H 
ATOM     13  H2  1P8 d   1       7.568 -11.425 -27.580  0.00  0.00     0.054 H 
ATOM     14  H3  1P8 d   1      10.194 -10.935 -24.487  0.00  0.00     0.169 HD
ATOM     15  H4  1P8 d   1      12.173 -12.607 -25.439  0.00  0.00     0.089 H 
ATOM     16  H5  1P8 d   1       9.489 -12.257 -29.632  0.00  0.00     0.084 H 
ATOM     17  H6  1P8 d   1      11.586 -13.588 -29.585  0.00  0.00     0.085 H 
ENDROOT
TORSDOF 0
