REMARK  5 active torsions:
REMARK  status: ('A' for Active; 'I' for Inactive)
REMARK    1  A    between atoms: C7_20  and  C4_11 
REMARK    2  A    between atoms: C7_20  and  C18_12 
REMARK       I    between atoms: C11_13  and  N13_21 
REMARK       I    between atoms: N10_22  and  C11_13 
REMARK    3  A    between atoms: C9_19  and  C8_18 
REMARK    4  A    between atoms: C8_18  and  C7_20 
REMARK    5  A    between atoms: C9_19  and  N10_22 
ROOT
ATOM      1  C7  6N8 d   1      17.654 -10.654 -12.505  0.00  0.00    -0.002 C 
ATOM      2  H19 6N8 d   1      18.072 -11.661 -12.359  0.00  0.00     0.054 H 
ENDROOT
BRANCH   1   3
ATOM      3  C4  6N8 d   1      16.889 -10.343 -11.240  0.00  0.00    -0.050 A 
ATOM      4  C3  6N8 d   1      17.588 -10.206 -10.056  0.00  0.00    -0.076 A 
ATOM      5  C2  6N8 d   1      16.953  -9.914  -8.868  0.00  0.00    -0.082 A 
ATOM      6  H7  6N8 d   1      18.665 -10.332 -10.062  0.00  0.00     0.084 H 
ATOM      7  C1  6N8 d   1      15.584  -9.755  -8.851  0.00  0.00    -0.083 A 
ATOM      8  H3  6N8 d   1      17.526  -9.810  -7.954  0.00  0.00     0.083 H 
ATOM      9  C6  6N8 d   1      14.858  -9.891 -10.020  0.00  0.00    -0.082 A 
ATOM     10  H1  6N8 d   1      15.077  -9.523  -7.921  0.00  0.00     0.083 H 
ATOM     11  C5  6N8 d   1      15.513 -10.175 -11.204  0.00  0.00    -0.076 A 
ATOM     12  H4  6N8 d   1      13.780  -9.775 -10.008  0.00  0.00     0.083 H 
ATOM     13  H8  6N8 d   1      14.941 -10.268 -12.120  0.00  0.00     0.084 H 
ENDBRANCH   1   3
BRANCH   1  14
ATOM     14  C18 6N8 d   1      18.828  -9.743 -12.703  0.00  0.00    -0.050 A 
ATOM     15  C19 6N8 d   1      18.668  -8.388 -12.949  0.00  0.00    -0.076 A 
ATOM     16  C20 6N8 d   1      19.768  -7.572 -13.103  0.00  0.00    -0.082 A 
ATOM     17  H9  6N8 d   1      17.671  -7.968 -13.021  0.00  0.00     0.084 H 
ATOM     18  C21 6N8 d   1      21.031  -8.112 -13.010  0.00  0.00    -0.083 A 
ATOM     19  H5  6N8 d   1      19.640  -6.513 -13.296  0.00  0.00     0.083 H 
ATOM     20  C22 6N8 d   1      21.192  -9.460 -12.764  0.00  0.00    -0.082 A 
ATOM     21  H2  6N8 d   1      21.901  -7.477 -13.130  0.00  0.00     0.083 H 
ATOM     22  C23 6N8 d   1      20.098 -10.277 -12.603  0.00  0.00    -0.076 A 
ATOM     23  H6  6N8 d   1      22.190  -9.879 -12.697  0.00  0.00     0.083 H 
ATOM     24  H10 6N8 d   1      20.231 -11.333 -12.399  0.00  0.00     0.084 H 
ENDBRANCH   1  14
BRANCH   1  25
ATOM     25  C8  6N8 d   1      16.788 -10.746 -13.746  0.00  0.00    -0.039 C 
ATOM     26  H15 6N8 d   1      15.971 -11.456 -13.549  0.00  0.00     0.036 H 
ATOM     27  H16 6N8 d   1      16.368  -9.751 -13.953  0.00  0.00     0.036 H 
BRANCH  25  28
ATOM     28  C9  6N8 d   1      17.544 -11.212 -14.971  0.00  0.00    -0.002 C 
ATOM     29  H17 6N8 d   1      18.166 -12.082 -14.715  0.00  0.00     0.064 H 
ATOM     30  H18 6N8 d   1      18.185 -10.400 -15.344  0.00  0.00     0.064 H 
BRANCH  28  31
ATOM     31  N10 6N8 d   1      16.587 -11.578 -15.979  0.00  0.00    -0.342 N 
ATOM     32  C11 6N8 d   1      16.307 -10.794 -17.067  0.00  0.00     0.326 C 
ATOM     33  N13 6N8 d   1      15.442 -11.384 -17.972  0.00  0.00    -0.286 N 
ATOM     34  O12 6N8 d   1      16.804  -9.691 -17.240  0.00  0.00    -0.246 OA
ATOM     35  C14 6N8 d   1      14.959 -12.729 -17.867  0.00  0.00    -0.011 A 
ATOM     36  C17 6N8 d   1      15.073 -10.743 -19.209  0.00  0.00    -0.011 A 
ATOM     37  C15 6N8 d   1      14.117 -12.974 -19.095  0.00  0.00    -0.066 A 
ATOM     38  H13 6N8 d   1      15.160 -13.434 -17.061  0.00  0.00     0.112 H 
ATOM     39  C16 6N8 d   1      14.195 -11.723 -19.941  0.00  0.00    -0.066 A 
ATOM     40  H11 6N8 d   1      13.559 -13.880 -19.328  0.00  0.00     0.085 H 
ATOM     41  H12 6N8 d   1      13.707 -11.561 -20.901  0.00  0.00     0.085 H 
ATOM     42  H14 6N8 d   1      15.369  -9.751 -19.546  0.00  0.00     0.112 H 
ATOM     43  H20 6N8 d   1      16.102 -12.447 -15.881  0.00  0.00     0.164 HD
ENDBRANCH  28  31
ENDBRANCH  25  28
ENDBRANCH   1  25
TORSDOF 5
