REMARK  5 active torsions:
REMARK  status: ('A' for Active; 'I' for Inactive)
REMARK    1  A    between atoms: C1_4  and  C_1 
REMARK    2  A    between atoms: C1_4  and  C2_6 
REMARK    3  A    between atoms: C1_4  and  C3_7 
REMARK    4  A    between atoms: C4_8  and  C1_4 
REMARK    5  A    between atoms: C7_11  and  C10_14 
ROOT
ATOM      1  C4  29F d   1     -53.567 -42.704  21.369  0.00  0.00    -0.051 A 
ATOM      2  C5  29F d   1     -54.578 -43.484  20.806  0.00  0.00    -0.075 A 
ATOM      3  C6  29F d   1     -54.816 -43.530  19.438  0.00  0.00    -0.073 A 
ATOM      4  C7  29F d   1     -54.039 -42.799  18.548  0.00  0.00    -0.016 A 
ATOM      5  C8  29F d   1     -53.032 -41.994  19.092  0.00  0.00    -0.073 A 
ATOM      6  C9  29F d   1     -52.795 -41.957  20.468  0.00  0.00    -0.075 A 
ATOM      7  H12 29F d   1     -55.203 -44.078  21.463  0.00  0.00     0.084 H 
ATOM      8  H13 29F d   1     -55.622 -44.147  19.058  0.00  0.00     0.084 H 
ATOM      9  H14 29F d   1     -52.423 -41.387  18.432  0.00  0.00     0.084 H 
ATOM     10  H15 29F d   1     -51.993 -41.335  20.849  0.00  0.00     0.084 H 
ENDROOT
BRANCH   4  11
ATOM     11  C10 29F d   1     -54.321 -42.820  17.186  0.00  0.00     0.104 C 
ATOM     12  N   29F d   1     -53.662 -41.885  16.265  0.00  0.00    -0.332 N 
ATOM     13  C11 29F d   1     -53.886 -41.981  14.913  0.00  0.00     0.255 C 
ATOM     14  H4  29F d   1     -53.050 -41.179  16.622  0.00  0.00     0.165 HD
ATOM     15  O   29F d   1     -53.410 -41.101  14.191  0.00  0.00    -0.268 OA
ATOM     16  C12 29F d   1     -54.735 -42.970  14.407  0.00  0.00     0.058 A 
ATOM     17  C13 29F d   1     -54.798 -43.211  13.047  0.00  0.00    -0.066 A 
ATOM     18  C17 29F d   1     -55.543 -43.715  15.271  0.00  0.00     0.045 A 
ATOM     19  C14 29F d   1     -55.684 -44.176  12.549  0.00  0.00    -0.082 A 
ATOM     20  H17 29F d   1     -54.163 -42.654  12.367  0.00  0.00     0.085 H 
ATOM     21  C15 29F d   1     -56.499 -44.883  13.422  0.00  0.00    -0.081 A 
ATOM     22  H18 29F d   1     -55.733 -44.370  11.484  0.00  0.00     0.083 H 
ATOM     23  C16 29F d   1     -56.437 -44.657  14.787  0.00  0.00    -0.056 A 
ATOM     24  H19 29F d   1     -57.191 -45.620  13.031  0.00  0.00     0.083 H 
ATOM     25  H20 29F d   1     -57.078 -45.208  15.466  0.00  0.00     0.086 H 
ATOM     26  N1  29F d   1     -55.475 -43.531  16.632  0.00  0.00    -0.364 N 
ATOM     27  H5  29F d   1     -56.220 -43.886  17.249  0.00  0.00     0.162 HD
ATOM     28  H16 29F d   1     -53.618 -43.643  16.992  0.00  0.00     0.115 H 
ENDBRANCH   4  11
BRANCH   1  29
ATOM     29  C1  29F d   1     -53.318 -42.656  22.797  0.00  0.00    -0.024 C 
BRANCH  29  30
ATOM     30  C   29F d   1     -53.743 -41.293  23.349  0.00  0.00    -0.066 C 
ATOM     31  H1  29F d   1     -53.553 -41.261  24.432  0.00  0.00     0.028 H 
ATOM     32  H2  29F d   1     -54.816 -41.139  23.160  0.00  0.00     0.028 H 
ATOM     33  H3  29F d   1     -53.166 -40.500  22.851  0.00  0.00     0.028 H 
ENDBRANCH  29  30
BRANCH  29  34
ATOM     34  C2  29F d   1     -54.125 -43.703  23.593  0.00  0.00    -0.066 C 
ATOM     35  H6  29F d   1     -53.864 -44.712  23.242  0.00  0.00     0.028 H 
ATOM     36  H7  29F d   1     -55.201 -43.529  23.442  0.00  0.00     0.028 H 
ATOM     37  H8  29F d   1     -53.886 -43.614  24.663  0.00  0.00     0.028 H 
ENDBRANCH  29  34
BRANCH  29  38
ATOM     38  C3  29F d   1     -51.837 -42.890  23.086  0.00  0.00    -0.066 C 
ATOM     39  H9  29F d   1     -51.235 -42.156  22.530  0.00  0.00     0.028 H 
ATOM     40  H10 29F d   1     -51.558 -43.907  22.771  0.00  0.00     0.028 H 
ATOM     41  H11 29F d   1     -51.651 -42.776  24.164  0.00  0.00     0.028 H 
ENDBRANCH  29  38
ENDBRANCH   1  29
TORSDOF 5
