REMARK  1 active torsions:
REMARK  status: ('A' for Active; 'I' for Inactive)
REMARK    1  A    between atoms: CAO_15  and  CAR_18 
ROOT
ATOM      1  OAA NKI d   1      -8.354 -38.348  15.152  0.00  0.00    -0.268 OA
ATOM      2  CAC NKI d   1      -4.860 -34.849  15.807  0.00  0.00    -0.081 A 
ATOM      3  CAD NKI d   1      -5.556 -35.674  16.699  0.00  0.00    -0.082 A 
ATOM      4  CAG NKI d   1      -5.050 -35.053  14.441  0.00  0.00    -0.056 A 
ATOM      5  CAH NKI d   1      -6.423 -36.666  16.253  0.00  0.00    -0.066 A 
ATOM      6  NAK NKI d   1      -7.577 -38.095  13.067  0.00  0.00    -0.332 N 
ATOM      7  NAL NKI d   1      -6.036 -36.269  12.649  0.00  0.00    -0.364 N 
ATOM      8  CAM NKI d   1      -7.469 -37.881  14.433  0.00  0.00     0.255 C 
ATOM      9  CAP NKI d   1      -5.889 -36.072  13.999  0.00  0.00     0.045 A 
ATOM     10  CAQ NKI d   1      -6.563 -36.913  14.910  0.00  0.00     0.058 A 
ATOM     11  CAR NKI d   1      -6.497 -37.583  12.189  0.00  0.00     0.104 C 
ATOM     12  H1  NKI d   1      -4.193 -34.074  16.168  0.00  0.00     0.083 H 
ATOM     13  H2  NKI d   1      -5.415 -35.536  17.765  0.00  0.00     0.083 H 
ATOM     14  H5  NKI d   1      -4.544 -34.418  13.723  0.00  0.00     0.086 H 
ATOM     15  H6  NKI d   1      -6.991 -37.247  16.970  0.00  0.00     0.085 H 
ATOM     16  H9  NKI d   1      -8.362 -38.582  12.684  0.00  0.00     0.165 HD
ATOM     17  H10 NKI d   1      -5.829 -35.516  11.978  0.00  0.00     0.162 HD
ATOM     18  H11 NKI d   1      -5.650 -38.250  12.407  0.00  0.00     0.115 H 
ENDROOT
BRANCH  11  19
ATOM     19  CAO NKI d   1      -6.657 -37.739  10.797  0.00  0.00    -0.016 A 
ATOM     20  CAI NKI d   1      -6.128 -36.805   9.893  0.00  0.00    -0.072 A 
ATOM     21  CAE NKI d   1      -6.230 -37.029   8.524  0.00  0.00    -0.061 A 
ATOM     22  H7  NKI d   1      -5.640 -35.910  10.261  0.00  0.00     0.084 H 
ATOM     23  CAN NKI d   1      -6.823 -38.190   8.050  0.00  0.00     0.034 A 
ATOM     24  H3  NKI d   1      -5.845 -36.294   7.826  0.00  0.00     0.086 H 
ATOM     25 CL   NKI d   1      -6.950 -38.412   6.305  0.00  0.00    -0.084 Cl
ATOM     26  CAF NKI d   1      -7.327 -39.144   8.930  0.00  0.00    -0.061 A 
ATOM     27  CAJ NKI d   1      -7.229 -38.921  10.288  0.00  0.00    -0.072 A 
ATOM     28  H4  NKI d   1      -7.790 -40.049   8.553  0.00  0.00     0.086 H 
ATOM     29  H8  NKI d   1      -7.600 -39.671  10.977  0.00  0.00     0.084 H 
ENDBRANCH  11  19
TORSDOF 1
