REMARK  2 active torsions:
REMARK  status: ('A' for Active; 'I' for Inactive)
REMARK    1  A    between atoms: C1_1  and  N2_2 
REMARK       I    between atoms: N2_2  and  C3_3 
REMARK       I    between atoms: C3_3  and  N5_5 
REMARK    2  A    between atoms: N5_5  and  C6_6 
ROOT
ATOM      1  C6  6NX d   1     -15.017  11.587 -18.149  0.00  0.00     0.014 C 
ATOM      2  C7  6NX d   1     -14.578  12.934 -18.709  0.00  0.00    -0.046 C 
ATOM      3  C8  6NX d   1     -13.971  12.759 -20.086  0.00  0.00    -0.063 C 
ATOM      4  C9  6NX d   1     -12.794  11.800 -20.051  0.00  0.00    -0.065 C 
ATOM      5  C10 6NX d   1     -13.189  10.443 -19.484  0.00  0.00    -0.063 C 
ATOM      6  C11 6NX d   1     -13.870  10.578 -18.134  0.00  0.00    -0.046 C 
ATOM      7  H6  6NX d   1     -15.819  11.190 -18.788  0.00  0.00     0.072 H 
ATOM      8  H7  6NX d   1     -13.830  13.380 -18.037  0.00  0.00     0.035 H 
ATOM      9  H8  6NX d   1     -15.451  13.600 -18.779  0.00  0.00     0.035 H 
ATOM     10  H9  6NX d   1     -13.626  13.737 -20.453  0.00  0.00     0.033 H 
ATOM     11  H10 6NX d   1     -14.737  12.361 -20.768  0.00  0.00     0.033 H 
ATOM     12  H11 6NX d   1     -12.001  12.232 -19.422  0.00  0.00     0.033 H 
ATOM     13  H12 6NX d   1     -12.416  11.662 -21.075  0.00  0.00     0.033 H 
ATOM     14  H13 6NX d   1     -12.285   9.828 -19.368  0.00  0.00     0.033 H 
ATOM     15  H14 6NX d   1     -13.880   9.951 -20.184  0.00  0.00     0.033 H 
ATOM     16  H15 6NX d   1     -14.270   9.596 -17.842  0.00  0.00     0.035 H 
ATOM     17  H16 6NX d   1     -13.124  10.905 -17.395  0.00  0.00     0.035 H 
ENDROOT
BRANCH   1  18
ATOM     18  N5  6NX d   1     -15.533  11.763 -16.808  0.00  0.00    -0.339 N 
ATOM     19  C3  6NX d   1     -16.360  10.838 -16.203  0.00  0.00     0.316 C 
ATOM     20  N2  6NX d   1     -16.642  11.156 -14.895  0.00  0.00    -0.347 N 
ATOM     21  O4  6NX d   1     -16.781   9.838 -16.763  0.00  0.00    -0.247 OA
ATOM     22  H4  6NX d   1     -16.040  11.796 -14.418  0.00  0.00     0.163 HD
ATOM     23  H5  6NX d   1     -15.281  12.587 -16.300  0.00  0.00     0.164 HD
BRANCH  20  24
ATOM     24  C1  6NX d   1     -17.772  10.605 -14.180  0.00  0.00    -0.017 C 
ATOM     25  H1  6NX d   1     -17.789  11.006 -13.156  0.00  0.00     0.056 H 
ATOM     26  H2  6NX d   1     -17.684   9.509 -14.144  0.00  0.00     0.056 H 
ATOM     27  H3  6NX d   1     -18.703  10.881 -14.697  0.00  0.00     0.056 H 
ENDBRANCH  20  24
ENDBRANCH   1  18
TORSDOF 2
