REMARK  5 active torsions:
REMARK  status: ('A' for Active; 'I' for Inactive)
REMARK    1  A    between atoms: CAA_1  and  CAB_2 
REMARK    2  A    between atoms: CAB_2  and  CAC_3 
REMARK    3  A    between atoms: CAB_2  and  CAD_4 
REMARK    4  A    between atoms: CAB_2  and  CAE_5 
REMARK    5  A    between atoms: CAH_10  and  CAK_11 
ROOT
ATOM      1  CAE GN5 d   1      -6.565 -38.131   7.971  0.00  0.00    -0.051 A 
ATOM      2  CAJ GN5 d   1      -7.310 -38.967   8.821  0.00  0.00    -0.075 A 
ATOM      3  CAI GN5 d   1      -7.301 -38.801  10.215  0.00  0.00    -0.073 A 
ATOM      4  CAF GN5 d   1      -5.809 -37.135   8.596  0.00  0.00    -0.075 A 
ATOM      5  CAG GN5 d   1      -5.790 -36.970   9.993  0.00  0.00    -0.073 A 
ATOM      6  CAH GN5 d   1      -6.554 -37.774  10.835  0.00  0.00    -0.016 A 
ATOM      7  H10 GN5 d   1      -7.907 -39.761   8.388  0.00  0.00     0.084 H 
ATOM      8  H11 GN5 d   1      -7.882 -39.478  10.831  0.00  0.00     0.084 H 
ATOM      9  H12 GN5 d   1      -5.216 -36.466   7.982  0.00  0.00     0.084 H 
ATOM     10  H13 GN5 d   1      -5.165 -36.197  10.425  0.00  0.00     0.084 H 
ENDROOT
BRANCH   6  11
ATOM     11  CAK GN5 d   1      -6.459 -37.608  12.273  0.00  0.00     0.105 C 
ATOM     12  NAL GN5 d   1      -7.555 -38.133  13.130  0.00  0.00    -0.332 N 
ATOM     13  CAM GN5 d   1      -7.493 -37.924  14.520  0.00  0.00     0.257 C 
ATOM     14  H15 GN5 d   1      -8.324 -38.627  12.725  0.00  0.00     0.165 HD
ATOM     15  OAN GN5 d   1      -8.372 -38.412  15.228  0.00  0.00    -0.267 OA
ATOM     16  CAO GN5 d   1      -6.599 -36.984  15.033  0.00  0.00     0.077 A 
ATOM     17  CAU GN5 d   1      -6.399 -36.830  16.399  0.00  0.00    -0.063 A 
ATOM     18  CAP GN5 d   1      -5.910 -36.131  14.143  0.00  0.00     0.140 A 
ATOM     19  CAT GN5 d   1      -5.506 -35.843  16.862  0.00  0.00    -0.065 A 
ATOM     20  H16 GN5 d   1      -6.926 -37.464  17.103  0.00  0.00     0.085 H 
ATOM     21  CAS GN5 d   1      -4.843 -35.002  15.962  0.00  0.00     0.004 A 
ATOM     22  H17 GN5 d   1      -5.331 -35.734  17.926  0.00  0.00     0.085 H 
ATOM     23  NAR GN5 d   1      -5.072 -35.170  14.572  0.00  0.00    -0.243 NA
ATOM     24  H18 GN5 d   1      -4.166 -34.235  16.320  0.00  0.00     0.114 H 
ATOM     25  NAQ GN5 d   1      -6.090 -36.265  12.775  0.00  0.00    -0.349 N 
ATOM     26  H19 GN5 d   1      -5.972 -35.466  12.136  0.00  0.00     0.163 HD
ATOM     27  H14 GN5 d   1      -5.596 -38.241  12.526  0.00  0.00     0.115 H 
ENDBRANCH   6  11
BRANCH   1  28
ATOM     28  CAB GN5 d   1      -6.579 -38.325   6.527  0.00  0.00    -0.024 C 
BRANCH  28  29
ATOM     29  CAA GN5 d   1      -7.980 -38.050   5.944  0.00  0.00    -0.066 C 
ATOM     30  H1  GN5 d   1      -7.961 -38.204   4.855  0.00  0.00     0.028 H 
ATOM     31  H2  GN5 d   1      -8.271 -37.012   6.162  0.00  0.00     0.028 H 
ATOM     32  H3  GN5 d   1      -8.708 -38.738   6.399  0.00  0.00     0.028 H 
ENDBRANCH  28  29
BRANCH  28  33
ATOM     33  CAC GN5 d   1      -5.582 -37.429   5.763  0.00  0.00    -0.066 C 
ATOM     34  H4  GN5 d   1      -4.566 -37.596   6.151  0.00  0.00     0.028 H 
ATOM     35  H5  GN5 d   1      -5.858 -36.373   5.901  0.00  0.00     0.028 H 
ATOM     36  H6  GN5 d   1      -5.611 -37.679   4.692  0.00  0.00     0.028 H 
ENDBRANCH  28  33
BRANCH  28  37
ATOM     37  CAD GN5 d   1      -6.130 -39.772   6.253  0.00  0.00    -0.066 C 
ATOM     38  H7  GN5 d   1      -6.803 -40.469   6.773  0.00  0.00     0.028 H 
ATOM     39  H8  GN5 d   1      -5.103 -39.913   6.620  0.00  0.00     0.028 H 
ATOM     40  H9  GN5 d   1      -6.163 -39.968   5.171  0.00  0.00     0.028 H 
ENDBRANCH  28  37
ENDBRANCH   1  28
TORSDOF 5
