REMARK  4 active torsions:
REMARK  status: ('A' for Active; 'I' for Inactive)
REMARK    1  A    between atoms: CAS_1  and  CAR_2 
REMARK    2  A    between atoms: CAR_2  and  CAT_3 
REMARK    3  A    between atoms: CAR_2  and  CAA_4 
REMARK    4  A    between atoms: CAF_9  and  CAG_10 
ROOT
ATOM      1  CAA O53 d   1     -39.902 -10.460   7.723  0.00  0.00    -0.055 A 
ATOM      2  CAD O53 d   1     -40.585 -11.523   8.318  0.00  0.00    -0.076 A 
ATOM      3  CAE O53 d   1     -40.592 -11.703   9.683  0.00  0.00    -0.073 A 
ATOM      4  CAC O53 d   1     -39.180  -9.588   8.566  0.00  0.00    -0.076 A 
ATOM      5  CAB O53 d   1     -39.166  -9.794   9.939  0.00  0.00    -0.073 A 
ATOM      6  CAF O53 d   1     -39.833 -10.883  10.516  0.00  0.00    -0.016 A 
ATOM      7  H8  O53 d   1     -41.123 -12.224   7.690  0.00  0.00     0.084 H 
ATOM      8  H9  O53 d   1     -41.196 -12.493  10.115  0.00  0.00     0.084 H 
ATOM      9  H10 O53 d   1     -38.634  -8.754   8.140  0.00  0.00     0.084 H 
ATOM     10  H11 O53 d   1     -38.630  -9.100  10.576  0.00  0.00     0.084 H 
ENDROOT
BRANCH   6  11
ATOM     11  CAG O53 d   1     -39.939 -11.044  11.911  0.00  0.00     0.105 C 
ATOM     12  NAI O53 d   1     -38.901 -10.536  12.832  0.00  0.00    -0.332 N 
ATOM     13  CAH O53 d   1     -39.039 -10.674  14.187  0.00  0.00     0.257 C 
ATOM     14  H13 O53 d   1     -38.088 -10.086  12.461  0.00  0.00     0.165 HD
ATOM     15  OAK O53 d   1     -38.176 -10.100  14.898  0.00  0.00    -0.267 OA
ATOM     16  CAQ O53 d   1     -40.001 -11.599  14.689  0.00  0.00     0.077 A 
ATOM     17  CAL O53 d   1     -40.196 -11.779  16.055  0.00  0.00    -0.063 A 
ATOM     18  CAP O53 d   1     -40.745 -12.381  13.793  0.00  0.00     0.140 A 
ATOM     19  CAM O53 d   1     -41.130 -12.719  16.512  0.00  0.00    -0.065 A 
ATOM     20  H14 O53 d   1     -39.626 -11.192  16.766  0.00  0.00     0.085 H 
ATOM     21  CAN O53 d   1     -41.856 -13.479  15.581  0.00  0.00     0.004 A 
ATOM     22  H15 O53 d   1     -41.290 -12.858  17.575  0.00  0.00     0.085 H 
ATOM     23  NAO O53 d   1     -41.631 -13.325  14.209  0.00  0.00    -0.243 NA
ATOM     24  H16 O53 d   1     -42.596 -14.191  15.928  0.00  0.00     0.114 H 
ATOM     25  NAJ O53 d   1     -40.532 -12.256  12.432  0.00  0.00    -0.349 N 
ATOM     26  H17 O53 d   1     -40.794 -13.021  11.794  0.00  0.00     0.163 HD
ATOM     27  H12 O53 d   1     -40.744 -10.320  12.103  0.00  0.00     0.115 H 
ENDBRANCH   6  11
BRANCH   1  28
ATOM     28  CAR O53 d   1     -39.986 -10.335   6.302  0.00  0.00    -0.036 C 
ATOM     29  H4  O53 d   1     -40.680 -11.105   5.935  0.00  0.00     0.046 H 
BRANCH  28  30
ATOM     30  CAS O53 d   1     -38.626 -10.559   5.599  0.00  0.00    -0.069 C 
ATOM     31  H1  O53 d   1     -38.753 -10.451   4.512  0.00  0.00     0.028 H 
ATOM     32  H2  O53 d   1     -38.258 -11.570   5.826  0.00  0.00     0.028 H 
ATOM     33  H3  O53 d   1     -37.900  -9.815   5.959  0.00  0.00     0.028 H 
ENDBRANCH  28  30
BRANCH  28  34
ATOM     34  CAT O53 d   1     -40.565  -8.959   5.951  0.00  0.00    -0.069 C 
ATOM     35  H5  O53 d   1     -41.530  -8.826   6.463  0.00  0.00     0.028 H 
ATOM     36  H6  O53 d   1     -40.714  -8.891   4.863  0.00  0.00     0.028 H 
ATOM     37  H7  O53 d   1     -39.866  -8.174   6.275  0.00  0.00     0.028 H 
ENDBRANCH  28  34
ENDBRANCH   1  28
TORSDOF 4
