REMARK  2 active torsions:
REMARK  status: ('A' for Active; 'I' for Inactive)
REMARK    1  A    between atoms: CAH_8  and  CAI_9 
REMARK    2  A    between atoms: NAS_19  and  CAT_20 
ROOT
ATOM      1  CAI TGW d   1     -38.808 -11.187  12.269  0.00  0.00     0.095 C 
ATOM      2  NAJ TGW d   1     -37.643 -10.846  13.068  0.00  0.00    -0.335 N 
ATOM      3  CAK TGW d   1     -37.678 -11.158  14.401  0.00  0.00     0.256 C 
ATOM      4  OAL TGW d   1     -36.743 -10.768  15.075  0.00  0.00    -0.267 OA
ATOM      5  CAM TGW d   1     -38.575 -12.150  14.823  0.00  0.00     0.072 A 
ATOM      6  CAN TGW d   1     -38.772 -12.417  16.177  0.00  0.00    -0.063 A 
ATOM      7  CAO TGW d   1     -39.636 -13.457  16.558  0.00  0.00    -0.065 A 
ATOM      8  CAP TGW d   1     -40.277 -14.227  15.594  0.00  0.00     0.004 A 
ATOM      9  NAQ TGW d   1     -40.108 -13.936  14.225  0.00  0.00    -0.248 NA
ATOM     10  CAR TGW d   1     -39.270 -12.922  13.852  0.00  0.00     0.122 A 
ATOM     11  NAS TGW d   1     -39.083 -12.622  12.536  0.00  0.00    -0.245 NA
ATOM     12  H4  TGW d   1     -39.666 -10.592  12.614  0.00  0.00     0.106 H 
ATOM     13  H5  TGW d   1     -36.846 -10.400  12.660  0.00  0.00     0.164 HD
ATOM     14  H6  TGW d   1     -38.262 -11.827  16.930  0.00  0.00     0.085 H 
ATOM     15  H7  TGW d   1     -39.804 -13.660  17.609  0.00  0.00     0.085 H 
ATOM     16  H8  TGW d   1     -40.909 -15.054  15.896  0.00  0.00     0.114 H 
ENDROOT
BRANCH   1  17
ATOM     17  CAH TGW d   1     -38.608 -10.894  10.872  0.00  0.00     0.001 A 
ATOM     18  CAB TGW d   1     -39.564 -10.204  10.077  0.00  0.00     0.045 A 
ATOM     19 CL1  TGW d   1     -41.121  -9.560  10.727  0.00  0.00    -0.084 Cl
ATOM     20  CAC TGW d   1     -39.279 -10.006   8.699  0.00  0.00    -0.040 A 
ATOM     21  CAD TGW d   1     -38.070 -10.484   8.182  0.00  0.00     0.035 A 
ATOM     22  H1  TGW d   1     -39.987  -9.493   8.059  0.00  0.00     0.088 H 
ATOM     23 CL2  TGW d   1     -37.666 -10.332   6.448  0.00  0.00    -0.084 Cl
ATOM     24  CAF TGW d   1     -37.156 -11.152   8.950  0.00  0.00    -0.061 A 
ATOM     25  CAG TGW d   1     -37.452 -11.361  10.306  0.00  0.00    -0.070 A 
ATOM     26  H2  TGW d   1     -36.227 -11.511   8.522  0.00  0.00     0.086 H 
ATOM     27  H3  TGW d   1     -36.746 -11.907  10.922  0.00  0.00     0.084 H 
ENDBRANCH   1  17
BRANCH  11  28
ATOM     28  CAT TGW d   1     -40.155 -13.123  11.641  0.00  0.00    -0.025 C 
ATOM     29  H9  TGW d   1     -40.344 -14.186  11.854  0.00  0.00     0.049 H 
ATOM     30  H10 TGW d   1     -39.841 -13.009  10.593  0.00  0.00     0.049 H 
ATOM     31  H11 TGW d   1     -41.075 -12.546  11.812  0.00  0.00     0.049 H 
ENDBRANCH  11  28
TORSDOF 2
