REMARK  2 active torsions:
REMARK  status: ('A' for Active; 'I' for Inactive)
REMARK    1  A    between atoms: NAR_3  and  CAA_4 
REMARK    2  A    between atoms: NAD_7  and  CAG_8 
ROOT
ATOM      1  CAG WLH d   1     -38.933 -11.685  11.872  0.00  0.00     0.683 A 
ATOM      2  NAH WLH d   1     -39.765 -12.605  12.359  0.00  0.00    -0.195 N 
ATOM      3  CAI WLH d   1     -39.798 -12.974  13.673  0.00  0.00     0.036 A 
ATOM      4  CAQ WLH d   1     -40.726 -13.977  13.960  0.00  0.00    -0.080 C 
ATOM      5  CAP WLH d   1     -40.400 -14.637  15.278  0.00  0.00    -0.048 C 
ATOM      6  CAO WLH d   1     -40.260 -13.547  16.364  0.00  0.00    -0.061 C 
ATOM      7  CAN WLH d   1     -39.034 -12.634  16.033  0.00  0.00    -0.048 C 
ATOM      8  CAJ WLH d   1     -39.016 -12.324  14.615  0.00  0.00     0.065 A 
ATOM      9  CAK WLH d   1     -38.110 -11.329  14.107  0.00  0.00     0.245 A 
ATOM     10  OAL WLH d   1     -37.318 -10.696  14.807  0.00  0.00    -0.272 OA
ATOM     11  NAM WLH d   1     -38.079 -11.029  12.766  0.00  0.00    -0.159 N 
ATOM     12  H13 WLH d   1     -40.419 -13.063  11.708  0.00  0.00     0.184 HD
ATOM     13  H14 WLH d   1     -41.567 -14.245  13.322  0.00  0.00     0.079 H 
ATOM     14  H15 WLH d   1     -39.455 -15.192  15.189  0.00  0.00     0.038 H 
ATOM     15  H16 WLH d   1     -41.208 -15.331  15.553  0.00  0.00     0.038 H 
ATOM     16  H17 WLH d   1     -40.108 -14.023  17.344  0.00  0.00     0.033 H 
ATOM     17  H18 WLH d   1     -41.175 -12.937  16.391  0.00  0.00     0.033 H 
ATOM     18  H19 WLH d   1     -38.105 -13.158  16.303  0.00  0.00     0.034 H 
ATOM     19  H20 WLH d   1     -39.109 -11.700  16.609  0.00  0.00     0.034 H 
ATOM     20  H21 WLH d   1     -39.803 -11.571  14.770  0.00  0.00     0.064 H 
ATOM     21  H22 WLH d   1     -37.442 -10.337  12.427  0.00  0.00     0.187 HD
ENDROOT
BRANCH   1  22
ATOM     22  NAD WLH d   1     -38.948 -11.382  10.538  0.00  0.00    -0.214 N 
ATOM     23  CAC WLH d   1     -39.859 -12.078   9.577  0.00  0.00     0.034 C 
ATOM     24  CAB WLH d   1     -39.150 -12.166   8.306  0.00  0.00     0.098 C 
ATOM     25  H1  WLH d   1     -40.099 -13.086   9.946  0.00  0.00     0.067 H 
ATOM     26  H2  WLH d   1     -40.788 -11.502   9.453  0.00  0.00     0.067 H 
ATOM     27  NAR WLH d   1     -38.795 -10.846   7.791  0.00  0.00    -0.072 N 
ATOM     28  H3  WLH d   1     -39.795 -12.673   7.573  0.00  0.00     0.078 H 
ATOM     29  H4  WLH d   1     -38.230 -12.751   8.451  0.00  0.00     0.078 H 
ATOM     30  CAF WLH d   1     -37.832 -10.150   8.640  0.00  0.00     0.098 C 
ATOM     31  H5  WLH d   1     -39.630 -10.290   7.690  0.00  0.00     0.279 HD
ATOM     32  CAE WLH d   1     -38.306 -10.115  10.061  0.00  0.00     0.034 C 
ATOM     33  H9  WLH d   1     -37.708  -9.120   8.275  0.00  0.00     0.078 H 
ATOM     34  H10 WLH d   1     -36.866 -10.674   8.595  0.00  0.00     0.078 H 
ATOM     35  H11 WLH d   1     -39.040  -9.302  10.158  0.00  0.00     0.067 H 
ATOM     36  H12 WLH d   1     -37.440  -9.906  10.706  0.00  0.00     0.067 H 
BRANCH  27  37
ATOM     37  CAA WLH d   1     -38.114 -11.021   6.482  0.00  0.00     0.066 C 
ATOM     38  H6  WLH d   1     -37.838 -10.036   6.077  0.00  0.00     0.068 H 
ATOM     39  H7  WLH d   1     -38.792 -11.529   5.781  0.00  0.00     0.068 H 
ATOM     40  H8  WLH d   1     -37.207 -11.628   6.619  0.00  0.00     0.068 H 
ENDBRANCH  27  37
ENDBRANCH   1  22
TORSDOF 2
