REMARK  3 active torsions:
REMARK  status: ('A' for Active; 'I' for Inactive)
REMARK    1  A    between atoms: CAF_6  and  CAG_7 
REMARK    2  A    between atoms: CAG_7  and  NAH_8 
REMARK    3  A    between atoms: NAK_13  and  CAN_14 
ROOT
ATOM      1  NAH JL9 d   1     -39.222 -10.563   7.906  0.00  0.00    -0.064 N 
ATOM      2  CAI JL9 d   1     -39.390 -11.980   8.318  0.00  0.00     0.099 C 
ATOM      3  CAJ JL9 d   1     -40.010 -12.012   9.676  0.00  0.00     0.034 C 
ATOM      4  CAM JL9 d   1     -38.057 -10.147   8.714  0.00  0.00     0.099 C 
ATOM      5  CAL JL9 d   1     -38.322 -10.105  10.157  0.00  0.00     0.034 C 
ATOM      6  NAK JL9 d   1     -39.065 -11.325  10.642  0.00  0.00    -0.214 N 
ATOM      7  H7  JL9 d   1     -40.060 -10.014   8.015  0.00  0.00     0.280 HD
ATOM      8  H8  JL9 d   1     -38.409 -12.476   8.347  0.00  0.00     0.078 H 
ATOM      9  H9  JL9 d   1     -40.042 -12.499   7.601  0.00  0.00     0.078 H 
ATOM     10  H10 JL9 d   1     -40.169 -13.055   9.989  0.00  0.00     0.067 H 
ATOM     11  H11 JL9 d   1     -40.974 -11.483   9.658  0.00  0.00     0.067 H 
ATOM     12  H12 JL9 d   1     -37.750  -9.142   8.388  0.00  0.00     0.078 H 
ATOM     13  H13 JL9 d   1     -37.237 -10.858   8.532  0.00  0.00     0.078 H 
ATOM     14  H14 JL9 d   1     -38.925  -9.213  10.379  0.00  0.00     0.067 H 
ATOM     15  H15 JL9 d   1     -37.362 -10.041  10.691  0.00  0.00     0.067 H 
ENDROOT
BRANCH   6  16
ATOM     16  CAN JL9 d   1     -39.065 -11.664  11.967  0.00  0.00     0.683 A 
ATOM     17  NAT JL9 d   1     -39.909 -12.615  12.429  0.00  0.00    -0.195 N 
ATOM     18  CAS JL9 d   1     -39.979 -12.968  13.721  0.00  0.00     0.036 A 
ATOM     19  H16 JL9 d   1     -40.527 -13.091  11.756  0.00  0.00     0.184 HD
ATOM     20  CAU JL9 d   1     -40.914 -13.970  14.004  0.00  0.00    -0.080 C 
ATOM     21  CAR JL9 d   1     -39.159 -12.335  14.690  0.00  0.00     0.065 A 
ATOM     22  CAV JL9 d   1     -40.520 -14.653  15.367  0.00  0.00    -0.048 C 
ATOM     23  H17 JL9 d   1     -41.771 -14.233  13.385  0.00  0.00     0.079 H 
ATOM     24  CAW JL9 d   1     -40.349 -13.528  16.409  0.00  0.00    -0.061 C 
ATOM     25  H18 JL9 d   1     -39.577 -15.207  15.252  0.00  0.00     0.038 H 
ATOM     26  H19 JL9 d   1     -41.314 -15.344  15.686  0.00  0.00     0.038 H 
ATOM     27  CAX JL9 d   1     -39.171 -12.663  16.092  0.00  0.00    -0.048 C 
ATOM     28  H20 JL9 d   1     -40.205 -13.979  17.402  0.00  0.00     0.033 H 
ATOM     29  H21 JL9 d   1     -41.257 -12.907  16.417  0.00  0.00     0.033 H 
ATOM     30  H22 JL9 d   1     -38.246 -13.201  16.347  0.00  0.00     0.034 H 
ATOM     31  H23 JL9 d   1     -39.231 -11.736  16.682  0.00  0.00     0.034 H 
ATOM     32  CAP JL9 d   1     -38.219 -11.368  14.224  0.00  0.00     0.245 A 
ATOM     33  H24 JL9 d   1     -39.925 -11.563  14.854  0.00  0.00     0.064 H 
ATOM     34  OAQ JL9 d   1     -37.394 -10.789  14.948  0.00  0.00    -0.272 OA
ATOM     35  NAO JL9 d   1     -38.188 -11.044  12.890  0.00  0.00    -0.159 N 
ATOM     36  H25 JL9 d   1     -37.536 -10.359  12.565  0.00  0.00     0.187 HD
ENDBRANCH   6  16
BRANCH   1  37
ATOM     37  CAG JL9 d   1     -38.596 -10.450   6.575  0.00  0.00     0.107 C 
ATOM     38  H5  JL9 d   1     -38.278  -9.409   6.416  0.00  0.00     0.083 H 
ATOM     39  H6  JL9 d   1     -37.718 -11.112   6.535  0.00  0.00     0.083 H 
BRANCH  37  40
ATOM     40  CAF JL9 d   1     -39.497 -10.818   5.551  0.00  0.00    -0.030 A 
ATOM     41  CAA JL9 d   1     -39.101 -11.738   4.574  0.00  0.00    -0.058 A 
ATOM     42  CAB JL9 d   1     -39.991 -12.091   3.570  0.00  0.00     0.002 A 
ATOM     43  H1  JL9 d   1     -38.108 -12.171   4.601  0.00  0.00     0.086 H 
ATOM     44  NAC JL9 d   1     -41.289 -11.533   3.552  0.00  0.00    -0.273 NA
ATOM     45  H2  JL9 d   1     -39.691 -12.793   2.801  0.00  0.00     0.114 H 
ATOM     46  CAD JL9 d   1     -41.693 -10.615   4.530  0.00  0.00     0.002 A 
ATOM     47  CAE JL9 d   1     -40.777 -10.249   5.519  0.00  0.00    -0.058 A 
ATOM     48  H3  JL9 d   1     -42.694 -10.198   4.519  0.00  0.00     0.114 H 
ATOM     49  H4  JL9 d   1     -41.059  -9.518   6.268  0.00  0.00     0.086 H 
ENDBRANCH  37  40
ENDBRANCH   1  37
TORSDOF 3
