REMARK  14 active torsions:
REMARK  status: ('A' for Active; 'I' for Inactive)
REMARK    1  A    between atoms: C1_1  and  C2_2 
REMARK    2  A    between atoms: C2_2  and  C3_3 
REMARK    3  A    between atoms: C3_3  and  S4_4 
REMARK    4  A    between atoms: S4_4  and  C5_5 
REMARK    5  A    between atoms: C7_7  and  N8_8 
REMARK    6  A    between atoms: N8_8  and  C9_9 
REMARK    7  A    between atoms: C12_11  and  C14_12 
REMARK    8  A    between atoms: N25_23  and  C26_24 
REMARK    9  A    between atoms: C29_26  and  O31_27 
REMARK   10  A    between atoms: O31_27  and  C32_28 
REMARK   11  A    between atoms: C32_28  and  C33_29 
REMARK   12  A    between atoms: C33_29  and  O34_30 
REMARK   13  A    between atoms: C35_31  and  O37_32 
REMARK   14  A    between atoms: C38_33  and  O40_34 
ROOT
ATOM      1  C5  TIQ d   1       6.956  -8.116 -70.129  0.00  0.00     0.192 A 
ATOM      2  N6  TIQ d   1       6.583  -6.871 -69.805  0.00  0.00    -0.203 NA
ATOM      3  C7  TIQ d   1       7.079  -5.819 -70.474  0.00  0.00     0.161 A 
ATOM      4  C22 TIQ d   1       7.949  -6.089 -71.518  0.00  0.00     0.167 A 
ATOM      5  N23 TIQ d   1       8.617  -5.278 -72.401  0.00  0.00    -0.152 NA
ATOM      6  N24 TIQ d   1       9.340  -6.056 -73.201  0.00  0.00     0.007 NA
ATOM      7  N25 TIQ d   1       9.116  -7.330 -72.839  0.00  0.00    -0.247 N 
ATOM      8  C41 TIQ d   1       8.248  -7.405 -71.782  0.00  0.00     0.180 A 
ATOM      9  N42 TIQ d   1       7.789  -8.474 -71.121  0.00  0.00    -0.201 NA
ENDROOT
BRANCH   7  10
ATOM     10  C26 TIQ d   1       9.867  -8.387 -73.497  0.00  0.00     0.062 C 
ATOM     11  C28 TIQ d   1       9.050  -9.398 -74.259  0.00  0.00    -0.015 C 
ATOM     12  C29 TIQ d   1       9.945 -10.616 -74.334  0.00  0.00     0.067 C 
ATOM     13  H17 TIQ d   1       8.811  -9.027 -75.266  0.00  0.00     0.040 H 
ATOM     14  H18 TIQ d   1       8.118  -9.631 -73.723  0.00  0.00     0.040 H 
ATOM     15  C35 TIQ d   1      11.067 -10.445 -73.313  0.00  0.00     0.087 C 
ATOM     16  H19 TIQ d   1      10.378 -10.707 -75.341  0.00  0.00     0.087 H 
ATOM     17  C38 TIQ d   1      10.733  -9.181 -72.552  0.00  0.00     0.084 C 
ATOM     18  H25 TIQ d   1      11.133 -11.313 -72.640  0.00  0.00     0.091 H 
ATOM     19  H27 TIQ d   1      10.169  -9.431 -71.641  0.00  0.00     0.090 H 
ATOM     20  H16 TIQ d   1      10.527  -7.885 -74.220  0.00  0.00     0.079 H 
BRANCH  12  21
ATOM     21  O31 TIQ d   1       9.147 -11.767 -74.055  0.00  0.00    -0.381 OA
BRANCH  21  22
ATOM     22  C32 TIQ d   1       9.603 -12.831 -74.886  0.00  0.00     0.040 C 
ATOM     23  H20 TIQ d   1      10.036 -13.621 -74.255  0.00  0.00     0.077 H 
ATOM     24  H21 TIQ d   1      10.372 -12.448 -75.573  0.00  0.00     0.077 H 
BRANCH  22  25
ATOM     25  C33 TIQ d   1       8.463 -13.409 -75.691  0.00  0.00     0.036 C 
ATOM     26  H22 TIQ d   1       8.049 -12.642 -76.362  0.00  0.00     0.077 H 
ATOM     27  H23 TIQ d   1       7.673 -13.773 -75.018  0.00  0.00     0.077 H 
BRANCH  25  28
ATOM     28  O34 TIQ d   1       8.990 -14.489 -76.452  0.00  0.00    -0.399 OA
ATOM     29  H24 TIQ d   1       8.296 -14.877 -76.972  0.00  0.00     0.209 HD
ENDBRANCH  25  28
ENDBRANCH  22  25
ENDBRANCH  21  22
ENDBRANCH  12  21
BRANCH  15  30
ATOM     30  O37 TIQ d   1      12.301 -10.250 -74.013  0.00  0.00    -0.390 OA
ATOM     31  H26 TIQ d   1      13.006 -10.143 -73.385  0.00  0.00     0.210 HD
ENDBRANCH  15  30
BRANCH  17  32
ATOM     32  O40 TIQ d   1      11.894  -8.450 -72.180  0.00  0.00    -0.391 OA
ATOM     33  H28 TIQ d   1      12.376  -8.204 -72.961  0.00  0.00     0.210 HD
ENDBRANCH  17  32
ENDBRANCH   7  10
BRANCH   3  34
ATOM     34  N8  TIQ d   1       6.723  -4.497 -70.182  0.00  0.00    -0.367 N 
ATOM     35  H8  TIQ d   1       6.691  -3.780 -70.921  0.00  0.00     0.161 HD
BRANCH  34  36
ATOM     36  C9  TIQ d   1       6.397  -4.164 -68.792  0.00  0.00     0.019 A 
ATOM     37  C11 TIQ d   1       5.000  -3.834 -68.358  0.00  0.00    -0.037 A 
ATOM     38  C12 TIQ d   1       6.017  -2.753 -68.476  0.00  0.00    -0.007 A 
ATOM     39  H10 TIQ d   1       4.644  -4.148 -67.366  0.00  0.00     0.037 H 
ATOM     40  H11 TIQ d   1       4.172  -3.891 -69.080  0.00  0.00     0.037 H 
ATOM     41  H12 TIQ d   1       5.949  -2.018 -69.291  0.00  0.00     0.050 H 
ATOM     42  H9  TIQ d   1       7.052  -4.733 -68.116  0.00  0.00     0.073 H 
BRANCH  38  43
ATOM     43  C14 TIQ d   1       6.495  -2.078 -67.250  0.00  0.00    -0.049 A 
ATOM     44  C15 TIQ d   1       6.666  -0.712 -67.319  0.00  0.00    -0.073 A 
ATOM     45  C16 TIQ d   1       7.082   0.056 -66.251  0.00  0.00    -0.042 A 
ATOM     46  H13 TIQ d   1       6.463  -0.215 -68.261  0.00  0.00     0.084 H 
ATOM     47  C17 TIQ d   1       7.338  -0.571 -65.057  0.00  0.00     0.154 A 
ATOM     48  H14 TIQ d   1       7.204   1.128 -66.352  0.00  0.00     0.088 H 
ATOM     49  F18 TIQ d   1       7.780   0.154 -64.002  0.00  0.00    -0.203 F 
ATOM     50  C19 TIQ d   1       7.162  -1.935 -64.959  0.00  0.00     0.155 A 
ATOM     51  F20 TIQ d   1       7.431  -2.542 -63.805  0.00  0.00    -0.203 F 
ATOM     52  C21 TIQ d   1       6.738  -2.688 -66.034  0.00  0.00    -0.036 A 
ATOM     53  H15 TIQ d   1       6.596  -3.757 -65.925  0.00  0.00     0.089 H 
ENDBRANCH  38  43
ENDBRANCH  34  36
ENDBRANCH   3  34
BRANCH   1  54
ATOM     54  S4  TIQ d   1       6.243  -9.369 -69.096  0.00  0.00    -0.090 SA
BRANCH  54  55
ATOM     55  C3  TIQ d   1       6.975 -10.853 -69.831  0.00  0.00    -0.016 C 
ATOM     56  H6  TIQ d   1       6.301 -11.706 -69.665  0.00  0.00     0.049 H 
ATOM     57  H7  TIQ d   1       7.104 -10.692 -70.911  0.00  0.00     0.049 H 
BRANCH  55  58
ATOM     58  C2  TIQ d   1       8.317 -11.159 -69.214  0.00  0.00    -0.060 C 
ATOM     59  H4  TIQ d   1       8.942 -10.254 -69.199  0.00  0.00     0.033 H 
ATOM     60  H5  TIQ d   1       8.186 -11.531 -68.187  0.00  0.00     0.033 H 
BRANCH  58  61
ATOM     61  C1  TIQ d   1       8.958 -12.219 -70.073  0.00  0.00    -0.076 C 
ATOM     62  H1  TIQ d   1       9.945 -12.477 -69.661  0.00  0.00     0.027 H 
ATOM     63  H2  TIQ d   1       9.077 -11.838 -71.098  0.00  0.00     0.027 H 
ATOM     64  H3  TIQ d   1       8.320 -13.115 -70.086  0.00  0.00     0.027 H 
ENDBRANCH  58  61
ENDBRANCH  55  58
ENDBRANCH  54  55
ENDBRANCH   1  54
TORSDOF 14
