REMARK  1 active torsions:
REMARK  status: ('A' for Active; 'I' for Inactive)
REMARK    1  A    between atoms: C6_6  and  C7_7 
ROOT
ATOM      1  C7  FCW d   1     -18.463  -8.984  11.769  0.00  0.00    -0.029 C 
ATOM      2  C8  FCW d   1     -19.194 -10.184  12.355  0.00  0.00    -0.058 C 
ATOM      3  C9  FCW d   1     -20.676  -9.858  12.452  0.00  0.00    -0.064 C 
ATOM      4  C10 FCW d   1     -20.960  -8.523  13.147  0.00  0.00    -0.065 C 
ATOM      5  C11 FCW d   1     -20.134  -7.350  12.620  0.00  0.00    -0.064 C 
ATOM      6  C12 FCW d   1     -18.661  -7.712  12.597  0.00  0.00    -0.058 C 
ATOM      7  H4  FCW d   1     -18.996  -8.782  10.828  0.00  0.00     0.047 H 
ATOM      8  H5  FCW d   1     -18.798 -10.404  13.357  0.00  0.00     0.034 H 
ATOM      9  H6  FCW d   1     -19.050 -11.059  11.703  0.00  0.00     0.034 H 
ATOM     10  H7  FCW d   1     -21.173 -10.659  13.019  0.00  0.00     0.033 H 
ATOM     11  H8  FCW d   1     -21.091  -9.817  11.434  0.00  0.00     0.033 H 
ATOM     12  H9  FCW d   1     -20.746  -8.641  14.219  0.00  0.00     0.033 H 
ATOM     13  H10 FCW d   1     -22.025  -8.283  13.010  0.00  0.00     0.033 H 
ATOM     14  H11 FCW d   1     -20.283  -6.478  13.274  0.00  0.00     0.033 H 
ATOM     15  H12 FCW d   1     -20.463  -7.104  11.600  0.00  0.00     0.033 H 
ATOM     16  H13 FCW d   1     -18.088  -6.888  12.147  0.00  0.00     0.034 H 
ATOM     17  H14 FCW d   1     -18.309  -7.885  13.625  0.00  0.00     0.034 H 
ENDROOT
BRANCH   1  18
ATOM     18  C6  FCW d   1     -17.047  -9.222  11.330  0.00  0.00    -0.053 A 
ATOM     19  C1  FCW d   1     -16.033  -9.581  12.204  0.00  0.00    -0.074 A 
ATOM     20  C2  FCW d   1     -14.737  -9.785  11.760  0.00  0.00    -0.056 A 
ATOM     21  H1  FCW d   1     -16.259  -9.705  13.257  0.00  0.00     0.084 H 
ATOM     22  C3  FCW d   1     -14.495  -9.597  10.418  0.00  0.00     0.041 A 
ATOM     23  H2  FCW d   1     -13.947 -10.080  12.441  0.00  0.00     0.087 H 
ATOM     24  C4  FCW d   1     -15.477  -9.245   9.546  0.00  0.00    -0.022 A 
ATOM     25  N16 FCW d   1     -13.299  -9.720   9.727  0.00  0.00    -0.326 N 
ATOM     26  C5  FCW d   1     -16.762  -9.062   9.988  0.00  0.00    -0.068 A 
ATOM     27  C13 FCW d   1     -14.991  -9.111   8.164  0.00  0.00     0.035 A 
ATOM     28  H3  FCW d   1     -17.547  -8.794   9.290  0.00  0.00     0.085 H 
ATOM     29  C14 FCW d   1     -13.505  -9.392   8.376  0.00  0.00     0.226 A 
ATOM     30  H15 FCW d   1     -15.162  -8.099   7.767  0.00  0.00     0.054 H 
ATOM     31  H16 FCW d   1     -15.455  -9.851   7.495  0.00  0.00     0.054 H 
ATOM     32  O15 FCW d   1     -12.664  -9.340   7.467  0.00  0.00    -0.273 OA
ATOM     33  H17 FCW d   1     -12.426  -9.999  10.127  0.00  0.00     0.169 HD
ENDBRANCH   1  18
TORSDOF 1
