REMARK  2 active torsions:
REMARK  status: ('A' for Active; 'I' for Inactive)
REMARK    1  A    between atoms: C3_3  and  O13_13 
REMARK    2  A    between atoms: C4_4  and  C8_8 
ROOT
ATOM      1  C1  ONR d   1      18.912   9.700  13.654  0.00  0.00    -0.059 A 
ATOM      2  C2  ONR d   1      17.609  10.141  13.543  0.00  0.00    -0.049 A 
ATOM      3  C3  ONR d   1      17.018  10.186  12.297  0.00  0.00     0.078 A 
ATOM      4  C4  ONR d   1      17.681   9.799  11.150  0.00  0.00     0.035 A 
ATOM      5  C5  ONR d   1      18.981   9.348  11.278  0.00  0.00    -0.047 A 
ATOM      6  C6  ONR d   1      19.588   9.318  12.515  0.00  0.00     0.035 A 
ATOM      7 CL7  ONR d   1      21.203   8.762  12.635  0.00  0.00    -0.084 Cl
ATOM      8  H1  ONR d   1      19.397   9.655  14.623  0.00  0.00     0.086 H 
ATOM      9  H2  ONR d   1      17.057  10.448  14.424  0.00  0.00     0.087 H 
ATOM     10  H3  ONR d   1      19.526   9.016  10.402  0.00  0.00     0.087 H 
ENDROOT
BRANCH   4  11
ATOM     11  C8  ONR d   1      17.042   9.794   9.850  0.00  0.00     0.115 A 
ATOM     12  C9  ONR d   1      15.742   9.883   9.412  0.00  0.00    -0.028 A 
ATOM     13  C10 ONR d   1      15.830   9.712   8.009  0.00  0.00     0.032 A 
ATOM     14  H4  ONR d   1      14.846  10.048  10.009  0.00  0.00     0.090 H 
ATOM     15  N11 ONR d   1      17.094   9.505   7.617  0.00  0.00    -0.140 NA
ATOM     16  H5  ONR d   1      14.977   9.745   7.333  0.00  0.00     0.118 H 
ATOM     17  O12 ONR d   1      17.857   9.562   8.782  0.00  0.00    -0.213 OA
ENDBRANCH   4  11
BRANCH   3  18
ATOM     18  O13 ONR d   1      15.723  10.621  12.213  0.00  0.00    -0.360 OA
ATOM     19  H6  ONR d   1      15.410  10.849  13.081  0.00  0.00     0.217 HD
ENDBRANCH   3  18
TORSDOF 2
