REMARK  9 active torsions:
REMARK  status: ('A' for Active; 'I' for Inactive)
REMARK    1  A    between atoms: C1_1  and  C2_2 
REMARK    2  A    between atoms: C2_2  and  C3_3 
REMARK    3  A    between atoms: C3_3  and  N4_4 
REMARK    4  A    between atoms: N4_4  and  C5_5 
REMARK    5  A    between atoms: N4_4  and  S8_8 
REMARK    6  A    between atoms: C5_5  and  C6_6 
REMARK    7  A    between atoms: C6_6  and  C7_7 
REMARK    8  A    between atoms: S8_8  and  C11_11 
REMARK    9  A    between atoms: C18_18  and  C21_20 
ROOT
ATOM      1  C11 OE1 d   1      13.809  10.598  20.046  0.00  0.00     0.082 A 
ATOM      2  C12 OE1 d   1      13.911  11.971  19.899  0.00  0.00    -0.058 A 
ATOM      3  C13 OE1 d   1      14.572  12.542  18.827  0.00  0.00    -0.053 A 
ATOM      4  C14 OE1 d   1      15.113  11.630  17.941  0.00  0.00     0.062 A 
ATOM      5  C15 OE1 d   1      15.021  10.258  18.059  0.00  0.00     0.087 A 
ATOM      6  C16 OE1 d   1      14.355   9.706  19.142  0.00  0.00    -0.030 A 
ATOM      7  N17 OE1 d   1      15.674   9.647  17.015  0.00  0.00    -0.228 NA
ATOM      8  C18 OE1 d   1      16.153  10.602  16.247  0.00  0.00     0.139 A 
ATOM      9  N19 OE1 d   1      15.826  11.810  16.791  0.00  0.00    -0.338 N 
ATOM     10  H15 OE1 d   1      13.460  12.616  20.645  0.00  0.00     0.086 H 
ATOM     11  H16 OE1 d   1      14.658  13.614  18.693  0.00  0.00     0.087 H 
ATOM     12  H17 OE1 d   1      14.267   8.633  19.273  0.00  0.00     0.089 H 
ATOM     13  H18 OE1 d   1      16.080  12.725  16.392  0.00  0.00     0.167 HD
ENDROOT
BRANCH   1  14
ATOM     14  S8  OE1 d   1      12.944   9.930  21.464  0.00  0.00     0.260 S 
ATOM     15  O9  OE1 d   1      12.873  10.982  22.462  0.00  0.00    -0.200 OA
ATOM     16  O10 OE1 d   1      13.613   8.694  21.816  0.00  0.00    -0.200 OA
BRANCH  14  17
ATOM     17  N4  OE1 d   1      11.382   9.574  20.835  0.00  0.00    -0.307 N 
BRANCH  17  18
ATOM     18  C3  OE1 d   1      11.128   8.147  20.494  0.00  0.00     0.005 C 
ATOM     19  H6  OE1 d   1      10.668   8.103  19.496  0.00  0.00     0.065 H 
ATOM     20  H7  OE1 d   1      12.091   7.615  20.478  0.00  0.00     0.065 H 
BRANCH  18  21
ATOM     21  C2  OE1 d   1      10.210   7.450  21.478  0.00  0.00    -0.053 C 
ATOM     22  H4  OE1 d   1      10.102   8.077  22.375  0.00  0.00     0.034 H 
ATOM     23  H5  OE1 d   1       9.225   7.306  21.010  0.00  0.00     0.034 H 
BRANCH  21  24
ATOM     24  C1  OE1 d   1      10.766   6.109  21.879  0.00  0.00    -0.075 C 
ATOM     25  H1  OE1 d   1      10.081   5.627  22.592  0.00  0.00     0.027 H 
ATOM     26  H2  OE1 d   1      11.750   6.246  22.351  0.00  0.00     0.027 H 
ATOM     27  H3  OE1 d   1      10.873   5.475  20.987  0.00  0.00     0.027 H 
ENDBRANCH  21  24
ENDBRANCH  18  21
ENDBRANCH  17  18
BRANCH  17  28
ATOM     28  C5  OE1 d   1      10.250  10.252  21.514  0.00  0.00     0.005 C 
ATOM     29  H8  OE1 d   1      10.642  10.895  22.316  0.00  0.00     0.065 H 
ATOM     30  H9  OE1 d   1       9.581   9.493  21.947  0.00  0.00     0.065 H 
BRANCH  28  31
ATOM     31  C6  OE1 d   1       9.476  11.095  20.537  0.00  0.00    -0.053 C 
ATOM     32  H10 OE1 d   1       9.020  10.455  19.767  0.00  0.00     0.034 H 
ATOM     33  H11 OE1 d   1      10.146  11.825  20.058  0.00  0.00     0.034 H 
BRANCH  31  34
ATOM     34  C7  OE1 d   1       8.401  11.814  21.310  0.00  0.00    -0.075 C 
ATOM     35  H12 OE1 d   1       7.814  12.442  20.624  0.00  0.00     0.027 H 
ATOM     36  H13 OE1 d   1       8.865  12.447  22.081  0.00  0.00     0.027 H 
ATOM     37  H14 OE1 d   1       7.740  11.078  21.790  0.00  0.00     0.027 H 
ENDBRANCH  31  34
ENDBRANCH  28  31
ENDBRANCH  17  28
ENDBRANCH  14  17
ENDBRANCH   1  14
BRANCH   8  38
ATOM     38  C21 OE1 d   1      16.960  10.451  15.047  0.00  0.00     0.010 A 
ATOM     39  C22 OE1 d   1      17.492  11.544  14.384  0.00  0.00    -0.069 A 
ATOM     40  C23 OE1 d   1      18.306  11.392  13.280  0.00  0.00    -0.082 A 
ATOM     41  H19 OE1 d   1      17.264  12.542  14.740  0.00  0.00     0.085 H 
ATOM     42  C24 OE1 d   1      18.597  10.129  12.815  0.00  0.00    -0.083 A 
ATOM     43  H20 OE1 d   1      18.715  12.263  12.781  0.00  0.00     0.083 H 
ATOM     44  C25 OE1 d   1      18.069   9.028  13.456  0.00  0.00    -0.082 A 
ATOM     45  H21 OE1 d   1      19.238  10.001  11.950  0.00  0.00     0.083 H 
ATOM     46  C26 OE1 d   1      17.267   9.191  14.568  0.00  0.00    -0.069 A 
ATOM     47  H22 OE1 d   1      18.284   8.032  13.086  0.00  0.00     0.083 H 
ATOM     48  H23 OE1 d   1      16.872   8.317  15.073  0.00  0.00     0.085 H 
ENDBRANCH   8  38
TORSDOF 9
