REMARK  5 active torsions:
REMARK  status: ('A' for Active; 'I' for Inactive)
REMARK    1  A    between atoms: C20_20  and  C12_12 
REMARK    2  A    between atoms: C24_24  and  C13_13 
REMARK       I    between atoms: N27_27  and  C20_20 
REMARK    3  A    between atoms: C25_25  and  C23_23 
REMARK    4  A    between atoms: N26_26  and  C24_24 
REMARK    5  A    between atoms: C25_25  and  N27_27 
ROOT
ATOM      1  C4  R4N d   1     -14.192 -11.045  14.649  0.00  0.00    -0.066 A 
ATOM      2  C8  R4N d   1     -13.887 -10.869  13.315  0.00  0.00    -0.064 A 
ATOM      3  C10 R4N d   1     -16.294  -9.955  14.282  0.00  0.00    -0.040 A 
ATOM      4  C12 R4N d   1     -15.406 -10.592  15.127  0.00  0.00     0.034 A 
ATOM      5  C14 R4N d   1     -15.974  -9.770  12.944  0.00  0.00     0.055 A 
ATOM      6  C17 R4N d   1     -14.761 -10.225  12.457  0.00  0.00     0.028 A 
ATOM      7  C19 R4N d   1     -16.988  -9.298  10.701  0.00  0.00     0.234 C 
ATOM      8  C21 R4N d   1     -15.953 -10.138  10.017  0.00  0.00     0.056 C 
ATOM      9  N26 R4N d   1     -16.868  -9.080  12.085  0.00  0.00    -0.312 N 
ATOM     10  O28 R4N d   1     -17.897  -8.879  10.001  0.00  0.00    -0.272 OA
ATOM     11  S32 R4N d   1     -14.312  -9.978  10.755  0.00  0.00    -0.118 SA
ATOM     12  H4  R4N d   1     -13.488 -11.533  15.313  0.00  0.00     0.085 H 
ATOM     13  H8  R4N d   1     -12.944 -11.242  12.932  0.00  0.00     0.085 H 
ATOM     14  H10 R4N d   1     -17.243  -9.599  14.665  0.00  0.00     0.088 H 
ATOM     15  H12 R4N d   1     -15.894  -9.832   8.962  0.00  0.00     0.063 H 
ATOM     16  H13 R4N d   1     -16.262 -11.192  10.076  0.00  0.00     0.063 H 
ENDROOT
BRANCH   4  17
ATOM     17  C20 R4N d   1     -15.755 -10.752  16.547  0.00  0.00     0.251 C 
ATOM     18  N27 R4N d   1     -15.131 -11.798  17.184  0.00  0.00    -0.354 N 
ATOM     19  H21 R4N d   1     -14.319 -12.206  16.766  0.00  0.00     0.162 HD
ATOM     20  O29 R4N d   1     -16.494  -9.931  17.063  0.00  0.00    -0.268 OA
BRANCH  18  21
ATOM     21  C25 R4N d   1     -15.610 -12.323  18.433  0.00  0.00     0.022 C 
ATOM     22  H19 R4N d   1     -16.509 -11.761  18.727  0.00  0.00     0.068 H 
ATOM     23  H20 R4N d   1     -15.870 -13.382  18.291  0.00  0.00     0.068 H 
BRANCH  21  24
ATOM     24  C23 R4N d   1     -14.599 -12.224  19.542  0.00  0.00     0.081 C 
ATOM     25  C22 R4N d   1     -13.602 -13.364  19.515  0.00  0.00     0.052 C 
ATOM     26  O30 R4N d   1     -12.694 -13.165  20.594  0.00  0.00    -0.346 OA
ATOM     27  H14 R4N d   1     -13.056 -13.363  18.560  0.00  0.00     0.079 H 
ATOM     28  H15 R4N d   1     -14.126 -14.324  19.637  0.00  0.00     0.079 H 
ATOM     29  C15 R4N d   1     -11.988 -12.025  20.239  0.00  0.00     0.102 A 
ATOM     30  C6  R4N d   1     -10.615 -12.004  20.390  0.00  0.00    -0.048 A 
ATOM     31  C16 R4N d   1     -12.656 -10.918  19.732  0.00  0.00     0.102 A 
ATOM     32  C1  R4N d   1      -9.920 -10.865  20.028  0.00  0.00    -0.080 A 
ATOM     33  H6  R4N d   1     -10.091 -12.867  20.786  0.00  0.00     0.087 H 
ATOM     34  C2  R4N d   1     -10.590  -9.764  19.524  0.00  0.00    -0.080 A 
ATOM     35  H1  R4N d   1      -8.842 -10.834  20.140  0.00  0.00     0.083 H 
ATOM     36  C7  R4N d   1     -11.963  -9.779  19.374  0.00  0.00    -0.048 A 
ATOM     37  H2  R4N d   1     -10.030  -8.879  19.244  0.00  0.00     0.083 H 
ATOM     38  H7  R4N d   1     -12.486  -8.914  18.983  0.00  0.00     0.087 H 
ATOM     39  O31 R4N d   1     -14.033 -10.906  19.562  0.00  0.00    -0.339 OA
ATOM     40  H16 R4N d   1     -15.151 -12.335  20.487  0.00  0.00     0.089 H 
ENDBRANCH  21  24
ENDBRANCH  18  21
ENDBRANCH   4  17
BRANCH   9  41
ATOM     41  C24 R4N d   1     -17.671  -8.060  12.741  0.00  0.00     0.027 C 
ATOM     42  H17 R4N d   1     -17.263  -7.883  13.747  0.00  0.00     0.072 H 
ATOM     43  H18 R4N d   1     -17.612  -7.133  12.153  0.00  0.00     0.072 H 
BRANCH  41  44
ATOM     44  C13 R4N d   1     -19.101  -8.454  12.869  0.00  0.00    -0.038 A 
ATOM     45  C5  R4N d   1     -19.458  -9.789  12.909  0.00  0.00    -0.075 A 
ATOM     46  C3  R4N d   1     -20.776 -10.168  13.012  0.00  0.00    -0.081 A 
ATOM     47  H5  R4N d   1     -18.687 -10.549  12.858  0.00  0.00     0.084 H 
ATOM     48  C9  R4N d   1     -21.745  -9.194  13.085  0.00  0.00    -0.062 A 
ATOM     49  H3  R4N d   1     -21.047 -11.217  13.035  0.00  0.00     0.083 H 
ATOM     50  C18 R4N d   1     -21.390  -7.863  13.047  0.00  0.00     0.034 A 
ATOM     51  H9  R4N d   1     -22.789  -9.474  13.172  0.00  0.00     0.086 H 
ATOM     52  C11 R4N d   1     -20.069  -7.478  12.938  0.00  0.00    -0.054 A 
ATOM     53 CL33 R4N d   1     -22.648  -6.697  13.130  0.00  0.00    -0.084 Cl
ATOM     54  H11 R4N d   1     -19.799  -6.428  12.907  0.00  0.00     0.086 H 
ENDBRANCH  41  44
ENDBRANCH   9  41
TORSDOF 5
