REMARK  11 active torsions:
REMARK  status: ('A' for Active; 'I' for Inactive)
REMARK    1  A    between atoms: C15_24  and  C32_13 
REMARK    2  A    between atoms: C2_14  and  C1_25 
REMARK    3  A    between atoms: C8_28  and  C5_15 
REMARK    4  A    between atoms: C25_16  and  C31_26 
REMARK    5  A    between atoms: C28_17  and  O29_36 
REMARK    6  A    between atoms: S20_37  and  C23_18 
REMARK       I    between atoms: N12_30  and  C10_19 
REMARK       I    between atoms: C10_19  and  N9_31 
REMARK    7  A    between atoms: C18_29  and  C15_24 
REMARK    8  A    between atoms: O29_36  and  C30_27 
REMARK    9  A    between atoms: N9_31  and  C8_28 
REMARK   10  A    between atoms: N19_32  and  C18_29 
REMARK   11  A    between atoms: N19_32  and  S20_37 
ROOT
ATOM      1  C10 4UA d   1      16.681  10.761  16.534  0.00  0.00     0.318 C 
ATOM      2  C14 4UA d   1      14.294  12.636  18.821  0.00  0.00    -0.037 C 
ATOM      3  C16 4UA d   1      14.392  10.135  19.076  0.00  0.00    -0.037 C 
ATOM      4  C13 4UA d   1      15.558  12.404  18.002  0.00  0.00     0.000 C 
ATOM      5  C17 4UA d   1      14.596  10.165  17.575  0.00  0.00     0.000 C 
ATOM      6  C15 4UA d   1      13.806  11.433  19.630  0.00  0.00     0.006 C 
ATOM      7  N12 4UA d   1      15.554  11.186  17.217  0.00  0.00    -0.334 N 
ATOM      8  N9  4UA d   1      17.131  11.624  15.575  0.00  0.00    -0.339 N 
ATOM      9  O11 4UA d   1      17.217   9.683  16.738  0.00  0.00    -0.247 OA
ATOM     10  H13 4UA d   1      13.490  12.928  18.129  0.00  0.00     0.037 H 
ATOM     11  H14 4UA d   1      14.491  13.460  19.523  0.00  0.00     0.037 H 
ATOM     12  H15 4UA d   1      15.365   9.957  19.558  0.00  0.00     0.037 H 
ATOM     13  H16 4UA d   1      13.706   9.310  19.319  0.00  0.00     0.037 H 
ATOM     14  H17 4UA d   1      16.412  12.363  18.694  0.00  0.00     0.064 H 
ATOM     15  H18 4UA d   1      15.682  13.254  17.315  0.00  0.00     0.064 H 
ATOM     16  H19 4UA d   1      13.636  10.380  17.083  0.00  0.00     0.064 H 
ATOM     17  H20 4UA d   1      14.968   9.185  17.240  0.00  0.00     0.064 H 
ATOM     18  H34 4UA d   1      16.682  12.511  15.468  0.00  0.00     0.164 HD
ENDROOT
BRANCH   6  19
ATOM     19  C32 4UA d   1      12.290  11.372  19.650  0.00  0.00    -0.048 A 
ATOM     20  C33 4UA d   1      11.532  12.445  20.093  0.00  0.00    -0.076 A 
ATOM     21  C34 4UA d   1      10.153  12.400  20.116  0.00  0.00    -0.082 A 
ATOM     22  H4  4UA d   1      12.036  13.343  20.430  0.00  0.00     0.084 H 
ATOM     23  C35 4UA d   1       9.496  11.263  19.701  0.00  0.00    -0.083 A 
ATOM     24  H2  4UA d   1       9.588  13.258  20.460  0.00  0.00     0.083 H 
ATOM     25  C36 4UA d   1      10.228  10.179  19.266  0.00  0.00    -0.082 A 
ATOM     26  H1  4UA d   1       8.413  11.221  19.716  0.00  0.00     0.083 H 
ATOM     27  C37 4UA d   1      11.605  10.237  19.246  0.00  0.00    -0.076 A 
ATOM     28  H3  4UA d   1       9.720   9.279  18.939  0.00  0.00     0.083 H 
ATOM     29  H5  4UA d   1      12.166   9.374  18.906  0.00  0.00     0.084 H 
ENDBRANCH   6  19
BRANCH   6  30
ATOM     30  C18 4UA d   1      14.256  11.610  21.073  0.00  0.00     0.014 C 
ATOM     31  H32 4UA d   1      13.478  12.149  21.634  0.00  0.00     0.066 H 
ATOM     32  H33 4UA d   1      15.191  12.188  21.095  0.00  0.00     0.066 H 
BRANCH  30  33
ATOM     33  N19 4UA d   1      14.482  10.288  21.694  0.00  0.00    -0.314 N 
ATOM     34  H35 4UA d   1      15.036   9.606  21.216  0.00  0.00     0.172 HD
BRANCH  33  35
ATOM     35  S20 4UA d   1      13.805   9.908  23.225  0.00  0.00     0.261 S 
ATOM     36  O21 4UA d   1      13.375  11.080  23.950  0.00  0.00    -0.200 OA
ATOM     37  O22 4UA d   1      14.692   8.950  23.850  0.00  0.00    -0.200 OA
BRANCH  35  38
ATOM     38  C23 4UA d   1      12.353   8.971  22.777  0.00  0.00     0.113 A 
ATOM     39  C24 4UA d   1      12.644   7.837  22.060  0.00  0.00    -0.052 A 
ATOM     40  C25 4UA d   1      11.614   7.022  21.665  0.00  0.00    -0.060 A 
ATOM     41  H12 4UA d   1      13.670   7.590  21.811  0.00  0.00     0.086 H 
ATOM     42  C26 4UA d   1      10.301   7.305  21.969  0.00  0.00    -0.074 A 
ATOM     43  C27 4UA d   1      10.012   8.440  22.692  0.00  0.00    -0.049 A 
ATOM     44  H10 4UA d   1       9.506   6.643  21.643  0.00  0.00     0.084 H 
ATOM     45  C28 4UA d   1      11.034   9.283  23.096  0.00  0.00     0.091 A 
ATOM     46  H11 4UA d   1       8.984   8.674  22.945  0.00  0.00     0.087 H 
BRANCH  40  47
ATOM     47  C31 4UA d   1      11.964   5.820  20.907  0.00  0.00    -0.051 C 
ATOM     48  H24 4UA d   1      11.048   5.264  20.658  0.00  0.00     0.033 H 
ATOM     49  H25 4UA d   1      12.625   5.184  21.513  0.00  0.00     0.033 H 
ATOM     50  H26 4UA d   1      12.482   6.109  19.980  0.00  0.00     0.033 H 
ENDBRANCH  40  47
BRANCH  45  51
ATOM     51  O29 4UA d   1      10.715  10.414  23.839  0.00  0.00    -0.354 OA
BRANCH  51  52
ATOM     52  C30 4UA d   1       9.482  10.947  23.360  0.00  0.00     0.010 C 
ATOM     53  H27 4UA d   1       9.220  11.843  23.941  0.00  0.00     0.066 H 
ATOM     54  H28 4UA d   1       8.689  10.193  23.471  0.00  0.00     0.066 H 
ATOM     55  H29 4UA d   1       9.586  11.216  22.299  0.00  0.00     0.066 H 
ENDBRANCH  51  52
ENDBRANCH  45  51
ENDBRANCH  35  38
ENDBRANCH  33  35
ENDBRANCH  30  33
ENDBRANCH   6  30
BRANCH   8  56
ATOM     56  C8  4UA d   1      18.240  11.286  14.711  0.00  0.00     0.021 C 
ATOM     57  H30 4UA d   1      18.915  12.153  14.661  0.00  0.00     0.071 H 
ATOM     58  H31 4UA d   1      18.773  10.431  15.152  0.00  0.00     0.071 H 
BRANCH  56  59
ATOM     59  C5  4UA d   1      17.842  10.923  13.325  0.00  0.00    -0.040 A 
ATOM     60  C4  4UA d   1      18.826  10.686  12.384  0.00  0.00    -0.075 A 
ATOM     61  C3  4UA d   1      18.476  10.353  11.088  0.00  0.00    -0.077 A 
ATOM     62  H8  4UA d   1      19.871  10.761  12.661  0.00  0.00     0.084 H 
ATOM     63  C2  4UA d   1      17.148  10.260  10.722  0.00  0.00    -0.062 A 
ATOM     64  H6  4UA d   1      19.251  10.164  10.354  0.00  0.00     0.084 H 
ATOM     65  C7  4UA d   1      16.165  10.482  11.666  0.00  0.00    -0.077 A 
ATOM     66  C6  4UA d   1      16.513  10.813  12.962  0.00  0.00    -0.075 A 
ATOM     67  H7  4UA d   1      15.120  10.397  11.390  0.00  0.00     0.084 H 
ATOM     68  H9  4UA d   1      15.738  10.988  13.699  0.00  0.00     0.084 H 
BRANCH  63  69
ATOM     69  C1  4UA d   1      16.772   9.907   9.325  0.00  0.00    -0.051 C 
ATOM     70  H21 4UA d   1      17.683   9.769   8.724  0.00  0.00     0.033 H 
ATOM     71  H22 4UA d   1      16.166  10.717   8.893  0.00  0.00     0.033 H 
ATOM     72  H23 4UA d   1      16.189   8.974   9.327  0.00  0.00     0.033 H 
ENDBRANCH  63  69
ENDBRANCH  56  59
ENDBRANCH   8  56
TORSDOF 11
