REMARK  9 active torsions:
REMARK  status: ('A' for Active; 'I' for Inactive)
REMARK    1  A    between atoms: C1_1  and  O2_2 
REMARK    2  A    between atoms: O2_2  and  C3_3 
REMARK    3  A    between atoms: C6_6  and  N9_9 
REMARK       I    between atoms: N9_9  and  C10_10 
REMARK       I    between atoms: C10_10  and  N12_12 
REMARK    4  A    between atoms: N12_12  and  C13_13 
REMARK    5  A    between atoms: C17_17  and  C19_19 
REMARK    6  A    between atoms: C20_20  and  C30_30 
REMARK    7  A    between atoms: N21_21  and  C24_24 
REMARK    8  A    between atoms: C24_24  and  C25_25 
REMARK    9  A    between atoms: C33_33  and  N39_39 
ROOT
ATOM      1  C19 Q3B d   1      12.271  -9.551 -20.017  0.00  0.00     0.098 A 
ATOM      2  C20 Q3B d   1      11.336  -9.448 -21.042  0.00  0.00     0.101 A 
ATOM      3  N21 Q3B d   1      10.816  -8.183 -20.893  0.00  0.00    -0.335 N 
ATOM      4  C22 Q3B d   1      11.449  -7.581 -19.849  0.00  0.00     0.067 A 
ATOM      5  N23 Q3B d   1      12.320  -8.387 -19.295  0.00  0.00    -0.241 NA
ATOM      6  H14 Q3B d   1      11.256  -6.562 -19.518  0.00  0.00     0.143 H 
ENDROOT
BRANCH   1   7
ATOM      7  C17 Q3B d   1      13.181 -10.629 -19.665  0.00  0.00    -0.003 A 
ATOM      8  C16 Q3B d   1      13.504 -11.652 -20.538  0.00  0.00    -0.071 A 
ATOM      9  C15 Q3B d   1      14.366 -12.657 -20.142  0.00  0.00    -0.080 A 
ATOM     10  H12 Q3B d   1      13.080 -11.665 -21.535  0.00  0.00     0.084 H 
ATOM     11  C14 Q3B d   1      14.930 -12.639 -18.881  0.00  0.00    -0.057 A 
ATOM     12  H11 Q3B d   1      14.601 -13.465 -20.825  0.00  0.00     0.083 H 
ATOM     13  C13 Q3B d   1      14.638 -11.610 -18.007  0.00  0.00     0.037 A 
ATOM     14  H10 Q3B d   1      15.602 -13.433 -18.577  0.00  0.00     0.086 H 
ATOM     15  C18 Q3B d   1      13.757 -10.621 -18.404  0.00  0.00    -0.045 A 
ATOM     16  H13 Q3B d   1      13.511  -9.822 -17.714  0.00  0.00     0.088 H 
BRANCH  13  17
ATOM     17  N12 Q3B d   1      15.190 -11.620 -16.710  0.00  0.00    -0.309 N 
ATOM     18  C10 Q3B d   1      16.102 -10.712 -16.207  0.00  0.00     0.325 C 
ATOM     19  N9  Q3B d   1      16.585 -11.133 -14.982  0.00  0.00    -0.309 N 
ATOM     20  O11 Q3B d   1      16.428  -9.676 -16.766  0.00  0.00    -0.247 OA
ATOM     21  H8  Q3B d   1      16.191 -11.967 -14.597  0.00  0.00     0.170 HD
ATOM     22  H9  Q3B d   1      14.894 -12.352 -16.097  0.00  0.00     0.170 HD
BRANCH  19  23
ATOM     23  C6  Q3B d   1      17.589 -10.484 -14.228  0.00  0.00     0.036 A 
ATOM     24  C5  Q3B d   1      18.601 -11.256 -13.697  0.00  0.00    -0.054 A 
ATOM     25  C4  Q3B d   1      19.602 -10.675 -12.946  0.00  0.00    -0.049 A 
ATOM     26  H5  Q3B d   1      18.610 -12.326 -13.871  0.00  0.00     0.087 H 
ATOM     27  C3  Q3B d   1      19.578  -9.313 -12.724  0.00  0.00     0.068 A 
ATOM     28  H4  Q3B d   1      20.400 -11.283 -12.534  0.00  0.00     0.087 H 
ATOM     29  C8  Q3B d   1      18.556  -8.533 -13.239  0.00  0.00    -0.049 A 
ATOM     30  C7  Q3B d   1      17.557  -9.123 -13.986  0.00  0.00    -0.054 A 
ATOM     31  H7  Q3B d   1      18.541  -7.465 -13.056  0.00  0.00     0.087 H 
ATOM     32  H6  Q3B d   1      16.748  -8.520 -14.383  0.00  0.00     0.087 H 
BRANCH  27  33
ATOM     33  O2  Q3B d   1      20.610  -8.800 -11.950  0.00  0.00    -0.356 OA
BRANCH  33  34
ATOM     34  C1  Q3B d   1      20.558  -7.376 -11.949  0.00  0.00     0.010 C 
ATOM     35  H1  Q3B d   1      21.379  -6.980 -11.334  0.00  0.00     0.066 H 
ATOM     36  H2  Q3B d   1      19.595  -7.045 -11.533  0.00  0.00     0.066 H 
ATOM     37  H3  Q3B d   1      20.660  -7.005 -12.979  0.00  0.00     0.066 H 
ENDBRANCH  33  34
ENDBRANCH  27  33
ENDBRANCH  19  23
ENDBRANCH  13  17
ENDBRANCH   1   7
BRANCH   2  38
ATOM     38  C30 Q3B d   1      10.856 -10.339 -22.046  0.00  0.00     0.130 A 
ATOM     39  N31 Q3B d   1      11.458 -10.523 -23.203  0.00  0.00    -0.232 NA
ATOM     40  C32 Q3B d   1      10.721 -11.367 -23.999  0.00  0.00     0.139 A 
ATOM     41  C33 Q3B d   1      10.994 -11.807 -25.289  0.00  0.00     0.154 A 
ATOM     42  C37 Q3B d   1       9.533 -11.790 -23.429  0.00  0.00     0.133 A 
ATOM     43  N34 Q3B d   1      10.107 -12.615 -25.886  0.00  0.00    -0.222 NA
ATOM     44  C35 Q3B d   1       8.998 -12.948 -25.217  0.00  0.00     0.090 A 
ATOM     45  N36 Q3B d   1       8.624 -12.595 -23.983  0.00  0.00    -0.232 NA
ATOM     46  H24 Q3B d   1       8.307 -13.593 -25.748  0.00  0.00     0.146 H 
ATOM     47  S38 Q3B d   1       9.362 -11.165 -21.842  0.00  0.00    -0.046 SA
BRANCH  41  48
ATOM     48  N39 Q3B d   1      12.167 -11.454 -25.962  0.00  0.00    -0.382 N 
ATOM     49  H25 Q3B d   1      12.336 -11.799 -26.918  0.00  0.00     0.157 HD
ATOM     50  H26 Q3B d   1      12.862 -10.849 -25.502  0.00  0.00     0.157 HD
ENDBRANCH  41  48
ENDBRANCH   2  38
BRANCH   3  51
ATOM     51  C24 Q3B d   1       9.888  -7.419 -21.725  0.00  0.00     0.025 C 
ATOM     52  H15 Q3B d   1      10.336  -7.346 -22.727  0.00  0.00     0.068 H 
ATOM     53  H16 Q3B d   1       9.810  -6.414 -21.285  0.00  0.00     0.068 H 
BRANCH  51  54
ATOM     54  C25 Q3B d   1       8.478  -7.937 -21.904  0.00  0.00     0.054 C 
ATOM     55  C26 Q3B d   1       7.911  -7.385 -23.189  0.00  0.00    -0.037 C 
ATOM     56  C27 Q3B d   1       6.610  -6.735 -22.811  0.00  0.00    -0.043 C 
ATOM     57  H18 Q3B d   1       7.739  -8.196 -23.912  0.00  0.00     0.036 H 
ATOM     58  H19 Q3B d   1       8.598  -6.644 -23.625  0.00  0.00     0.036 H 
ATOM     59  C28 Q3B d   1       6.393  -7.103 -21.366  0.00  0.00     0.020 C 
ATOM     60  H20 Q3B d   1       5.790  -7.120 -23.435  0.00  0.00     0.036 H 
ATOM     61  H21 Q3B d   1       6.676  -5.643 -22.926  0.00  0.00     0.036 H 
ATOM     62  O29 Q3B d   1       7.650  -7.508 -20.830  0.00  0.00    -0.384 OA
ATOM     63  H22 Q3B d   1       5.671  -7.930 -21.294  0.00  0.00     0.074 H 
ATOM     64  H23 Q3B d   1       6.011  -6.233 -20.811  0.00  0.00     0.074 H 
ATOM     65  H17 Q3B d   1       8.493  -9.036 -21.943  0.00  0.00     0.085 H 
ENDBRANCH  51  54
ENDBRANCH   3  51
TORSDOF 9
