REMARK  5 active torsions:
REMARK  status: ('A' for Active; 'I' for Inactive)
REMARK    1  A    between atoms: C1_1  and  C2_2 
REMARK    2  A    between atoms: C5_5  and  N9_9 
REMARK    3  A    between atoms: N9_9  and  C10_10 
REMARK    4  A    between atoms: C12_12  and  C21_21 
REMARK    5  A    between atoms: C19_19  and  O20_20 
ROOT
ATOM      1  C10 T5J d   1      15.456 -11.046 -17.562  0.00  0.00     0.129 A 
ATOM      2  C11 T5J d   1      14.934 -12.109 -18.274  0.00  0.00    -0.032 A 
ATOM      3  C12 T5J d   1      14.336 -11.894 -19.499  0.00  0.00    -0.043 A 
ATOM      4  C13 T5J d   1      14.271 -10.588 -19.997  0.00  0.00     0.032 A 
ATOM      5  C14 T5J d   1      14.817  -9.569 -19.217  0.00  0.00     0.072 A 
ATOM      6  N15 T5J d   1      15.377  -9.791 -18.021  0.00  0.00    -0.231 NA
ATOM      7  C16 T5J d   1      14.793  -8.267 -19.687  0.00  0.00    -0.054 A 
ATOM      8  C17 T5J d   1      14.238  -7.926 -20.899  0.00  0.00    -0.078 A 
ATOM      9  C18 T5J d   1      13.674  -8.919 -21.667  0.00  0.00    -0.050 A 
ATOM     10  C19 T5J d   1      13.702 -10.222 -21.210  0.00  0.00     0.078 A 
ATOM     11  H8  T5J d   1      14.994 -13.113 -17.870  0.00  0.00     0.090 H 
ATOM     12  H9  T5J d   1      15.229  -7.485 -19.076  0.00  0.00     0.087 H 
ATOM     13  H10 T5J d   1      14.245  -6.897 -21.241  0.00  0.00     0.083 H 
ATOM     14  H11 T5J d   1      13.213  -8.681 -22.619  0.00  0.00     0.087 H 
ENDROOT
BRANCH   1  15
ATOM     15  N9  T5J d   1      16.049 -11.324 -16.317  0.00  0.00    -0.341 N 
ATOM     16  H7  T5J d   1      15.852 -12.248 -15.908  0.00  0.00     0.167 HD
BRANCH  15  17
ATOM     17  C5  T5J d   1      16.882 -10.471 -15.575  0.00  0.00     0.036 A 
ATOM     18  C4  T5J d   1      16.770  -9.088 -15.603  0.00  0.00    -0.057 A 
ATOM     19  C3  T5J d   1      17.598  -8.283 -14.845  0.00  0.00    -0.072 A 
ATOM     20  H5  T5J d   1      16.017  -8.630 -16.233  0.00  0.00     0.086 H 
ATOM     21  C2  T5J d   1      18.553  -8.859 -14.030  0.00  0.00    -0.023 A 
ATOM     22  H4  T5J d   1      17.499  -7.205 -14.889  0.00  0.00     0.084 H 
ATOM     23  C7  T5J d   1      18.662 -10.240 -13.992  0.00  0.00     0.124 A 
ATOM     24  C6  T5J d   1      17.832 -11.044 -14.752  0.00  0.00    -0.019 A 
ATOM     25  F8  T5J d   1      19.577 -10.835 -13.200  0.00  0.00    -0.205 F 
ATOM     26  H6  T5J d   1      17.927 -12.123 -14.702  0.00  0.00     0.091 H 
BRANCH  21  27
ATOM     27  C1  T5J d   1      19.442  -7.985 -13.209  0.00  0.00    -0.048 C 
ATOM     28  H1  T5J d   1      19.187  -6.930 -13.389  0.00  0.00     0.033 H 
ATOM     29  H2  T5J d   1      20.491  -8.162 -13.490  0.00  0.00     0.033 H 
ATOM     30  H3  T5J d   1      19.303  -8.219 -12.143  0.00  0.00     0.033 H 
ENDBRANCH  21  27
ENDBRANCH  15  17
ENDBRANCH   1  15
BRANCH   3  31
ATOM     31  C21 T5J d   1      13.793 -13.119 -20.167  0.00  0.00    -0.050 C 
ATOM     32  H13 T5J d   1      13.993 -13.999 -19.538  0.00  0.00     0.033 H 
ATOM     33  H14 T5J d   1      14.279 -13.249 -21.145  0.00  0.00     0.033 H 
ATOM     34  H15 T5J d   1      12.708 -13.009 -20.309  0.00  0.00     0.033 H 
ENDBRANCH   3  31
BRANCH  10  35
ATOM     35  O20 T5J d   1      13.138 -11.152 -22.042  0.00  0.00    -0.360 OA
ATOM     36  H12 T5J d   1      13.205 -12.012 -21.645  0.00  0.00     0.217 HD
ENDBRANCH  10  35
TORSDOF 5
