REMARK  5 active torsions:
REMARK  status: ('A' for Active; 'I' for Inactive)
REMARK    1  A    between atoms: C4_4  and  C7_7 
REMARK    2  A    between atoms: C5_5  and  C8_8 
REMARK    3  A    between atoms: C6_6  and  C9_9 
REMARK    4  A    between atoms: C8_8  and  N10_10 
REMARK    5  A    between atoms: C9_9  and  O11_11 
ROOT
ATOM      1  C1  II6 d   1      19.025   9.545  13.692  0.00  0.00    -0.057 C 
ATOM      2  C2  II6 d   1      18.515   8.810  11.336  0.00  0.00    -0.057 C 
ATOM      3  C3  II6 d   1      17.095  10.546  12.453  0.00  0.00    -0.055 C 
ATOM      4  C4  II6 d   1      19.596   9.016  12.384  0.00  0.00    -0.057 C 
ATOM      5  C5  II6 d   1      18.226  10.802  13.430  0.00  0.00    -0.030 C 
ATOM      6  C6  II6 d   1      17.695  10.080  11.141  0.00  0.00    -0.033 C 
ATOM      7  H1  II6 d   1      19.849   9.773  14.384  0.00  0.00     0.034 H 
ATOM      8  H2  II6 d   1      18.370   8.783  14.140  0.00  0.00     0.034 H 
ATOM      9  H3  II6 d   1      17.848   7.998  11.661  0.00  0.00     0.034 H 
ATOM     10  H4  II6 d   1      18.987   8.536  10.381  0.00  0.00     0.034 H 
ATOM     11  H5  II6 d   1      16.525  11.473  12.293  0.00  0.00     0.034 H 
ATOM     12  H6  II6 d   1      16.427   9.769  12.853  0.00  0.00     0.034 H 
ATOM     13  H7  II6 d   1      20.329   9.740  11.999  0.00  0.00     0.039 H 
ATOM     14  H8  II6 d   1      18.912  11.477  12.897  0.00  0.00     0.042 H 
ATOM     15  H9  II6 d   1      18.363  10.868  10.763  0.00  0.00     0.043 H 
ENDROOT
BRANCH   5  16
ATOM     16  C8  II6 d   1      17.855  11.558  14.691  0.00  0.00     0.083 C 
ATOM     17  H13 II6 d   1      17.619  12.597  14.416  0.00  0.00     0.075 H 
ATOM     18  H14 II6 d   1      18.720  11.546  15.370  0.00  0.00     0.075 H 
BRANCH  16  19
ATOM     19  N10 II6 d   1      16.711  10.997  15.394  0.00  0.00    -0.079 N 
ATOM     20  H17 II6 d   1      16.521  11.546  16.218  0.00  0.00     0.274 HD
ATOM     21  H18 II6 d   1      16.915  10.047  15.663  0.00  0.00     0.274 HD
ATOM     22  H19 II6 d   1      15.905  11.010  14.789  0.00  0.00     0.274 HD
ENDBRANCH  16  19
ENDBRANCH   5  16
BRANCH   4  23
ATOM     23  C7  II6 d   1      20.280   7.703  12.643  0.00  0.00    -0.073 C 
ATOM     24  H10 II6 d   1      21.065   7.842  13.401  0.00  0.00     0.028 H 
ATOM     25  H11 II6 d   1      20.732   7.335  11.710  0.00  0.00     0.028 H 
ATOM     26  H12 II6 d   1      19.544   6.971  13.007  0.00  0.00     0.028 H 
ENDBRANCH   4  23
BRANCH   6  27
ATOM     27  C9  II6 d   1      16.597   9.859  10.135  0.00  0.00     0.020 C 
ATOM     28  H15 II6 d   1      15.971  10.761  10.069  0.00  0.00     0.074 H 
ATOM     29  H16 II6 d   1      15.977   9.005  10.448  0.00  0.00     0.074 H 
BRANCH  27  30
ATOM     30  O11 II6 d   1      17.174   9.588   8.870  0.00  0.00    -0.400 OA
ATOM     31  H20 II6 d   1      16.484   9.448   8.232  0.00  0.00     0.209 HD
ENDBRANCH  27  30
ENDBRANCH   6  27
TORSDOF 5
