REMARK  7 active torsions:
REMARK  status: ('A' for Active; 'I' for Inactive)
REMARK    1  A    between atoms: O11_18  and  C12_5 
REMARK    2  A    between atoms: C15_6  and  S18_19 
REMARK    3  A    between atoms: C7_16  and  C8_12 
REMARK    4  A    between atoms: C2_13  and  C1_14 
REMARK    5  A    between atoms: C2_13  and  O11_18 
REMARK    6  A    between atoms: S18_19  and  C19_15 
REMARK    7  A    between atoms: C7_16  and  N5_17 
ROOT
ATOM      1  C3  7GM d   1      14.462  10.788  16.932  0.00  0.00    -0.012 C 
ATOM      2  C4  7GM d   1      15.382  10.634  15.755  0.00  0.00     0.086 C 
ATOM      3  C6  7GM d   1      16.669  11.493  17.458  0.00  0.00     0.112 C 
ATOM      4  C2  7GM d   1      15.268  11.448  18.033  0.00  0.00     0.089 C 
ATOM      5  N5  7GM d   1      16.737  10.612  16.289  0.00  0.00    -0.068 N 
ATOM      6  H9  7GM d   1      14.103   9.803  17.264  0.00  0.00     0.040 H 
ATOM      7  H10 7GM d   1      13.603  11.419  16.661  0.00  0.00     0.040 H 
ATOM      8  H11 7GM d   1      15.260  11.481  15.064  0.00  0.00     0.076 H 
ATOM      9  H12 7GM d   1      15.167   9.694  15.225  0.00  0.00     0.076 H 
ATOM     10  H13 7GM d   1      17.390  11.154  18.217  0.00  0.00     0.080 H 
ATOM     11  H14 7GM d   1      16.911  12.523  17.157  0.00  0.00     0.080 H 
ATOM     12  H24 7GM d   1      17.048   9.681  16.519  0.00  0.00     0.280 HD
ENDROOT
BRANCH   4  13
ATOM     13  C1  7GM d   1      14.761  12.856  18.305  0.00  0.00    -0.045 C 
ATOM     14  H16 7GM d   1      13.744  12.806  18.721  0.00  0.00     0.031 H 
ATOM     15  H17 7GM d   1      14.744  13.428  17.365  0.00  0.00     0.031 H 
ATOM     16  H18 7GM d   1      15.428  13.353  19.025  0.00  0.00     0.031 H 
ENDBRANCH   4  13
BRANCH   4  17
ATOM     17  O11 7GM d   1      15.357  10.638  19.231  0.00  0.00    -0.339 OA
BRANCH  17  18
ATOM     18  C12 7GM d   1      14.217  10.562  20.043  0.00  0.00     0.070 A 
ATOM     19  C13 7GM d   1      13.012  10.057  19.584  0.00  0.00    -0.050 A 
ATOM     20  C14 7GM d   1      11.919   9.991  20.418  0.00  0.00    -0.064 A 
ATOM     21  H1  7GM d   1      12.929   9.711  18.560  0.00  0.00     0.087 H 
ATOM     22  C15 7GM d   1      12.032  10.412  21.725  0.00  0.00    -0.000 A 
ATOM     23  H3  7GM d   1      10.974   9.610  20.048  0.00  0.00     0.085 H 
ATOM     24  C16 7GM d   1      13.239  10.895  22.195  0.00  0.00    -0.064 A 
ATOM     25  C17 7GM d   1      14.335  10.962  21.358  0.00  0.00    -0.050 A 
ATOM     26  H4  7GM d   1      13.325  11.222  23.225  0.00  0.00     0.085 H 
ATOM     27  H2  7GM d   1      15.284  11.327  21.733  0.00  0.00     0.087 H 
BRANCH  22  28
ATOM     28  S18 7GM d   1      10.613  10.310  22.774  0.00  0.00    -0.134 SA
BRANCH  28  29
ATOM     29  C19 7GM d   1      10.989   8.690  23.481  0.00  0.00    -0.030 C 
ATOM     30  H19 7GM d   1      10.202   8.411  24.196  0.00  0.00     0.042 H 
ATOM     31  H20 7GM d   1      11.958   8.732  24.000  0.00  0.00     0.042 H 
ATOM     32  H21 7GM d   1      11.036   7.941  22.677  0.00  0.00     0.042 H 
ENDBRANCH  28  29
ENDBRANCH  22  28
ENDBRANCH  17  18
ENDBRANCH   4  17
BRANCH   5  33
ATOM     33  C7  7GM d   1      17.617  11.259  15.315  0.00  0.00     0.087 C 
ATOM     34  H22 7GM d   1      17.098  12.143  14.917  0.00  0.00     0.076 H 
ATOM     35  H23 7GM d   1      18.533  11.575  15.836  0.00  0.00     0.076 H 
BRANCH  33  36
ATOM     36  C8  7GM d   1      18.011  10.392  14.164  0.00  0.00    -0.031 A 
ATOM     37  C9  7GM d   1      18.903  10.985  13.113  0.00  0.00    -0.060 A 
ATOM     38  C10 7GM d   1      17.466  10.714  12.801  0.00  0.00    -0.060 A 
ATOM     39  H5  7GM d   1      19.257  12.021  13.214  0.00  0.00     0.033 H 
ATOM     40  H6  7GM d   1      19.691  10.372  12.651  0.00  0.00     0.033 H 
ATOM     41  H7  7GM d   1      17.197   9.901  12.110  0.00  0.00     0.033 H 
ATOM     42  H8  7GM d   1      16.764  11.551  12.673  0.00  0.00     0.033 H 
ATOM     43  H15 7GM d   1      18.134   9.349  14.490  0.00  0.00     0.042 H 
ENDBRANCH  33  36
ENDBRANCH   5  33
TORSDOF 7
