REMARK  2 active torsions:
REMARK  status: ('A' for Active; 'I' for Inactive)
REMARK    1  A    between atoms: C1_1  and  C2_2 
REMARK    2  A    between atoms: C2_2  and  C19_19 
ROOT
ATOM      1  C2  5ZM d   1      15.037   8.752   8.250  0.00  0.00     0.063 A 
ATOM      2  C3  5ZM d   1      15.728   8.986   9.511  0.00  0.00    -0.013 A 
ATOM      3  C4  5ZM d   1      17.108   8.777   9.940  0.00  0.00    -0.063 A 
ATOM      4  C5  5ZM d   1      17.463   9.124  11.317  0.00  0.00    -0.025 A 
ATOM      5  C6  5ZM d   1      16.484   9.659  12.185  0.00  0.00    -0.070 A 
ATOM      6  C7  5ZM d   1      15.152   9.875  11.778  0.00  0.00    -0.056 A 
ATOM      7  C8  5ZM d   1      14.788   9.527  10.437  0.00  0.00     0.042 A 
ATOM      8  N9  5ZM d   1      13.569   9.666   9.858  0.00  0.00    -0.326 N 
ATOM      9  C10 5ZM d   1      13.606   9.215   8.514  0.00  0.00     0.234 A 
ATOM     10  O11 5ZM d   1      12.706   9.181   7.690  0.00  0.00    -0.272 OA
ATOM     11  C12 5ZM d   1      18.722   8.932  11.744  0.00  0.00    -0.026 A 
ATOM     12  C13 5ZM d   1      19.359   7.533  11.404  0.00  0.00    -0.069 A 
ATOM     13  C14 5ZM d   1      20.664   7.342  11.835  0.00  0.00    -0.045 A 
ATOM     14  C15 5ZM d   1      21.371   8.351  12.547  0.00  0.00     0.116 A 
ATOM     15  C16 5ZM d   1      20.792   9.662  12.858  0.00  0.00    -0.045 A 
ATOM     16  C17 5ZM d   1      19.477   9.975  12.483  0.00  0.00    -0.069 A 
ATOM     17  F18 5ZM d   1      22.683   7.994  12.916  0.00  0.00    -0.206 F 
ATOM     18  H4  5ZM d   1      17.849   8.376   9.258  0.00  0.00     0.085 H 
ATOM     19  H5  5ZM d   1      16.768   9.912  13.200  0.00  0.00     0.084 H 
ATOM     20  H6  5ZM d   1      14.422  10.293  12.462  0.00  0.00     0.087 H 
ATOM     21  H7  5ZM d   1      12.759  10.034  10.314  0.00  0.00     0.169 HD
ATOM     22  H8  5ZM d   1      18.812   6.767  10.867  0.00  0.00     0.085 H 
ATOM     23  H9  5ZM d   1      21.157   6.400  11.624  0.00  0.00     0.088 H 
ATOM     24  H10 5ZM d   1      21.388  10.399  13.384  0.00  0.00     0.088 H 
ATOM     25  H11 5ZM d   1      19.032  10.934  12.722  0.00  0.00     0.085 H 
ENDROOT
BRANCH   1  26
ATOM     26  C1  5ZM d   1      15.686   9.394   7.145  0.00  0.00    -0.057 C 
ATOM     27  H1  5ZM d   1      16.706   8.995   7.037  0.00  0.00     0.029 H 
ATOM     28  H2  5ZM d   1      15.734  10.478   7.327  0.00  0.00     0.029 H 
ATOM     29  H3  5ZM d   1      15.117   9.202   6.223  0.00  0.00     0.029 H 
ENDBRANCH   1  26
BRANCH   1  30
ATOM     30  C19 5ZM d   1      14.758   7.201   8.220  0.00  0.00    -0.057 C 
ATOM     31  H12 5ZM d   1      14.256   6.901   9.152  0.00  0.00     0.029 H 
ATOM     32  H13 5ZM d   1      15.710   6.659   8.125  0.00  0.00     0.029 H 
ATOM     33  H14 5ZM d   1      14.113   6.961   7.362  0.00  0.00     0.029 H 
ENDBRANCH   1  30
TORSDOF 2
