REMARK  5 active torsions:
REMARK  status: ('A' for Active; 'I' for Inactive)
REMARK    1  A    between atoms: C1_1  and  C2_2 
REMARK    2  A    between atoms: C2_2  and  C18_18 
REMARK    3  A    between atoms: C5_5  and  C12_12 
REMARK    4  A    between atoms: N15_15  and  C17_17 
REMARK    5  A    between atoms: C18_18  and  C19_19 
ROOT
ATOM      1  C2  A0J d   1     -13.051 -10.290  26.274  0.00  0.00     0.071 A 
ATOM      2  C3  A0J d   1     -12.597  -9.527  25.062  0.00  0.00    -0.013 A 
ATOM      3  C4  A0J d   1     -11.323  -9.276  24.579  0.00  0.00    -0.063 A 
ATOM      4  C5  A0J d   1     -11.180  -8.526  23.421  0.00  0.00    -0.022 A 
ATOM      5  C6  A0J d   1     -12.297  -8.063  22.742  0.00  0.00    -0.070 A 
ATOM      6  C7  A0J d   1     -13.572  -8.295  23.222  0.00  0.00    -0.056 A 
ATOM      7  C8  A0J d   1     -13.678  -9.026  24.385  0.00  0.00     0.042 A 
ATOM      8  N9  A0J d   1     -14.848  -9.380  25.039  0.00  0.00    -0.326 N 
ATOM      9  C10 A0J d   1     -14.542 -10.049  26.212  0.00  0.00     0.235 A 
ATOM     10  O11 A0J d   1     -15.343 -10.408  27.060  0.00  0.00    -0.272 OA
ATOM     11  H4  A0J d   1     -10.452  -9.660  25.098  0.00  0.00     0.085 H 
ATOM     12  H5  A0J d   1     -12.168  -7.510  21.819  0.00  0.00     0.084 H 
ATOM     13  H6  A0J d   1     -14.449  -7.919  22.707  0.00  0.00     0.087 H 
ATOM     14  H7  A0J d   1     -15.773  -9.182  24.713  0.00  0.00     0.169 HD
ENDROOT
BRANCH   1  15
ATOM     15  C1  A0J d   1     -12.874 -11.792  26.074  0.00  0.00    -0.056 C 
ATOM     16  H1  A0J d   1     -11.803 -12.043  26.108  0.00  0.00     0.029 H 
ATOM     17  H2  A0J d   1     -13.288 -12.083  25.098  0.00  0.00     0.029 H 
ATOM     18  H3  A0J d   1     -13.402 -12.333  26.873  0.00  0.00     0.029 H 
ENDBRANCH   1  15
BRANCH   1  19
ATOM     19  C18 A0J d   1     -12.552  -9.754  27.626  0.00  0.00    -0.022 C 
ATOM     20  H13 A0J d   1     -13.080 -10.297  28.424  0.00  0.00     0.042 H 
ATOM     21  H14 A0J d   1     -12.802  -8.684  27.682  0.00  0.00     0.042 H 
BRANCH  19  22
ATOM     22  C19 A0J d   1     -11.079  -9.900  27.860  0.00  0.00    -0.057 A 
ATOM     23  C20 A0J d   1     -10.538 -11.083  28.335  0.00  0.00    -0.077 A 
ATOM     24  C21 A0J d   1      -9.178 -11.196  28.533  0.00  0.00    -0.082 A 
ATOM     25  H15 A0J d   1     -11.187 -11.924  28.552  0.00  0.00     0.084 H 
ATOM     26  C22 A0J d   1      -8.362 -10.120  28.263  0.00  0.00    -0.083 A 
ATOM     27  H16 A0J d   1      -8.755 -12.125  28.898  0.00  0.00     0.083 H 
ATOM     28  C23 A0J d   1      -8.882  -8.928  27.812  0.00  0.00    -0.082 A 
ATOM     29  H17 A0J d   1      -7.292 -10.213  28.408  0.00  0.00     0.083 H 
ATOM     30  C24 A0J d   1     -10.241  -8.827  27.614  0.00  0.00    -0.077 A 
ATOM     31  H18 A0J d   1      -8.232  -8.083  27.616  0.00  0.00     0.083 H 
ATOM     32  H19 A0J d   1     -10.661  -7.892  27.260  0.00  0.00     0.084 H 
ENDBRANCH  19  22
ENDBRANCH   1  19
BRANCH   4  33
ATOM     33  C12 A0J d   1      -9.864  -8.196  22.929  0.00  0.00     0.010 A 
ATOM     34  C13 A0J d   1      -9.417  -7.893  21.618  0.00  0.00     0.034 A 
ATOM     35  N14 A0J d   1      -8.107  -7.622  21.580  0.00  0.00    -0.185 NA
ATOM     36  H8  A0J d   1     -10.065  -7.882  20.743  0.00  0.00     0.118 H 
ATOM     37  N15 A0J d   1      -7.728  -7.751  22.863  0.00  0.00    -0.285 N 
ATOM     38  C16 A0J d   1      -8.739  -8.086  23.719  0.00  0.00     0.010 A 
ATOM     39  H9  A0J d   1      -8.671  -8.235  24.796  0.00  0.00     0.115 H 
BRANCH  37  40
ATOM     40  C17 A0J d   1      -6.344  -7.529  23.229  0.00  0.00     0.002 C 
ATOM     41  H10 A0J d   1      -6.223  -7.678  24.312  0.00  0.00     0.059 H 
ATOM     42  H11 A0J d   1      -6.056  -6.501  22.966  0.00  0.00     0.059 H 
ATOM     43  H12 A0J d   1      -5.703  -8.240  22.687  0.00  0.00     0.059 H 
ENDBRANCH  37  40
ENDBRANCH   4  33
TORSDOF 5
