REMARK  3 active torsions:
REMARK  status: ('A' for Active; 'I' for Inactive)
REMARK    1  A    between atoms: C4_4  and  C7_7 
REMARK       I    between atoms: N9_9  and  C13_13 
REMARK       I    between atoms: C13_13  and  N15_15 
REMARK    2  A    between atoms: N15_15  and  C16_16 
REMARK    3  A    between atoms: C19_19  and  N22_22 
ROOT
ATOM      1  C7  QYD d   1      14.164 -11.250 -19.937  0.00  0.00     0.032 C 
ATOM      2  C8  QYD d   1      14.624 -10.533 -18.691  0.00  0.00     0.015 C 
ATOM      3  N9  QYD d   1      15.354 -11.376 -17.744  0.00  0.00    -0.332 N 
ATOM      4  C10 QYD d   1      15.530 -12.771 -18.085  0.00  0.00     0.007 C 
ATOM      5  C11 QYD d   1      14.249 -13.544 -18.195  0.00  0.00    -0.008 C 
ATOM      6  S12 QYD d   1      13.229 -12.736 -19.476  0.00  0.00    -0.156 SA
ATOM      7  C13 QYD d   1      16.152 -10.760 -16.792  0.00  0.00     0.322 C 
ATOM      8  O14 QYD d   1      16.621  -9.648 -17.017  0.00  0.00    -0.247 OA
ATOM      9  N15 QYD d   1      16.332 -11.441 -15.601  0.00  0.00    -0.309 N 
ATOM     10  H6  QYD d   1      15.053 -11.562 -20.505  0.00  0.00     0.066 H 
ATOM     11  H7  QYD d   1      13.738 -10.129 -18.180  0.00  0.00     0.066 H 
ATOM     12  H8  QYD d   1      15.282  -9.705 -18.993  0.00  0.00     0.066 H 
ATOM     13  H9  QYD d   1      16.150 -13.241 -17.307  0.00  0.00     0.065 H 
ATOM     14  H10 QYD d   1      16.050 -12.827 -19.052  0.00  0.00     0.065 H 
ATOM     15  H11 QYD d   1      13.720 -13.533 -17.231  0.00  0.00     0.051 H 
ATOM     16  H12 QYD d   1      14.461 -14.584 -18.485  0.00  0.00     0.051 H 
ATOM     17  H13 QYD d   1      15.781 -12.253 -15.405  0.00  0.00     0.170 HD
ENDROOT
BRANCH   1  18
ATOM     18  C4  QYD d   1      13.352 -10.360 -20.805  0.00  0.00    -0.043 A 
ATOM     19  C3  QYD d   1      13.668 -10.284 -22.138  0.00  0.00    -0.076 A 
ATOM     20  C2  QYD d   1      12.939  -9.475 -22.995  0.00  0.00    -0.082 A 
ATOM     21  H3  QYD d   1      14.498 -10.864 -22.526  0.00  0.00     0.084 H 
ATOM     22  C1  QYD d   1      11.878  -8.743 -22.498  0.00  0.00    -0.083 A 
ATOM     23  H2  QYD d   1      13.199  -9.417 -24.046  0.00  0.00     0.083 H 
ATOM     24  C6  QYD d   1      11.537  -8.807 -21.150  0.00  0.00    -0.082 A 
ATOM     25  H1  QYD d   1      11.304  -8.111 -23.166  0.00  0.00     0.083 H 
ATOM     26  C5  QYD d   1      12.290  -9.631 -20.332  0.00  0.00    -0.076 A 
ATOM     27  H5  QYD d   1      10.709  -8.230 -20.754  0.00  0.00     0.083 H 
ATOM     28  H4  QYD d   1      12.032  -9.703 -19.282  0.00  0.00     0.084 H 
ENDBRANCH   1  18
BRANCH   9  29
ATOM     29  C16 QYD d   1      17.282 -11.001 -14.665  0.00  0.00     0.036 A 
ATOM     30  C17 QYD d   1      18.171 -11.915 -14.161  0.00  0.00    -0.055 A 
ATOM     31  C18 QYD d   1      19.090 -11.509 -13.207  0.00  0.00    -0.049 A 
ATOM     32  H14 QYD d   1      18.155 -12.943 -14.505  0.00  0.00     0.087 H 
ATOM     33  C19 QYD d   1      19.073 -10.188 -12.816  0.00  0.00     0.103 A 
ATOM     34  H15 QYD d   1      19.800 -12.209 -12.781  0.00  0.00     0.087 H 
ATOM     35  C20 QYD d   1      18.168  -9.268 -13.295  0.00  0.00    -0.049 A 
ATOM     36  C21 QYD d   1      17.245  -9.695 -14.238  0.00  0.00    -0.055 A 
ATOM     37  H16 QYD d   1      18.177  -8.242 -12.946  0.00  0.00     0.087 H 
ATOM     38  H17 QYD d   1      16.505  -9.008 -14.633  0.00  0.00     0.087 H 
BRANCH  33  39
ATOM     39  N22 QYD d   1      20.040  -9.748 -11.827  0.00  0.00    -0.116 N 
ATOM     40  O23 QYD d   1      20.799 -10.630 -11.390  0.00  0.00    -0.532 OA
ATOM     41  O24 QYD d   1      19.979  -8.567 -11.462  0.00  0.00    -0.532 OA
ENDBRANCH  33  39
ENDBRANCH   9  29
TORSDOF 3
