REMARK  4 active torsions:
REMARK  status: ('A' for Active; 'I' for Inactive)
REMARK    1  A    between atoms: C12_12  and  N18_18 
REMARK    2  A    between atoms: S22_22  and  C13_13 
REMARK    3  A    between atoms: N18_18  and  C14_14 
REMARK    4  A    between atoms: C15_15  and  S22_22 
ROOT
ATOM      1  N18 8TM d   1     -16.114 -11.392  16.423  0.00  0.00    -0.340 N 
ATOM      2  H10 8TM d   1     -15.910 -12.397  16.323  0.00  0.00     0.167 HD
ENDROOT
BRANCH   1   3
ATOM      3  C12 8TM d   1     -16.850 -10.800  15.378  0.00  0.00     0.033 A 
ATOM      4  C5  8TM d   1     -16.645  -9.494  14.973  0.00  0.00    -0.056 A 
ATOM      5  C7  8TM d   1     -17.344  -8.950  13.915  0.00  0.00    -0.064 A 
ATOM      6  H5  8TM d   1     -15.919  -8.884  15.498  0.00  0.00     0.087 H 
ATOM      7  C13 8TM d   1     -18.281  -9.711  13.249  0.00  0.00     0.009 A 
ATOM      8  H7  8TM d   1     -17.157  -7.927  13.608  0.00  0.00     0.085 H 
ATOM      9  C8  8TM d   1     -18.503 -11.015  13.645  0.00  0.00    -0.064 A 
ATOM     10  C6  8TM d   1     -17.786 -11.554  14.693  0.00  0.00    -0.056 A 
ATOM     11  H8  8TM d   1     -19.243 -11.617  13.131  0.00  0.00     0.085 H 
ATOM     12  H6  8TM d   1     -17.959 -12.584  14.984  0.00  0.00     0.087 H 
BRANCH   7  13
ATOM     13  S22 8TM d   1     -19.190  -9.008  11.905  0.00  0.00    -0.016 SA
BRANCH  13  14
ATOM     14  C15 8TM d   1     -20.434  -8.126  12.872  0.00  0.00     0.448 C 
ATOM     15  F19 8TM d   1     -21.116  -7.260  12.081  0.00  0.00    -0.160 F 
ATOM     16  F20 8TM d   1     -19.900  -7.379  13.878  0.00  0.00    -0.160 F 
ATOM     17  F21 8TM d   1     -21.331  -8.999  13.409  0.00  0.00    -0.160 F 
ENDBRANCH  13  14
ENDBRANCH   7  13
ENDBRANCH   1   3
BRANCH   1  18
ATOM     18  C14 8TM d   1     -15.623 -10.770  17.591  0.00  0.00     0.142 A 
ATOM     19  C10 8TM d   1     -14.922 -11.520  18.525  0.00  0.00     0.039 A 
ATOM     20  C3  8TM d   1     -14.681 -12.866  18.333  0.00  0.00    -0.067 A 
ATOM     21  C11 8TM d   1     -14.445 -10.880  19.665  0.00  0.00     0.072 A 
ATOM     22  C1  8TM d   1     -13.972 -13.591  19.264  0.00  0.00    -0.082 A 
ATOM     23  H3  8TM d   1     -15.054 -13.356  17.441  0.00  0.00     0.085 H 
ATOM     24  C2  8TM d   1     -13.504 -12.971  20.402  0.00  0.00    -0.081 A 
ATOM     25  H1  8TM d   1     -13.783 -14.646  19.102  0.00  0.00     0.083 H 
ATOM     26  C4  8TM d   1     -13.746 -11.628  20.595  0.00  0.00    -0.054 A 
ATOM     27  H2  8TM d   1     -12.948 -13.536  21.141  0.00  0.00     0.083 H 
ATOM     28  H4  8TM d   1     -13.380 -11.147  21.495  0.00  0.00     0.087 H 
ATOM     29  N16 8TM d   1     -14.643  -9.571  19.876  0.00  0.00    -0.241 NA
ATOM     30  C9  8TM d   1     -15.328  -8.946  18.916  0.00  0.00     0.089 A 
ATOM     31  N17 8TM d   1     -15.837  -9.466  17.797  0.00  0.00    -0.224 NA
ATOM     32  H9  8TM d   1     -15.491  -7.885  19.063  0.00  0.00     0.146 H 
ENDBRANCH   1  18
TORSDOF 4
