REMARK  5 active torsions:
REMARK  status: ('A' for Active; 'I' for Inactive)
REMARK    1  A    between atoms: C7_12  and  C6_7 
REMARK    2  A    between atoms: C3_8  and  C25_18 
REMARK    3  A    between atoms: S16_28  and  C12_10 
REMARK    4  A    between atoms: N19_22  and  C20_17 
REMARK    5  A    between atoms: N19_22  and  S16_28 
ROOT
ATOM      1  C13 5DQ d   1      14.130  11.928  20.290  0.00  0.00    -0.041 A 
ATOM      2  C14 5DQ d   1      14.141  13.231  19.632  0.00  0.00     0.006 A 
ATOM      3  C10 5DQ d   1      15.529  11.112  18.249  0.00  0.00     0.105 A 
ATOM      4  C12 5DQ d   1      14.848  10.778  19.585  0.00  0.00     0.111 A 
ATOM      5  C9  5DQ d   1      15.395  12.433  17.835  0.00  0.00     0.179 A 
ATOM      6  C7  5DQ d   1      16.570  11.193  16.404  0.00  0.00     0.141 A 
ATOM      7  N15 5DQ d   1      14.731  13.523  18.433  0.00  0.00    -0.239 NA
ATOM      8  N11 5DQ d   1      16.283  10.443  17.278  0.00  0.00    -0.336 N 
ATOM      9  N8  5DQ d   1      16.062  12.324  16.735  0.00  0.00    -0.208 NA
ATOM     10  H5  5DQ d   1      13.632  11.782  21.242  0.00  0.00     0.088 H 
ATOM     11  H6  5DQ d   1      13.634  14.043  20.141  0.00  0.00     0.114 H 
ATOM     12  H14 5DQ d   1      16.549   9.449  17.316  0.00  0.00     0.168 HD
ENDROOT
BRANCH   4  13
ATOM     13  S16 5DQ d   1      14.845   9.112  20.382  0.00  0.00     0.261 S 
ATOM     14  O17 5DQ d   1      16.072   8.448  20.182  0.00  0.00    -0.200 OA
ATOM     15  O18 5DQ d   1      14.176   9.187  21.608  0.00  0.00    -0.200 OA
BRANCH  13  16
ATOM     16  N19 5DQ d   1      13.640   8.519  19.359  0.00  0.00    -0.307 N 
ATOM     17  H15 5DQ d   1      13.725   7.558  19.095  0.00  0.00     0.173 HD
BRANCH  16  18
ATOM     18  C20 5DQ d   1      12.433   9.268  18.784  0.00  0.00     0.036 C 
ATOM     19  C21 5DQ d   1      11.327   9.348  19.785  0.00  0.00    -0.040 C 
ATOM     20  C22 5DQ d   1      10.307   8.551  19.038  0.00  0.00    -0.048 C 
ATOM     21  H10 5DQ d   1      11.599   8.882  20.744  0.00  0.00     0.036 H 
ATOM     22  H11 5DQ d   1      10.999  10.383  19.961  0.00  0.00     0.036 H 
ATOM     23  C23 5DQ d   1      10.555   8.536  17.551  0.00  0.00    -0.104 C 
ATOM     24  H7  5DQ d   1      10.329   7.516  19.409  0.00  0.00     0.038 H 
ATOM     25  H8  5DQ d   1       9.314   8.986  19.225  0.00  0.00     0.038 H 
ATOM     26  C24 5DQ d   1      11.954   8.715  17.437  0.00  0.00    -0.085 C 
ATOM     27  H9  5DQ d   1       9.827   8.415  16.750  0.00  0.00     0.076 H 
ATOM     28  H12 5DQ d   1      12.569   8.502  16.564  0.00  0.00     0.079 H 
ATOM     29  H13 5DQ d   1      12.766  10.299  18.594  0.00  0.00     0.079 H 
ENDBRANCH  16  18
ENDBRANCH  13  16
ENDBRANCH   4  13
BRANCH   6  30
ATOM     30  C6  5DQ d   1      17.382  10.806  15.347  0.00  0.00     0.010 A 
ATOM     31  C1  5DQ d   1      17.599   9.438  14.884  0.00  0.00    -0.069 A 
ATOM     32  C2  5DQ d   1      18.440   9.001  13.903  0.00  0.00    -0.067 A 
ATOM     33  H1  5DQ d   1      17.017   8.672  15.384  0.00  0.00     0.085 H 
ATOM     34  C3  5DQ d   1      19.218  10.088  13.252  0.00  0.00     0.048 A 
ATOM     35  H3  5DQ d   1      18.533   7.958  13.624  0.00  0.00     0.084 H 
ATOM     36  C4  5DQ d   1      19.082  11.522  13.657  0.00  0.00    -0.067 A 
ATOM     37  C5  5DQ d   1      18.177  11.809  14.694  0.00  0.00    -0.069 A 
ATOM     38  H4  5DQ d   1      19.655  12.304  13.173  0.00  0.00     0.084 H 
ATOM     39  H2  5DQ d   1      18.074  12.839  15.017  0.00  0.00     0.085 H 
BRANCH  34  40
ATOM     40  C25 5DQ d   1      20.172   9.787  12.162  0.00  0.00     0.417 C 
ATOM     41  F26 5DQ d   1      19.778   9.625  10.893  0.00  0.00    -0.166 F 
ATOM     42  F27 5DQ d   1      21.290  10.497  12.311  0.00  0.00    -0.166 F 
ATOM     43  F28 5DQ d   1      20.621   8.621  12.321  0.00  0.00    -0.166 F 
ENDBRANCH  34  40
ENDBRANCH   6  30
TORSDOF 5
