REMARK  4 active torsions:
REMARK  status: ('A' for Active; 'I' for Inactive)
REMARK    1  A    between atoms: C7_7  and  C6_6 
REMARK    2  A    between atoms: C10_10  and  C8_8 
REMARK    3  A    between atoms: C9_9  and  N17_17 
REMARK    4  A    between atoms: N16_16  and  C11_11 
ROOT
ATOM      1  C2  9XZ d   1      12.166   9.800  21.657  0.00  0.00    -0.053 A 
ATOM      2  C3  9XZ d   1      13.719  10.923  23.011  0.00  0.00     0.015 A 
ATOM      3  C7  9XZ d   1      13.186  10.720  21.751  0.00  0.00    -0.007 A 
ATOM      4  C8  9XZ d   1      11.726   9.113  22.773  0.00  0.00     0.061 A 
ATOM      5  C9  9XZ d   1      12.332   9.384  23.999  0.00  0.00     0.135 A 
ATOM      6  N12 9XZ d   1      13.315  10.289  24.117  0.00  0.00    -0.242 NA
ATOM      7  H2  9XZ d   1      11.702   9.612  20.695  0.00  0.00     0.086 H 
ATOM      8  H3  9XZ d   1      14.520  11.647  23.109  0.00  0.00     0.116 H 
ENDROOT
BRANCH   4   9
ATOM      9  C10 9XZ d   1      10.682   8.151  22.558  0.00  0.00     0.208 A 
ATOM     10  N13 9XZ d   1       9.892   7.605  23.542  0.00  0.00    -0.108 NA
ATOM     11  N15 9XZ d   1       9.101   6.739  22.945  0.00  0.00    -0.046 NA
ATOM     12  N16 9XZ d   1       9.452   6.809  21.647  0.00  0.00    -0.172 N 
ATOM     13  N14 9XZ d   1      10.431   7.659  21.337  0.00  0.00    -0.131 NA
BRANCH  12  14
ATOM     14  C11 9XZ d   1       8.826   5.988  20.615  0.00  0.00     0.021 C 
ATOM     15  H6  9XZ d   1       9.276   6.221  19.639  0.00  0.00     0.062 H 
ATOM     16  H7  9XZ d   1       7.747   6.200  20.582  0.00  0.00     0.062 H 
ATOM     17  H8  9XZ d   1       8.983   4.924  20.847  0.00  0.00     0.062 H 
ENDBRANCH  12  14
ENDBRANCH   4   9
BRANCH   5  18
ATOM     18  N17 9XZ d   1      11.928   8.717  25.163  0.00  0.00    -0.383 N 
ATOM     19  H9  9XZ d   1      12.385   8.927  26.062  0.00  0.00     0.157 HD
ATOM     20  H10 9XZ d   1      11.174   8.016  25.120  0.00  0.00     0.157 HD
ENDBRANCH   5  18
BRANCH   3  21
ATOM     21  C6  9XZ d   1      13.588  11.442  20.562  0.00  0.00    -0.018 A 
ATOM     22  C1  9XZ d   1      12.702  11.776  19.494  0.00  0.00    -0.065 A 
ATOM     23  C4  9XZ d   1      13.302  12.476  18.478  0.00  0.00    -0.044 A 
ATOM     24  H1  9XZ d   1      11.648  11.501  19.486  0.00  0.00     0.085 H 
ATOM     25  S18 9XZ d   1      14.954  12.734  18.812  0.00  0.00    -0.113 SA
ATOM     26  H4  9XZ d   1      12.792  12.820  17.579  0.00  0.00     0.095 H 
ATOM     27  C5  9XZ d   1      14.862  11.914  20.316  0.00  0.00    -0.034 A 
ATOM     28  H5  9XZ d   1      15.704  11.782  20.993  0.00  0.00     0.096 H 
ENDBRANCH   3  21
TORSDOF 4
