REMARK  6 active torsions:
REMARK  status: ('A' for Active; 'I' for Inactive)
REMARK    1  A    between atoms: C2_2  and  C13_13 
REMARK    2  A    between atoms: C3_3  and  C8_8 
REMARK    3  A    between atoms: C5_5  and  N7_7 
REMARK    4  A    between atoms: N7_7  and  C27_27 
REMARK       I    between atoms: C13_13  and  N15_15 
REMARK    5  A    between atoms: N15_15  and  C16_16 
REMARK    6  A    between atoms: C23_23  and  O26_26 
ROOT
ATOM      1  C1  HD2 d   1     -19.099 -61.765 -12.150  0.00  0.00     0.038 A 
ATOM      2  C2  HD2 d   1     -19.479 -61.620 -10.833  0.00  0.00     0.075 A 
ATOM      3  C3  HD2 d   1     -18.601 -60.958  -9.992  0.00  0.00     0.075 A 
ATOM      4  N4  HD2 d   1     -17.441 -60.484 -10.467  0.00  0.00    -0.066 NA
ATOM      5  C5  HD2 d   1     -17.140 -60.661 -11.760  0.00  0.00     0.722 A 
ATOM      6  N6  HD2 d   1     -17.932 -61.314 -12.630  0.00  0.00    -0.074 NA
ATOM      7  H1  HD2 d   1     -19.777 -62.268 -12.830  0.00  0.00     0.117 H 
ENDROOT
BRANCH   2   8
ATOM      8  C13 HD2 d   1     -20.804 -62.117 -10.411  0.00  0.00     0.255 C 
ATOM      9  O14 HD2 d   1     -21.576 -61.322  -9.877  0.00  0.00    -0.268 OA
ATOM     10  N15 HD2 d   1     -21.064 -63.446 -10.716  0.00  0.00    -0.351 N 
ATOM     11  H12 HD2 d   1     -20.338 -64.024 -11.089  0.00  0.00     0.163 HD
BRANCH  10  12
ATOM     12  C16 HD2 d   1     -22.394 -64.001 -10.493  0.00  0.00     0.019 C 
ATOM     13  C17 HD2 d   1     -22.375 -65.166  -9.513  0.00  0.00    -0.031 C 
ATOM     14  C18 HD2 d   1     -21.680 -66.369 -10.119  0.00  0.00    -0.056 C 
ATOM     15  C25 HD2 d   1     -23.808 -65.550  -9.200  0.00  0.00    -0.031 C 
ATOM     16  H14 HD2 d   1     -21.855 -64.865  -8.592  0.00  0.00     0.043 H 
ATOM     17  C19 HD2 d   1     -22.380 -66.759 -11.414  0.00  0.00    -0.051 C 
ATOM     18  H15 HD2 d   1     -21.721 -67.211  -9.412  0.00  0.00     0.034 H 
ATOM     19  H16 HD2 d   1     -20.630 -66.118 -10.331  0.00  0.00     0.034 H 
ATOM     20  C20 HD2 d   1     -22.386 -65.605 -12.401  0.00  0.00    -0.056 C 
ATOM     21  C24 HD2 d   1     -23.820 -67.129 -11.121  0.00  0.00    -0.033 C 
ATOM     22  H17 HD2 d   1     -21.859 -67.619 -11.860  0.00  0.00     0.040 H 
ATOM     23  C21 HD2 d   1     -23.087 -64.407 -11.788  0.00  0.00    -0.031 C 
ATOM     24  H18 HD2 d   1     -22.916 -65.909 -13.316  0.00  0.00     0.034 H 
ATOM     25  H19 HD2 d   1     -21.350 -65.333 -12.651  0.00  0.00     0.034 H 
ATOM     26  C22 HD2 d   1     -24.532 -64.771 -11.449  0.00  0.00    -0.031 C 
ATOM     27  H20 HD2 d   1     -23.069 -63.569 -12.500  0.00  0.00     0.043 H 
ATOM     28  C23 HD2 d   1     -24.535 -65.938 -10.482  0.00  0.00     0.059 C 
ATOM     29  H21 HD2 d   1     -25.066 -65.053 -12.368  0.00  0.00     0.038 H 
ATOM     30  H22 HD2 d   1     -25.030 -63.907 -10.985  0.00  0.00     0.038 H 
ATOM     31  H23 HD2 d   1     -23.845 -67.985 -10.430  0.00  0.00     0.037 H 
ATOM     32  H24 HD2 d   1     -24.327 -67.400 -12.059  0.00  0.00     0.037 H 
ATOM     33  H25 HD2 d   1     -24.321 -64.695  -8.735  0.00  0.00     0.038 H 
ATOM     34  H26 HD2 d   1     -23.813 -66.403  -8.506  0.00  0.00     0.038 H 
ATOM     35  H13 HD2 d   1     -22.999 -63.203 -10.038  0.00  0.00     0.073 H 
BRANCH  28  36
ATOM     36  O26 HD2 d   1     -25.889 -66.232 -10.173  0.00  0.00    -0.390 OA
ATOM     37  H27 HD2 d   1     -25.923 -66.960  -9.564  0.00  0.00     0.210 HD
ENDBRANCH  28  36
ENDBRANCH  10  12
ENDBRANCH   2   8
BRANCH   3  38
ATOM     38  C8  HD2 d   1     -18.852 -60.736  -8.528  0.00  0.00    -0.010 C 
ATOM     39  C9  HD2 d   1     -17.690 -61.197  -7.676  0.00  0.00    -0.057 C 
ATOM     40  C10 HD2 d   1     -17.879 -60.496  -6.362  0.00  0.00    -0.064 C 
ATOM     41  H4  HD2 d   1     -16.733 -60.908  -8.136  0.00  0.00     0.034 H 
ATOM     42  H5  HD2 d   1     -17.717 -62.288  -7.541  0.00  0.00     0.034 H 
ATOM     43  C11 HD2 d   1     -18.658 -59.247  -6.676  0.00  0.00    -0.064 C 
ATOM     44  H6  HD2 d   1     -16.905 -60.240  -5.920  0.00  0.00     0.033 H 
ATOM     45  H7  HD2 d   1     -18.442 -61.134  -5.664  0.00  0.00     0.033 H 
ATOM     46  C12 HD2 d   1     -19.004 -59.285  -8.151  0.00  0.00    -0.057 C 
ATOM     47  H8  HD2 d   1     -18.048 -58.358  -6.456  0.00  0.00     0.033 H 
ATOM     48  H9  HD2 d   1     -19.579 -59.218  -6.075  0.00  0.00     0.033 H 
ATOM     49  H10 HD2 d   1     -20.036 -58.944  -8.319  0.00  0.00     0.034 H 
ATOM     50  H11 HD2 d   1     -18.312 -58.657  -8.730  0.00  0.00     0.034 H 
ATOM     51  H3  HD2 d   1     -19.763 -61.287  -8.252  0.00  0.00     0.049 H 
ENDBRANCH   3  38
BRANCH   5  52
ATOM     52  N7  HD2 d   1     -15.884 -60.142 -12.134  0.00  0.00    -0.216 N 
ATOM     53  H2  HD2 d   1     -15.167 -59.917 -11.430  0.00  0.00     0.178 HD
BRANCH  52  54
ATOM     54  C27 HD2 d   1     -15.639 -59.935 -13.561  0.00  0.00     0.049 C 
ATOM     55  C28 HD2 d   1     -14.919 -58.635 -13.795  0.00  0.00    -0.024 C 
ATOM     56  C29 HD2 d   1     -13.470 -58.977 -13.567  0.00  0.00     0.021 C 
ATOM     57  H29 HD2 d   1     -15.257 -57.867 -13.083  0.00  0.00     0.039 H 
ATOM     58  H30 HD2 d   1     -15.080 -58.278 -14.823  0.00  0.00     0.039 H 
ATOM     59  O30 HD2 d   1     -13.353 -60.397 -13.546  0.00  0.00    -0.389 OA
ATOM     60  H31 HD2 d   1     -13.134 -58.560 -12.606  0.00  0.00     0.074 H 
ATOM     61  H32 HD2 d   1     -12.856 -58.563 -14.381  0.00  0.00     0.074 H 
ATOM     62  C31 HD2 d   1     -14.601 -60.946 -13.957  0.00  0.00     0.039 C 
ATOM     63  H33 HD2 d   1     -14.612 -61.101 -15.046  0.00  0.00     0.077 H 
ATOM     64  H34 HD2 d   1     -14.785 -61.904 -13.448  0.00  0.00     0.077 H 
ATOM     65  H28 HD2 d   1     -16.567 -60.011 -14.146  0.00  0.00     0.076 H 
ENDBRANCH  52  54
ENDBRANCH   5  52
TORSDOF 6
