REMARK  1 active torsions:
REMARK  status: ('A' for Active; 'I' for Inactive)
REMARK    1  A    between atoms: C3_3  and  C8_8 
ROOT
ATOM      1  C1  6TZ d   1     -13.372 -13.724  19.388  0.00  0.00    -0.079 A 
ATOM      2  C2  6TZ d   1     -14.198 -13.060  18.508  0.00  0.00    -0.070 A 
ATOM      3  C3  6TZ d   1     -14.825 -11.894  18.898  0.00  0.00    -0.003 A 
ATOM      4  C4  6TZ d   1     -14.619 -11.384  20.166  0.00  0.00    -0.034 A 
ATOM      5  C5  6TZ d   1     -13.791 -12.061  21.039  0.00  0.00     0.117 A 
ATOM      6  C6  6TZ d   1     -13.164 -13.227  20.658  0.00  0.00    -0.046 A 
ATOM      7  F7  6TZ d   1     -13.576 -11.586  22.271  0.00  0.00    -0.206 F 
ATOM      8  H1  6TZ d   1     -12.883 -14.642  19.081  0.00  0.00     0.083 H 
ATOM      9  H2  6TZ d   1     -14.355 -13.453  17.510  0.00  0.00     0.084 H 
ATOM     10  H3  6TZ d   1     -15.102 -10.463  20.471  0.00  0.00     0.089 H 
ATOM     11  H4  6TZ d   1     -12.513 -13.749  21.350  0.00  0.00     0.088 H 
ENDROOT
BRANCH   3  12
ATOM     12  C8  6TZ d   1     -15.672 -11.205  17.965  0.00  0.00     0.088 A 
ATOM     13  C9  6TZ d   1     -16.196  -9.945  17.972  0.00  0.00    -0.036 A 
ATOM     14  C10 6TZ d   1     -16.933  -9.859  16.763  0.00  0.00    -0.002 A 
ATOM     15  H5  6TZ d   1     -16.075  -9.177  18.735  0.00  0.00     0.089 H 
ATOM     16  N11 6TZ d   1     -16.886 -10.962  16.030  0.00  0.00    -0.289 N 
ATOM     17  H6  6TZ d   1     -17.486  -8.969  16.465  0.00  0.00     0.113 H 
ATOM     18  N12 6TZ d   1     -16.119 -11.743  16.796  0.00  0.00    -0.175 NA
ATOM     19  H7  6TZ d   1     -17.322 -11.162  15.118  0.00  0.00     0.188 HD
ENDBRANCH   3  12
TORSDOF 1
