REMARK  5 active torsions:
REMARK  status: ('A' for Active; 'I' for Inactive)
REMARK    1  A    between atoms: C1_1  and  C2_2 
REMARK    2  A    between atoms: C5_5  and  S8_8 
REMARK    3  A    between atoms: S8_8  and  C9_9 
REMARK    4  A    between atoms: C9_9  and  C10_10 
REMARK    5  A    between atoms: C10_10  and  C12_12 
ROOT
ATOM      1  C9  JQN d   1     -19.416 -10.577  12.960  0.00  0.00     0.041 C 
ATOM      2  H8  JQN d   1     -20.420 -11.010  12.835  0.00  0.00     0.061 H 
ATOM      3  H9  JQN d   1     -18.725 -11.352  13.323  0.00  0.00     0.061 H 
ENDROOT
BRANCH   1   4
ATOM      4  S8  JQN d   1     -19.477  -9.203  14.137  0.00  0.00    -0.122 SA
BRANCH   4   5
ATOM      5  C5  JQN d   1     -20.390  -7.938  13.318  0.00  0.00     0.001 A 
ATOM      6  C4  JQN d   1     -21.771  -8.088  13.119  0.00  0.00    -0.066 A 
ATOM      7  C3  JQN d   1     -22.488  -7.079  12.479  0.00  0.00    -0.076 A 
ATOM      8  H5  JQN d   1     -22.277  -8.983  13.461  0.00  0.00     0.085 H 
ATOM      9  C2  JQN d   1     -21.827  -5.939  12.029  0.00  0.00    -0.062 A 
ATOM     10  H4  JQN d   1     -23.557  -7.181  12.332  0.00  0.00     0.084 H 
ATOM     11  C7  JQN d   1     -20.459  -5.784  12.228  0.00  0.00    -0.076 A 
ATOM     12  C6  JQN d   1     -19.730  -6.787  12.863  0.00  0.00    -0.066 A 
ATOM     13  H7  JQN d   1     -19.960  -4.883  11.889  0.00  0.00     0.084 H 
ATOM     14  H6  JQN d   1     -18.661  -6.679  13.004  0.00  0.00     0.085 H 
BRANCH   9  15
ATOM     15  C1  JQN d   1     -22.599  -4.878  11.298  0.00  0.00    -0.051 C 
ATOM     16  H1  JQN d   1     -23.657  -5.171  11.237  0.00  0.00     0.033 H 
ATOM     17  H2  JQN d   1     -22.192  -4.762  10.283  0.00  0.00     0.033 H 
ATOM     18  H3  JQN d   1     -22.513  -3.924  11.839  0.00  0.00     0.033 H 
ENDBRANCH   9  15
ENDBRANCH   4   5
ENDBRANCH   1   4
BRANCH   1  19
ATOM     19  C10 JQN d   1     -18.925 -10.024  11.643  0.00  0.00     0.169 C 
ATOM     20  O11 JQN d   1     -19.738  -9.604  10.848  0.00  0.00    -0.291 OA
BRANCH  19  21
ATOM     21  C12 JQN d   1     -17.498  -9.972  11.288  0.00  0.00     0.011 A 
ATOM     22  C13 JQN d   1     -16.488 -10.147  12.260  0.00  0.00    -0.067 A 
ATOM     23  C14 JQN d   1     -15.164 -10.094  11.902  0.00  0.00    -0.056 A 
ATOM     24  H10 JQN d   1     -16.760 -10.324  13.294  0.00  0.00     0.085 H 
ATOM     25  C15 JQN d   1     -14.804  -9.849  10.560  0.00  0.00     0.041 A 
ATOM     26  H11 JQN d   1     -14.394 -10.241  12.651  0.00  0.00     0.087 H 
ATOM     27  C16 JQN d   1     -15.809  -9.680   9.591  0.00  0.00    -0.022 A 
ATOM     28  N21 JQN d   1     -13.554  -9.819   9.952  0.00  0.00    -0.326 N 
ATOM     29  C17 JQN d   1     -17.139  -9.731   9.943  0.00  0.00    -0.061 A 
ATOM     30  C18 JQN d   1     -15.107  -9.477   8.269  0.00  0.00     0.035 A 
ATOM     31  H12 JQN d   1     -17.907  -9.587   9.192  0.00  0.00     0.085 H 
ATOM     32  C19 JQN d   1     -13.641  -9.624   8.625  0.00  0.00     0.226 A 
ATOM     33  H13 JQN d   1     -15.315  -8.476   7.862  0.00  0.00     0.054 H 
ATOM     34  H14 JQN d   1     -15.413 -10.241   7.539  0.00  0.00     0.054 H 
ATOM     35  O20 JQN d   1     -12.705  -9.581   7.853  0.00  0.00    -0.273 OA
ATOM     36  H15 JQN d   1     -12.691  -9.930  10.445  0.00  0.00     0.169 HD
ENDBRANCH  19  21
ENDBRANCH   1  19
TORSDOF 5
