REMARK  5 active torsions:
REMARK  status: ('A' for Active; 'I' for Inactive)
REMARK    1  A    between atoms: C1_1  and  C2_2 
REMARK    2  A    between atoms: C2_2  and  S3_3 
REMARK    3  A    between atoms: S3_3  and  C4_4 
REMARK    4  A    between atoms: C8_8  and  C10_10 
REMARK    5  A    between atoms: C13_13  and  C15_15 
REMARK       I    between atoms: C15_15  and  N17_17 
ROOT
ATOM      1  C4  DUL d   1      17.242  10.502  11.951  0.00  0.00     0.001 A 
ATOM      2  C5  DUL d   1      15.788  10.401  12.199  0.00  0.00    -0.067 A 
ATOM      3  C6  DUL d   1      14.813  10.043  11.157  0.00  0.00    -0.081 A 
ATOM      4  C7  DUL d   1      15.216   9.707   9.836  0.00  0.00    -0.072 A 
ATOM      5  C8  DUL d   1      16.609   9.846   9.500  0.00  0.00    -0.018 A 
ATOM      6  C9  DUL d   1      17.588  10.215  10.597  0.00  0.00    -0.056 A 
ATOM      7  H6  DUL d   1      15.422  10.601  13.200  0.00  0.00     0.085 H 
ATOM      8  H7  DUL d   1      13.758  10.035  11.404  0.00  0.00     0.083 H 
ATOM      9  H8  DUL d   1      14.497   9.357   9.104  0.00  0.00     0.084 H 
ATOM     10  H9  DUL d   1      18.638  10.265  10.331  0.00  0.00     0.086 H 
ENDROOT
BRANCH   5  11
ATOM     11  C10 DUL d   1      17.200   9.463   8.234  0.00  0.00     0.016 A 
ATOM     12  C11 DUL d   1      18.470   9.672   8.011  0.00  0.00    -0.064 A 
ATOM     13  C12 DUL d   1      18.953   9.233   6.943  0.00  0.00    -0.060 A 
ATOM     14  H10 DUL d   1      19.087  10.210   8.729  0.00  0.00     0.085 H 
ATOM     15  C13 DUL d   1      18.122   8.593   6.164  0.00  0.00     0.073 A 
ATOM     16  H11 DUL d   1      20.000   9.376   6.680  0.00  0.00     0.085 H 
ATOM     17  S14 DUL d   1      16.516   8.525   6.947  0.00  0.00    -0.084 SA
BRANCH  15  18
ATOM     18  C15 DUL d   1      18.738   8.113   4.898  0.00  0.00     0.256 C 
ATOM     19  O16 DUL d   1      19.491   8.766   4.201  0.00  0.00    -0.267 OA
ATOM     20  N17 DUL d   1      18.455   6.886   4.462  0.00  0.00    -0.366 N 
ATOM     21  H12 DUL d   1      18.862   6.551   3.612  0.00  0.00     0.159 HD
ATOM     22  H13 DUL d   1      17.835   6.300   4.984  0.00  0.00     0.159 HD
ENDBRANCH  15  18
ENDBRANCH   5  11
BRANCH   1  23
ATOM     23  S3  DUL d   1      18.573  10.959  13.182  0.00  0.00    -0.130 SA
BRANCH  23  24
ATOM     24  C2  DUL d   1      20.087  10.241  12.665  0.00  0.00    -0.022 C 
ATOM     25  H4  DUL d   1      20.198  10.328  11.574  0.00  0.00     0.048 H 
ATOM     26  H5  DUL d   1      20.934  10.738  13.161  0.00  0.00     0.048 H 
BRANCH  24  27
ATOM     27  C1  DUL d   1      20.025   8.835  13.057  0.00  0.00    -0.068 C 
ATOM     28  H1  DUL d   1      20.954   8.329  12.756  0.00  0.00     0.028 H 
ATOM     29  H2  DUL d   1      19.169   8.354  12.562  0.00  0.00     0.028 H 
ATOM     30  H3  DUL d   1      19.905   8.764  14.148  0.00  0.00     0.028 H 
ENDBRANCH  24  27
ENDBRANCH  23  24
ENDBRANCH   1  23
TORSDOF 5
