REMARK  4 active torsions:
REMARK  status: ('A' for Active; 'I' for Inactive)
REMARK    1  A    between atoms: C6_10  and  C7_5 
REMARK    2  A    between atoms: C2_7  and  C1_13 
REMARK    3  A    between atoms: C17_12  and  C18_14 
REMARK    4  A    between atoms: C17_12  and  C19_15 
ROOT
ATOM      1  C20 B7H d   1      21.950   8.161  12.613  0.00  0.00     0.122 C 
ATOM      2  C3  B7H d   1      20.629   8.691  12.553  0.00  0.00     0.165 A 
ATOM      3  C2  B7H d   1      19.573   8.311  11.765  0.00  0.00     0.008 A 
ATOM      4  C6  B7H d   1      18.509   9.177  12.120  0.00  0.00     0.069 A 
ATOM      5  N21 B7H d   1      23.025   7.741  12.674  0.00  0.00    -0.190 NA
ATOM      6  N5  B7H d   1      18.907  10.050  13.055  0.00  0.00    -0.276 N 
ATOM      7  N4  B7H d   1      20.197   9.748  13.305  0.00  0.00    -0.163 NA
ATOM      8  H12 B7H d   1      18.346  10.795  13.491  0.00  0.00     0.189 HD
ENDROOT
BRANCH   3   9
ATOM      9  C1  B7H d   1      19.549   7.214  10.772  0.00  0.00    -0.046 C 
ATOM     10  H3  B7H d   1      20.538   6.733  10.733  0.00  0.00     0.033 H 
ATOM     11  H4  B7H d   1      19.300   7.622   9.781  0.00  0.00     0.033 H 
ATOM     12  H5  B7H d   1      18.792   6.471  11.064  0.00  0.00     0.033 H 
ENDBRANCH   3   9
BRANCH   4  13
ATOM     13  C7  B7H d   1      17.149   9.246  11.623  0.00  0.00    -0.004 A 
ATOM     14  C8  B7H d   1      16.828   8.880  10.326  0.00  0.00    -0.061 A 
ATOM     15  C9  B7H d   1      15.518   9.053   9.894  0.00  0.00    -0.010 A 
ATOM     16  H1  B7H d   1      17.581   8.468   9.663  0.00  0.00     0.085 H 
ATOM     17  C10 B7H d   1      14.584   9.582  10.735  0.00  0.00     0.081 A 
ATOM     18  C17 B7H d   1      14.873   8.745   8.554  0.00  0.00     0.063 A 
ATOM     19  C11 B7H d   1      14.865   9.940  12.029  0.00  0.00     0.144 A 
ATOM     20  N14 B7H d   1      13.353   9.675  10.110  0.00  0.00    -0.323 N 
ATOM     21  C12 B7H d   1      16.162   9.772  12.456  0.00  0.00    -0.031 A 
ATOM     22  F13 B7H d   1      13.882  10.466  12.806  0.00  0.00    -0.204 F 
ATOM     23  H2  B7H d   1      16.424  10.057  13.469  0.00  0.00     0.089 H 
ATOM     24  C15 B7H d   1      13.448   9.229   8.792  0.00  0.00     0.234 A 
ATOM     25  H13 B7H d   1      12.516  10.013  10.541  0.00  0.00     0.169 HD
ATOM     26  O16 B7H d   1      12.578   9.230   7.919  0.00  0.00    -0.272 OA
BRANCH  18  27
ATOM     27  C18 B7H d   1      14.831   7.227   8.324  0.00  0.00    -0.057 C 
ATOM     28  H6  B7H d   1      15.851   6.854   8.150  0.00  0.00     0.029 H 
ATOM     29  H7  B7H d   1      14.205   7.006   7.447  0.00  0.00     0.029 H 
ATOM     30  H8  B7H d   1      14.407   6.733   9.211  0.00  0.00     0.029 H 
ENDBRANCH  18  27
BRANCH  18  31
ATOM     31  C19 B7H d   1      15.530   9.477   7.401  0.00  0.00    -0.057 C 
ATOM     32  H9  B7H d   1      15.537  10.557   7.609  0.00  0.00     0.029 H 
ATOM     33  H10 B7H d   1      14.966   9.286   6.476  0.00  0.00     0.029 H 
ATOM     34  H11 B7H d   1      16.563   9.120   7.281  0.00  0.00     0.029 H 
ENDBRANCH  18  31
ENDBRANCH   4  13
TORSDOF 4
