REMARK  4 active torsions:
REMARK  status: ('A' for Active; 'I' for Inactive)
REMARK    1  A    between atoms: C1_1  and  S2_2 
REMARK    2  A    between atoms: S2_2  and  N5_5 
REMARK    3  A    between atoms: C8_8  and  N11_11 
REMARK       I    between atoms: N11_11  and  C12_12 
REMARK       I    between atoms: C12_12  and  N14_14 
REMARK    4  A    between atoms: N14_14  and  C15_15 
ROOT
ATOM      1  N11 XQ9 d   1     -15.850  11.502 -16.361  0.00  0.00    -0.338 N 
ATOM      2  C12 XQ9 d   1     -16.629  10.606 -15.717  0.00  0.00     0.317 C 
ATOM      3  O13 XQ9 d   1     -16.895   9.564 -16.283  0.00  0.00    -0.247 OA
ATOM      4  N14 XQ9 d   1     -17.108  10.912 -14.470  0.00  0.00    -0.334 N 
ATOM      5  H13 XQ9 d   1     -15.640  12.362 -15.896  0.00  0.00     0.164 HD
ATOM      6  H14 XQ9 d   1     -16.874  11.825 -14.136  0.00  0.00     0.165 HD
ENDROOT
BRANCH   4   7
ATOM      7  C15 XQ9 d   1     -17.925  10.086 -13.540  0.00  0.00     0.035 C 
ATOM      8  C16 XQ9 d   1     -16.932   9.144 -12.786  0.00  0.00    -0.038 C 
ATOM      9  C17 XQ9 d   1     -17.671   8.306 -11.706  0.00  0.00    -0.051 C 
ATOM     10  H15 XQ9 d   1     -16.157   9.754 -12.300  0.00  0.00     0.037 H 
ATOM     11  H16 XQ9 d   1     -16.462   8.463 -13.511  0.00  0.00     0.037 H 
ATOM     12  C18 XQ9 d   1     -18.341   9.254 -10.670  0.00  0.00    -0.058 C 
ATOM     13  C23 XQ9 d   1     -18.759   7.441 -12.401  0.00  0.00    -0.058 C 
ATOM     14  H17 XQ9 d   1     -16.952   7.652 -11.191  0.00  0.00     0.040 H 
ATOM     15  C19 XQ9 d   1     -19.348  10.180 -11.402  0.00  0.00    -0.051 C 
ATOM     16  H18 XQ9 d   1     -17.570   9.865 -10.178  0.00  0.00     0.034 H 
ATOM     17  H19 XQ9 d   1     -18.873   8.657  -9.915  0.00  0.00     0.034 H 
ATOM     18  C20 XQ9 d   1     -18.614  11.018 -12.501  0.00  0.00    -0.038 C 
ATOM     19  C21 XQ9 d   1     -20.429   9.292 -12.073  0.00  0.00    -0.058 C 
ATOM     20  H20 XQ9 d   1     -19.820  10.860 -10.677  0.00  0.00     0.040 H 
ATOM     21  H21 XQ9 d   1     -19.347  11.655 -13.018  0.00  0.00     0.037 H 
ATOM     22  H22 XQ9 d   1     -17.852  11.650 -12.023  0.00  0.00     0.037 H 
ATOM     23  C22 XQ9 d   1     -19.780   8.357 -13.129  0.00  0.00    -0.051 C 
ATOM     24  H23 XQ9 d   1     -21.172   9.936 -12.566  0.00  0.00     0.034 H 
ATOM     25  H24 XQ9 d   1     -20.925   8.681 -11.304  0.00  0.00     0.034 H 
ATOM     26  C24 XQ9 d   1     -19.049   9.229 -14.195  0.00  0.00    -0.038 C 
ATOM     27  H25 XQ9 d   1     -20.552   7.744 -13.617  0.00  0.00     0.040 H 
ATOM     28  H28 XQ9 d   1     -18.603   8.570 -14.954  0.00  0.00     0.037 H 
ATOM     29  H29 XQ9 d   1     -19.779   9.898 -14.674  0.00  0.00     0.037 H 
ATOM     30  H26 XQ9 d   1     -19.284   6.839 -11.645  0.00  0.00     0.034 H 
ATOM     31  H27 XQ9 d   1     -18.281   6.774 -13.133  0.00  0.00     0.034 H 
ENDBRANCH   4   7
BRANCH   1  32
ATOM     32  C8  XQ9 d   1     -15.293  11.288 -17.704  0.00  0.00     0.017 C 
ATOM     33  C7  XQ9 d   1     -14.965  12.642 -18.352  0.00  0.00    -0.030 C 
ATOM     34  C6  XQ9 d   1     -14.534  12.402 -19.804  0.00  0.00     0.007 C 
ATOM     35  H6  XQ9 d   1     -15.856  13.287 -18.332  0.00  0.00     0.038 H 
ATOM     36  H7  XQ9 d   1     -14.148  13.128 -17.799  0.00  0.00     0.038 H 
ATOM     37  N5  XQ9 d   1     -13.418  11.429 -19.858  0.00  0.00    -0.311 N 
ATOM     38  H4  XQ9 d   1     -15.387  12.007 -20.375  0.00  0.00     0.065 H 
ATOM     39  H5  XQ9 d   1     -14.206  13.354 -20.247  0.00  0.00     0.065 H 
ATOM     40  C10 XQ9 d   1     -13.535  10.153 -19.112  0.00  0.00     0.007 C 
ATOM     41  C9  XQ9 d   1     -14.030  10.407 -17.671  0.00  0.00    -0.030 C 
ATOM     42  H11 XQ9 d   1     -12.550   9.665 -19.075  0.00  0.00     0.065 H 
ATOM     43  H12 XQ9 d   1     -14.250   9.497 -19.629  0.00  0.00     0.065 H 
ATOM     44  H9  XQ9 d   1     -14.267   9.446 -17.191  0.00  0.00     0.038 H 
ATOM     45  H10 XQ9 d   1     -13.242  10.918 -17.099  0.00  0.00     0.038 H 
ATOM     46  H8  XQ9 d   1     -16.053  10.779 -18.315  0.00  0.00     0.072 H 
BRANCH  37  47
ATOM     47  S2  XQ9 d   1     -12.070  11.753 -20.790  0.00  0.00     0.224 S 
ATOM     48  O3  XQ9 d   1     -11.001  10.993 -20.231  0.00  0.00    -0.206 OA
ATOM     49  O4  XQ9 d   1     -11.998  13.175 -20.837  0.00  0.00    -0.206 OA
BRANCH  47  50
ATOM     50  C1  XQ9 d   1     -12.524  11.088 -22.416  0.00  0.00     0.032 C 
ATOM     51  H1  XQ9 d   1     -12.575   9.991 -22.362  0.00  0.00     0.051 H 
ATOM     52  H2  XQ9 d   1     -11.767  11.384 -23.157  0.00  0.00     0.051 H 
ATOM     53  H3  XQ9 d   1     -13.505  11.486 -22.714  0.00  0.00     0.051 H 
ENDBRANCH  47  50
ENDBRANCH  37  47
ENDBRANCH   1  32
TORSDOF 4
