REMARK  4 active torsions:
REMARK  status: ('A' for Active; 'I' for Inactive)
REMARK    1  A    between atoms: C1_1  and  C2_2 
REMARK    2  A    between atoms: C2_2  and  C19_19 
REMARK    3  A    between atoms: C5_5  and  C13_13 
REMARK    4  A    between atoms: N17_17  and  C18_18 
ROOT
ATOM      1  C2  LWS d   1      14.971   8.936   8.301  0.00  0.00     0.063 A 
ATOM      2  C3  LWS d   1      15.543   9.170   9.655  0.00  0.00    -0.010 A 
ATOM      3  C4  LWS d   1      16.820   8.938  10.134  0.00  0.00    -0.061 A 
ATOM      4  C5  LWS d   1      17.090   9.238  11.459  0.00  0.00    -0.006 A 
ATOM      5  C6  LWS d   1      16.088   9.749  12.281  0.00  0.00    -0.031 A 
ATOM      6  C7  LWS d   1      14.817   9.984  11.789  0.00  0.00     0.144 A 
ATOM      7  C8  LWS d   1      14.574   9.671  10.477  0.00  0.00     0.081 A 
ATOM      8  N9  LWS d   1      13.380   9.815   9.785  0.00  0.00    -0.323 N 
ATOM      9  C10 LWS d   1      13.547   9.434   8.471  0.00  0.00     0.234 A 
ATOM     10  O11 LWS d   1      12.697   9.523   7.595  0.00  0.00    -0.272 OA
ATOM     11  F12 LWS d   1      13.834  10.488  12.562  0.00  0.00    -0.204 F 
ATOM     12  H4  LWS d   1      17.590   8.531   9.488  0.00  0.00     0.085 H 
ATOM     13  H5  LWS d   1      16.308   9.965  13.320  0.00  0.00     0.089 H 
ATOM     14  H6  LWS d   1      12.524  10.147  10.181  0.00  0.00     0.169 HD
ENDROOT
BRANCH   4  15
ATOM     15  C13 LWS d   1      18.420   8.982  11.966  0.00  0.00     0.044 A 
ATOM     16  C14 LWS d   1      19.251   7.905  11.729  0.00  0.00    -0.055 A 
ATOM     17  C15 LWS d   1      20.455   8.092  12.457  0.00  0.00    -0.066 A 
ATOM     18  H7  LWS d   1      19.021   7.054  11.090  0.00  0.00     0.087 H 
ATOM     19  C16 LWS d   1      20.340   9.295  13.115  0.00  0.00    -0.020 A 
ATOM     20  H8  LWS d   1      21.306   7.414  12.489  0.00  0.00     0.085 H 
ATOM     21  N17 LWS d   1      19.113   9.816  12.811  0.00  0.00    -0.360 N 
ATOM     22  H9  LWS d   1      21.090   9.749  13.761  0.00  0.00     0.111 H 
BRANCH  21  23
ATOM     23  C18 LWS d   1      18.664  11.101  13.311  0.00  0.00    -0.014 C 
ATOM     24  H10 LWS d   1      17.651  11.307  12.935  0.00  0.00     0.057 H 
ATOM     25  H11 LWS d   1      19.350  11.889  12.967  0.00  0.00     0.057 H 
ATOM     26  H12 LWS d   1      18.650  11.082  14.411  0.00  0.00     0.057 H 
ENDBRANCH  21  23
ENDBRANCH   4  15
BRANCH   1  27
ATOM     27  C1  LWS d   1      15.675   9.725   7.222  0.00  0.00    -0.057 C 
ATOM     28  H1  LWS d   1      16.704   9.354   7.109  0.00  0.00     0.029 H 
ATOM     29  H2  LWS d   1      15.697  10.789   7.501  0.00  0.00     0.029 H 
ATOM     30  H3  LWS d   1      15.136   9.606   6.270  0.00  0.00     0.029 H 
ENDBRANCH   1  27
BRANCH   1  31
ATOM     31  C19 LWS d   1      14.982   7.451   8.033  0.00  0.00    -0.057 C 
ATOM     32  H13 LWS d   1      14.458   6.928   8.847  0.00  0.00     0.029 H 
ATOM     33  H14 LWS d   1      16.022   7.096   7.978  0.00  0.00     0.029 H 
ATOM     34  H15 LWS d   1      14.474   7.247   7.079  0.00  0.00     0.029 H 
ENDBRANCH   1  31
TORSDOF 4
