REMARK  2 active torsions:
REMARK  status: ('A' for Active; 'I' for Inactive)
REMARK    1  A    between atoms: C21_21  and  C11_11 
REMARK       I    between atoms: C14_14  and  N24_24 
REMARK       I    between atoms: N25_25  and  C14_14 
REMARK    2  A    between atoms: C22_22  and  N25_25 
ROOT
ATOM      1  C2  I5T d   1       9.214  11.150  21.743  0.00  0.00    -0.082 A 
ATOM      2  C5  I5T d   1       9.138  11.131  20.360  0.00  0.00    -0.080 A 
ATOM      3  C6  I5T d   1      10.400  11.493  22.362  0.00  0.00    -0.067 A 
ATOM      4  C9  I5T d   1      10.236  11.440  19.580  0.00  0.00    -0.050 A 
ATOM      5  C10 I5T d   1      11.489  11.820  21.573  0.00  0.00     0.043 A 
ATOM      6  C12 I5T d   1      11.421  11.797  20.187  0.00  0.00     0.083 A 
ATOM      7  C13 I5T d   1      12.745  12.218  22.243  0.00  0.00     0.165 C 
ATOM      8  C14 I5T d   1      16.287  10.675  16.842  0.00  0.00     0.318 C 
ATOM      9  C15 I5T d   1      13.843  12.740  21.335  0.00  0.00     0.024 C 
ATOM     10  C16 I5T d   1      14.644  13.064  19.073  0.00  0.00    -0.020 C 
ATOM     11  C17 I5T d   1      14.415  10.709  19.927  0.00  0.00    -0.020 C 
ATOM     12  C19 I5T d   1      14.824  12.528  17.667  0.00  0.00     0.002 C 
ATOM     13  C20 I5T d   1      14.566  10.200  18.499  0.00  0.00     0.002 C 
ATOM     14  C23 I5T d   1      13.813  12.123  19.938  0.00  0.00     0.077 C 
ATOM     15  N24 I5T d   1      15.253  11.140  17.634  0.00  0.00    -0.334 N 
ATOM     16  N25 I5T d   1      16.720  11.469  15.799  0.00  0.00    -0.338 N 
ATOM     17  O26 I5T d   1      12.841  12.132  23.465  0.00  0.00    -0.292 OA
ATOM     18  O27 I5T d   1      16.846   9.609  17.063  0.00  0.00    -0.247 OA
ATOM     19  O28 I5T d   1      12.486  12.118  19.337  0.00  0.00    -0.339 OA
ATOM     20  H2  I5T d   1       8.344  10.896  22.338  0.00  0.00     0.083 H 
ATOM     21  H5  I5T d   1       8.201  10.869  19.881  0.00  0.00     0.083 H 
ATOM     22  H6  I5T d   1      10.476  11.506  23.443  0.00  0.00     0.085 H 
ATOM     23  H9  I5T d   1      10.166  11.402  18.499  0.00  0.00     0.087 H 
ATOM     24  H10 I5T d   1      14.816  12.513  21.796  0.00  0.00     0.049 H 
ATOM     25  H11 I5T d   1      13.728  13.830  21.238  0.00  0.00     0.049 H 
ATOM     26  H12 I5T d   1      14.137  14.039  19.020  0.00  0.00     0.040 H 
ATOM     27  H13 I5T d   1      15.634  13.190  19.535  0.00  0.00     0.040 H 
ATOM     28  H14 I5T d   1      15.404  10.734  20.408  0.00  0.00     0.040 H 
ATOM     29  H15 I5T d   1      13.753  10.030  20.484  0.00  0.00     0.040 H 
ATOM     30  H18 I5T d   1      15.580  13.140  17.154  0.00  0.00     0.064 H 
ATOM     31  H19 I5T d   1      13.864  12.610  17.136  0.00  0.00     0.064 H 
ATOM     32  H20 I5T d   1      13.564  10.011  18.086  0.00  0.00     0.064 H 
ATOM     33  H21 I5T d   1      15.137   9.260  18.520  0.00  0.00     0.064 H 
ATOM     34  H24 I5T d   1      16.787  12.464  15.870  0.00  0.00     0.164 HD
ENDROOT
BRANCH  16  35
ATOM     35  C22 I5T d   1      17.061  10.766  14.626  0.00  0.00     0.022 A 
ATOM     36  C18 I5T d   1      16.994  11.294  13.242  0.00  0.00    -0.036 A 
ATOM     37  C21 I5T d   1      18.321  10.987  13.859  0.00  0.00    -0.007 A 
ATOM     38  H16 I5T d   1      16.605  10.661  12.431  0.00  0.00     0.037 H 
ATOM     39  H17 I5T d   1      16.698  12.339  13.066  0.00  0.00     0.037 H 
ATOM     40  H22 I5T d   1      18.995  11.817  14.118  0.00  0.00     0.050 H 
ATOM     41  H23 I5T d   1      16.733   9.728  14.782  0.00  0.00     0.073 H 
BRANCH  37  42
ATOM     42  C11 I5T d   1      19.121   9.818  13.485  0.00  0.00    -0.052 A 
ATOM     43  C7  I5T d   1      18.634   8.530  13.567  0.00  0.00    -0.076 A 
ATOM     44  C3  I5T d   1      19.372   7.414  13.232  0.00  0.00    -0.082 A 
ATOM     45  H7  I5T d   1      17.617   8.387  13.913  0.00  0.00     0.084 H 
ATOM     46  C1  I5T d   1      20.663   7.597  12.788  0.00  0.00    -0.083 A 
ATOM     47  H3  I5T d   1      18.948   6.420  13.316  0.00  0.00     0.083 H 
ATOM     48  C4  I5T d   1      21.177   8.870  12.689  0.00  0.00    -0.082 A 
ATOM     49  H1  I5T d   1      21.272   6.742  12.518  0.00  0.00     0.083 H 
ATOM     50  C8  I5T d   1      20.417   9.969  13.038  0.00  0.00    -0.076 A 
ATOM     51  H4  I5T d   1      22.191   9.012  12.333  0.00  0.00     0.083 H 
ATOM     52  H8  I5T d   1      20.844  10.962  12.960  0.00  0.00     0.084 H 
ENDBRANCH  37  42
ENDBRANCH  16  35
TORSDOF 2
