REMARK  1 active torsions:
REMARK  status: ('A' for Active; 'I' for Inactive)
REMARK    1  A    between atoms: C2_6  and  C1_10 
ROOT
ATOM      1  C4  KUF d   1     -19.833  -5.366  11.812  0.00  0.00    -0.071 A 
ATOM      2  C3  KUF d   1     -18.559  -4.997  11.431  0.00  0.00    -0.076 A 
ATOM      3  C12 KUF d   1     -17.927  -7.299  11.986  0.00  0.00    -0.061 A 
ATOM      4  C5  KUF d   1     -20.172  -6.622  12.274  0.00  0.00    -0.019 A 
ATOM      5  C11 KUF d   1     -19.226  -7.671  12.381  0.00  0.00     0.043 A 
ATOM      6  C2  KUF d   1     -17.588  -5.986  11.507  0.00  0.00    -0.061 A 
ATOM      7  C6  KUF d   1     -21.549  -6.844  12.641  0.00  0.00    -0.057 A 
ATOM      8  C7  KUF d   1     -21.975  -8.011  13.091  0.00  0.00    -0.019 A 
ATOM      9  C9  KUF d   1     -19.753  -8.998  12.901  0.00  0.00     0.256 A 
ATOM     10  N8  KUF d   1     -21.095  -9.009  13.198  0.00  0.00    -0.333 N 
ATOM     11  O10 KUF d   1     -19.193 -10.038  13.107  0.00  0.00    -0.267 OA
ATOM     12  H1  KUF d   1     -20.618  -4.622  11.744  0.00  0.00     0.084 H 
ATOM     13  H2  KUF d   1     -18.330  -3.993  11.092  0.00  0.00     0.084 H 
ATOM     14  H3  KUF d   1     -17.140  -8.042  12.046  0.00  0.00     0.085 H 
ATOM     15  H4  KUF d   1     -22.260  -6.024  12.544  0.00  0.00     0.086 H 
ATOM     16  H5  KUF d   1     -23.018  -8.155  13.368  0.00  0.00     0.111 H 
ATOM     17  H9  KUF d   1     -21.459  -9.876  13.538  0.00  0.00     0.168 HD
ENDROOT
BRANCH   6  18
ATOM     18  C1  KUF d   1     -16.231  -5.621  11.098  0.00  0.00    -0.051 C 
ATOM     19  H6  KUF d   1     -16.217  -4.571  10.771  0.00  0.00     0.033 H 
ATOM     20  H7  KUF d   1     -15.912  -6.268  10.268  0.00  0.00     0.033 H 
ATOM     21  H8  KUF d   1     -15.545  -5.750  11.948  0.00  0.00     0.033 H 
ENDBRANCH   6  18
TORSDOF 1
