REMARK  5 active torsions:
REMARK  status: ('A' for Active; 'I' for Inactive)
REMARK    1  A    between atoms: C23_5  and  C28_7 
REMARK    2  A    between atoms: O19_30  and  C20_6 
REMARK       I    between atoms: C26_8  and  N18_25 
REMARK       I    between atoms: N11_26  and  C26_8 
REMARK    3  A    between atoms: N18_25  and  C13_22 
REMARK    4  A    between atoms: C16_23  and  O19_30 
REMARK    5  A    between atoms: C7_24  and  N11_26 
ROOT
ATOM      1  C26 AUB d   1      15.870  10.844  16.847  0.00  0.00     0.317 C 
ATOM      2  N18 AUB d   1      16.502  11.352  15.742  0.00  0.00    -0.339 N 
ATOM      3  N11 AUB d   1      15.063  11.789  17.456  0.00  0.00    -0.334 N 
ATOM      4  O27 AUB d   1      16.028   9.697  17.238  0.00  0.00    -0.247 OA
ATOM      5  H30 AUB d   1      16.598  12.344  15.655  0.00  0.00     0.164 HD
ATOM      6  H31 AUB d   1      14.969  12.668  16.989  0.00  0.00     0.165 HD
ENDROOT
BRANCH   2   7
ATOM      7  C13 AUB d   1      17.032  10.511  14.702  0.00  0.00     0.014 C 
ATOM      8  C14 AUB d   1      15.997  10.271  13.617  0.00  0.00    -0.044 C 
ATOM      9  C15 AUB d   1      16.562   9.342  12.558  0.00  0.00    -0.038 C 
ATOM     10  H5  AUB d   1      15.101   9.814  14.063  0.00  0.00     0.036 H 
ATOM     11  H6  AUB d   1      15.726  11.231  13.153  0.00  0.00     0.036 H 
ATOM     12  C16 AUB d   1      17.778   9.986  11.901  0.00  0.00     0.045 C 
ATOM     13  H9  AUB d   1      15.794   9.149  11.794  0.00  0.00     0.036 H 
ATOM     14  H10 AUB d   1      16.860   8.393  13.027  0.00  0.00     0.036 H 
ATOM     15  C17 AUB d   1      18.842  10.260  12.965  0.00  0.00    -0.038 C 
ATOM     16  H29 AUB d   1      17.479  10.917  11.397  0.00  0.00     0.084 H 
ATOM     17  C12 AUB d   1      18.309  11.106  14.109  0.00  0.00    -0.044 C 
ATOM     18  H11 AUB d   1      19.194   9.299  13.369  0.00  0.00     0.036 H 
ATOM     19  H12 AUB d   1      19.684  10.790  12.495  0.00  0.00     0.036 H 
ATOM     20  H7  AUB d   1      18.091  12.117  13.734  0.00  0.00     0.036 H 
ATOM     21  H8  AUB d   1      19.075  11.164  14.897  0.00  0.00     0.036 H 
ATOM     22  H28 AUB d   1      17.287   9.539  15.150  0.00  0.00     0.072 H 
BRANCH  12  23
ATOM     23  O19 AUB d   1      18.395   9.088  10.971  0.00  0.00    -0.346 OA
BRANCH  23  24
ATOM     24  C20 AUB d   1      17.888   9.068   9.674  0.00  0.00     0.069 A 
ATOM     25  C21 AUB d   1      16.858   9.870   9.212  0.00  0.00    -0.050 A 
ATOM     26  C22 AUB d   1      16.415   9.749   7.910  0.00  0.00    -0.064 A 
ATOM     27  H3  AUB d   1      16.398  10.595   9.874  0.00  0.00     0.087 H 
ATOM     28  C23 AUB d   1      17.011   8.818   7.083  0.00  0.00     0.041 A 
ATOM     29  H1  AUB d   1      15.611  10.376   7.542  0.00  0.00     0.085 H 
ATOM     30  C24 AUB d   1      18.046   8.012   7.527  0.00  0.00    -0.064 A 
ATOM     31  C25 AUB d   1      18.482   8.145   8.831  0.00  0.00    -0.050 A 
ATOM     32  H2  AUB d   1      18.506   7.289   6.863  0.00  0.00     0.085 H 
ATOM     33  H4  AUB d   1      19.292   7.524   9.195  0.00  0.00     0.087 H 
BRANCH  28  34
ATOM     34  C28 AUB d   1      16.514   8.707   5.701  0.00  0.00     0.209 C 
ATOM     35  O29 AUB d   1      15.544   9.305   5.256  0.00  0.00    -0.644 OA
ATOM     36  O30 AUB d   1      17.301   7.847   5.014  0.00  0.00    -0.644 OA
ENDBRANCH  28  34
ENDBRANCH  23  24
ENDBRANCH  12  23
ENDBRANCH   2   7
BRANCH   3  37
ATOM     37  C7  AUB d   1      14.337  11.632  18.710  0.00  0.00     0.035 C 
ATOM     38  C2  AUB d   1      15.224  11.151  19.880  0.00  0.00    -0.038 C 
ATOM     39  C1  AUB d   1      14.380  11.014  21.162  0.00  0.00    -0.051 C 
ATOM     40  H19 AUB d   1      15.662  10.174  19.627  0.00  0.00     0.037 H 
ATOM     41  H20 AUB d   1      16.029  11.881  20.050  0.00  0.00     0.037 H 
ATOM     42  C6  AUB d   1      13.228  10.025  20.947  0.00  0.00    -0.058 C 
ATOM     43  C9  AUB d   1      13.806  12.392  21.513  0.00  0.00    -0.058 C 
ATOM     44  H25 AUB d   1      15.017  10.656  21.984  0.00  0.00     0.040 H 
ATOM     45  C5  AUB d   1      12.327  10.508  19.798  0.00  0.00    -0.051 C 
ATOM     46  H13 AUB d   1      12.634   9.952  21.870  0.00  0.00     0.034 H 
ATOM     47  H14 AUB d   1      13.639   9.036  20.696  0.00  0.00     0.034 H 
ATOM     48  C4  AUB d   1      11.776  11.909  20.142  0.00  0.00    -0.058 C 
ATOM     49  C10 AUB d   1      13.169  10.625  18.523  0.00  0.00    -0.038 C 
ATOM     50  H26 AUB d   1      11.499   9.801  19.644  0.00  0.00     0.040 H 
ATOM     51  C3  AUB d   1      12.927  12.911  20.373  0.00  0.00    -0.051 C 
ATOM     52  H17 AUB d   1      11.167  11.842  21.056  0.00  0.00     0.034 H 
ATOM     53  H18 AUB d   1      11.150  12.264  19.310  0.00  0.00     0.034 H 
ATOM     54  C8  AUB d   1      13.780  13.017  19.100  0.00  0.00    -0.038 C 
ATOM     55  H27 AUB d   1      12.517  13.899  20.632  0.00  0.00     0.040 H 
ATOM     56  H23 AUB d   1      14.617  13.707  19.281  0.00  0.00     0.037 H 
ATOM     57  H24 AUB d   1      13.159  13.402  18.278  0.00  0.00     0.037 H 
ATOM     58  H21 AUB d   1      12.527  10.970  17.699  0.00  0.00     0.037 H 
ATOM     59  H22 AUB d   1      13.584   9.637  18.275  0.00  0.00     0.037 H 
ATOM     60  H15 AUB d   1      14.633  13.097  21.682  0.00  0.00     0.034 H 
ATOM     61  H16 AUB d   1      13.201  12.310  22.428  0.00  0.00     0.034 H 
ENDBRANCH   3  37
TORSDOF 5
