REMARK  1 active torsions:
REMARK  status: ('A' for Active; 'I' for Inactive)
REMARK    1  A    between atoms: C6_6  and  C7_7 
ROOT
ATOM      1  C1  MVJ d   1     -15.871 -10.050  12.192  0.00  0.00    -0.074 A 
ATOM      2  C2  MVJ d   1     -14.654 -10.295  11.585  0.00  0.00    -0.056 A 
ATOM      3  C3  MVJ d   1     -14.528  -9.986  10.246  0.00  0.00     0.042 A 
ATOM      4  C4  MVJ d   1     -15.555  -9.449   9.517  0.00  0.00    -0.013 A 
ATOM      5  C5  MVJ d   1     -16.772  -9.212  10.131  0.00  0.00    -0.067 A 
ATOM      6  C6  MVJ d   1     -16.928  -9.510  11.476  0.00  0.00    -0.053 A 
ATOM      7  C13 MVJ d   1     -15.124  -9.232   8.097  0.00  0.00     0.074 A 
ATOM      8  C14 MVJ d   1     -15.191  -7.764   7.691  0.00  0.00    -0.026 C 
ATOM      9  C15 MVJ d   1     -16.590  -7.361   7.236  0.00  0.00     0.021 C 
ATOM     10  O16 MVJ d   1     -17.076  -8.259   6.235  0.00  0.00    -0.391 OA
ATOM     11  C17 MVJ d   1     -17.238  -9.586   6.745  0.00  0.00     0.021 C 
ATOM     12  C18 MVJ d   1     -15.872 -10.150   7.130  0.00  0.00    -0.026 C 
ATOM     13  C19 MVJ d   1     -13.668  -9.680   8.165  0.00  0.00     0.235 A 
ATOM     14  O20 MVJ d   1     -12.857  -9.650   7.245  0.00  0.00    -0.272 OA
ATOM     15  N21 MVJ d   1     -13.402 -10.150   9.438  0.00  0.00    -0.326 N 
ATOM     16  H1  MVJ d   1     -16.001 -10.283  13.243  0.00  0.00     0.084 H 
ATOM     17  H2  MVJ d   1     -13.825 -10.716  12.143  0.00  0.00     0.087 H 
ATOM     18  H3  MVJ d   1     -17.598  -8.796   9.565  0.00  0.00     0.085 H 
ATOM     19  H15 MVJ d   1     -14.485  -7.591   6.865  0.00  0.00     0.038 H 
ATOM     20  H16 MVJ d   1     -14.905  -7.144   8.553  0.00  0.00     0.038 H 
ATOM     21  H17 MVJ d   1     -16.555  -6.343   6.821  0.00  0.00     0.074 H 
ATOM     22  H18 MVJ d   1     -17.270  -7.382   8.100  0.00  0.00     0.074 H 
ATOM     23  H19 MVJ d   1     -17.694 -10.223   5.973  0.00  0.00     0.074 H 
ATOM     24  H20 MVJ d   1     -17.889  -9.562   7.632  0.00  0.00     0.074 H 
ATOM     25  H21 MVJ d   1     -16.015 -11.130   7.609  0.00  0.00     0.038 H 
ATOM     26  H22 MVJ d   1     -15.269 -10.272   6.218  0.00  0.00     0.038 H 
ATOM     27  H23 MVJ d   1     -12.534 -10.547   9.735  0.00  0.00     0.169 HD
ENDROOT
BRANCH   6  28
ATOM     28  C7  MVJ d   1     -18.223  -9.264  12.186  0.00  0.00    -0.029 C 
ATOM     29  C8  MVJ d   1     -18.525  -7.774  12.245  0.00  0.00    -0.058 C 
ATOM     30  C9  MVJ d   1     -19.870  -7.455  12.887  0.00  0.00    -0.064 C 
ATOM     31  H5  MVJ d   1     -18.525  -7.377  11.219  0.00  0.00     0.034 H 
ATOM     32  H6  MVJ d   1     -17.734  -7.280  12.829  0.00  0.00     0.034 H 
ATOM     33  C10 MVJ d   1     -21.007  -8.306  12.349  0.00  0.00    -0.065 C 
ATOM     34  H7  MVJ d   1     -20.105  -6.397  12.698  0.00  0.00     0.033 H 
ATOM     35  H8  MVJ d   1     -19.789  -7.625  13.971  0.00  0.00     0.033 H 
ATOM     36  C11 MVJ d   1     -20.664  -9.789  12.317  0.00  0.00    -0.064 C 
ATOM     37  H9  MVJ d   1     -21.240  -7.976  11.326  0.00  0.00     0.033 H 
ATOM     38  H10 MVJ d   1     -21.889  -8.162  12.991  0.00  0.00     0.033 H 
ATOM     39  C12 MVJ d   1     -19.368 -10.050  11.564  0.00  0.00    -0.058 C 
ATOM     40  H11 MVJ d   1     -21.481 -10.333  11.820  0.00  0.00     0.033 H 
ATOM     41  H12 MVJ d   1     -20.556 -10.152  13.350  0.00  0.00     0.033 H 
ATOM     42  H13 MVJ d   1     -19.135 -11.124  11.606  0.00  0.00     0.034 H 
ATOM     43  H14 MVJ d   1     -19.491  -9.742  10.515  0.00  0.00     0.034 H 
ATOM     44  H4  MVJ d   1     -18.107  -9.620  13.220  0.00  0.00     0.047 H 
ENDBRANCH   6  28
TORSDOF 1
