REMARK  4 active torsions:
REMARK  status: ('A' for Active; 'I' for Inactive)
REMARK    1  A    between atoms: C1_1  and  C2_2 
REMARK    2  A    between atoms: C2_2  and  C3_3 
REMARK    3  A    between atoms: C3_3  and  C4_4 
REMARK    4  A    between atoms: C6_6  and  C12_11 
ROOT
ATOM      1  C4  6NZ d   1      15.413   8.868   8.512  0.00  0.00     0.010 A 
ATOM      2  C5  6NZ d   1      16.400   8.761   9.489  0.00  0.00    -0.064 A 
ATOM      3  C6  6NZ d   1      16.151   9.183  10.828  0.00  0.00    -0.038 A 
ATOM      4  C7  6NZ d   1      14.918   9.694  11.119  0.00  0.00    -0.013 A 
ATOM      5  N8  6NZ d   1      13.945   9.795  10.165  0.00  0.00    -0.333 N 
ATOM      6  C10 6NZ d   1      14.150   9.404   8.881  0.00  0.00     0.251 A 
ATOM      7  O11 6NZ d   1      13.244   9.528   8.058  0.00  0.00    -0.268 OA
ATOM      8  H8  6NZ d   1      17.374   8.350   9.227  0.00  0.00     0.085 H 
ATOM      9  H9  6NZ d   1      14.706  10.028  12.133  0.00  0.00     0.112 H 
ATOM     10  H10 6NZ d   1      13.053  10.169  10.421  0.00  0.00     0.168 HD
ENDROOT
BRANCH   3  11
ATOM     11  C12 6NZ d   1      17.179   9.098  11.952  0.00  0.00    -0.027 C 
ATOM     12  C13 6NZ d   1      18.297   8.045  11.706  0.00  0.00    -0.058 C 
ATOM     13  C14 6NZ d   1      19.506   8.127  12.671  0.00  0.00    -0.064 C 
ATOM     14  H12 6NZ d   1      18.671   8.179  10.680  0.00  0.00     0.034 H 
ATOM     15  H13 6NZ d   1      17.850   7.045  11.805  0.00  0.00     0.034 H 
ATOM     16  C15 6NZ d   1      19.971   9.579  12.917  0.00  0.00    -0.065 C 
ATOM     17  H14 6NZ d   1      20.342   7.558  12.238  0.00  0.00     0.033 H 
ATOM     18  H15 6NZ d   1      19.219   7.681  13.635  0.00  0.00     0.033 H 
ATOM     19  C16 6NZ d   1      18.795  10.438  13.409  0.00  0.00    -0.064 C 
ATOM     20  H16 6NZ d   1      20.360  10.000  11.978  0.00  0.00     0.033 H 
ATOM     21  H17 6NZ d   1      20.766   9.582  13.677  0.00  0.00     0.033 H 
ATOM     22  C17 6NZ d   1      17.733  10.499  12.295  0.00  0.00    -0.058 C 
ATOM     23  H18 6NZ d   1      19.149  11.454  13.640  0.00  0.00     0.033 H 
ATOM     24  H19 6NZ d   1      18.359   9.987  14.313  0.00  0.00     0.033 H 
ATOM     25  H20 6NZ d   1      16.902  11.138  12.630  0.00  0.00     0.034 H 
ATOM     26  H21 6NZ d   1      18.189  10.932  11.392  0.00  0.00     0.034 H 
ATOM     27  H11 6NZ d   1      16.633   8.753  12.843  0.00  0.00     0.047 H 
ENDBRANCH   3  11
BRANCH   1  28
ATOM     28  C3  6NZ d   1      15.663   8.446   7.077  0.00  0.00    -0.036 C 
ATOM     29  H6  6NZ d   1      14.865   8.855   6.440  0.00  0.00     0.040 H 
ATOM     30  H7  6NZ d   1      16.634   8.846   6.751  0.00  0.00     0.040 H 
BRANCH  28  31
ATOM     31  C2  6NZ d   1      15.680   6.917   6.935  0.00  0.00    -0.065 C 
ATOM     32  H4  6NZ d   1      16.654   6.609   6.527  0.00  0.00     0.032 H 
ATOM     33  H5  6NZ d   1      15.540   6.466   7.929  0.00  0.00     0.032 H 
BRANCH  31  34
ATOM     34  C1  6NZ d   1      14.568   6.414   6.000  0.00  0.00    -0.076 C 
ATOM     35  H1  6NZ d   1      14.618   5.317   5.928  0.00  0.00     0.027 H 
ATOM     36  H2  6NZ d   1      14.703   6.854   5.001  0.00  0.00     0.027 H 
ATOM     37  H3  6NZ d   1      13.588   6.711   6.402  0.00  0.00     0.027 H 
ENDBRANCH  31  34
ENDBRANCH  28  31
ENDBRANCH   1  28
TORSDOF 4
