REMARK  7 active torsions:
REMARK  status: ('A' for Active; 'I' for Inactive)
REMARK    1  A    between atoms: C6_6  and  N12_11 
REMARK    2  A    between atoms: C8_8  and  O26_19 
REMARK    3  A    between atoms: C9_9  and  O31_21 
REMARK    4  A    between atoms: N12_11  and  C14_12 
REMARK    5  A    between atoms: C16_14  and  O21_18 
REMARK    6  A    between atoms: O26_19  and  C27_20 
REMARK    7  A    between atoms: O31_21  and  C32_22 
ROOT
ATOM      1  N1  DTQ d   1      71.314 -10.380  11.358  0.00  0.00    -0.224 NA
ATOM      2  C2  DTQ d   1      71.565  -9.251  12.030  0.00  0.00     0.089 A 
ATOM      3  N3  DTQ d   1      72.718  -8.650  12.231  0.00  0.00    -0.241 NA
ATOM      4  C4  DTQ d   1      73.818  -9.279  11.680  0.00  0.00     0.075 A 
ATOM      5  C5  DTQ d   1      73.702 -10.474  10.960  0.00  0.00     0.042 A 
ATOM      6  C6  DTQ d   1      72.365 -10.993  10.813  0.00  0.00     0.142 A 
ATOM      7  C7  DTQ d   1      75.091  -8.693  11.852  0.00  0.00    -0.019 A 
ATOM      8  C8  DTQ d   1      76.211  -9.281  11.323  0.00  0.00     0.103 A 
ATOM      9  C9  DTQ d   1      76.101 -10.483  10.597  0.00  0.00     0.102 A 
ATOM     10  C10 DTQ d   1      74.866 -11.065  10.419  0.00  0.00    -0.032 A 
ATOM     11  H1  DTQ d   1      70.701  -8.765  12.469  0.00  0.00     0.146 H 
ATOM     12  H2  DTQ d   1      75.184  -7.768  12.409  0.00  0.00     0.091 H 
ATOM     13  H3  DTQ d   1      74.786 -11.988   9.857  0.00  0.00     0.089 H 
ENDROOT
BRANCH   6  14
ATOM     14  N12 DTQ d   1      72.149 -12.166  10.163  0.00  0.00    -0.340 N 
ATOM     15  H4  DTQ d   1      72.991 -12.709   9.924  0.00  0.00     0.167 HD
BRANCH  14  16
ATOM     16  C14 DTQ d   1      70.920 -12.736   9.773  0.00  0.00     0.036 A 
ATOM     17  C15 DTQ d   1      70.779 -14.113   9.844  0.00  0.00    -0.025 A 
ATOM     18  C16 DTQ d   1      69.574 -14.704   9.484  0.00  0.00     0.067 A 
ATOM     19  H5  DTQ d   1      71.607 -14.727  10.180  0.00  0.00     0.091 H 
ATOM     20  C17 DTQ d   1      68.521 -13.920   9.040  0.00  0.00    -0.051 A 
ATOM     21  C18 DTQ d   1      68.678 -12.550   8.966  0.00  0.00    -0.078 A 
ATOM     22  H6  DTQ d   1      67.582 -14.379   8.753  0.00  0.00     0.087 H 
ATOM     23  C19 DTQ d   1      69.866 -11.952   9.337  0.00  0.00    -0.057 A 
ATOM     24  H7  DTQ d   1      67.858 -11.936   8.612  0.00  0.00     0.083 H 
ATOM     25  H8  DTQ d   1      69.973 -10.874   9.287  0.00  0.00     0.086 H 
BRANCH  18  26
ATOM     26  O21 DTQ d   1      69.461 -16.054   9.577  0.00  0.00    -0.361 OA
ATOM     27  H9  DTQ d   1      69.267 -16.414   8.720  0.00  0.00     0.217 HD
ENDBRANCH  18  26
ENDBRANCH  14  16
ENDBRANCH   6  14
BRANCH   9  28
ATOM     28  O31 DTQ d   1      77.285 -10.973  10.119  0.00  0.00    -0.353 OA
BRANCH  28  29
ATOM     29  C32 DTQ d   1      77.248 -12.188   9.381  0.00  0.00     0.010 C 
ATOM     30  H13 DTQ d   1      78.267 -12.456   9.064  0.00  0.00     0.066 H 
ATOM     31  H14 DTQ d   1      76.610 -12.059   8.494  0.00  0.00     0.066 H 
ATOM     32  H15 DTQ d   1      76.839 -12.989  10.014  0.00  0.00     0.066 H 
ENDBRANCH  28  29
ENDBRANCH   9  28
BRANCH   8  33
ATOM     33  O26 DTQ d   1      77.481  -8.791  11.438  0.00  0.00    -0.353 OA
BRANCH  33  34
ATOM     34  C27 DTQ d   1      77.653  -7.571  12.152  0.00  0.00     0.010 C 
ATOM     35  H10 DTQ d   1      78.719  -7.300  12.164  0.00  0.00     0.066 H 
ATOM     36  H11 DTQ d   1      77.296  -7.697  13.185  0.00  0.00     0.066 H 
ATOM     37  H12 DTQ d   1      77.077  -6.774  11.659  0.00  0.00     0.066 H 
ENDBRANCH  33  34
ENDBRANCH   8  33
TORSDOF 7
