REMARK  5 active torsions:
REMARK  status: ('A' for Active; 'I' for Inactive)
REMARK    1  A    between atoms: C02_2  and  C07_7 
REMARK    2  A    between atoms: C06_6  and  C10_10 
REMARK    3  A    between atoms: C12_12  and  N16_16 
REMARK    4  A    between atoms: N16_16  and  C17_17 
REMARK    5  A    between atoms: C17_17  and  C18_18 
ROOT
ATOM      1  C10 5YQ d   1     142.469  56.805  33.656  0.00  0.00     0.106 A 
ATOM      2  N11 5YQ d   1     141.283  57.308  34.012  0.00  0.00    -0.061 NA
ATOM      3  C12 5YQ d   1     141.254  58.138  35.079  0.00  0.00     0.723 A 
ATOM      4  N13 5YQ d   1     142.321  58.501  35.813  0.00  0.00    -0.075 NA
ATOM      5  C14 5YQ d   1     143.492  57.982  35.432  0.00  0.00     0.023 A 
ATOM      6  C15 5YQ d   1     143.610  57.131  34.360  0.00  0.00    -0.035 A 
ATOM      7  H4  5YQ d   1     144.384  58.243  35.991  0.00  0.00     0.115 H 
ATOM      8  H5  5YQ d   1     144.574  56.726  34.075  0.00  0.00     0.089 H 
ENDROOT
BRANCH   3   9
ATOM      9  N16 5YQ d   1     140.067  58.639  35.433  0.00  0.00    -0.218 N 
ATOM     10  H6  5YQ d   1     139.221  58.231  35.009  0.00  0.00     0.178 HD
BRANCH   9  11
ATOM     11  C17 5YQ d   1     139.902  59.729  36.384  0.00  0.00     0.034 C 
ATOM     12  H7  5YQ d   1     140.291  59.403  37.360  0.00  0.00     0.072 H 
ATOM     13  H8  5YQ d   1     138.829  59.955  36.474  0.00  0.00     0.072 H 
BRANCH  11  14
ATOM     14  C18 5YQ d   1     140.622  60.987  35.980  0.00  0.00    -0.022 A 
ATOM     15  C19 5YQ d   1     141.000  61.201  34.672  0.00  0.00     0.009 A 
ATOM     16  N20 5YQ d   1     141.642  62.295  34.243  0.00  0.00    -0.273 NA
ATOM     17  H9  5YQ d   1     140.762  60.434  33.944  0.00  0.00     0.115 H 
ATOM     18  C21 5YQ d   1     141.927  63.231  35.153  0.00  0.00     0.002 A 
ATOM     19  C22 5YQ d   1     141.591  63.111  36.482  0.00  0.00    -0.065 A 
ATOM     20  H10 5YQ d   1     142.447  64.126  34.830  0.00  0.00     0.114 H 
ATOM     21  C23 5YQ d   1     140.932  61.975  36.892  0.00  0.00    -0.072 A 
ATOM     22  H11 5YQ d   1     141.840  63.894  37.190  0.00  0.00     0.085 H 
ATOM     23  H12 5YQ d   1     140.656  61.856  37.933  0.00  0.00     0.084 H 
ENDBRANCH  11  14
ENDBRANCH   9  11
ENDBRANCH   3   9
BRANCH   1  24
ATOM     24  C06 5YQ d   1     142.506  55.935  32.539  0.00  0.00     0.086 A 
ATOM     25  C01 5YQ d   1     143.632  55.847  31.737  0.00  0.00    -0.036 A 
ATOM     26  C02 5YQ d   1     143.627  54.984  30.655  0.00  0.00     0.044 A 
ATOM     27  H1  5YQ d   1     144.508  56.448  31.954  0.00  0.00     0.088 H 
ATOM     28  C03 5YQ d   1     142.493  54.234  30.409  0.00  0.00    -0.049 A 
ATOM     29  C04 5YQ d   1     141.415  54.383  31.258  0.00  0.00     0.004 A 
ATOM     30  H2  5YQ d   1     142.451  53.547  29.572  0.00  0.00     0.087 H 
ATOM     31  N05 5YQ d   1     141.405  55.212  32.305  0.00  0.00    -0.259 NA
ATOM     32  H3  5YQ d   1     140.526  53.794  31.064  0.00  0.00     0.114 H 
BRANCH  26  33
ATOM     33  C07 5YQ d   1     144.841  54.870  29.767  0.00  0.00     0.209 C 
ATOM     34  O08 5YQ d   1     145.964  55.018  30.297  0.00  0.00    -0.644 OA
ATOM     35  O09 5YQ d   1     144.652  54.635  28.553  0.00  0.00    -0.644 OA
ENDBRANCH  26  33
ENDBRANCH   1  24
TORSDOF 5
