REMARK  10 active torsions:
REMARK  status: ('A' for Active; 'I' for Inactive)
REMARK    1  A    between atoms: O1_1  and  C10_2 
REMARK    2  A    between atoms: C10_2  and  C11_3 
REMARK    3  A    between atoms: C10_2  and  C12_4 
REMARK    4  A    between atoms: C10_2  and  C9_5 
REMARK    5  A    between atoms: C9_5  and  N3_6 
REMARK    6  A    between atoms: C5_7  and  C6_8 
REMARK    7  A    between atoms: C6_8  and  O_9 
REMARK    8  A    between atoms: O_9  and  C7_10 
REMARK    9  A    between atoms: C7_10  and  C8_11 
REMARK   10  A    between atoms: C_14  and  N_15 
ROOT
ATOM      1  N3  RX8 d   1     -26.046  -4.826  -6.095  0.00  0.00    -0.328 N 
ATOM      2  C5  RX8 d   1     -24.706  -4.622  -5.905  0.00  0.00     0.131 A 
ATOM      3  N2  RX8 d   1     -24.047  -4.991  -6.960  0.00  0.00    -0.227 NA
ATOM      4  C4  RX8 d   1     -24.918  -5.451  -7.878  0.00  0.00     0.132 A 
ATOM      5  C   RX8 d   1     -24.741  -5.964  -9.174  0.00  0.00     0.153 A 
ATOM      6  C3  RX8 d   1     -26.210  -5.353  -7.345  0.00  0.00     0.081 A 
ATOM      7  C2  RX8 d   1     -27.330  -5.814  -8.172  0.00  0.00     0.022 A 
ATOM      8  C13 RX8 d   1     -28.664  -5.812  -7.732  0.00  0.00    -0.069 A 
ATOM      9  C14 RX8 d   1     -29.660  -6.284  -8.548  0.00  0.00    -0.082 A 
ATOM     10  C15 RX8 d   1     -29.366  -6.770  -9.825  0.00  0.00    -0.081 A 
ATOM     11  C16 RX8 d   1     -28.078  -6.785 -10.285  0.00  0.00    -0.054 A 
ATOM     12  C1  RX8 d   1     -27.030  -6.324  -9.469  0.00  0.00     0.071 A 
ATOM     13  N1  RX8 d   1     -25.758  -6.346  -9.908  0.00  0.00    -0.229 NA
ATOM     14  H19 RX8 d   1     -28.907  -5.436  -6.745  0.00  0.00     0.085 H 
ATOM     15  H20 RX8 d   1     -30.686  -6.280  -8.199  0.00  0.00     0.083 H 
ATOM     16  H21 RX8 d   1     -30.166  -7.138 -10.457  0.00  0.00     0.083 H 
ATOM     17  H22 RX8 d   1     -27.865  -7.154 -11.282  0.00  0.00     0.087 H 
ENDROOT
BRANCH   1  18
ATOM     18  C9  RX8 d   1     -27.114  -4.452  -5.158  0.00  0.00     0.029 C 
ATOM     19  H8  RX8 d   1     -28.017  -5.048  -5.356  0.00  0.00     0.069 H 
ATOM     20  H9  RX8 d   1     -26.784  -4.619  -4.122  0.00  0.00     0.069 H 
BRANCH  18  21
ATOM     21  C10 RX8 d   1     -27.408  -2.936  -5.391  0.00  0.00     0.067 C 
BRANCH  21  22
ATOM     22  O1  RX8 d   1     -26.228  -2.133  -5.236  0.00  0.00    -0.389 OA
ATOM     23  H1  RX8 d   1     -26.442  -1.222  -5.401  0.00  0.00     0.210 HD
ENDBRANCH  21  22
BRANCH  21  24
ATOM     24  C11 RX8 d   1     -28.459  -2.454  -4.385  0.00  0.00    -0.047 C 
ATOM     25  H2  RX8 d   1     -29.372  -3.059  -4.490  0.00  0.00     0.031 H 
ATOM     26  H3  RX8 d   1     -28.695  -1.397  -4.580  0.00  0.00     0.031 H 
ATOM     27  H4  RX8 d   1     -28.064  -2.559  -3.364  0.00  0.00     0.031 H 
ENDBRANCH  21  24
BRANCH  21  28
ATOM     28  C12 RX8 d   1     -27.948  -2.610  -6.792  0.00  0.00    -0.047 C 
ATOM     29  H5  RX8 d   1     -28.860  -3.196  -6.979  0.00  0.00     0.031 H 
ATOM     30  H6  RX8 d   1     -27.188  -2.864  -7.546  0.00  0.00     0.031 H 
ATOM     31  H7  RX8 d   1     -28.182  -1.537  -6.854  0.00  0.00     0.031 H 
ENDBRANCH  21  28
ENDBRANCH  18  21
ENDBRANCH   1  18
BRANCH   2  32
ATOM     32  C6  RX8 d   1     -24.070  -4.064  -4.656  0.00  0.00     0.074 C 
ATOM     33  H10 RX8 d   1     -24.466  -3.060  -4.443  0.00  0.00     0.086 H 
ATOM     34  H11 RX8 d   1     -22.978  -4.009  -4.777  0.00  0.00     0.086 H 
BRANCH  32  35
ATOM     35  O   RX8 d   1     -24.407  -4.967  -3.592  0.00  0.00    -0.384 OA
BRANCH  35  36
ATOM     36  C7  RX8 d   1     -24.252  -4.467  -2.263  0.00  0.00     0.017 C 
ATOM     37  H12 RX8 d   1     -24.928  -3.613  -2.109  0.00  0.00     0.073 H 
ATOM     38  H13 RX8 d   1     -23.212  -4.144  -2.109  0.00  0.00     0.073 H 
BRANCH  36  39
ATOM     39  C8  RX8 d   1     -24.596  -5.579  -1.272  0.00  0.00    -0.056 C 
ATOM     40  H14 RX8 d   1     -24.480  -5.204  -0.245  0.00  0.00     0.030 H 
ATOM     41  H15 RX8 d   1     -23.920  -6.432  -1.429  0.00  0.00     0.030 H 
ATOM     42  H16 RX8 d   1     -25.636  -5.901  -1.429  0.00  0.00     0.030 H 
ENDBRANCH  36  39
ENDBRANCH  35  36
ENDBRANCH  32  35
ENDBRANCH   2  32
BRANCH   5  43
ATOM     43  N   RX8 d   1     -23.451  -5.996  -9.676  0.00  0.00    -0.382 N 
ATOM     44  H17 RX8 d   1     -23.275  -6.364 -10.622  0.00  0.00     0.157 HD
ATOM     45  H18 RX8 d   1     -22.667  -5.652  -9.104  0.00  0.00     0.157 HD
ENDBRANCH   5  43
TORSDOF 10
