REMARK  6 active torsions:
REMARK  status: ('A' for Active; 'I' for Inactive)
REMARK       I    between atoms: C2_2  and  N_3 
REMARK    1  A    between atoms: C2_2  and  C3_6 
REMARK    2  A    between atoms: N_3  and  C1_4 
REMARK    3  A    between atoms: N_3  and  C_5 
REMARK    4  A    between atoms: C3_6  and  C4_7 
REMARK    5  A    between atoms: C7_10  and  C10_13 
REMARK    6  A    between atoms: C17_15  and  N3_16 
ROOT
ATOM      1  C4  9CQ d   1      11.432  22.129   4.291  0.00  0.00    -0.049 A 
ATOM      2  C9  9CQ d   1      12.021  21.781   3.081  0.00  0.00    -0.076 A 
ATOM      3  C8  9CQ d   1      13.397  21.732   2.948  0.00  0.00    -0.070 A 
ATOM      4  C7  9CQ d   1      14.228  22.105   4.002  0.00  0.00    -0.006 A 
ATOM      5  C6  9CQ d   1      13.636  22.403   5.226  0.00  0.00    -0.070 A 
ATOM      6  C5  9CQ d   1      12.262  22.429   5.363  0.00  0.00    -0.076 A 
ATOM      7  H9  9CQ d   1      11.393  21.545   2.229  0.00  0.00     0.084 H 
ATOM      8  H10 9CQ d   1      13.834  21.400   2.013  0.00  0.00     0.084 H 
ATOM      9  H11 9CQ d   1      14.262  22.618   6.084  0.00  0.00     0.084 H 
ATOM     10  H12 9CQ d   1      11.825  22.687   6.321  0.00  0.00     0.084 H 
ENDROOT
BRANCH   4  11
ATOM     11  C10 9CQ d   1      15.697  21.962   3.935  0.00  0.00     0.098 A 
ATOM     12  N2  9CQ d   1      16.220  21.137   4.837  0.00  0.00    -0.062 NA
ATOM     13  C17 9CQ d   1      17.561  20.981   4.842  0.00  0.00     0.721 A 
ATOM     14  N1  9CQ d   1      18.417  21.512   3.951  0.00  0.00    -0.063 NA
ATOM     15  C16 9CQ d   1      17.880  22.346   3.006  0.00  0.00     0.088 A 
ATOM     16  C11 9CQ d   1      16.487  22.586   2.920  0.00  0.00     0.024 A 
ATOM     17  C15 9CQ d   1      18.743  22.970   2.066  0.00  0.00    -0.054 A 
ATOM     18  C12 9CQ d   1      16.014  23.511   1.949  0.00  0.00    -0.068 A 
ATOM     19  C13 9CQ d   1      16.877  24.099   1.063  0.00  0.00    -0.082 A 
ATOM     20  H18 9CQ d   1      14.958  23.753   1.910  0.00  0.00     0.085 H 
ATOM     21  C14 9CQ d   1      18.237  23.811   1.107  0.00  0.00    -0.081 A 
ATOM     22  H17 9CQ d   1      16.497  24.794   0.322  0.00  0.00     0.083 H 
ATOM     23  H16 9CQ d   1      18.904  24.255   0.377  0.00  0.00     0.083 H 
ATOM     24  H15 9CQ d   1      19.809  22.780   2.107  0.00  0.00     0.087 H 
BRANCH  13  25
ATOM     25  N3  9CQ d   1      18.057  20.167   5.776  0.00  0.00    -0.231 N 
ATOM     26  H13 9CQ d   1      17.430  19.742   6.475  0.00  0.00     0.174 HD
ATOM     27  H14 9CQ d   1      19.066  19.963   5.798  0.00  0.00     0.174 HD
ENDBRANCH  13  25
ENDBRANCH   4  11
BRANCH   1  28
ATOM     28  C3  9CQ d   1       9.940  22.004   4.492  0.00  0.00     0.033 C 
ATOM     29  H7  9CQ d   1       9.709  22.127   5.560  0.00  0.00     0.054 H 
ATOM     30  H8  9CQ d   1       9.432  22.790   3.914  0.00  0.00     0.054 H 
BRANCH  28  31
ATOM     31  C2  9CQ d   1       9.442  20.642   4.028  0.00  0.00     0.223 C 
ATOM     32  O   9CQ d   1       8.785  20.566   2.997  0.00  0.00    -0.273 OA
ATOM     33  N   9CQ d   1       9.791  19.535   4.715  0.00  0.00    -0.361 N 
BRANCH  33  34
ATOM     34  C1  9CQ d   1      10.603  19.528   5.932  0.00  0.00    -0.017 C 
ATOM     35  H1  9CQ d   1      10.733  18.493   6.280  0.00  0.00     0.056 H 
ATOM     36  H2  9CQ d   1      10.099  20.117   6.713  0.00  0.00     0.056 H 
ATOM     37  H3  9CQ d   1      11.588  19.969   5.718  0.00  0.00     0.056 H 
ENDBRANCH  33  34
BRANCH  33  38
ATOM     38  C   9CQ d   1       9.360  18.207   4.283  0.00  0.00    -0.017 C 
ATOM     39  H4  9CQ d   1       8.758  18.297   3.367  0.00  0.00     0.056 H 
ATOM     40  H5  9CQ d   1       8.755  17.742   5.075  0.00  0.00     0.056 H 
ATOM     41  H6  9CQ d   1      10.243  17.582   4.082  0.00  0.00     0.056 H 
ENDBRANCH  33  38
ENDBRANCH  28  31
ENDBRANCH   1  28
TORSDOF 6
