REMARK  2 active torsions:
REMARK  status: ('A' for Active; 'I' for Inactive)
REMARK    1  A    between atoms: C1_1  and  C5_8 
REMARK    2  A    between atoms: C3_4  and  N2_7 
ROOT
ATOM      1  C1  GOH d   1      90.821  91.772 -46.605  0.00  0.00     0.153 A 
ATOM      2  N1  GOH d   1      90.612  92.992 -46.142  0.00  0.00    -0.220 NA
ATOM      3  C2  GOH d   1      91.142  93.056 -44.853  0.00  0.00     0.160 A 
ATOM      4  C3  GOH d   1      91.682  91.808 -44.550  0.00  0.00     0.188 A 
ATOM      5  O   GOH d   1      91.496  90.962 -45.668  0.00  0.00    -0.276 OA
ATOM      6  C4  GOH d   1      91.091  94.204 -44.017  0.00  0.00     0.202 A 
ATOM      7  N3  GOH d   1      91.205  94.202 -42.630  0.00  0.00    -0.107 NA
ATOM      8  N4  GOH d   1      91.088  95.445 -42.291  0.00  0.00    -0.023 NA
ATOM      9  N5  GOH d   1      90.899  96.211 -43.356  0.00  0.00    -0.046 NA
ATOM     10  N6  GOH d   1      90.882  95.515 -44.446  0.00  0.00    -0.238 N 
ATOM     11  H6  GOH d   1      90.746  95.852 -45.410  0.00  0.00     0.192 HD
ENDROOT
BRANCH   4  12
ATOM     12  N2  GOH d   1      92.329  91.269 -43.468  0.00  0.00    -0.311 N 
ATOM     13  C6  GOH d   1      93.600  91.634 -43.018  0.00  0.00    -0.013 A 
ATOM     14  C7  GOH d   1      93.884  90.844 -41.904  0.00  0.00    -0.066 A 
ATOM     15  H2  GOH d   1      94.248  92.393 -43.455  0.00  0.00     0.112 H 
ATOM     16  C8  GOH d   1      92.762  89.974 -41.670  0.00  0.00    -0.066 A 
ATOM     17  H3  GOH d   1      94.798  90.880 -41.313  0.00  0.00     0.085 H 
ATOM     18  C9  GOH d   1      91.810  90.257 -42.644  0.00  0.00    -0.013 A 
ATOM     19  H4  GOH d   1      92.674  89.232 -40.878  0.00  0.00     0.085 H 
ATOM     20  H5  GOH d   1      90.837  89.779 -42.749  0.00  0.00     0.112 H 
ENDBRANCH   4  12
BRANCH   1  21
ATOM     21  C5  GOH d   1      90.488  91.154 -47.882  0.00  0.00     0.011 A 
ATOM     22  C10 GOH d   1      91.416  90.120 -48.467  0.00  0.00    -0.054 A 
ATOM     23  C11 GOH d   1      90.081  89.703 -47.924  0.00  0.00    -0.054 A 
ATOM     24  H7  GOH d   1      92.337  89.843 -47.933  0.00  0.00     0.034 H 
ATOM     25  H8  GOH d   1      91.600  90.097 -49.551  0.00  0.00     0.034 H 
ATOM     26  H9  GOH d   1      89.287  89.375 -48.611  0.00  0.00     0.034 H 
ATOM     27  H10 GOH d   1      90.024  89.121 -46.992  0.00  0.00     0.034 H 
ATOM     28  H1  GOH d   1      89.992  91.888 -48.534  0.00  0.00     0.052 H 
ENDBRANCH   1  21
TORSDOF 2
