REMARK  3 active torsions:
REMARK  status: ('A' for Active; 'I' for Inactive)
REMARK       I    between atoms: C1_2  and  N1_3 
REMARK    1  A    between atoms: C5_10  and  C1_2 
REMARK    2  A    between atoms: N1_3  and  C2_5 
REMARK    3  A    between atoms: C4_9  and  O2_7 
ROOT
ATOM      1  N2  FY8 d   1      91.204 101.461 -44.357  0.00  0.00    -0.075 N 
ATOM      2  C5  FY8 d   1      91.493  98.696 -43.572  0.00  0.00     0.027 C 
ATOM      3  C9  FY8 d   1      92.547 100.918 -44.008  0.00  0.00     0.082 C 
ATOM      4  C10 FY8 d   1      90.061 100.762 -43.692  0.00  0.00     0.082 C 
ATOM      5  C11 FY8 d   1      92.577  99.442 -44.362  0.00  0.00    -0.031 C 
ATOM      6  C12 FY8 d   1      90.129  99.264 -43.969  0.00  0.00    -0.031 C 
ATOM      7  H2  FY8 d   1      91.083 101.384 -45.355  0.00  0.00     0.277 HD
ATOM      8  H3  FY8 d   1      91.178 102.432 -44.089  0.00  0.00     0.277 HD
ATOM      9  H6  FY8 d   1      91.655  98.845 -42.494  0.00  0.00     0.054 H 
ATOM     10  H9  FY8 d   1      92.730 101.045 -42.931  0.00  0.00     0.075 H 
ATOM     11  H10 FY8 d   1      93.322 101.452 -44.577  0.00  0.00     0.075 H 
ATOM     12  H11 FY8 d   1      89.114 101.161 -44.083  0.00  0.00     0.075 H 
ATOM     13  H12 FY8 d   1      90.112 100.934 -42.607  0.00  0.00     0.075 H 
ATOM     14  H13 FY8 d   1      92.392  99.321 -45.440  0.00  0.00     0.036 H 
ATOM     15  H14 FY8 d   1      93.564  99.026 -44.110  0.00  0.00     0.036 H 
ATOM     16  H15 FY8 d   1      89.345  98.755 -43.390  0.00  0.00     0.036 H 
ATOM     17  H16 FY8 d   1      89.965  99.089 -45.042  0.00  0.00     0.036 H 
ENDROOT
BRANCH   2  18
ATOM     18  C1  FY8 d   1      91.544  97.205 -43.886  0.00  0.00     0.226 C 
ATOM     19  N1  FY8 d   1      91.688  96.379 -42.792  0.00  0.00    -0.324 N 
ATOM     20  H1  FY8 d   1      91.676  96.811 -41.890  0.00  0.00     0.169 HD
ATOM     21  O1  FY8 d   1      91.377  96.833 -45.046  0.00  0.00    -0.273 OA
BRANCH  19  22
ATOM     22  C2  FY8 d   1      91.851  94.979 -42.830  0.00  0.00     0.069 A 
ATOM     23  C3  FY8 d   1      91.825  94.193 -43.989  0.00  0.00    -0.033 A 
ATOM     24  C7  FY8 d   1      92.014  92.819 -43.880  0.00  0.00     0.036 A 
ATOM     25  H5  FY8 d   1      91.660  94.649 -44.958  0.00  0.00     0.089 H 
ATOM     26 CL   FY8 d   1      91.956  91.870 -45.315  0.00  0.00    -0.084 Cl
ATOM     27  C8  FY8 d   1      92.234  92.208 -42.645  0.00  0.00    -0.059 A 
ATOM     28  C6  FY8 d   1      92.266  92.992 -41.483  0.00  0.00    -0.047 A 
ATOM     29  H8  FY8 d   1      92.379  91.135 -42.584  0.00  0.00     0.086 H 
ATOM     30  C4  FY8 d   1      92.073  94.364 -41.589  0.00  0.00     0.092 A 
ATOM     31  H7  FY8 d   1      92.439  92.534 -40.516  0.00  0.00     0.087 H 
BRANCH  30  32
ATOM     32  O2  FY8 d   1      92.094  95.186 -40.478  0.00  0.00    -0.358 OA
ATOM     33  H4  FY8 d   1      92.251  94.662 -39.701  0.00  0.00     0.217 HD
ENDBRANCH  30  32
ENDBRANCH  19  22
ENDBRANCH   2  18
TORSDOF 3
