REMARK  9 active torsions:
REMARK  status: ('A' for Active; 'I' for Inactive)
REMARK    1  A    between atoms: N2_3  and  C10_4 
REMARK    2  A    between atoms: N3_8  and  C5_9 
REMARK    3  A    between atoms: C_16  and  N4_17 
REMARK    4  A    between atoms: N4_17  and  C11_18 
REMARK    5  A    between atoms: C16_19  and  O1_20 
REMARK    6  A    between atoms: O1_20  and  C17_21 
REMARK    7  A    between atoms: C14_23  and  O2_26 
REMARK    8  A    between atoms: O2_26  and  C18_27 
REMARK    9  A    between atoms: N5_30  and  C23_31 
ROOT
ATOM      1  C11 AU5 d   1       1.609  10.285 -15.410  0.00  0.00     0.082 A 
ATOM      2  C16 AU5 d   1       1.541   9.029 -14.818  0.00  0.00     0.098 A 
ATOM      3  C15 AU5 d   1       1.824   8.838 -13.476  0.00  0.00    -0.016 A 
ATOM      4  C14 AU5 d   1       2.178   9.932 -12.718  0.00  0.00     0.072 A 
ATOM      5  C13 AU5 d   1       2.237  11.215 -13.273  0.00  0.00    -0.048 A 
ATOM      6  C12 AU5 d   1       1.956  11.386 -14.616  0.00  0.00    -0.051 A 
ATOM      7  H18 AU5 d   1       1.768   7.851 -13.032  0.00  0.00     0.092 H 
ATOM      8  H19 AU5 d   1       2.500  12.067 -12.656  0.00  0.00     0.087 H 
ATOM      9  H20 AU5 d   1       2.004  12.375 -15.056  0.00  0.00     0.087 H 
ENDROOT
BRANCH   1  10
ATOM     10  N4  AU5 d   1       1.347  10.480 -16.778  0.00  0.00    -0.185 N 
ATOM     11  H14 AU5 d   1       1.757   9.783 -17.415  0.00  0.00     0.184 HD
BRANCH  10  12
ATOM     12  C   AU5 d   1       0.614  11.481 -17.379  0.00  0.00     0.729 A 
ATOM     13  N   AU5 d   1       0.546  11.333 -18.753  0.00  0.00    -0.073 NA
ATOM     14  C3  AU5 d   1      -0.206  12.215 -19.420  0.00  0.00     0.051 A 
ATOM     15  C2  AU5 d   1      -0.866  13.224 -18.759  0.00  0.00     0.103 A 
ATOM     16  H4  AU5 d   1      -0.296  12.133 -20.497  0.00  0.00     0.119 H 
ATOM     17  N2  AU5 d   1      -1.720  14.258 -19.149  0.00  0.00    -0.299 N 
ATOM     18  C1  AU5 d   1      -0.705  13.303 -17.342  0.00  0.00     0.182 A 
ATOM     19  C4  AU5 d   1      -2.090  14.991 -18.004  0.00  0.00     0.331 A 
ATOM     20  O   AU5 d   1      -2.827  15.945 -18.002  0.00  0.00    -0.246 OA
ATOM     21  N3  AU5 d   1      -1.450  14.394 -16.886  0.00  0.00    -0.276 N 
ATOM     22  N1  AU5 d   1       0.026  12.452 -16.603  0.00  0.00    -0.042 NA
BRANCH  17  23
ATOM     23  C10 AU5 d   1      -2.187  14.557 -20.488  0.00  0.00    -0.009 C 
ATOM     24  H1  AU5 d   1      -2.848  15.436 -20.458  0.00  0.00     0.057 H 
ATOM     25  H2  AU5 d   1      -2.742  13.694 -20.884  0.00  0.00     0.057 H 
ATOM     26  H3  AU5 d   1      -1.325  14.768 -21.138  0.00  0.00     0.057 H 
ENDBRANCH  17  23
BRANCH  21  27
ATOM     27  C5  AU5 d   1      -1.544  14.866 -15.498  0.00  0.00     0.023 C 
ATOM     28  C9  AU5 d   1      -0.174  15.254 -14.921  0.00  0.00    -0.045 C 
ATOM     29  C8  AU5 d   1      -0.253  14.989 -13.421  0.00  0.00    -0.063 C 
ATOM     30  H6  AU5 d   1       0.032  16.318 -15.110  0.00  0.00     0.036 H 
ATOM     31  H7  AU5 d   1       0.618  14.641 -15.375  0.00  0.00     0.036 H 
ATOM     32  C7  AU5 d   1      -1.404  14.011 -13.197  0.00  0.00    -0.063 C 
ATOM     33  H8  AU5 d   1      -0.446  15.928 -12.882  0.00  0.00     0.033 H 
ATOM     34  H9  AU5 d   1       0.690  14.549 -13.066  0.00  0.00     0.033 H 
ATOM     35  C6  AU5 d   1      -2.066  13.777 -14.553  0.00  0.00    -0.045 C 
ATOM     36  H10 AU5 d   1      -2.131  14.439 -12.491  0.00  0.00     0.033 H 
ATOM     37  H11 AU5 d   1      -1.020  13.062 -12.796  0.00  0.00     0.033 H 
ATOM     38  H12 AU5 d   1      -1.798  12.782 -14.938  0.00  0.00     0.036 H 
ATOM     39  H13 AU5 d   1      -3.159  13.851 -14.458  0.00  0.00     0.036 H 
ATOM     40  H5  AU5 d   1      -2.218  15.735 -15.474  0.00  0.00     0.073 H 
ENDBRANCH  21  27
ENDBRANCH  10  12
ENDBRANCH   1  10
BRANCH   2  41
ATOM     41  O1  AU5 d   1       1.165   7.945 -15.557  0.00  0.00    -0.354 OA
BRANCH  41  42
ATOM     42  C17 AU5 d   1       2.167   6.966 -15.641  0.00  0.00     0.010 C 
ATOM     43  H15 AU5 d   1       1.805   6.122 -16.247  0.00  0.00     0.066 H 
ATOM     44  H16 AU5 d   1       2.419   6.611 -14.631  0.00  0.00     0.066 H 
ATOM     45  H17 AU5 d   1       3.063   7.397 -16.112  0.00  0.00     0.066 H 
ENDBRANCH  41  42
ENDBRANCH   2  41
BRANCH   4  46
ATOM     46  O2  AU5 d   1       2.542   9.789 -11.413  0.00  0.00    -0.346 OA
BRANCH  46  47
ATOM     47  C18 AU5 d   1       1.812  10.491 -10.435  0.00  0.00     0.048 C 
ATOM     48  C22 AU5 d   1       2.703  10.543  -9.186  0.00  0.00    -0.018 C 
ATOM     49  C21 AU5 d   1       1.897  11.081  -7.999  0.00  0.00     0.085 C 
ATOM     50  H22 AU5 d   1       3.561  11.205  -9.376  0.00  0.00     0.039 H 
ATOM     51  H23 AU5 d   1       3.066   9.531  -8.953  0.00  0.00     0.039 H 
ATOM     52  N5  AU5 d   1       0.696  10.271  -7.698  0.00  0.00    -0.075 N 
ATOM     53  H24 AU5 d   1       1.578  12.108  -8.229  0.00  0.00     0.076 H 
ATOM     54  H25 AU5 d   1       2.545  11.089  -7.111  0.00  0.00     0.076 H 
ATOM     55  C20 AU5 d   1      -0.152  10.175  -8.911  0.00  0.00     0.085 C 
ATOM     56  H26 AU5 d   1       1.003   9.339  -7.465  0.00  0.00     0.279 HD
ATOM     57  C19 AU5 d   1       0.581   9.625 -10.148  0.00  0.00    -0.018 C 
ATOM     58  H30 AU5 d   1      -0.527  11.181  -9.151  0.00  0.00     0.076 H 
ATOM     59  H31 AU5 d   1      -1.000   9.511  -8.688  0.00  0.00     0.076 H 
ATOM     60  H32 AU5 d   1       0.897   8.589  -9.957  0.00  0.00     0.039 H 
ATOM     61  H33 AU5 d   1      -0.095   9.648 -11.016  0.00  0.00     0.039 H 
ATOM     62  H21 AU5 d   1       1.529  11.500 -10.770  0.00  0.00     0.084 H 
BRANCH  52  63
ATOM     63  C23 AU5 d   1      -0.042  10.796  -6.522  0.00  0.00     0.066 C 
ATOM     64  H27 AU5 d   1      -0.925  10.168  -6.333  0.00  0.00     0.068 H 
ATOM     65  H28 AU5 d   1      -0.363  11.829  -6.722  0.00  0.00     0.068 H 
ATOM     66  H29 AU5 d   1       0.615  10.780  -5.640  0.00  0.00     0.068 H 
ENDBRANCH  52  63
ENDBRANCH  46  47
ENDBRANCH   4  46
TORSDOF 9
