REMARK  8 active torsions:
REMARK  status: ('A' for Active; 'I' for Inactive)
REMARK    1  A    between atoms: C22_3  and  O_4 
REMARK    2  A    between atoms: O_4  and  C21_5 
REMARK    3  A    between atoms: C4_6  and  C2_7 
REMARK    4  A    between atoms: N_11  and  C_12 
REMARK    5  A    between atoms: C7_14  and  N2_17 
REMARK    6  A    between atoms: N2_17  and  C8_18 
REMARK    7  A    between atoms: C13_20  and  N4_26 
REMARK    8  A    between atoms: N4_26  and  C14_27 
ROOT
ATOM      1  N6  O38 d   1       0.204 -20.298 -53.015  0.00  0.00    -0.195 NA
ATOM      2  C23 O38 d   1      -0.924 -20.307 -52.803  0.00  0.00     0.085 C 
ATOM      3  C22 O38 d   1      -2.352 -20.315 -52.540  0.00  0.00     0.104 C 
ATOM      4  H1  O38 d   1      -2.629 -21.183 -51.924  0.00  0.00     0.097 H 
ATOM      5  H2  O38 d   1      -2.920 -20.337 -53.481  0.00  0.00     0.097 H 
ENDROOT
BRANCH   3   6
ATOM      6  O   O38 d   1      -2.594 -19.098 -51.833  0.00  0.00    -0.337 OA
BRANCH   6   7
ATOM      7  C21 O38 d   1      -2.090 -18.944 -50.536  0.00  0.00     0.083 A 
ATOM      8  C4  O38 d   1      -2.148 -17.676 -49.979  0.00  0.00     0.011 A 
ATOM      9  C5  O38 d   1      -1.670 -17.508 -48.679  0.00  0.00    -0.067 A 
ATOM     10  C6  O38 d   1      -1.152 -18.562 -47.961  0.00  0.00    -0.056 A 
ATOM     11  H10 O38 d   1      -1.707 -16.525 -48.224  0.00  0.00     0.085 H 
ATOM     12  C7  O38 d   1      -1.094 -19.837 -48.535  0.00  0.00     0.036 A 
ATOM     13  H9  O38 d   1      -0.789 -18.404 -46.952  0.00  0.00     0.086 H 
ATOM     14  C20 O38 d   1      -1.565 -20.028 -49.819  0.00  0.00    -0.024 A 
ATOM     15  H8  O38 d   1      -1.529 -21.013 -50.271  0.00  0.00     0.091 H 
BRANCH   8  16
ATOM     16  C2  O38 d   1      -2.688 -16.554 -50.686  0.00  0.00     0.013 A 
ATOM     17  C1  O38 d   1      -3.483 -16.546 -51.824  0.00  0.00     0.010 A 
ATOM     18  N   O38 d   1      -3.742 -15.217 -52.091  0.00  0.00    -0.285 N 
ATOM     19  H3  O38 d   1      -3.830 -17.410 -52.389  0.00  0.00     0.115 H 
ATOM     20  N1  O38 d   1      -3.160 -14.383 -51.195  0.00  0.00    -0.185 NA
ATOM     21  C3  O38 d   1      -2.511 -15.189 -50.328  0.00  0.00     0.034 A 
ATOM     22  H4  O38 d   1      -1.932 -14.842 -49.473  0.00  0.00     0.118 H 
BRANCH  18  23
ATOM     23  C   O38 d   1      -4.545 -14.713 -53.201  0.00  0.00     0.002 C 
ATOM     24  H5  O38 d   1      -4.577 -13.614 -53.161  0.00  0.00     0.059 H 
ATOM     25  H6  O38 d   1      -5.567 -15.113 -53.125  0.00  0.00     0.059 H 
ATOM     26  H7  O38 d   1      -4.096 -15.032 -54.153  0.00  0.00     0.059 H 
ENDBRANCH  18  23
ENDBRANCH   8  16
BRANCH  12  27
ATOM     27  N2  O38 d   1      -0.524 -20.877 -47.782  0.00  0.00    -0.341 N 
ATOM     28  H11 O38 d   1      -0.737 -21.825 -48.123  0.00  0.00     0.167 HD
BRANCH  27  29
ATOM     29  C8  O38 d   1       0.276 -20.831 -46.658  0.00  0.00     0.130 A 
ATOM     30  N5  O38 d   1       0.621 -19.637 -46.132  0.00  0.00    -0.212 NA
ATOM     31  C13 O38 d   1       1.459 -19.667 -45.054  0.00  0.00     0.147 A 
ATOM     32  C11 O38 d   1       1.957 -20.874 -44.513  0.00  0.00     0.090 A 
ATOM     33  C12 O38 d   1       2.860 -20.879 -43.441  0.00  0.00     0.103 C 
ATOM     34  C10 O38 d   1       1.557 -22.075 -45.077  0.00  0.00    -0.056 A 
ATOM     35  N3  O38 d   1       3.601 -20.875 -42.566  0.00  0.00    -0.191 NA
ATOM     36  C9  O38 d   1       0.711 -22.078 -46.149  0.00  0.00    -0.037 A 
ATOM     37  H12 O38 d   1       1.916 -23.012 -44.667  0.00  0.00     0.086 H 
ATOM     38  H13 O38 d   1       0.382 -23.009 -46.597  0.00  0.00     0.089 H 
BRANCH  31  39
ATOM     39  N4  O38 d   1       1.795 -18.475 -44.491  0.00  0.00    -0.369 N 
ATOM     40  H14 O38 d   1       2.423 -18.474 -43.675  0.00  0.00     0.161 HD
BRANCH  39  41
ATOM     41  C14 O38 d   1       1.302 -17.198 -44.997  0.00  0.00     0.011 C 
ATOM     42  C19 O38 d   1       2.363 -16.113 -44.780  0.00  0.00    -0.046 C 
ATOM     43  C18 O38 d   1       1.858 -14.734 -45.173  0.00  0.00    -0.063 C 
ATOM     44  H16 O38 d   1       3.247 -16.354 -45.389  0.00  0.00     0.035 H 
ATOM     45  H17 O38 d   1       2.643 -16.098 -43.716  0.00  0.00     0.035 H 
ATOM     46  C17 O38 d   1       0.597 -14.390 -44.398  0.00  0.00    -0.065 C 
ATOM     47  H18 O38 d   1       1.635 -14.723 -46.250  0.00  0.00     0.033 H 
ATOM     48  H19 O38 d   1       2.635 -13.987 -44.951  0.00  0.00     0.033 H 
ATOM     49  C16 O38 d   1      -0.480 -15.427 -44.673  0.00  0.00    -0.063 C 
ATOM     50  H20 O38 d   1       0.236 -13.399 -44.710  0.00  0.00     0.033 H 
ATOM     51  H21 O38 d   1       0.823 -14.376 -43.322  0.00  0.00     0.033 H 
ATOM     52  C15 O38 d   1       0.009 -16.811 -44.269  0.00  0.00    -0.046 C 
ATOM     53  H22 O38 d   1      -0.721 -15.425 -45.746  0.00  0.00     0.033 H 
ATOM     54  H23 O38 d   1      -1.382 -15.177 -44.095  0.00  0.00     0.033 H 
ATOM     55  H24 O38 d   1       0.196 -16.819 -43.185  0.00  0.00     0.035 H 
ATOM     56  H25 O38 d   1      -0.770 -17.548 -44.513  0.00  0.00     0.035 H 
ATOM     57  H15 O38 d   1       1.095 -17.292 -46.073  0.00  0.00     0.072 H 
ENDBRANCH  39  41
ENDBRANCH  31  39
ENDBRANCH  27  29
ENDBRANCH  12  27
ENDBRANCH   6   7
ENDBRANCH   3   6
TORSDOF 8
