REMARK  11 active torsions:
REMARK  status: ('A' for Active; 'I' for Inactive)
REMARK    1  A    between atoms: C11_2  and  O1_3 
REMARK       I    between atoms: C11_2  and  N1_7 
REMARK    2  A    between atoms: O1_3  and  C12_4 
REMARK    3  A    between atoms: C12_4  and  C14_5 
REMARK    4  A    between atoms: C12_4  and  C13_6 
REMARK    5  A    between atoms: C5_8  and  C7_9 
REMARK    6  A    between atoms: N2_12  and  C10_13 
REMARK    7  A    between atoms: C2_19  and  N4_22 
REMARK    8  A    between atoms: N4_22  and  C15_23 
REMARK    9  A    between atoms: C18_26  and  C21_29 
REMARK   10  A    between atoms: C22_32  and  C24_33 
REMARK   11  A    between atoms: N5_34  and  C25_35 
ROOT
ATOM      1  O   PWU d   1       3.072 -36.137 -14.307  0.00  0.00    -0.238 OA
ATOM      2  C11 PWU d   1       2.370 -35.778 -13.396  0.00  0.00     0.372 C 
ATOM      3  N1  PWU d   1       2.136 -34.428 -13.101  0.00  0.00    -0.256 N 
ATOM      4  C5  PWU d   1       2.660 -33.344 -13.801  0.00  0.00     0.059 A 
ATOM      5  C6  PWU d   1       2.236 -32.190 -13.217  0.00  0.00    -0.042 A 
ATOM      6  C   PWU d   1       1.401 -32.531 -12.102  0.00  0.00     0.011 A 
ATOM      7  C4  PWU d   1       1.342 -33.935 -12.038  0.00  0.00     0.060 A 
ATOM      8  C3  PWU d   1       0.594 -34.582 -11.063  0.00  0.00    -0.011 A 
ATOM      9  C2  PWU d   1      -0.096 -33.783 -10.153  0.00  0.00     0.129 A 
ATOM     10  N   PWU d   1      -0.059 -32.448 -10.182  0.00  0.00    -0.242 NA
ATOM     11  C1  PWU d   1       0.673 -31.864 -11.136  0.00  0.00     0.017 A 
ATOM     12  H13 PWU d   1       2.488 -31.181 -13.541  0.00  0.00     0.088 H 
ATOM     13  H14 PWU d   1       0.549 -35.664 -11.012  0.00  0.00     0.093 H 
ATOM     14  H15 PWU d   1       0.697 -30.780 -11.153  0.00  0.00     0.116 H 
ENDROOT
BRANCH   9  15
ATOM     15  N4  PWU d   1      -0.880 -34.330  -9.158  0.00  0.00    -0.341 N 
ATOM     16  H16 PWU d   1      -1.343 -33.653  -8.535  0.00  0.00     0.167 HD
BRANCH  15  17
ATOM     17  C15 PWU d   1      -1.134 -35.685  -8.877  0.00  0.00     0.033 A 
ATOM     18  C20 PWU d   1      -1.479 -36.085  -7.594  0.00  0.00    -0.056 A 
ATOM     19  C19 PWU d   1      -1.726 -37.417  -7.322  0.00  0.00    -0.069 A 
ATOM     20  H17 PWU d   1      -1.555 -35.349  -6.801  0.00  0.00     0.086 H 
ATOM     21  C18 PWU d   1      -1.634 -38.375  -8.324  0.00  0.00    -0.008 A 
ATOM     22  H18 PWU d   1      -1.994 -37.718  -6.316  0.00  0.00     0.085 H 
ATOM     23  C17 PWU d   1      -1.290 -37.967  -9.607  0.00  0.00    -0.069 A 
ATOM     24  C16 PWU d   1      -1.042 -36.636  -9.882  0.00  0.00    -0.056 A 
ATOM     25  H19 PWU d   1      -1.215 -38.701 -10.401  0.00  0.00     0.085 H 
ATOM     26  H20 PWU d   1      -0.774 -36.334 -10.888  0.00  0.00     0.086 H 
BRANCH  21  27
ATOM     27  C21 PWU d   1      -1.891 -39.799  -8.033  0.00  0.00     0.063 A 
ATOM     28  C23 PWU d   1      -1.259 -40.921  -8.596  0.00  0.00     0.031 A 
ATOM     29  N6  PWU d   1      -1.796 -42.063  -8.064  0.00  0.00    -0.245 NA
ATOM     30  H21 PWU d   1      -0.465 -40.888  -9.340  0.00  0.00     0.118 H 
ATOM     31  C22 PWU d   1      -2.720 -41.667  -7.210  0.00  0.00     0.102 A 
ATOM     32  N5  PWU d   1      -2.840 -40.295  -7.130  0.00  0.00    -0.338 N 
BRANCH  31  33
ATOM     33  C24 PWU d   1      -3.567 -42.580  -6.404  0.00  0.00    -0.021 C 
ATOM     34  H22 PWU d   1      -3.299 -43.623  -6.629  0.00  0.00     0.037 H 
ATOM     35  H23 PWU d   1      -4.626 -42.412  -6.651  0.00  0.00     0.037 H 
ATOM     36  H24 PWU d   1      -3.405 -42.382  -5.334  0.00  0.00     0.037 H 
ENDBRANCH  31  33
BRANCH  32  37
ATOM     37  C25 PWU d   1      -3.763 -39.543  -6.276  0.00  0.00    -0.012 C 
ATOM     38  H25 PWU d   1      -3.618 -38.465  -6.439  0.00  0.00     0.057 H 
ATOM     39  H26 PWU d   1      -3.565 -39.784  -5.221  0.00  0.00     0.057 H 
ATOM     40  H27 PWU d   1      -4.799 -39.816  -6.526  0.00  0.00     0.057 H 
ENDBRANCH  32  37
ENDBRANCH  21  27
ENDBRANCH  15  17
ENDBRANCH   9  15
BRANCH   2  41
ATOM     41  O1  PWU d   1       1.736 -36.606 -12.556  0.00  0.00    -0.299 OA
BRANCH  41  42
ATOM     42  C12 PWU d   1       1.874 -38.045 -12.812  0.00  0.00     0.043 C 
ATOM     43  H1  PWU d   1       2.652 -38.227 -13.568  0.00  0.00     0.083 H 
BRANCH  42  44
ATOM     44  C14 PWU d   1       0.563 -38.535 -13.330  0.00  0.00    -0.052 C 
ATOM     45  H2  PWU d   1       0.629 -39.614 -13.534  0.00  0.00     0.030 H 
ATOM     46  H3  PWU d   1       0.313 -38.001 -14.259  0.00  0.00     0.030 H 
ATOM     47  H4  PWU d   1      -0.220 -38.351 -12.579  0.00  0.00     0.030 H 
ENDBRANCH  42  44
BRANCH  42  48
ATOM     48  C13 PWU d   1       2.276 -38.690 -11.528  0.00  0.00    -0.052 C 
ATOM     49  H5  PWU d   1       2.389 -39.773 -11.682  0.00  0.00     0.030 H 
ATOM     50  H6  PWU d   1       1.503 -38.507 -10.768  0.00  0.00     0.030 H 
ATOM     51  H7  PWU d   1       3.232 -38.266 -11.188  0.00  0.00     0.030 H 
ENDBRANCH  42  48
ENDBRANCH  41  42
ENDBRANCH   2  41
BRANCH   4  52
ATOM     52  C7  PWU d   1       3.490 -33.398 -14.966  0.00  0.00     0.028 A 
ATOM     53  C9  PWU d   1       4.638 -34.148 -15.271  0.00  0.00     0.035 A 
ATOM     54  N3  PWU d   1       5.069 -33.882 -16.491  0.00  0.00    -0.185 NA
ATOM     55  H8  PWU d   1       5.110 -34.855 -14.591  0.00  0.00     0.118 H 
ATOM     56  N2  PWU d   1       4.189 -32.946 -16.986  0.00  0.00    -0.285 N 
ATOM     57  C8  PWU d   1       3.240 -32.640 -16.094  0.00  0.00     0.011 A 
ATOM     58  H12 PWU d   1       2.426 -31.929 -16.231  0.00  0.00     0.115 H 
BRANCH  56  59
ATOM     59  C10 PWU d   1       4.348 -32.413 -18.333  0.00  0.00     0.002 C 
ATOM     60  H9  PWU d   1       3.549 -31.684 -18.535  0.00  0.00     0.059 H 
ATOM     61  H10 PWU d   1       4.288 -33.235 -19.062  0.00  0.00     0.059 H 
ATOM     62  H11 PWU d   1       5.327 -31.918 -18.418  0.00  0.00     0.059 H 
ENDBRANCH  56  59
ENDBRANCH   4  52
TORSDOF 11
