REMARK  9 active torsions:
REMARK  status: ('A' for Active; 'I' for Inactive)
REMARK    1  A    between atoms: N2_3  and  C10_4 
REMARK    2  A    between atoms: N3_8  and  C5_9 
REMARK    3  A    between atoms: C_16  and  N4_17 
REMARK    4  A    between atoms: N4_17  and  C11_18 
REMARK    5  A    between atoms: C16_19  and  O1_20 
REMARK    6  A    between atoms: O1_20  and  C17_21 
REMARK    7  A    between atoms: C14_23  and  O2_26 
REMARK    8  A    between atoms: O2_26  and  C18_27 
REMARK    9  A    between atoms: N5_30  and  C23_31 
ROOT
ATOM      1  C11 AU5 d   1       1.434  45.094 126.711  0.00  0.00     0.082 A 
ATOM      2  C16 AU5 d   1       1.544  46.334 126.093  0.00  0.00     0.098 A 
ATOM      3  C15 AU5 d   1       1.775  46.448 124.724  0.00  0.00    -0.016 A 
ATOM      4  C14 AU5 d   1       1.901  45.292 123.980  0.00  0.00     0.072 A 
ATOM      5  C13 AU5 d   1       1.791  44.034 124.571  0.00  0.00    -0.048 A 
ATOM      6  C12 AU5 d   1       1.560  43.941 125.929  0.00  0.00    -0.051 A 
ATOM      7  H18 AU5 d   1       1.854  47.422 124.254  0.00  0.00     0.092 H 
ATOM      8  H19 AU5 d   1       1.886  43.137 123.970  0.00  0.00     0.087 H 
ATOM      9  H20 AU5 d   1       1.476  42.965 126.394  0.00  0.00     0.087 H 
ENDROOT
BRANCH   1  10
ATOM     10  N4  AU5 d   1       1.194  44.938 128.089  0.00  0.00    -0.185 N 
ATOM     11  H14 AU5 d   1       1.623  45.640 128.709  0.00  0.00     0.184 HD
BRANCH  10  12
ATOM     12  C   AU5 d   1       0.447  43.948 128.705  0.00  0.00     0.729 A 
ATOM     13  N   AU5 d   1       0.390  44.094 130.084  0.00  0.00    -0.073 NA
ATOM     14  C3  AU5 d   1      -0.368  43.214 130.756  0.00  0.00     0.051 A 
ATOM     15  C2  AU5 d   1      -1.048  42.213 130.095  0.00  0.00     0.103 A 
ATOM     16  H4  AU5 d   1      -0.447  43.291 131.834  0.00  0.00     0.119 H 
ATOM     17  N2  AU5 d   1      -1.911  41.187 130.489  0.00  0.00    -0.299 N 
ATOM     18  C1  AU5 d   1      -0.905  42.137 128.676  0.00  0.00     0.182 A 
ATOM     19  C4  AU5 d   1      -2.308  40.466 129.347  0.00  0.00     0.331 A 
ATOM     20  O   AU5 d   1      -3.065  39.522 129.351  0.00  0.00    -0.246 OA
ATOM     21  N3  AU5 d   1      -1.675  41.060 128.225  0.00  0.00    -0.276 N 
ATOM     22  N1  AU5 d   1      -0.165  42.983 127.930  0.00  0.00    -0.042 NA
BRANCH  17  23
ATOM     23  C10 AU5 d   1      -2.362  40.879 131.832  0.00  0.00    -0.009 C 
ATOM     24  H1  AU5 d   1      -3.036  40.010 131.802  0.00  0.00     0.057 H 
ATOM     25  H2  AU5 d   1      -2.899  41.745 132.246  0.00  0.00     0.057 H 
ATOM     26  H3  AU5 d   1      -1.494  40.648 132.466  0.00  0.00     0.057 H 
ENDBRANCH  17  23
BRANCH  21  27
ATOM     27  C5  AU5 d   1      -1.805  40.607 126.837  0.00  0.00     0.023 C 
ATOM     28  C9  AU5 d   1      -0.442  40.270 126.210  0.00  0.00    -0.045 C 
ATOM     29  C8  AU5 d   1      -0.547  40.625 124.728  0.00  0.00    -0.063 C 
ATOM     30  H6  AU5 d   1      -0.223  39.199 126.329  0.00  0.00     0.036 H 
ATOM     31  H7  AU5 d   1       0.353  40.862 126.687  0.00  0.00     0.036 H 
ATOM     32  C7  AU5 d   1      -1.816  41.454 124.544  0.00  0.00    -0.063 C 
ATOM     33  H8  AU5 d   1      -0.607  39.707 124.125  0.00  0.00     0.033 H 
ATOM     34  H9  AU5 d   1       0.332  41.210 124.419  0.00  0.00     0.033 H 
ATOM     35  C6  AU5 d   1      -2.378  41.705 125.937  0.00  0.00    -0.045 C 
ATOM     36  H10 AU5 d   1      -2.546  40.901 123.934  0.00  0.00     0.033 H 
ATOM     37  H11 AU5 d   1      -1.577  42.409 124.053  0.00  0.00     0.033 H 
ATOM     38  H12 AU5 d   1      -2.067  42.696 126.300  0.00  0.00     0.036 H 
ATOM     39  H13 AU5 d   1      -3.476  41.649 125.920  0.00  0.00     0.036 H 
ATOM     40  H5  AU5 d   1      -2.458  39.722 126.816  0.00  0.00     0.073 H 
ENDBRANCH  21  27
ENDBRANCH  10  12
ENDBRANCH   1  10
BRANCH   2  41
ATOM     41  O1  AU5 d   1       1.437  47.475 126.838  0.00  0.00    -0.354 OA
BRANCH  41  42
ATOM     42  C17 AU5 d   1       0.428  48.344 126.379  0.00  0.00     0.010 C 
ATOM     43  H15 AU5 d   1       0.395  49.238 127.019  0.00  0.00     0.066 H 
ATOM     44  H16 AU5 d   1      -0.544  47.830 126.417  0.00  0.00     0.066 H 
ATOM     45  H17 AU5 d   1       0.645  48.643 125.343  0.00  0.00     0.066 H 
ENDBRANCH  41  42
ENDBRANCH   2  41
BRANCH   4  46
ATOM     46  O2  AU5 d   1       2.160  45.321 122.640  0.00  0.00    -0.346 OA
BRANCH  46  47
ATOM     47  C18 AU5 d   1       1.031  45.243 121.800  0.00  0.00     0.048 C 
ATOM     48  C22 AU5 d   1       1.395  44.468 120.529  0.00  0.00    -0.018 C 
ATOM     49  C21 AU5 d   1       0.178  44.475 119.590  0.00  0.00     0.085 C 
ATOM     50  H22 AU5 d   1       1.658  43.432 120.788  0.00  0.00     0.039 H 
ATOM     51  H23 AU5 d   1       2.250  44.950 120.032  0.00  0.00     0.039 H 
ATOM     52  N5  AU5 d   1      -0.321  45.834 119.244  0.00  0.00    -0.075 N 
ATOM     53  H24 AU5 d   1      -0.638  43.923 120.079  0.00  0.00     0.076 H 
ATOM     54  H25 AU5 d   1       0.459  43.964 118.658  0.00  0.00     0.076 H 
ATOM     55  C20 AU5 d   1      -0.522  46.650 120.469  0.00  0.00     0.085 C 
ATOM     56  H26 AU5 d   1       0.390  46.287 118.692  0.00  0.00     0.279 HD
ATOM     57  C19 AU5 d   1       0.684  46.684 121.423  0.00  0.00    -0.018 C 
ATOM     58  H30 AU5 d   1      -1.382  46.238 121.018  0.00  0.00     0.076 H 
ATOM     59  H31 AU5 d   1      -0.744  47.682 120.161  0.00  0.00     0.076 H 
ATOM     60  H32 AU5 d   1       1.542  47.156 120.922  0.00  0.00     0.039 H 
ATOM     61  H33 AU5 d   1       0.428  47.255 122.328  0.00  0.00     0.039 H 
ATOM     62  H21 AU5 d   1       0.190  44.757 122.316  0.00  0.00     0.084 H 
BRANCH  52  63
ATOM     63  C23 AU5 d   1      -1.551  45.772 118.416  0.00  0.00     0.066 C 
ATOM     64  H27 AU5 d   1      -1.887  46.793 118.182  0.00  0.00     0.068 H 
ATOM     65  H28 AU5 d   1      -2.340  45.244 118.971  0.00  0.00     0.068 H 
ATOM     66  H29 AU5 d   1      -1.337  45.233 117.481  0.00  0.00     0.068 H 
ENDBRANCH  52  63
ENDBRANCH  46  47
ENDBRANCH   4  46
TORSDOF 9
