REMARK  8 active torsions:
REMARK  status: ('A' for Active; 'I' for Inactive)
REMARK    1  A    between atoms: C22_3  and  O_4 
REMARK    2  A    between atoms: O_4  and  C21_5 
REMARK    3  A    between atoms: C4_6  and  C2_7 
REMARK    4  A    between atoms: N_11  and  C_12 
REMARK    5  A    between atoms: C7_14  and  N2_17 
REMARK    6  A    between atoms: N2_17  and  C8_18 
REMARK    7  A    between atoms: C13_20  and  N4_26 
REMARK    8  A    between atoms: N4_26  and  C14_27 
ROOT
ATOM      1  N6  O38 d   1      -0.058  -6.925 -16.029  0.00  0.00    -0.195 NA
ATOM      2  C23 O38 d   1      -1.137  -7.233 -15.877  0.00  0.00     0.085 C 
ATOM      3  C22 O38 d   1      -2.508  -7.607 -15.657  0.00  0.00     0.104 C 
ATOM      4  H1  O38 d   1      -2.902  -8.094 -16.561  0.00  0.00     0.097 H 
ATOM      5  H2  O38 d   1      -3.100  -6.706 -15.438  0.00  0.00     0.097 H 
ENDROOT
BRANCH   3   6
ATOM      6  O   O38 d   1      -2.600  -8.505 -14.564  0.00  0.00    -0.337 OA
BRANCH   6   7
ATOM      7  C21 O38 d   1      -2.224  -9.839 -14.709  0.00  0.00     0.083 A 
ATOM      8  C4  O38 d   1      -2.343 -10.652 -13.588  0.00  0.00     0.011 A 
ATOM      9  C5  O38 d   1      -1.957 -11.985 -13.725  0.00  0.00    -0.067 A 
ATOM     10  C6  O38 d   1      -1.484 -12.495 -14.913  0.00  0.00    -0.056 A 
ATOM     11  H10 O38 d   1      -2.032 -12.642 -12.866  0.00  0.00     0.085 H 
ATOM     12  C7  O38 d   1      -1.380 -11.672 -16.024  0.00  0.00     0.036 A 
ATOM     13  H9  O38 d   1      -1.194 -13.537 -14.980  0.00  0.00     0.086 H 
ATOM     14  C20 O38 d   1      -1.746 -10.338 -15.931  0.00  0.00    -0.024 A 
ATOM     15  H8  O38 d   1      -1.664  -9.687 -16.794  0.00  0.00     0.091 H 
BRANCH   8  16
ATOM     16  C2  O38 d   1      -2.860 -10.193 -12.328  0.00  0.00     0.013 A 
ATOM     17  C1  O38 d   1      -3.551  -9.017 -12.046  0.00  0.00     0.010 A 
ATOM     18  N   O38 d   1      -3.846  -9.059 -10.690  0.00  0.00    -0.285 N 
ATOM     19  H3  O38 d   1      -3.808  -8.225 -12.748  0.00  0.00     0.115 H 
ATOM     20  N1  O38 d   1      -3.382 -10.188 -10.092  0.00  0.00    -0.185 NA
ATOM     21  C3  O38 d   1      -2.777 -10.890 -11.080  0.00  0.00     0.034 A 
ATOM     22  H4  O38 d   1      -2.292 -11.855 -10.943  0.00  0.00     0.118 H 
BRANCH  18  23
ATOM     23  C   O38 d   1      -4.573  -8.036  -9.935  0.00  0.00     0.002 C 
ATOM     24  H5  O38 d   1      -4.653  -8.345  -8.882  0.00  0.00     0.059 H 
ATOM     25  H6  O38 d   1      -5.580  -7.914 -10.359  0.00  0.00     0.059 H 
ATOM     26  H7  O38 d   1      -4.031  -7.081  -9.996  0.00  0.00     0.059 H 
ENDBRANCH  18  23
ENDBRANCH   8  16
BRANCH  12  27
ATOM     27  N2  O38 d   1      -0.913 -12.134 -17.265  0.00  0.00    -0.341 N 
ATOM     28  H11 O38 d   1      -1.248 -11.636 -18.102  0.00  0.00     0.167 HD
BRANCH  27  29
ATOM     29  C8  O38 d   1      -0.047 -13.193 -17.473  0.00  0.00     0.130 A 
ATOM     30  N5  O38 d   1       0.242 -14.020 -16.436  0.00  0.00    -0.212 NA
ATOM     31  C13 O38 d   1       1.114 -15.039 -16.705  0.00  0.00     0.147 A 
ATOM     32  C11 O38 d   1       1.684 -15.236 -17.977  0.00  0.00     0.090 A 
ATOM     33  C12 O38 d   1       2.577 -16.287 -18.228  0.00  0.00     0.103 C 
ATOM     34  C10 O38 d   1       1.354 -14.365 -19.006  0.00  0.00    -0.056 A 
ATOM     35  N3  O38 d   1       3.313 -17.149 -18.441  0.00  0.00    -0.191 NA
ATOM     36  C9  O38 d   1       0.489 -13.332 -18.777  0.00  0.00    -0.037 A 
ATOM     37  H12 O38 d   1       1.783 -14.504 -19.992  0.00  0.00     0.086 H 
ATOM     38  H13 O38 d   1       0.222 -12.641 -19.568  0.00  0.00     0.089 H 
BRANCH  31  39
ATOM     39  N4  O38 d   1       1.450 -15.894 -15.693  0.00  0.00    -0.369 N 
ATOM     40  H14 O38 d   1       2.052 -16.699 -15.917  0.00  0.00     0.161 HD
BRANCH  39  41
ATOM     41  C14 O38 d   1       1.005 -15.731 -14.316  0.00  0.00     0.011 C 
ATOM     42  C19 O38 d   1      -0.255 -16.538 -14.075  0.00  0.00    -0.046 C 
ATOM     43  C18 O38 d   1      -0.708 -16.436 -12.625  0.00  0.00    -0.063 C 
ATOM     44  H16 O38 d   1      -0.056 -17.593 -14.315  0.00  0.00     0.035 H 
ATOM     45  H17 O38 d   1      -1.054 -16.158 -14.728  0.00  0.00     0.035 H 
ATOM     46  C17 O38 d   1       0.388 -16.861 -11.675  0.00  0.00    -0.065 C 
ATOM     47  H18 O38 d   1      -1.583 -17.086 -12.476  0.00  0.00     0.033 H 
ATOM     48  H19 O38 d   1      -0.985 -15.394 -12.409  0.00  0.00     0.033 H 
ATOM     49  C16 O38 d   1       1.643 -16.051 -11.911  0.00  0.00    -0.063 C 
ATOM     50  H20 O38 d   1       0.611 -17.926 -11.834  0.00  0.00     0.033 H 
ATOM     51  H21 O38 d   1       0.049 -16.708 -10.640  0.00  0.00     0.033 H 
ATOM     52  C15 O38 d   1       2.103 -16.152 -13.359  0.00  0.00    -0.046 C 
ATOM     53  H22 O38 d   1       2.441 -16.428 -11.255  0.00  0.00     0.033 H 
ATOM     54  H23 O38 d   1       1.439 -14.997 -11.673  0.00  0.00     0.033 H 
ATOM     55  H24 O38 d   1       2.975 -15.498 -13.504  0.00  0.00     0.035 H 
ATOM     56  H25 O38 d   1       2.386 -17.193 -13.573  0.00  0.00     0.035 H 
ATOM     57  H15 O38 d   1       0.778 -14.669 -14.143  0.00  0.00     0.072 H 
ENDBRANCH  39  41
ENDBRANCH  31  39
ENDBRANCH  27  29
ENDBRANCH  12  27
ENDBRANCH   6   7
ENDBRANCH   3   6
TORSDOF 8
