REMARK  12 active torsions:
REMARK  status: ('A' for Active; 'I' for Inactive)
REMARK    1  A    between atoms: C20_2  and  O1_3 
REMARK       I    between atoms: C20_2  and  N5_8 
REMARK    2  A    between atoms: O1_3  and  C21_4 
REMARK    3  A    between atoms: C21_4  and  C24_5 
REMARK    4  A    between atoms: C21_4  and  C23_6 
REMARK    5  A    between atoms: C21_4  and  C22_7 
REMARK    6  A    between atoms: C4_9  and  C3_10 
REMARK    7  A    between atoms: N_14  and  C_15 
REMARK    8  A    between atoms: C8_20  and  N3_23 
REMARK    9  A    between atoms: N3_23  and  C9_24 
REMARK   10  A    between atoms: C12_27  and  C13_31 
REMARK       I    between atoms: C13_31  and  N4_33 
REMARK   11  A    between atoms: N4_33  and  C15_34 
REMARK   12  A    between atoms: N4_33  and  C14_35 
ROOT
ATOM      1  O2  7RO d   1       2.873 -16.139 -16.198  0.00  0.00    -0.237 OA
ATOM      2  C20 7RO d   1       2.263 -15.119 -16.388  0.00  0.00     0.373 C 
ATOM      3  N5  7RO d   1       2.058 -14.552 -17.677  0.00  0.00    -0.256 N 
ATOM      4  C4  7RO d   1       2.553 -14.996 -18.945  0.00  0.00     0.059 A 
ATOM      5  C19 7RO d   1       1.283 -13.398 -17.904  0.00  0.00     0.060 A 
ATOM      6  C6  7RO d   1       1.313 -13.150 -19.298  0.00  0.00     0.011 A 
ATOM      7  C5  7RO d   1       2.108 -14.152 -19.916  0.00  0.00    -0.042 A 
ATOM      8  C18 7RO d   1       0.566 -12.582 -17.034  0.00  0.00    -0.011 A 
ATOM      9  C8  7RO d   1      -0.116 -11.513 -17.643  0.00  0.00     0.129 A 
ATOM     10  N2  7RO d   1      -0.096 -11.256 -18.994  0.00  0.00    -0.242 NA
ATOM     11  C7  7RO d   1       0.608 -12.065 -19.781  0.00  0.00     0.017 A 
ATOM     12  H15 7RO d   1       2.324 -14.231 -20.980  0.00  0.00     0.088 H 
ATOM     13  H16 7RO d   1       0.535 -12.758 -15.965  0.00  0.00     0.093 H 
ATOM     14  H17 7RO d   1       0.629 -11.864 -20.846  0.00  0.00     0.116 H 
ENDROOT
BRANCH   9  15
ATOM     15  N3  7RO d   1      -0.882 -10.646 -16.857  0.00  0.00    -0.340 N 
ATOM     16  H18 7RO d   1      -1.438  -9.952 -17.376  0.00  0.00     0.167 HD
BRANCH  15  17
ATOM     17  C9  7RO d   1      -0.997 -10.591 -15.468  0.00  0.00     0.055 A 
ATOM     18  C17 7RO d   1      -1.193 -11.706 -14.648  0.00  0.00    -0.054 A 
ATOM     19  C16 7RO d   1      -1.350 -11.535 -13.286  0.00  0.00    -0.065 A 
ATOM     20  H19 7RO d   1      -1.222 -12.700 -15.079  0.00  0.00     0.087 H 
ATOM     21  C12 7RO d   1      -1.314 -10.264 -12.724  0.00  0.00     0.033 A 
ATOM     22  H20 7RO d   1      -1.503 -12.399 -12.650  0.00  0.00     0.085 H 
ATOM     23  C11 7RO d   1      -1.109  -9.152 -13.510  0.00  0.00    -0.044 A 
ATOM     24  C10 7RO d   1      -0.954  -9.335 -14.865  0.00  0.00     0.061 A 
ATOM     25  H21 7RO d   1      -1.071  -8.161 -13.074  0.00  0.00     0.087 H 
ATOM     26 CL   7RO d   1      -0.696  -7.934 -15.822  0.00  0.00    -0.082 Cl
BRANCH  21  27
ATOM     27  C13 7RO d   1      -1.517 -10.094 -11.270  0.00  0.00     0.253 C 
ATOM     28  O   7RO d   1      -2.061  -9.110 -10.794  0.00  0.00    -0.267 OA
ATOM     29  N4  7RO d   1      -1.055 -11.124 -10.459  0.00  0.00    -0.357 N 
BRANCH  29  30
ATOM     30  C15 7RO d   1       0.034 -10.893  -9.496  0.00  0.00    -0.016 C 
ATOM     31  H22 7RO d   1       0.250 -11.827  -8.956  0.00  0.00     0.056 H 
ATOM     32  H23 7RO d   1      -0.269 -10.116  -8.779  0.00  0.00     0.056 H 
ATOM     33  H24 7RO d   1       0.935 -10.564 -10.034  0.00  0.00     0.056 H 
ENDBRANCH  29  30
BRANCH  29  34
ATOM     34  C14 7RO d   1      -1.941 -12.248 -10.113  0.00  0.00    -0.016 C 
ATOM     35  H25 7RO d   1      -2.722 -12.349 -10.881  0.00  0.00     0.056 H 
ATOM     36  H26 7RO d   1      -2.410 -12.058  -9.136  0.00  0.00     0.056 H 
ATOM     37  H27 7RO d   1      -1.353 -13.176 -10.063  0.00  0.00     0.056 H 
ENDBRANCH  29  34
ENDBRANCH  21  27
ENDBRANCH  15  17
ENDBRANCH   9  15
BRANCH   2  38
ATOM     38  O1  7RO d   1       1.695 -14.402 -15.385  0.00  0.00    -0.293 OA
BRANCH  38  39
ATOM     39  C21 7RO d   1       1.814 -14.932 -14.024  0.00  0.00     0.061 C 
BRANCH  39  40
ATOM     40  C24 7RO d   1       1.296 -16.352 -14.003  0.00  0.00    -0.048 C 
ATOM     41  H1  7RO d   1       1.381 -16.758 -12.984  0.00  0.00     0.031 H 
ATOM     42  H2  7RO d   1       1.889 -16.969 -14.695  0.00  0.00     0.031 H 
ATOM     43  H3  7RO d   1       0.241 -16.362 -14.315  0.00  0.00     0.031 H 
ENDBRANCH  39  40
BRANCH  39  44
ATOM     44  C23 7RO d   1       3.277 -14.876 -13.652  0.00  0.00    -0.048 C 
ATOM     45  H4  7RO d   1       3.411 -15.267 -12.633  0.00  0.00     0.031 H 
ATOM     46  H5  7RO d   1       3.627 -13.834 -13.694  0.00  0.00     0.031 H 
ATOM     47  H6  7RO d   1       3.859 -15.487 -14.358  0.00  0.00     0.031 H 
ENDBRANCH  39  44
BRANCH  39  48
ATOM     48  C22 7RO d   1       0.986 -14.033 -13.137  0.00  0.00    -0.048 C 
ATOM     49  H7  7RO d   1       1.042 -14.390 -12.098  0.00  0.00     0.031 H 
ATOM     50  H8  7RO d   1      -0.061 -14.049 -13.474  0.00  0.00     0.031 H 
ATOM     51  H9  7RO d   1       1.373 -13.005 -13.193  0.00  0.00     0.031 H 
ENDBRANCH  39  48
ENDBRANCH  38  39
ENDBRANCH   2  38
BRANCH   4  52
ATOM     52  C3  7RO d   1       3.354 -16.156 -19.130  0.00  0.00     0.028 A 
ATOM     53  C1  7RO d   1       4.438 -16.636 -18.341  0.00  0.00     0.035 A 
ATOM     54  N1  7RO d   1       4.933 -17.776 -18.873  0.00  0.00    -0.185 NA
ATOM     55  H10 7RO d   1       4.814 -16.154 -17.439  0.00  0.00     0.118 H 
ATOM     56  N   7RO d   1       4.183 -18.018 -19.980  0.00  0.00    -0.285 N 
ATOM     57  C2  7RO d   1       3.213 -17.060 -20.173  0.00  0.00     0.011 A 
ATOM     58  H11 7RO d   1       2.483 -17.020 -20.980  0.00  0.00     0.115 H 
BRANCH  56  59
ATOM     59  C   7RO d   1       4.425 -19.180 -20.835  0.00  0.00     0.002 C 
ATOM     60  H12 7RO d   1       3.706 -19.178 -21.668  0.00  0.00     0.059 H 
ATOM     61  H13 7RO d   1       4.302 -20.101 -20.246  0.00  0.00     0.059 H 
ATOM     62  H14 7RO d   1       5.449 -19.134 -21.234  0.00  0.00     0.059 H 
ENDBRANCH  56  59
ENDBRANCH   4  52
TORSDOF 12
