REMARK  11 active torsions:
REMARK  status: ('A' for Active; 'I' for Inactive)
REMARK    1  A    between atoms: C11_2  and  O1_3 
REMARK       I    between atoms: C11_2  and  N1_7 
REMARK    2  A    between atoms: O1_3  and  C12_4 
REMARK    3  A    between atoms: C12_4  and  C14_5 
REMARK    4  A    between atoms: C12_4  and  C13_6 
REMARK    5  A    between atoms: C5_8  and  C7_9 
REMARK    6  A    between atoms: N2_12  and  C10_13 
REMARK    7  A    between atoms: C2_19  and  N4_22 
REMARK    8  A    between atoms: N4_22  and  C15_23 
REMARK    9  A    between atoms: C18_26  and  C21_29 
REMARK   10  A    between atoms: C22_32  and  C24_33 
REMARK   11  A    between atoms: N5_34  and  C25_35 
ROOT
ATOM      1  O   PWU d   1     -37.888 -15.407 -14.773  0.00  0.00    -0.238 OA
ATOM      2  C11 PWU d   1     -37.197 -15.669 -13.823  0.00  0.00     0.372 C 
ATOM      3  N1  PWU d   1     -36.961 -16.981 -13.392  0.00  0.00    -0.256 N 
ATOM      4  C5  PWU d   1     -37.462 -18.135 -13.986  0.00  0.00     0.059 A 
ATOM      5  C6  PWU d   1     -37.011 -19.222 -13.303  0.00  0.00    -0.042 A 
ATOM      6  C   PWU d   1     -36.187 -18.765 -12.227  0.00  0.00     0.011 A 
ATOM      7  C4  PWU d   1     -36.163 -17.360 -12.286  0.00  0.00     0.060 A 
ATOM      8  C3  PWU d   1     -35.436 -16.616 -11.365  0.00  0.00    -0.011 A 
ATOM      9  C2  PWU d   1     -34.728 -17.321 -10.392  0.00  0.00     0.129 A 
ATOM     10  N   PWU d   1     -34.731 -18.652 -10.313  0.00  0.00    -0.242 NA
ATOM     11  C1  PWU d   1     -35.446 -19.329 -11.214  0.00  0.00     0.017 A 
ATOM     12  H13 PWU d   1     -37.238 -20.261 -13.536  0.00  0.00     0.088 H 
ATOM     13  H14 PWU d   1     -35.420 -15.533 -11.401  0.00  0.00     0.093 H 
ATOM     14  H15 PWU d   1     -35.443 -20.411 -11.142  0.00  0.00     0.116 H 
ENDROOT
BRANCH   9  15
ATOM     15  N4  PWU d   1     -33.946 -16.695  -9.443  0.00  0.00    -0.341 N 
ATOM     16  H16 PWU d   1     -33.482 -17.325  -8.773  0.00  0.00     0.167 HD
BRANCH  15  17
ATOM     17  C15 PWU d   1     -33.688 -15.326  -9.255  0.00  0.00     0.033 A 
ATOM     18  C20 PWU d   1     -33.701 -14.453 -10.332  0.00  0.00    -0.056 A 
ATOM     19  C19 PWU d   1     -33.442 -13.110 -10.144  0.00  0.00    -0.069 A 
ATOM     20  H17 PWU d   1     -33.916 -14.827 -11.327  0.00  0.00     0.086 H 
ATOM     21  C18 PWU d   1     -33.163 -12.610  -8.878  0.00  0.00    -0.008 A 
ATOM     22  H18 PWU d   1     -33.456 -12.438 -10.994  0.00  0.00     0.085 H 
ATOM     23  C17 PWU d   1     -33.152 -13.490  -7.803  0.00  0.00    -0.069 A 
ATOM     24  C16 PWU d   1     -33.411 -14.834  -7.987  0.00  0.00    -0.056 A 
ATOM     25  H19 PWU d   1     -32.938 -13.117  -6.808  0.00  0.00     0.085 H 
ATOM     26  H20 PWU d   1     -33.398 -15.508  -7.138  0.00  0.00     0.086 H 
BRANCH  21  27
ATOM     27  C21 PWU d   1     -32.877 -11.175  -8.686  0.00  0.00     0.063 A 
ATOM     28  C23 PWU d   1     -33.547 -10.089  -9.257  0.00  0.00     0.031 A 
ATOM     29  N6  PWU d   1     -32.953  -8.923  -8.856  0.00  0.00    -0.245 NA
ATOM     30  H21 PWU d   1     -34.409 -10.160  -9.919  0.00  0.00     0.118 H 
ATOM     31  C22 PWU d   1     -31.958  -9.275  -8.068  0.00  0.00     0.102 A 
ATOM     32  N5  PWU d   1     -31.846 -10.638  -7.906  0.00  0.00    -0.338 N 
BRANCH  31  33
ATOM     33  C24 PWU d   1     -31.026  -8.324  -7.413  0.00  0.00    -0.021 C 
ATOM     34  H22 PWU d   1     -31.304  -7.294  -7.682  0.00  0.00     0.037 H 
ATOM     35  H23 PWU d   1     -29.999  -8.527  -7.750  0.00  0.00     0.037 H 
ATOM     36  H24 PWU d   1     -31.085  -8.446  -6.321  0.00  0.00     0.037 H 
ENDBRANCH  31  33
BRANCH  32  37
ATOM     37  C25 PWU d   1     -30.865 -11.345  -7.080  0.00  0.00    -0.012 C 
ATOM     38  H25 PWU d   1     -31.033 -12.429  -7.158  0.00  0.00     0.057 H 
ATOM     39  H26 PWU d   1     -30.975 -11.032  -6.031  0.00  0.00     0.057 H 
ATOM     40  H27 PWU d   1     -29.850 -11.105  -7.430  0.00  0.00     0.057 H 
ENDBRANCH  32  37
ENDBRANCH  21  27
ENDBRANCH  15  17
ENDBRANCH   9  15
BRANCH   2  41
ATOM     41  O1  PWU d   1     -36.573 -14.758 -13.067  0.00  0.00    -0.299 OA
BRANCH  41  42
ATOM     42  C12 PWU d   1     -36.691 -13.356 -13.484  0.00  0.00     0.043 C 
ATOM     43  H1  PWU d   1     -37.233 -13.285 -14.438  0.00  0.00     0.083 H 
BRANCH  42  44
ATOM     44  C14 PWU d   1     -35.309 -12.828 -13.665  0.00  0.00    -0.052 C 
ATOM     45  H2  PWU d   1     -35.357 -11.775 -13.979  0.00  0.00     0.030 H 
ATOM     46  H3  PWU d   1     -34.789 -13.417 -14.435  0.00  0.00     0.030 H 
ATOM     47  H4  PWU d   1     -34.761 -12.902 -12.714  0.00  0.00     0.030 H 
ENDBRANCH  42  44
BRANCH  42  48
ATOM     48  C13 PWU d   1     -37.459 -12.640 -12.431  0.00  0.00    -0.052 C 
ATOM     49  H5  PWU d   1     -37.567 -11.582 -12.712  0.00  0.00     0.030 H 
ATOM     50  H6  PWU d   1     -36.923 -12.712 -11.473  0.00  0.00     0.030 H 
ATOM     51  H7  PWU d   1     -38.455 -13.096 -12.329  0.00  0.00     0.030 H 
ENDBRANCH  42  48
ENDBRANCH  41  42
ENDBRANCH   2  41
BRANCH   4  52
ATOM     52  C7  PWU d   1     -38.300 -18.231 -15.139  0.00  0.00     0.028 A 
ATOM     53  C9  PWU d   1     -39.416 -17.493 -15.564  0.00  0.00     0.035 A 
ATOM     54  N3  PWU d   1     -39.881 -17.957 -16.710  0.00  0.00    -0.185 NA
ATOM     55  H8  PWU d   1     -39.842 -16.650 -15.021  0.00  0.00     0.118 H 
ATOM     56  N2  PWU d   1     -39.058 -19.009 -17.035  0.00  0.00    -0.285 N 
ATOM     57  C8  PWU d   1     -38.106 -19.191 -16.113  0.00  0.00     0.011 A 
ATOM     58  H12 PWU d   1     -37.327 -19.951 -16.128  0.00  0.00     0.115 H 
BRANCH  56  59
ATOM     59  C10 PWU d   1     -39.272 -19.776 -18.255  0.00  0.00     0.002 C 
ATOM     60  H9  PWU d   1     -38.511 -20.567 -18.329  0.00  0.00     0.059 H 
ATOM     61  H10 PWU d   1     -39.193 -19.109 -19.126  0.00  0.00     0.059 H 
ATOM     62  H11 PWU d   1     -40.273 -20.231 -18.231  0.00  0.00     0.059 H 
ENDBRANCH  56  59
ENDBRANCH   4  52
TORSDOF 11
