REMARK  14 active torsions:
REMARK  status: ('A' for Active; 'I' for Inactive)
REMARK    1  A    between atoms: N5_5  and  C11_11 
REMARK    2  A    between atoms: C7_7  and  C8_8 
REMARK       I    between atoms: C8_8  and  N9_9 
REMARK    3  A    between atoms: N9_9  and  C40_40 
REMARK    4  A    between atoms: C16_16  and  N18_18 
REMARK    5  A    between atoms: N18_18  and  C19_19 
REMARK    6  A    between atoms: C20_20  and  O25_25 
REMARK    7  A    between atoms: C22_22  and  C26_26 
REMARK    8  A    between atoms: O25_25  and  C36_36 
REMARK       I    between atoms: C26_26  and  N27_27 
REMARK    9  A    between atoms: N27_27  and  C29_29 
REMARK   10  A    between atoms: N32_32  and  C35_35 
REMARK   11  A    between atoms: C41_41  and  C48_48 
REMARK   12  A    between atoms: C45_45  and  C46_46 
REMARK   13  A    between atoms: C46_46  and  C47_47 
REMARK   14  A    between atoms: C48_48  and  C49_49 
ROOT
ATOM      1  C1  SVE d   1       2.009 -14.508 -19.595  0.00  0.00    -0.067 C 
ATOM      2  C2  SVE d   1       1.135 -13.477 -20.320  0.00  0.00    -0.068 C 
ATOM      3  C3  SVE d   1       1.861 -14.508 -18.095  0.00  0.00     0.031 A 
ATOM      4  C4  SVE d   1       1.223 -13.497 -17.409  0.00  0.00     0.095 A 
ATOM      5  N5  SVE d   1       1.309 -13.816 -16.035  0.00  0.00    -0.270 N 
ATOM      6  N6  SVE d   1       1.956 -14.992 -15.859  0.00  0.00    -0.166 NA
ATOM      7  C7  SVE d   1       2.306 -15.442 -17.064  0.00  0.00     0.157 A 
ATOM      8  C12 SVE d   1       0.551 -12.398 -18.075  0.00  0.00     0.117 A 
ATOM      9  C13 SVE d   1       0.570 -12.361 -19.474  0.00  0.00     0.014 A 
ATOM     10  C14 SVE d   1      -0.035 -11.245 -20.014  0.00  0.00     0.033 A 
ATOM     11  N15 SVE d   1      -0.614 -10.265 -19.299  0.00  0.00    -0.074 NA
ATOM     12  C16 SVE d   1      -0.590 -10.424 -17.967  0.00  0.00     0.727 A 
ATOM     13  N17 SVE d   1      -0.039 -11.460 -17.321  0.00  0.00    -0.060 NA
ATOM     14  H1  SVE d   1       2.678 -15.181 -20.118  0.00  0.00     0.085 H 
ATOM     15  H2  SVE d   1       0.934 -13.546 -21.383  0.00  0.00     0.085 H 
ATOM     16  H7  SVE d   1      -0.044 -11.152 -21.094  0.00  0.00     0.117 H 
ENDROOT
BRANCH  12  17
ATOM     17  N18 SVE d   1      -1.162  -9.509 -17.132  0.00  0.00    -0.185 N 
ATOM     18  H8  SVE d   1      -1.334  -8.595 -17.575  0.00  0.00     0.184 HD
BRANCH  17  19
ATOM     19  C19 SVE d   1      -1.569  -9.570 -15.766  0.00  0.00     0.083 A 
ATOM     20  C20 SVE d   1      -1.911  -8.371 -15.087  0.00  0.00     0.106 A 
ATOM     21  C21 SVE d   1      -2.292  -8.400 -13.750  0.00  0.00    -0.033 A 
ATOM     22  C22 SVE d   1      -2.382  -9.618 -13.079  0.00  0.00     0.034 A 
ATOM     23  H9  SVE d   1      -2.519  -7.476 -13.230  0.00  0.00     0.089 H 
ATOM     24  C23 SVE d   1      -2.144 -10.802 -13.775  0.00  0.00    -0.065 A 
ATOM     25  C24 SVE d   1      -1.735 -10.783 -15.097  0.00  0.00    -0.053 A 
ATOM     26  H10 SVE d   1      -2.281 -11.753 -13.273  0.00  0.00     0.085 H 
ATOM     27  H11 SVE d   1      -1.543 -11.715 -15.615  0.00  0.00     0.087 H 
BRANCH  20  28
ATOM     28  O25 SVE d   1      -1.959  -7.157 -15.764  0.00  0.00    -0.253 OA
BRANCH  28  29
ATOM     29  C36 SVE d   1      -1.119  -6.158 -15.506  0.00  0.00     0.530 C 
ATOM     30  F37 SVE d   1      -1.850  -5.080 -15.407  0.00  0.00    -0.144 F 
ATOM     31  F38 SVE d   1      -0.322  -5.990 -16.530  0.00  0.00    -0.144 F 
ATOM     32  F39 SVE d   1      -0.380  -6.220 -14.422  0.00  0.00    -0.144 F 
ENDBRANCH  28  29
ENDBRANCH  20  28
BRANCH  22  33
ATOM     33  C26 SVE d   1      -2.604  -9.675 -11.597  0.00  0.00     0.252 C 
ATOM     34  N27 SVE d   1      -3.316  -8.680 -11.046  0.00  0.00    -0.352 N 
ATOM     35  H12 SVE d   1      -3.638  -7.935 -11.631  0.00  0.00     0.163 HD
ATOM     36  O28 SVE d   1      -2.137 -10.592 -10.922  0.00  0.00    -0.268 OA
BRANCH  34  37
ATOM     37  C29 SVE d   1      -3.638  -8.647  -9.619  0.00  0.00     0.015 C 
ATOM     38  C30 SVE d   1      -2.492  -8.051  -8.811  0.00  0.00    -0.023 C 
ATOM     39  C31 SVE d   1      -2.880  -7.942  -7.329  0.00  0.00     0.085 C 
ATOM     40  H14 SVE d   1      -2.258  -7.048  -9.199  0.00  0.00     0.038 H 
ATOM     41  H15 SVE d   1      -1.607  -8.697  -8.907  0.00  0.00     0.038 H 
ATOM     42  N32 SVE d   1      -4.094  -7.145  -7.159  0.00  0.00    -0.075 N 
ATOM     43  H16 SVE d   1      -2.057  -7.465  -6.777  0.00  0.00     0.076 H 
ATOM     44  H17 SVE d   1      -3.054  -8.951  -6.928  0.00  0.00     0.076 H 
ATOM     45  C33 SVE d   1      -5.208  -7.786  -7.858  0.00  0.00     0.085 C 
ATOM     46  H18 SVE d   1      -3.941  -6.234  -7.564  0.00  0.00     0.279 HD
ATOM     47  C34 SVE d   1      -4.932  -7.884  -9.364  0.00  0.00    -0.023 C 
ATOM     48  H19 SVE d   1      -6.121  -7.194  -7.698  0.00  0.00     0.076 H 
ATOM     49  H20 SVE d   1      -5.352  -8.798  -7.452  0.00  0.00     0.076 H 
ATOM     50  H21 SVE d   1      -5.765  -8.411  -9.851  0.00  0.00     0.038 H 
ATOM     51  H22 SVE d   1      -4.844  -6.871  -9.783  0.00  0.00     0.038 H 
ATOM     52  H13 SVE d   1      -3.785  -9.684  -9.283  0.00  0.00     0.072 H 
BRANCH  42  53
ATOM     53  C35 SVE d   1      -4.405  -6.975  -5.739  0.00  0.00     0.066 C 
ATOM     54  H23 SVE d   1      -3.556  -6.492  -5.233  0.00  0.00     0.068 H 
ATOM     55  H24 SVE d   1      -4.592  -7.959  -5.284  0.00  0.00     0.068 H 
ATOM     56  H25 SVE d   1      -5.301  -6.346  -5.633  0.00  0.00     0.068 H 
ENDBRANCH  42  53
ENDBRANCH  34  37
ENDBRANCH  22  33
ENDBRANCH  17  19
ENDBRANCH  12  17
BRANCH   5  57
ATOM     57  C11 SVE d   1       0.841 -13.100 -14.855  0.00  0.00     0.003 C 
ATOM     58  H4  SVE d   1       1.097 -13.674 -13.952  0.00  0.00     0.059 H 
ATOM     59  H5  SVE d   1      -0.250 -12.973 -14.912  0.00  0.00     0.059 H 
ATOM     60  H6  SVE d   1       1.323 -12.112 -14.810  0.00  0.00     0.059 H 
ENDBRANCH   5  57
BRANCH   7  61
ATOM     61  C8  SVE d   1       2.988 -16.759 -17.210  0.00  0.00     0.277 C 
ATOM     62  N9  SVE d   1       3.064 -17.473 -16.056  0.00  0.00    -0.321 N 
ATOM     63  H3  SVE d   1       2.680 -17.058 -15.231  0.00  0.00     0.169 HD
ATOM     64  O10 SVE d   1       3.409 -17.159 -18.296  0.00  0.00    -0.266 OA
BRANCH  62  65
ATOM     65  C40 SVE d   1       3.648 -18.767 -15.930  0.00  0.00     0.047 A 
ATOM     66  C41 SVE d   1       2.954 -19.930 -16.304  0.00  0.00    -0.031 A 
ATOM     67  C42 SVE d   1       3.663 -21.129 -16.312  0.00  0.00    -0.075 A 
ATOM     68  C43 SVE d   1       5.000 -21.168 -15.947  0.00  0.00    -0.082 A 
ATOM     69  H26 SVE d   1       3.163 -22.044 -16.608  0.00  0.00     0.084 H 
ATOM     70  C44 SVE d   1       5.650 -20.013 -15.537  0.00  0.00    -0.075 A 
ATOM     71  H27 SVE d   1       5.541 -22.107 -15.982  0.00  0.00     0.083 H 
ATOM     72  C45 SVE d   1       4.978 -18.792 -15.487  0.00  0.00    -0.031 A 
ATOM     73  H28 SVE d   1       6.695 -20.060 -15.252  0.00  0.00     0.084 H 
BRANCH  66  74
ATOM     74  C48 SVE d   1       1.470 -19.965 -16.617  0.00  0.00    -0.042 C 
ATOM     75  H34 SVE d   1       1.252 -20.919 -17.119  0.00  0.00     0.039 H 
ATOM     76  H35 SVE d   1       1.248 -19.132 -17.300  0.00  0.00     0.039 H 
BRANCH  74  77
ATOM     77  C49 SVE d   1       0.550 -19.846 -15.422  0.00  0.00    -0.073 C 
ATOM     78  H36 SVE d   1      -0.496 -19.883 -15.760  0.00  0.00     0.028 H 
ATOM     79  H37 SVE d   1       0.737 -18.891 -14.909  0.00  0.00     0.028 H 
ATOM     80  H38 SVE d   1       0.741 -20.678 -14.728  0.00  0.00     0.028 H 
ENDBRANCH  74  77
ENDBRANCH  66  74
BRANCH  72  81
ATOM     81  C46 SVE d   1       5.623 -17.616 -14.774  0.00  0.00    -0.042 C 
ATOM     82  H29 SVE d   1       6.276 -18.019 -13.986  0.00  0.00     0.039 H 
ATOM     83  H30 SVE d   1       4.820 -17.021 -14.315  0.00  0.00     0.039 H 
BRANCH  81  84
ATOM     84  C47 SVE d   1       6.440 -16.702 -15.616  0.00  0.00    -0.073 C 
ATOM     85  H31 SVE d   1       6.851 -15.896 -14.990  0.00  0.00     0.028 H 
ATOM     86  H32 SVE d   1       5.809 -16.268 -16.405  0.00  0.00     0.028 H 
ATOM     87  H33 SVE d   1       7.265 -17.266 -16.076  0.00  0.00     0.028 H 
ENDBRANCH  81  84
ENDBRANCH  72  81
ENDBRANCH  62  65
ENDBRANCH   7  61
TORSDOF 14
