REMARK  4 active torsions:
REMARK  status: ('A' for Active; 'I' for Inactive)
REMARK    1  A    between atoms: C13_13  and  N23_23 
REMARK    2  A    between atoms: N23_23  and  C14_14 
REMARK    3  A    between atoms: S29_29  and  C18_18 
REMARK    4  A    between atoms: N22_22  and  S29_29 
ROOT
ATOM      1  C3  VYI d   1     -24.383   7.894 -18.307  0.00  0.00    -0.078 A 
ATOM      2  C5  VYI d   1     -24.398   8.745 -17.224  0.00  0.00    -0.056 A 
ATOM      3  C6  VYI d   1     -24.542   6.541 -18.116  0.00  0.00    -0.050 A 
ATOM      4  C12 VYI d   1     -24.748   6.898 -15.737  0.00  0.00     0.016 A 
ATOM      5  C13 VYI d   1     -24.578   8.269 -15.939  0.00  0.00     0.043 A 
ATOM      6  C15 VYI d   1     -24.725   6.053 -16.839  0.00  0.00     0.078 A 
ATOM      7  C19 VYI d   1     -24.924   6.363 -14.341  0.00  0.00     0.022 C 
ATOM      8  C20 VYI d   1     -26.046   4.180 -14.790  0.00  0.00     0.014 C 
ATOM      9  C21 VYI d   1     -26.173   4.403 -16.281  0.00  0.00     0.038 C 
ATOM     10  N22 VYI d   1     -25.976   5.379 -13.906  0.00  0.00    -0.200 NA
ATOM     11  O26 VYI d   1     -24.855   4.674 -16.731  0.00  0.00    -0.349 OA
ATOM     12  H3  VYI d   1     -24.246   8.289 -19.307  0.00  0.00     0.083 H 
ATOM     13  H5  VYI d   1     -24.266   9.809 -17.383  0.00  0.00     0.086 H 
ATOM     14  H6  VYI d   1     -24.524   5.864 -18.962  0.00  0.00     0.087 H 
ATOM     15  H12 VYI d   1     -25.076   7.249 -13.707  0.00  0.00     0.065 H 
ATOM     16  H13 VYI d   1     -23.963   5.891 -14.088  0.00  0.00     0.065 H 
ATOM     17  H14 VYI d   1     -25.128   3.597 -14.623  0.00  0.00     0.060 H 
ATOM     18  H15 VYI d   1     -26.918   3.590 -14.472  0.00  0.00     0.060 H 
ATOM     19  H16 VYI d   1     -26.834   5.257 -16.488  0.00  0.00     0.077 H 
ATOM     20  H17 VYI d   1     -26.571   3.503 -16.773  0.00  0.00     0.077 H 
ENDROOT
BRANCH  10  21
ATOM     21  S29 VYI d   1     -27.437   6.191 -13.459  0.00  0.00     0.244 S 
ATOM     22  O24 VYI d   1     -27.108   7.270 -12.539  0.00  0.00    -0.206 OA
ATOM     23  O25 VYI d   1     -28.359   5.153 -13.042  0.00  0.00    -0.206 OA
BRANCH  21  24
ATOM     24  C18 VYI d   1     -28.210   6.947 -14.880  0.00  0.00     0.074 A 
ATOM     25  C10 VYI d   1     -29.068   6.188 -15.654  0.00  0.00    -0.058 A 
ATOM     26  C8  VYI d   1     -29.672   6.763 -16.753  0.00  0.00    -0.044 A 
ATOM     27  H10 VYI d   1     -29.264   5.152 -15.400  0.00  0.00     0.086 H 
ATOM     28  C16 VYI d   1     -29.425   8.088 -17.039  0.00  0.00     0.116 A 
ATOM     29  H8  VYI d   1     -30.333   6.179 -17.384  0.00  0.00     0.088 H 
ATOM     30  C9  VYI d   1     -28.585   8.853 -16.250  0.00  0.00    -0.044 A 
ATOM     31  F27 VYI d   1     -30.021   8.645 -18.105  0.00  0.00    -0.206 F 
ATOM     32  C11 VYI d   1     -27.975   8.282 -15.150  0.00  0.00    -0.058 A 
ATOM     33  H9  VYI d   1     -28.407   9.894 -16.493  0.00  0.00     0.088 H 
ATOM     34  H11 VYI d   1     -27.325   8.869 -14.511  0.00  0.00     0.086 H 
ENDBRANCH  21  24
ENDBRANCH  10  21
BRANCH   5  35
ATOM     35  N23 VYI d   1     -24.600   9.168 -14.847  0.00  0.00    -0.353 N 
ATOM     36  H18 VYI d   1     -24.581   8.753 -13.905  0.00  0.00     0.166 HD
BRANCH  35  37
ATOM     37  C14 VYI d   1     -24.646  10.578 -14.919  0.00  0.00     0.071 A 
ATOM     38  C4  VYI d   1     -25.638  11.218 -15.640  0.00  0.00    -0.054 A 
ATOM     39  C1  VYI d   1     -25.665  12.595 -15.701  0.00  0.00    -0.081 A 
ATOM     40  H4  VYI d   1     -26.394  10.637 -16.157  0.00  0.00     0.087 H 
ATOM     41  C2  VYI d   1     -24.723  13.337 -15.019  0.00  0.00    -0.080 A 
ATOM     42  H1  VYI d   1     -26.428  13.096 -16.286  0.00  0.00     0.083 H 
ATOM     43  C7  VYI d   1     -23.747  12.716 -14.274  0.00  0.00    -0.043 A 
ATOM     44  H2  VYI d   1     -24.752  14.419 -15.070  0.00  0.00     0.083 H 
ATOM     45  C17 VYI d   1     -23.721  11.343 -14.233  0.00  0.00     0.142 A 
ATOM     46  H7  VYI d   1     -23.013  13.299 -13.730  0.00  0.00     0.088 H 
ATOM     47  F28 VYI d   1     -22.740  10.766 -13.527  0.00  0.00    -0.204 F 
ENDBRANCH  35  37
ENDBRANCH   5  35
TORSDOF 4
