REMARK  5 active torsions:
REMARK  status: ('A' for Active; 'I' for Inactive)
REMARK    1  A    between atoms: C19_19  and  C11_11 
REMARK    2  A    between atoms: C13_13  and  C23_23 
REMARK    3  A    between atoms: C14_14  and  N25_25 
REMARK    4  A    between atoms: S34_34  and  C17_17 
REMARK       I    between atoms: N25_25  and  C19_19 
REMARK    5  A    between atoms: N24_24  and  S34_34 
ROOT
ATOM      1  C4  76E d   1     -24.560   7.380 -17.588  0.00  0.00    -0.054 A 
ATOM      2  C5  76E d   1     -24.696   6.007 -17.590  0.00  0.00    -0.048 A 
ATOM      3  C9  76E d   1     -24.494   7.352 -15.192  0.00  0.00    -0.047 A 
ATOM      4  C12 76E d   1     -24.621   5.987 -15.202  0.00  0.00    -0.004 A 
ATOM      5  C14 76E d   1     -24.461   8.044 -16.384  0.00  0.00     0.035 A 
ATOM      6  C15 76E d   1     -24.765   5.305 -16.403  0.00  0.00     0.076 A 
ATOM      7  C20 76E d   1     -24.739   5.305 -13.894  0.00  0.00     0.032 C 
ATOM      8  C21 76E d   1     -26.043   3.322 -14.397  0.00  0.00     0.026 C 
ATOM      9  C22 76E d   1     -26.124   3.410 -15.918  0.00  0.00     0.041 C 
ATOM     10  N24 76E d   1     -26.081   4.737 -13.993  0.00  0.00    -0.300 N 
ATOM     11  O29 76E d   1     -24.892   3.909 -16.466  0.00  0.00    -0.349 OA
ATOM     12  H4  76E d   1     -24.531   7.930 -18.522  0.00  0.00     0.087 H 
ATOM     13  H5  76E d   1     -24.749   5.474 -18.533  0.00  0.00     0.087 H 
ATOM     14  H9  76E d   1     -24.420   7.885 -14.251  0.00  0.00     0.088 H 
ATOM     15  H11 76E d   1     -24.663   6.017 -13.059  0.00  0.00     0.072 H 
ATOM     16  H12 76E d   1     -23.977   4.521 -13.778  0.00  0.00     0.072 H 
ATOM     17  H13 76E d   1     -25.107   2.842 -14.076  0.00  0.00     0.068 H 
ATOM     18  H14 76E d   1     -26.899   2.768 -13.985  0.00  0.00     0.068 H 
ATOM     19  H15 76E d   1     -26.944   4.088 -16.197  0.00  0.00     0.077 H 
ATOM     20  H16 76E d   1     -26.321   2.408 -16.327  0.00  0.00     0.077 H 
ENDROOT
BRANCH  10  21
ATOM     21  S34 76E d   1     -27.301   5.322 -12.924  0.00  0.00     0.261 S 
ATOM     22  O27 76E d   1     -27.915   4.209 -12.213  0.00  0.00    -0.200 OA
ATOM     23  O28 76E d   1     -26.964   6.580 -12.274  0.00  0.00    -0.200 OA
BRANCH  21  24
ATOM     24  C17 76E d   1     -28.345   5.722 -14.301  0.00  0.00     0.080 A 
ATOM     25  C7  76E d   1     -29.224   4.756 -14.744  0.00  0.00    -0.060 A 
ATOM     26  C1  76E d   1     -29.991   5.052 -15.844  0.00  0.00    -0.081 A 
ATOM     27  H7  76E d   1     -29.306   3.799 -14.242  0.00  0.00     0.085 H 
ATOM     28  C3  76E d   1     -29.888   6.275 -16.476  0.00  0.00    -0.068 A 
ATOM     29  H1  76E d   1     -30.689   4.313 -16.222  0.00  0.00     0.083 H 
ATOM     30  C13 76E d   1     -29.004   7.231 -16.013  0.00  0.00     0.049 A 
ATOM     31  H3  76E d   1     -30.505   6.487 -17.342  0.00  0.00     0.084 H 
ATOM     32  C10 76E d   1     -28.204   6.949 -14.920  0.00  0.00    -0.046 A 
ATOM     33  H10 76E d   1     -27.484   7.674 -14.558  0.00  0.00     0.087 H 
BRANCH  30  34
ATOM     34  C23 76E d   1     -28.895   8.542 -16.708  0.00  0.00     0.417 C 
ATOM     35  F31 76E d   1     -28.713   9.597 -15.867  0.00  0.00    -0.166 F 
ATOM     36  F32 76E d   1     -27.827   8.544 -17.544  0.00  0.00    -0.166 F 
ATOM     37  F33 76E d   1     -29.982   8.857 -17.469  0.00  0.00    -0.166 F 
ENDBRANCH  30  34
ENDBRANCH  21  24
ENDBRANCH  10  21
BRANCH   5  38
ATOM     38  N25 76E d   1     -24.340   9.432 -16.336  0.00  0.00    -0.323 N 
ATOM     39  C19 76E d   1     -25.295  10.115 -15.611  0.00  0.00     0.261 C 
ATOM     40  O26 76E d   1     -26.215   9.678 -14.922  0.00  0.00    -0.267 OA
ATOM     41  H17 76E d   1     -23.597   9.910 -16.805  0.00  0.00     0.169 HD
BRANCH  39  42
ATOM     42  C11 76E d   1     -25.178  11.560 -15.668  0.00  0.00     0.092 A 
ATOM     43  C16 76E d   1     -25.947  12.246 -16.576  0.00  0.00     0.133 A 
ATOM     44  C6  76E d   1     -25.893  13.618 -16.607  0.00  0.00    -0.044 A 
ATOM     45  F30 76E d   1     -26.724  11.576 -17.434  0.00  0.00    -0.205 F 
ATOM     46  C2  76E d   1     -25.069  14.279 -15.722  0.00  0.00    -0.078 A 
ATOM     47  H6  76E d   1     -26.491  14.174 -17.319  0.00  0.00     0.088 H 
ATOM     48  C8  76E d   1     -24.305  13.581 -14.810  0.00  0.00    -0.061 A 
ATOM     49  H2  76E d   1     -25.021  15.362 -15.743  0.00  0.00     0.083 H 
ATOM     50  C18 76E d   1     -24.366  12.209 -14.770  0.00  0.00     0.052 A 
ATOM     51  H8  76E d   1     -23.657  14.115 -14.125  0.00  0.00     0.086 H 
ATOM     52 CL35 76E d   1     -23.412  11.336 -13.640  0.00  0.00    -0.083 Cl
ENDBRANCH  39  42
ENDBRANCH   5  38
TORSDOF 5
