REMARK  15 active torsions:
REMARK  status: ('A' for Active; 'I' for Inactive)
REMARK    1  A    between atoms: C_3  and  CA_2 
REMARK       I    between atoms: N_8  and  C_3 
REMARK    2  A    between atoms: CA_9  and  N_8 
REMARK    3  A    between atoms: C_10  and  CA_9 
REMARK    4  A    between atoms: CA_9  and  CB_12 
REMARK       I    between atoms: N_19  and  C_10 
REMARK    5  A    between atoms: CB_12  and  CG_13 
REMARK    6  A    between atoms: CA_20  and  N_19 
REMARK    7  A    between atoms: CA_26  and  CB_27 
REMARK    8  A    between atoms: CB_27  and  CG_28 
REMARK    9  A    between atoms: CG_28  and  CD2_30 
REMARK   10  A    between atoms: CG_28  and  CD1_29 
REMARK   11  A    between atoms: CH_31  and  OH_32 
REMARK   12  A    between atoms: CA_37  and  CB_40 
REMARK   13  A    between atoms: CB_40  and  CG_41 
REMARK   14  A    between atoms: CG_41  and  CD2_43 
REMARK   15  A    between atoms: CG_41  and  CD1_42 
ROOT
ATOM      1  N   PHE d   1      49.203  62.086  99.539  0.00  0.00    -0.351 N 
ATOM      2  CA  PHE d   1      49.708  62.755  98.326  0.00  0.00     0.069 C 
ATOM      3  C   PHE d   1      48.472  63.183  97.526  0.00  0.00     0.235 C 
ATOM      4  O   PHE d   1      47.728  62.367  96.970  0.00  0.00    -0.272 OA
ATOM      5  H49 PHE d   1      48.542  61.343  99.436  0.00  0.00     0.163 HD
ATOM      6  H50 PHE d   1      50.309  63.635  98.598  0.00  0.00     0.078 H 
ATOM      7  H51 PHE d   1      50.322  62.060  97.735  0.00  0.00     0.078 H 
ATOM      8  CA  CYS d   1      42.744  66.480 101.135  0.00  0.00     0.098 C 
ATOM      9  C   CYS d   1      43.787  65.731 101.989  0.00  0.00     0.241 C 
ATOM     10  O   CYS d   1      44.868  66.254 102.269  0.00  0.00    -0.271 OA
ATOM     11  CB  CYS d   1      43.269  67.270  99.967  0.00  0.00     0.013 C 
ATOM     12  SG  CYS d   1      43.920  66.207  98.629  0.00  0.00    -0.095 SA
ATOM     13  H20 CYS d   1      42.098  65.713 100.683  0.00  0.00     0.088 H 
ATOM     14  H21 CYS d   1      44.079  67.925 100.321  0.00  0.00     0.053 H 
ATOM     15  H22 CYS d   1      42.451  67.884  99.562  0.00  0.00     0.053 H 
ATOM     16  N   STA d   1      43.330  64.549 102.359  0.00  0.00    -0.352 N 
ATOM     17  CA  STA d   1      43.921  63.514 103.177  0.00  0.00     0.037 C 
ATOM     18  CH  STA d   1      44.294  62.208 102.478  0.00  0.00     0.063 C 
ATOM     19  CM  STA d   1      45.225  62.306 101.274  0.00  0.00     0.035 C 
ATOM     20  C   STA d   1      46.627  62.644 101.796  0.00  0.00     0.220 C 
ATOM     21  O   STA d   1      46.887  63.805 102.002  0.00  0.00    -0.274 OA
ATOM     22  H23 STA d   1      42.417  64.332 102.014  0.00  0.00     0.163 HD
ATOM     23  H24 STA d   1      44.930  63.919 103.341  0.00  0.00     0.076 H 
ATOM     24  H34 STA d   1      44.790  61.579 103.232  0.00  0.00     0.086 H 
ATOM     25  H36 STA d   1      44.877  63.098 100.595  0.00  0.00     0.051 H 
ATOM     26  H37 STA d   1      45.246  61.346 100.737  0.00  0.00     0.051 H 
ATOM     27  N   LEU d   1      47.450  61.602 101.735  0.00  0.00    -0.348 N 
ATOM     28  CA  LEU d   1      48.907  61.588 101.850  0.00  0.00     0.089 C 
ATOM     29  C   LEU d   1      49.585  62.425 100.752  0.00  0.00     0.240 C 
ATOM     30  O   LEU d   1      50.388  63.329 101.015  0.00  0.00    -0.271 OA
ATOM     31  H38 LEU d   1      47.016  60.712 101.592  0.00  0.00     0.163 HD
ATOM     32  H39 LEU d   1      49.166  62.052 102.813  0.00  0.00     0.087 H 
ATOM     33  N   DHL d   1      48.313  64.494  97.535  0.00  0.00    -0.359 N 
ATOM     34  CA  DHL d   1      47.180  65.110  96.842  0.00  0.00     0.004 C 
ATOM     35  CB  DHL d   1      46.738  66.367  97.573  0.00  0.00     0.001 C 
ATOM     36  SG  DHL d   1      45.900  66.076  99.128  0.00  0.00    -0.096 SA
ATOM     37  H52 DHL d   1      48.971  65.070  98.019  0.00  0.00     0.162 HD
ATOM     38  H53 DHL d   1      46.343  64.397  96.808  0.00  0.00     0.065 H 
ATOM     39  H54 DHL d   1      47.480  65.373  95.817  0.00  0.00     0.065 H 
ATOM     40  H55 DHL d   1      46.054  66.923  96.915  0.00  0.00     0.052 H 
ATOM     41  H56 DHL d   1      47.631  66.978  97.774  0.00  0.00     0.052 H 
ENDROOT
BRANCH   8  42
ATOM     42  N   CYS d   1      41.903  67.233 102.102  0.00  0.00    -0.345 N 
ATOM     43  C   PHE d   1      40.651  67.513 101.764  0.00  0.00     0.241 C 
ATOM     44  O   PHE d   1      40.224  67.161 100.657  0.00  0.00    -0.271 OA
ATOM     45  H19 CYS d   1      42.272  67.522 102.986  0.00  0.00     0.163 HD
BRANCH  43  46
ATOM     46  CA  PHE d   1      39.779  68.235 102.781  0.00  0.00     0.093 C 
ATOM     47  H11 PHE d   1      40.426  68.922 103.346  0.00  0.00     0.088 H 
BRANCH  46  48
ATOM     48  CB  PHE d   1      39.198  67.201 103.773  0.00  0.00    -0.014 C 
ATOM     49  H12 PHE d   1      39.953  66.423 103.960  0.00  0.00     0.043 H 
ATOM     50  H13 PHE d   1      38.303  66.743 103.327  0.00  0.00     0.043 H 
BRANCH  48  51
ATOM     51  CG  PHE d   1      38.818  67.836 105.084  0.00  0.00    -0.056 A 
ATOM     52  CD2 PHE d   1      37.495  68.118 105.375  0.00  0.00    -0.077 A 
ATOM     53  CE2 PHE d   1      37.131  68.729 106.577  0.00  0.00    -0.082 A 
ATOM     54  H15 PHE d   1      36.726  67.860 104.656  0.00  0.00     0.084 H 
ATOM     55  CZ  PHE d   1      38.129  69.056 107.507  0.00  0.00    -0.083 A 
ATOM     56  H17 PHE d   1      36.091  68.948 106.789  0.00  0.00     0.083 H 
ATOM     57  CE1 PHE d   1      39.472  68.774 107.225  0.00  0.00    -0.082 A 
ATOM     58  H18 PHE d   1      37.861  69.528 108.445  0.00  0.00     0.083 H 
ATOM     59  CD1 PHE d   1      39.808  68.168 106.017  0.00  0.00    -0.077 A 
ATOM     60  H16 PHE d   1      40.245  69.026 107.942  0.00  0.00     0.083 H 
ATOM     61  H14 PHE d   1      40.847  67.951 105.797  0.00  0.00     0.084 H 
ENDBRANCH  48  51
ENDBRANCH  46  48
BRANCH  46  62
ATOM     62  N   PHE d   1      38.715  69.047 102.165  0.00  0.00    -0.346 N 
ATOM     63  C   PRO d   1      38.729  70.372 102.083  0.00  0.00     0.249 C 
ATOM     64  O   PRO d   1      39.671  71.054 102.544  0.00  0.00    -0.271 OA
ATOM     65  H10 PHE d   1      37.926  68.566 101.782  0.00  0.00     0.163 HD
BRANCH  63  66
ATOM     66  CA  PRO d   1      37.555  71.052 101.394  0.00  0.00     0.178 C 
ATOM     67  N   PRO d   1      37.254  72.344 102.019  0.00  0.00    -0.062 N 
ATOM     68  CD  PRO d   1      37.470  73.484 101.112  0.00  0.00     0.083 C 
ATOM     69  H1  PRO d   1      37.848  72.457 102.825  0.00  0.00     0.278 HD
ATOM     70  H2  PRO d   1      36.289  72.343 102.310  0.00  0.00     0.278 HD
ATOM     71  CG  PRO d   1      37.501  72.866  99.725  0.00  0.00    -0.040 C 
ATOM     72  H8  PRO d   1      36.647  74.209 101.196  0.00  0.00     0.075 H 
ATOM     73  H9  PRO d   1      38.424  73.984 101.336  0.00  0.00     0.075 H 
ATOM     74  CB  PRO d   1      37.774  71.419  99.929  0.00  0.00    -0.028 C 
ATOM     75  H6  PRO d   1      36.532  73.005  99.222  0.00  0.00     0.035 H 
ATOM     76  H7  PRO d   1      38.297  73.324  99.120  0.00  0.00     0.035 H 
ATOM     77  H4  PRO d   1      37.094  70.827  99.299  0.00  0.00     0.036 H 
ATOM     78  H5  PRO d   1      38.816  71.201  99.650  0.00  0.00     0.036 H 
ATOM     79  H3  PRO d   1      36.687  70.381 101.473  0.00  0.00     0.099 H 
ENDBRANCH  63  66
ENDBRANCH  46  62
ENDBRANCH  43  46
ENDBRANCH   8  42
BRANCH  17  80
ATOM     80  CB  STA d   1      43.385  63.554 104.589  0.00  0.00    -0.041 C 
ATOM     81  H25 STA d   1      44.190  63.233 105.266  0.00  0.00     0.036 H 
ATOM     82  H26 STA d   1      42.547  62.845 104.654  0.00  0.00     0.036 H 
BRANCH  80  83
ATOM     83  CG  STA d   1      42.878  64.938 105.071  0.00  0.00    -0.059 C 
ATOM     84  H27 STA d   1      42.520  65.498 104.195  0.00  0.00     0.038 H 
BRANCH  83  85
ATOM     85  CD2 STA d   1      44.044  65.706 105.749  0.00  0.00    -0.073 C 
ATOM     86  H31 STA d   1      44.887  65.787 105.047  0.00  0.00     0.028 H 
ATOM     87  H32 STA d   1      44.367  65.162 106.649  0.00  0.00     0.028 H 
ATOM     88  H33 STA d   1      43.704  66.713 106.032  0.00  0.00     0.028 H 
ENDBRANCH  83  85
BRANCH  83  89
ATOM     89  CD1 STA d   1      41.743  64.870 106.119  0.00  0.00    -0.073 C 
ATOM     90  H28 STA d   1      41.446  65.890 106.404  0.00  0.00     0.028 H 
ATOM     91  H29 STA d   1      42.097  64.329 107.009  0.00  0.00     0.028 H 
ATOM     92  H30 STA d   1      40.879  64.342 105.690  0.00  0.00     0.028 H 
ENDBRANCH  83  89
ENDBRANCH  80  83
ENDBRANCH  17  80
BRANCH  18  93
ATOM     93  OH  STA d   1      43.114  61.525 102.002  0.00  0.00    -0.393 OA
ATOM     94  H35 STA d   1      42.720  62.028 101.299  0.00  0.00     0.210 HD
ENDBRANCH  18  93
BRANCH  28  95
ATOM     95  CB  LEU d   1      49.418  60.151 101.884  0.00  0.00    -0.035 C 
ATOM     96  H40 LEU d   1      50.185  60.084 101.099  0.00  0.00     0.037 H 
ATOM     97  H41 LEU d   1      48.560  59.518 101.613  0.00  0.00     0.037 H 
BRANCH  95  98
ATOM     98  CG  LEU d   1      50.026  59.522 103.113  0.00  0.00    -0.059 C 
ATOM     99  H42 LEU d   1      49.231  59.004 103.669  0.00  0.00     0.038 H 
BRANCH  98 100
ATOM    100  CD2 LEU d   1      50.701  60.530 104.044  0.00  0.00    -0.073 C 
ATOM    101  H46 LEU d   1      49.962  61.274 104.377  0.00  0.00     0.028 H 
ATOM    102  H47 LEU d   1      51.515  61.038 103.506  0.00  0.00     0.028 H 
ATOM    103  H48 LEU d   1      51.111  60.004 104.919  0.00  0.00     0.028 H 
ENDBRANCH  98 100
BRANCH  98 104
ATOM    104  CD1 LEU d   1      51.100  58.509 102.679  0.00  0.00    -0.073 C 
ATOM    105  H43 LEU d   1      51.548  58.046 103.570  0.00  0.00     0.028 H 
ATOM    106  H44 LEU d   1      51.881  59.027 102.103  0.00  0.00     0.028 H 
ATOM    107  H45 LEU d   1      50.638  57.730 102.054  0.00  0.00     0.028 H 
ENDBRANCH  98 104
ENDBRANCH  95  98
ENDBRANCH  28  95
TORSDOF 15
