REMARK  6 active torsions:
REMARK  status: ('A' for Active; 'I' for Inactive)
REMARK    1  A    between atoms: O5'_1  and  C5'_2 
REMARK    2  A    between atoms: C5'_2  and  C4'_3 
REMARK    3  A    between atoms: C3'_5  and  O3'_6 
REMARK    4  A    between atoms: C2'_7  and  O2'_8 
REMARK    5  A    between atoms: C1'_9  and  N9_10 
REMARK    6  A    between atoms: C6_14  and  N6_15 
ROOT
ATOM      1  C4' ADN d   1     -26.555 -18.023  33.843  0.00  0.00     0.088 C 
ATOM      2  O4' ADN d   1     -26.369 -17.320  32.593  0.00  0.00    -0.353 OA
ATOM      3  C3' ADN d   1     -25.255 -17.845  34.644  0.00  0.00     0.091 C 
ATOM      4  C2' ADN d   1     -24.581 -16.661  33.942  0.00  0.00     0.105 C 
ATOM      5  C1' ADN d   1     -25.022 -16.901  32.505  0.00  0.00     0.139 C 
ATOM      6  H4  ADN d   1     -26.673 -19.096  33.634  0.00  0.00     0.090 H 
ATOM      7  H5  ADN d   1     -25.461 -17.616  35.700  0.00  0.00     0.091 H 
ATOM      8  H7  ADN d   1     -24.949 -15.702  34.336  0.00  0.00     0.093 H 
ATOM      9  H9  ADN d   1     -24.406 -17.701  32.069  0.00  0.00     0.122 H 
ENDROOT
BRANCH   5  10
ATOM     10  N9  ADN d   1     -24.924 -15.727  31.640  0.00  0.00    -0.294 N 
ATOM     11  C8  ADN d   1     -25.532 -14.509  31.799  0.00  0.00     0.071 A 
ATOM     12  N7  ADN d   1     -25.161 -13.606  30.924  0.00  0.00    -0.236 NA
ATOM     13  H10 ADN d   1     -26.260 -14.309  32.584  0.00  0.00     0.144 H 
ATOM     14  C5  ADN d   1     -24.242 -14.277  30.133  0.00  0.00     0.149 A 
ATOM     15  C6  ADN d   1     -23.452 -13.867  29.045  0.00  0.00     0.155 A 
ATOM     16  C4  ADN d   1     -24.099 -15.592  30.552  0.00  0.00     0.167 A 
ATOM     17  N1  ADN d   1     -22.647 -14.788  28.471  0.00  0.00    -0.222 NA
ATOM     18  C2  ADN d   1     -22.625 -16.031  28.970  0.00  0.00     0.091 A 
ATOM     19  N3  ADN d   1     -23.300 -16.526  30.012  0.00  0.00    -0.222 NA
ATOM     20  H13 ADN d   1     -21.972 -16.730  28.460  0.00  0.00     0.146 H 
BRANCH  15  21
ATOM     21  N6  ADN d   1     -23.438 -12.620  28.567  0.00  0.00    -0.382 N 
ATOM     22  H11 ADN d   1     -22.836 -12.382  27.766  0.00  0.00     0.157 HD
ATOM     23  H12 ADN d   1     -24.029 -11.896  29.000  0.00  0.00     0.157 HD
ENDBRANCH  15  21
ENDBRANCH   5  10
BRANCH   4  24
ATOM     24  O2' ADN d   1     -23.165 -16.688  34.006  0.00  0.00    -0.388 OA
ATOM     25  H8  ADN d   1     -22.890 -16.671  34.915  0.00  0.00     0.210 HD
ENDBRANCH   4  24
BRANCH   1  26
ATOM     26  C5' ADN d   1     -27.833 -17.561  34.516  0.00  0.00     0.043 C 
ATOM     27  H2  ADN d   1     -28.658 -17.631  33.792  0.00  0.00     0.078 H 
ATOM     28  H3  ADN d   1     -28.039 -18.221  35.372  0.00  0.00     0.078 H 
BRANCH  26  29
ATOM     29  O5' ADN d   1     -27.750 -16.217  34.985  0.00  0.00    -0.398 OA
ATOM     30  H1  ADN d   1     -27.579 -15.637  34.252  0.00  0.00     0.209 HD
ENDBRANCH  26  29
ENDBRANCH   1  26
BRANCH   3  31
ATOM     31  O3' ADN d   1     -24.461 -19.024  34.554  0.00  0.00    -0.390 OA
ATOM     32  H6  ADN d   1     -23.661 -18.904  35.052  0.00  0.00     0.210 HD
ENDBRANCH   3  31
TORSDOF 6
