REMARK  7 active torsions:
REMARK  status: ('A' for Active; 'I' for Inactive)
REMARK    1  A    between atoms: C1_4  and  C_1 
REMARK    2  A    between atoms: C_1  and  O3_12 
REMARK    3  A    between atoms: N_2  and  C2_7 
REMARK    4  A    between atoms: C7_18  and  N1_5 
REMARK    5  A    between atoms: C3_10  and  O1_6 
REMARK    6  A    between atoms: C4_13  and  O2_9 
REMARK    7  A    between atoms: N3_11  and  C12_23 
ROOT
ATOM      1  N   ZJB d   1      35.218  -3.498  54.903  0.00  0.00    -0.310 N 
ATOM      2  N2  ZJB d   1      35.252  -7.717  56.794  0.00  0.00    -0.282 N 
ATOM      3  N3  ZJB d   1      36.155  -6.987  57.634  0.00  0.00    -0.277 N 
ATOM      4  N4  ZJB d   1      36.850  -2.949  56.795  0.00  0.00    -0.223 NA
ATOM      5  C5  ZJB d   1      34.508  -4.688  54.577  0.00  0.00    -0.001 A 
ATOM      6  N5  ZJB d   1      37.257  -4.828  58.232  0.00  0.00    -0.222 NA
ATOM      7  C6  ZJB d   1      34.849  -5.655  55.477  0.00  0.00     0.042 A 
ATOM      8  C7  ZJB d   1      34.626  -7.067  55.761  0.00  0.00     0.126 A 
ATOM      9  C8  ZJB d   1      36.422  -5.631  57.479  0.00  0.00     0.160 A 
ATOM     10  C9  ZJB d   1      35.758  -5.054  56.387  0.00  0.00     0.073 A 
ATOM     11  C10 ZJB d   1      35.984  -3.715  56.047  0.00  0.00     0.148 A 
ATOM     12  C11 ZJB d   1      37.412  -3.567  57.837  0.00  0.00     0.091 A 
ATOM     13  H8  ZJB d   1      35.075  -8.717  56.964  0.00  0.00     0.189 HD
ATOM     14  H13 ZJB d   1      33.810  -4.806  53.749  0.00  0.00     0.113 H 
ATOM     15  H14 ZJB d   1      38.081  -2.963  58.439  0.00  0.00     0.146 H 
ENDROOT
BRANCH   1  16
ATOM     16  C2  ZJB d   1      35.232  -2.292  54.086  0.00  0.00     0.138 C 
ATOM     17  O   ZJB d   1      33.907  -1.808  53.982  0.00  0.00    -0.353 OA
ATOM     18  C1  ZJB d   1      33.735  -1.147  52.710  0.00  0.00     0.088 C 
ATOM     19  C4  ZJB d   1      35.041  -1.342  51.934  0.00  0.00     0.091 C 
ATOM     20  H3  ZJB d   1      33.592  -0.069  52.875  0.00  0.00     0.090 H 
ATOM     21  C3  ZJB d   1      35.699  -2.525  52.649  0.00  0.00     0.105 C 
ATOM     22  H12 ZJB d   1      34.838  -1.587  50.881  0.00  0.00     0.091 H 
ATOM     23  H10 ZJB d   1      35.327  -3.483  52.257  0.00  0.00     0.093 H 
ATOM     24  H7  ZJB d   1      35.880  -1.544  54.565  0.00  0.00     0.122 H 
BRANCH  18  25
ATOM     25  C   ZJB d   1      32.492  -1.676  52.032  0.00  0.00     0.043 C 
ATOM     26  H1  ZJB d   1      32.039  -2.452  52.667  0.00  0.00     0.078 H 
ATOM     27  H2  ZJB d   1      32.770  -2.113  51.061  0.00  0.00     0.078 H 
BRANCH  25  28
ATOM     28  O3  ZJB d   1      31.545  -0.637  51.820  0.00  0.00    -0.398 OA
ATOM     29  H11 ZJB d   1      31.299  -0.259  52.656  0.00  0.00     0.209 HD
ENDBRANCH  25  28
ENDBRANCH  18  25
BRANCH  19  30
ATOM     30  O2  ZJB d   1      35.853  -0.175  51.994  0.00  0.00    -0.390 OA
ATOM     31  H9  ZJB d   1      36.654  -0.323  51.506  0.00  0.00     0.210 HD
ENDBRANCH  19  30
BRANCH  21  32
ATOM     32  O1  ZJB d   1      37.118  -2.500  52.547  0.00  0.00    -0.388 OA
ATOM     33  H6  ZJB d   1      37.372  -2.648  51.644  0.00  0.00     0.210 HD
ENDBRANCH  21  32
ENDBRANCH   1  16
BRANCH   8  34
ATOM     34  N1  ZJB d   1      33.764  -7.747  54.926  0.00  0.00    -0.384 N 
ATOM     35  H4  ZJB d   1      33.298  -7.251  54.153  0.00  0.00     0.157 HD
ATOM     36  H5  ZJB d   1      33.586  -8.750  55.076  0.00  0.00     0.157 HD
ENDBRANCH   8  34
BRANCH   3  37
ATOM     37  C12 ZJB d   1      36.860  -7.797  58.667  0.00  0.00     0.002 C 
ATOM     38  H15 ZJB d   1      37.524  -7.145  59.254  0.00  0.00     0.059 H 
ATOM     39  H16 ZJB d   1      37.456  -8.580  58.175  0.00  0.00     0.059 H 
ATOM     40  H17 ZJB d   1      36.121  -8.263  59.335  0.00  0.00     0.059 H 
ENDBRANCH   3  37
TORSDOF 7
