REMARK  2 active torsions:
REMARK  status: ('A' for Active; 'I' for Inactive)
REMARK    1  A    between atoms: N_2  and  C_1 
REMARK    2  A    between atoms: C7_14  and  N5_12 
ROOT
ATOM      1  N   ZVO d   1      -0.071   7.798  33.048  0.00  0.00    -0.254 N 
ATOM      2  C1  ZVO d   1      -0.039   6.425  33.184  0.00  0.00     0.162 A 
ATOM      3  N1  ZVO d   1      -0.276   3.657  33.306  0.00  0.00    -0.223 NA
ATOM      4  C2  ZVO d   1      -1.112   5.766  32.591  0.00  0.00     0.073 A 
ATOM      5  N2  ZVO d   1       0.899   5.666  33.833  0.00  0.00    -0.222 NA
ATOM      6  C3  ZVO d   1      -1.208   4.366  32.669  0.00  0.00     0.143 A 
ATOM      7  N3  ZVO d   1      -2.386   4.039  32.001  0.00  0.00    -0.349 N 
ATOM      8  C4  ZVO d   1       0.716   4.365  33.847  0.00  0.00     0.091 A 
ATOM      9  N4  ZVO d   1      -1.086   8.470  32.375  0.00  0.00    -0.152 NA
ATOM     10  C5  ZVO d   1      -2.991   5.235  31.523  0.00  0.00    -0.006 A 
ATOM     11  C6  ZVO d   1      -2.207   6.312  31.885  0.00  0.00     0.044 A 
ATOM     12  C7  ZVO d   1      -2.108   7.763  31.824  0.00  0.00     0.154 A 
ATOM     13  H4  ZVO d   1      -2.758   3.087  31.874  0.00  0.00     0.167 HD
ATOM     14  H5  ZVO d   1       1.473   3.790  34.368  0.00  0.00     0.146 H 
ATOM     15  H6  ZVO d   1      -3.923   5.292  30.962  0.00  0.00     0.112 H 
ENDROOT
BRANCH   1  16
ATOM     16  C   ZVO d   1       0.993   8.638  33.635  0.00  0.00     0.004 C 
ATOM     17  H1  ZVO d   1       0.786   9.696  33.418  0.00  0.00     0.059 H 
ATOM     18  H2  ZVO d   1       1.964   8.357  33.200  0.00  0.00     0.059 H 
ATOM     19  H3  ZVO d   1       1.021   8.486  34.724  0.00  0.00     0.059 H 
ENDBRANCH   1  16
BRANCH  12  20
ATOM     20  N5  ZVO d   1      -3.102   8.472  31.202  0.00  0.00    -0.382 N 
ATOM     21  H7  ZVO d   1      -3.896   7.977  30.771  0.00  0.00     0.157 HD
ATOM     22  H8  ZVO d   1      -3.056   9.500  31.166  0.00  0.00     0.157 HD
ENDBRANCH  12  20
TORSDOF 2
