REMARK  2 active torsions:
REMARK  status: ('A' for Active; 'I' for Inactive)
REMARK    1  A    between atoms: C6_6  and  N6_7 
REMARK    2  A    between atoms: C8_9  and  N8_10 
ROOT
ATOM      1  N1  Q88 d   1     153.365  -4.748  57.084  0.00  0.00    -0.222 NA
ATOM      2  C2  Q88 d   1     153.402  -3.458  56.727  0.00  0.00     0.091 A 
ATOM      3  N3  Q88 d   1     152.673  -2.826  55.804  0.00  0.00    -0.220 NA
ATOM      4  C4  Q88 d   1     151.806  -3.666  55.206  0.00  0.00     0.200 A 
ATOM      5  C5  Q88 d   1     151.660  -5.020  55.469  0.00  0.00     0.143 A 
ATOM      6  C6  Q88 d   1     152.495  -5.575  56.456  0.00  0.00     0.154 A 
ATOM      7  N7  Q88 d   1     150.661  -5.572  54.680  0.00  0.00    -0.183 N 
ATOM      8  C8  Q88 d   1     150.206  -4.531  53.971  0.00  0.00     0.700 A 
ATOM      9  N9  Q88 d   1     150.871  -3.362  54.237  0.00  0.00    -0.043 NA
ATOM     10  H1  Q88 d   1     154.120  -2.844  57.259  0.00  0.00     0.146 H 
ATOM     11  H4  Q88 d   1     150.344  -6.551  54.647  0.00  0.00     0.184 HD
ENDROOT
BRANCH   6  12
ATOM     12  N6  Q88 d   1     152.538  -6.877  56.743  0.00  0.00    -0.382 N 
ATOM     13  H2  Q88 d   1     151.888  -7.528  56.280  0.00  0.00     0.157 HD
ATOM     14  H3  Q88 d   1     153.221  -7.231  57.428  0.00  0.00     0.157 HD
ENDBRANCH   6  12
BRANCH   8  15
ATOM     15  N8  Q88 d   1     149.156  -4.583  53.146  0.00  0.00    -0.233 N 
ATOM     16  H5  Q88 d   1     148.863  -3.740  52.632  0.00  0.00     0.174 HD
ATOM     17  H6  Q88 d   1     148.640  -5.466  53.024  0.00  0.00     0.174 HD
ENDBRANCH   8  15
TORSDOF 2
