REMARK  9 active torsions:
REMARK  status: ('A' for Active; 'I' for Inactive)
REMARK    1  A    between atoms: PB_1  and  O3A_5 
REMARK    2  A    between atoms: O3A_5  and  PA_6 
REMARK    3  A    between atoms: PA_6  and  O5'_9 
REMARK    4  A    between atoms: O5'_9  and  C5'_10 
REMARK    5  A    between atoms: C5'_10  and  C4'_11 
REMARK    6  A    between atoms: C3'_13  and  O3'_14 
REMARK    7  A    between atoms: C2'_15  and  O2'_16 
REMARK    8  A    between atoms: C1'_17  and  N9_18 
REMARK    9  A    between atoms: C2_25  and  N2_26 
ROOT
ATOM      1  C4' GDP d   1      54.923   3.901 145.192  0.00  0.00     0.089 C 
ATOM      2  O4' GDP d   1      56.153   4.655 145.082  0.00  0.00    -0.353 OA
ATOM      3  C3' GDP d   1      54.309   4.250 146.561  0.00  0.00     0.091 C 
ATOM      4  C2' GDP d   1      55.179   5.411 147.066  0.00  0.00     0.105 C 
ATOM      5  C1' GDP d   1      56.506   5.116 146.370  0.00  0.00     0.139 C 
ATOM      6  H3  GDP d   1      55.162   2.827 145.191  0.00  0.00     0.090 H 
ATOM      7  H4  GDP d   1      53.267   4.581 146.436  0.00  0.00     0.091 H 
ATOM      8  H6  GDP d   1      54.768   6.381 146.749  0.00  0.00     0.093 H 
ATOM      9  H8  GDP d   1      57.038   4.327 146.922  0.00  0.00     0.122 H 
ENDROOT
BRANCH   5  10
ATOM     10  N9  GDP d   1      57.403   6.290 146.255  0.00  0.00    -0.295 N 
ATOM     11  C8  GDP d   1      57.208   7.426 145.512  0.00  0.00     0.071 A 
ATOM     12  N7  GDP d   1      58.117   8.356 145.729  0.00  0.00    -0.234 NA
ATOM     13  H9  GDP d   1      56.383   7.548 144.811  0.00  0.00     0.144 H 
ATOM     14  C5  GDP d   1      58.959   7.797 146.675  0.00  0.00     0.171 A 
ATOM     15  C6  GDP d   1      60.137   8.328 147.370  0.00  0.00     0.292 A 
ATOM     16  C4  GDP d   1      58.550   6.510 146.984  0.00  0.00     0.161 A 
ATOM     17  O6  GDP d   1      60.604   9.470 147.321  0.00  0.00    -0.265 OA
ATOM     18  N1  GDP d   1      60.695   7.395 148.219  0.00  0.00    -0.154 N 
ATOM     19  C2  GDP d   1      60.209   6.136 148.446  0.00  0.00     0.680 A 
ATOM     20  H10 GDP d   1      61.525   7.661 148.710  0.00  0.00     0.187 HD
ATOM     21  N3  GDP d   1      59.135   5.636 147.833  0.00  0.00    -0.174 N 
ATOM     22  H13 GDP d   1      58.786   4.680 147.991  0.00  0.00     0.186 HD
BRANCH  19  23
ATOM     23  N2  GDP d   1      60.784   5.445 149.426  0.00  0.00    -0.234 N 
ATOM     24  H11 GDP d   1      60.460   4.492 149.643  0.00  0.00     0.174 HD
ATOM     25  H12 GDP d   1      61.553   5.863 149.968  0.00  0.00     0.174 HD
ENDBRANCH  19  23
ENDBRANCH   5  10
BRANCH   4  26
ATOM     26  O2' GDP d   1      55.321   5.405 148.484  0.00  0.00    -0.388 OA
ATOM     27  H7  GDP d   1      54.464   5.482 148.887  0.00  0.00     0.210 HD
ENDBRANCH   4  26
BRANCH   1  28
ATOM     28  C5' GDP d   1      54.029   4.161 144.005  0.00  0.00     0.058 C 
ATOM     29  H1  GDP d   1      53.058   3.671 144.172  0.00  0.00     0.079 H 
ATOM     30  H2  GDP d   1      53.879   5.245 143.899  0.00  0.00     0.079 H 
BRANCH  28  31
ATOM     31  O5' GDP d   1      54.616   3.644 142.788  0.00  0.00    -0.287 OA
BRANCH  31  32
ATOM     32  PA  GDP d   1      54.368   4.168 141.263  0.00  0.00     0.418 P 
ATOM     33  O1A GDP d   1      55.562   4.151 140.393  0.00  0.00    -0.624 OA
ATOM     34  O2A GDP d   1      53.949   5.639 141.364  0.00  0.00    -0.624 OA
BRANCH  32  35
ATOM     35  O3A GDP d   1      53.203   3.388 140.497  0.00  0.00    -0.173 OA
BRANCH  35  36
ATOM     36  PB  GDP d   1      52.425   1.998 140.638  0.00  0.00     0.431 P 
ATOM     37  O1B GDP d   1      51.796   1.913 142.005  0.00  0.00    -0.616 OA
ATOM     38  O2B GDP d   1      51.377   1.982 139.493  0.00  0.00    -0.616 OA
ATOM     39  O3B GDP d   1      53.413   0.841 140.355  0.00  0.00    -0.616 OA
ENDBRANCH  35  36
ENDBRANCH  32  35
ENDBRANCH  31  32
ENDBRANCH  28  31
ENDBRANCH   1  28
BRANCH   3  40
ATOM     40  O3' GDP d   1      54.329   3.146 147.461  0.00  0.00    -0.390 OA
ATOM     41  H5  GDP d   1      53.942   3.406 148.289  0.00  0.00     0.210 HD
ENDBRANCH   3  40
TORSDOF 9
