REMARK  0 active torsions:
REMARK  status: ('A' for Active; 'I' for Inactive)
ROOT
ATOM      1  O1  JG8 d   1     -28.191  18.328  63.688  0.00  0.00    -0.265 OA
ATOM      2  C9  JG8 d   1     -28.761  17.834  62.722  0.00  0.00     0.282 A 
ATOM      3  N1  JG8 d   1     -29.478  18.613  61.859  0.00  0.00    -0.316 N 
ATOM      4  C8  JG8 d   1     -30.141  18.142  60.792  0.00  0.00     0.067 A 
ATOM      5  N   JG8 d   1     -30.189  16.902  60.435  0.00  0.00    -0.240 NA
ATOM      6  C1  JG8 d   1     -29.477  16.103  61.282  0.00  0.00     0.110 A 
ATOM      7  C   JG8 d   1     -28.766  16.452  62.391  0.00  0.00     0.173 A 
ATOM      8  O   JG8 d   1     -28.185  15.377  63.031  0.00  0.00    -0.302 OA
ATOM      9  C7  JG8 d   1     -28.556  14.277  62.289  0.00  0.00     0.089 A 
ATOM     10  C2  JG8 d   1     -29.336  14.660  61.208  0.00  0.00     0.030 A 
ATOM     11  C6  JG8 d   1     -28.232  12.965  62.556  0.00  0.00    -0.049 A 
ATOM     12  C5  JG8 d   1     -28.709  11.995  61.693  0.00  0.00    -0.080 A 
ATOM     13  C4  JG8 d   1     -29.482  12.345  60.596  0.00  0.00    -0.082 A 
ATOM     14  C3  JG8 d   1     -29.799  13.671  60.346  0.00  0.00    -0.068 A 
ATOM     15  H1  JG8 d   1     -29.511  19.597  62.034  0.00  0.00     0.170 HD
ATOM     16  H2  JG8 d   1     -30.681  18.862  60.179  0.00  0.00     0.143 H 
ATOM     17  H3  JG8 d   1     -27.624  12.702  63.414  0.00  0.00     0.087 H 
ATOM     18  H4  JG8 d   1     -28.477  10.952  61.876  0.00  0.00     0.083 H 
ATOM     19  H5  JG8 d   1     -29.843  11.573  59.926  0.00  0.00     0.083 H 
ATOM     20  H6  JG8 d   1     -30.403  13.935  59.486  0.00  0.00     0.085 H 
ENDROOT
TORSDOF 0
