REMARK  0 active torsions:
REMARK  status: ('A' for Active; 'I' for Inactive)
ROOT
ATOM      1  CAE 1LQ d   1     203.173  -8.097  60.886  0.00  0.00    -0.054 A 
ATOM      2  CAB 1LQ d   1     203.798  -9.047  61.649  0.00  0.00    -0.081 A 
ATOM      3  CAC 1LQ d   1     204.447  -8.700  62.823  0.00  0.00    -0.082 A 
ATOM      4  CAF 1LQ d   1     204.477  -7.399  63.243  0.00  0.00    -0.067 A 
ATOM      5  C5  1LQ d   1     203.838  -6.373  62.493  0.00  0.00     0.038 A 
ATOM      6  C4  1LQ d   1     203.178  -6.736  61.284  0.00  0.00     0.072 A 
ATOM      7  N3  1LQ d   1     202.534  -5.826  60.480  0.00  0.00    -0.241 NA
ATOM      8  C2  1LQ d   1     202.547  -4.564  60.905  0.00  0.00     0.089 A 
ATOM      9  N1  1LQ d   1     203.108  -4.064  62.008  0.00  0.00    -0.224 NA
ATOM     10  C6  1LQ d   1     203.763  -4.964  62.817  0.00  0.00     0.135 A 
ATOM     11  NAA 1LQ d   1     204.323  -4.470  63.940  0.00  0.00    -0.383 N 
ATOM     12  H1  1LQ d   1     202.671  -8.388  59.971  0.00  0.00     0.087 H 
ATOM     13  H2  1LQ d   1     203.785 -10.083  61.331  0.00  0.00     0.083 H 
ATOM     14  H3  1LQ d   1     204.935  -9.467  63.414  0.00  0.00     0.083 H 
ATOM     15  H4  1LQ d   1     204.995  -7.146  64.161  0.00  0.00     0.085 H 
ATOM     16  H5  1LQ d   1     202.035  -3.849  60.272  0.00  0.00     0.146 H 
ATOM     17  H6  1LQ d   1     204.256  -3.464  64.149  0.00  0.00     0.157 HD
ATOM     18  H7  1LQ d   1     204.817  -5.099  64.589  0.00  0.00     0.157 HD
ENDROOT
TORSDOF 0
