REMARK  2 active torsions:
REMARK  status: ('A' for Active; 'I' for Inactive)
REMARK    1  A    between atoms: N1_1  and  C1_2 
REMARK    2  A    between atoms: C7_10  and  C8_11 
ROOT
ATOM      1  C1  BBW d   1     327.156   7.336 253.099  0.00  0.00     0.135 A 
ATOM      2  C2  BBW d   1     327.276   5.981 253.590  0.00  0.00     0.038 A 
ATOM      3  C3  BBW d   1     326.691   4.817 253.043  0.00  0.00    -0.067 A 
ATOM      4  N2  BBW d   1     327.785   8.367 253.720  0.00  0.00    -0.224 NA
ATOM      5  C4  BBW d   1     328.508   8.066 254.801  0.00  0.00     0.089 A 
ATOM      6  N3  BBW d   1     328.703   6.890 255.357  0.00  0.00    -0.241 NA
ATOM      7  C5  BBW d   1     328.083   5.835 254.744  0.00  0.00     0.072 A 
ATOM      8  C6  BBW d   1     328.270   4.548 255.293  0.00  0.00    -0.049 A 
ATOM      9  C7  BBW d   1     327.691   3.433 254.738  0.00  0.00    -0.060 A 
ATOM     10  C9  BBW d   1     326.901   3.594 253.606  0.00  0.00    -0.076 A 
ATOM     11  H3  BBW d   1     326.065   4.898 252.162  0.00  0.00     0.085 H 
ATOM     12  H4  BBW d   1     329.000   8.902 255.285  0.00  0.00     0.146 H 
ATOM     13  H5  BBW d   1     328.887   4.437 256.177  0.00  0.00     0.087 H 
ATOM     14  H9  BBW d   1     326.439   2.722 253.158  0.00  0.00     0.084 H 
ENDROOT
BRANCH   9  15
ATOM     15  C8  BBW d   1     327.903   2.064 255.335  0.00  0.00    -0.051 C 
ATOM     16  H6  BBW d   1     327.355   1.317 254.742  0.00  0.00     0.033 H 
ATOM     17  H7  BBW d   1     327.532   2.054 256.370  0.00  0.00     0.033 H 
ATOM     18  H8  BBW d   1     328.976   1.823 255.328  0.00  0.00     0.033 H 
ENDBRANCH   9  15
BRANCH   1  19
ATOM     19  N1  BBW d   1     326.411   7.616 252.017  0.00  0.00    -0.383 N 
ATOM     20  H1  BBW d   1     326.336   8.587 251.680  0.00  0.00     0.157 HD
ATOM     21  H2  BBW d   1     325.915   6.860 251.524  0.00  0.00     0.157 HD
ENDBRANCH   1  19
TORSDOF 2
