REMARK  3 active torsions:
REMARK  status: ('A' for Active; 'I' for Inactive)
REMARK    1  A    between atoms: N1_1  and  C1_2 
REMARK    2  A    between atoms: C6_9  and  O1_10 
REMARK    3  A    between atoms: O1_10  and  C7_11 
ROOT
ATOM      1  C1  N8Y d   1     203.516  -4.980  63.370  0.00  0.00     0.135 A 
ATOM      2  N2  N8Y d   1     202.849  -4.114  62.560  0.00  0.00    -0.224 NA
ATOM      3  C2  N8Y d   1     202.229  -4.633  61.499  0.00  0.00     0.089 A 
ATOM      4  N3  N8Y d   1     202.165  -5.888  61.118  0.00  0.00    -0.241 NA
ATOM      5  C3  N8Y d   1     202.821  -6.784  61.921  0.00  0.00     0.072 A 
ATOM      6  C4  N8Y d   1     203.534  -6.397  63.085  0.00  0.00     0.041 A 
ATOM      7  C5  N8Y d   1     204.170  -7.395  63.854  0.00  0.00    -0.035 A 
ATOM      8  C6  N8Y d   1     204.089  -8.709  63.482  0.00  0.00     0.069 A 
ATOM      9  C8  N8Y d   1     203.394  -9.087  62.344  0.00  0.00    -0.049 A 
ATOM     10  C9  N8Y d   1     202.773  -8.152  61.577  0.00  0.00    -0.052 A 
ATOM     11  H3  N8Y d   1     201.708  -3.923  60.866  0.00  0.00     0.146 H 
ATOM     12  H4  N8Y d   1     204.725  -7.119  64.743  0.00  0.00     0.089 H 
ATOM     13  H8  N8Y d   1     203.345 -10.133  62.064  0.00  0.00     0.087 H 
ATOM     14  H9  N8Y d   1     202.234  -8.461  60.689  0.00  0.00     0.087 H 
ENDROOT
BRANCH   8  15
ATOM     15  O1  N8Y d   1     204.649  -9.764  64.155  0.00  0.00    -0.356 OA
BRANCH  15  16
ATOM     16  C7  N8Y d   1     205.387  -9.492  65.342  0.00  0.00     0.010 C 
ATOM     17  H5  N8Y d   1     205.769 -10.435  65.760  0.00  0.00     0.066 H 
ATOM     18  H6  N8Y d   1     204.731  -9.003  66.078  0.00  0.00     0.066 H 
ATOM     19  H7  N8Y d   1     206.231  -8.828  65.105  0.00  0.00     0.066 H 
ENDBRANCH  15  16
ENDBRANCH   8  15
BRANCH   1  20
ATOM     20  N1  N8Y d   1     204.168  -4.485  64.435  0.00  0.00    -0.383 N 
ATOM     21  H1  N8Y d   1     204.681  -5.118  65.065  0.00  0.00     0.157 HD
ATOM     22  H2  N8Y d   1     204.155  -3.472  64.622  0.00  0.00     0.157 HD
ENDBRANCH   1  20
TORSDOF 3
