REMARK  6 active torsions:
REMARK  status: ('A' for Active; 'I' for Inactive)
REMARK    1  A    between atoms: O2_1  and  C1_2 
REMARK    2  A    between atoms: C2_3  and  O1_4 
REMARK    3  A    between atoms: C3_5  and  C5_6 
REMARK    4  A    between atoms: C5_6  and  O_7 
REMARK    5  A    between atoms: C_9  and  N_10 
REMARK    6  A    between atoms: N_10  and  C6_11 
ROOT
ATOM      1  C1  5P7 d   1      59.054  -3.386 148.488  0.00  0.00     0.080 C 
ATOM      2  C2  5P7 d   1      59.843  -2.150 148.072  0.00  0.00     0.067 C 
ATOM      3  C3  5P7 d   1      59.298  -1.684 146.722  0.00  0.00    -0.004 C 
ATOM      4  C4  5P7 d   1      58.146  -2.650 146.451  0.00  0.00    -0.036 C 
ATOM      5  C   5P7 d   1      57.696  -3.142 147.827  0.00  0.00     0.038 C 
ATOM      6  H2  5P7 d   1      59.516  -4.301 148.090  0.00  0.00     0.090 H 
ATOM      7  H3  5P7 d   1      60.901  -2.426 147.955  0.00  0.00     0.087 H 
ATOM      8  H5  5P7 d   1      58.908  -0.659 146.807  0.00  0.00     0.047 H 
ATOM      9  H9  5P7 d   1      58.488  -3.494 145.834  0.00  0.00     0.036 H 
ATOM     10  H10 5P7 d   1      57.322  -2.132 145.939  0.00  0.00     0.036 H 
ATOM     11  H11 5P7 d   1      57.124  -2.377 148.373  0.00  0.00     0.076 H 
ENDROOT
BRANCH   5  12
ATOM     12  N   5P7 d   1      56.881  -4.329 147.674  0.00  0.00    -0.367 N 
ATOM     13  H12 5P7 d   1      57.252  -5.097 147.096  0.00  0.00     0.161 HD
BRANCH  12  14
ATOM     14  C6  5P7 d   1      55.647  -4.498 148.248  0.00  0.00     0.138 A 
ATOM     15  C9  5P7 d   1      55.007  -5.787 148.190  0.00  0.00     0.038 A 
ATOM     16  C10 5P7 d   1      55.516  -6.951 147.566  0.00  0.00    -0.067 A 
ATOM     17  C8  5P7 d   1      53.763  -5.873 148.855  0.00  0.00     0.072 A 
ATOM     18  C11 5P7 d   1      54.829  -8.125 147.612  0.00  0.00    -0.082 A 
ATOM     19  H13 5P7 d   1      56.465  -6.907 147.045  0.00  0.00     0.085 H 
ATOM     20  C12 5P7 d   1      53.619  -8.205 148.266  0.00  0.00    -0.081 A 
ATOM     21  H14 5P7 d   1      55.238  -9.005 147.130  0.00  0.00     0.083 H 
ATOM     22  C13 5P7 d   1      53.082  -7.110 148.875  0.00  0.00    -0.054 A 
ATOM     23  H15 5P7 d   1      53.088  -9.149 148.297  0.00  0.00     0.083 H 
ATOM     24  H16 5P7 d   1      52.125  -7.189 149.378  0.00  0.00     0.087 H 
ATOM     25  N2  5P7 d   1      53.203  -4.807 149.503  0.00  0.00    -0.241 NA
ATOM     26  C7  5P7 d   1      53.903  -3.696 149.468  0.00  0.00     0.089 A 
ATOM     27  N1  5P7 d   1      55.083  -3.469 148.884  0.00  0.00    -0.224 NA
ATOM     28  H17 5P7 d   1      53.464  -2.849 149.982  0.00  0.00     0.146 H 
ENDBRANCH  12  14
ENDBRANCH   5  12
BRANCH   1  29
ATOM     29  O2  5P7 d   1      58.983  -3.486 149.903  0.00  0.00    -0.391 OA
ATOM     30  H1  5P7 d   1      59.861  -3.548 150.259  0.00  0.00     0.210 HD
ENDBRANCH   1  29
BRANCH   2  31
ATOM     31  O1  5P7 d   1      59.759  -1.117 149.042  0.00  0.00    -0.392 OA
ATOM     32  H4  5P7 d   1      60.109  -1.430 149.868  0.00  0.00     0.210 HD
ENDBRANCH   2  31
BRANCH   3  33
ATOM     33  C5  5P7 d   1      60.366  -1.689 145.652  0.00  0.00     0.022 C 
ATOM     34  H6  5P7 d   1      61.109  -0.912 145.884  0.00  0.00     0.074 H 
ATOM     35  H7  5P7 d   1      59.900  -1.472 144.679  0.00  0.00     0.074 H 
BRANCH  33  36
ATOM     36  O   5P7 d   1      61.019  -2.948 145.582  0.00  0.00    -0.400 OA
ATOM     37  H8  5P7 d   1      61.683  -2.922 144.903  0.00  0.00     0.209 HD
ENDBRANCH  33  36
ENDBRANCH   3  33
TORSDOF 6
