REMARK  8 active torsions:
REMARK  status: ('A' for Active; 'I' for Inactive)
REMARK    1  A    between atoms: O2_1  and  C1_2 
REMARK    2  A    between atoms: C2_3  and  O1_4 
REMARK    3  A    between atoms: C3_5  and  C5_6 
REMARK    4  A    between atoms: C5_6  and  O_7 
REMARK    5  A    between atoms: C_9  and  N_10 
REMARK    6  A    between atoms: N_10  and  C6_11 
REMARK    7  A    between atoms: C10_13  and  O3_14 
REMARK    8  A    between atoms: O3_14  and  C14_15 
ROOT
ATOM      1  N   UX0 d   1     -22.647 -14.976  26.951  0.00  0.00    -0.367 N 
ATOM      2  H12 UX0 d   1     -22.195 -14.172  27.410  0.00  0.00     0.161 HD
ENDROOT
BRANCH   1   3
ATOM      3  C   UX0 d   1     -21.952 -16.244  26.902  0.00  0.00     0.038 C 
ATOM      4  C1  UX0 d   1     -20.565 -16.083  26.279  0.00  0.00     0.080 C 
ATOM      5  C2  UX0 d   1     -19.801 -17.315  26.766  0.00  0.00     0.067 C 
ATOM      6  H2  UX0 d   1     -20.088 -15.169  26.663  0.00  0.00     0.090 H 
ATOM      7  C3  UX0 d   1     -20.435 -17.782  28.082  0.00  0.00    -0.004 C 
ATOM      8  H3  UX0 d   1     -18.758 -17.027  26.963  0.00  0.00     0.087 H 
ATOM      9  C4  UX0 d   1     -21.595 -16.803  28.281  0.00  0.00    -0.036 C 
ATOM     10  H5  UX0 d   1     -20.828 -18.804  27.972  0.00  0.00     0.047 H 
ATOM     11  H9  UX0 d   1     -21.289 -15.986  28.952  0.00  0.00     0.036 H 
ATOM     12  H10 UX0 d   1     -22.461 -17.326  28.712  0.00  0.00     0.036 H 
ATOM     13  H11 UX0 d   1     -22.563 -16.963  26.337  0.00  0.00     0.076 H 
BRANCH   4  14
ATOM     14  O2  UX0 d   1     -20.603 -16.002  24.860  0.00  0.00    -0.391 OA
ATOM     15  H1  UX0 d   1     -21.085 -15.225  24.601  0.00  0.00     0.210 HD
ENDBRANCH   4  14
BRANCH   5  16
ATOM     16  O1  UX0 d   1     -19.793 -18.344  25.786  0.00  0.00    -0.392 OA
ATOM     17  H4  UX0 d   1     -19.375 -18.023  24.995  0.00  0.00     0.210 HD
ENDBRANCH   5  16
BRANCH   7  18
ATOM     18  C5  UX0 d   1     -19.432 -17.785  29.215  0.00  0.00     0.022 C 
ATOM     19  H6  UX0 d   1     -19.923 -18.153  30.128  0.00  0.00     0.074 H 
ATOM     20  H7  UX0 d   1     -19.074 -16.758  29.380  0.00  0.00     0.074 H 
BRANCH  18  21
ATOM     21  O   UX0 d   1     -18.323 -18.619  28.918  0.00  0.00    -0.400 OA
ATOM     22  H8  UX0 d   1     -17.712 -18.602  29.645  0.00  0.00     0.209 HD
ENDBRANCH  18  21
ENDBRANCH   7  18
ENDBRANCH   1   3
BRANCH   1  23
ATOM     23  C6  UX0 d   1     -23.882 -14.821  26.405  0.00  0.00     0.140 A 
ATOM     24  C9  UX0 d   1     -24.542 -13.546  26.442  0.00  0.00     0.072 A 
ATOM     25  C10 UX0 d   1     -24.027 -12.348  26.997  0.00  0.00     0.084 A 
ATOM     26  C8  UX0 d   1     -25.832 -13.483  25.839  0.00  0.00     0.075 A 
ATOM     27  C11 UX0 d   1     -24.750 -11.173  26.951  0.00  0.00    -0.050 A 
ATOM     28  C12 UX0 d   1     -26.002 -11.147  26.357  0.00  0.00    -0.078 A 
ATOM     29  H16 UX0 d   1     -24.337 -10.268  27.381  0.00  0.00     0.087 H 
ATOM     30  C13 UX0 d   1     -26.545 -12.267  25.810  0.00  0.00    -0.054 A 
ATOM     31  H17 UX0 d   1     -26.558 -10.217  26.328  0.00  0.00     0.083 H 
ATOM     32  H18 UX0 d   1     -27.526 -12.225  25.352  0.00  0.00     0.087 H 
ATOM     33  N2  UX0 d   1     -26.403 -14.588  25.264  0.00  0.00    -0.241 NA
ATOM     34  C7  UX0 d   1     -25.685 -15.687  25.308  0.00  0.00     0.089 A 
ATOM     35  N1  UX0 d   1     -24.475 -15.871  25.837  0.00  0.00    -0.224 NA
ATOM     36  H19 UX0 d   1     -26.137 -16.561  24.853  0.00  0.00     0.146 H 
BRANCH  25  37
ATOM     37  O3  UX0 d   1     -22.787 -12.469  27.557  0.00  0.00    -0.355 OA
BRANCH  37  38
ATOM     38  C14 UX0 d   1     -22.128 -11.295  28.031  0.00  0.00     0.010 C 
ATOM     39  H13 UX0 d   1     -21.148 -11.568  28.448  0.00  0.00     0.066 H 
ATOM     40  H14 UX0 d   1     -22.740 -10.821  28.812  0.00  0.00     0.066 H 
ATOM     41  H15 UX0 d   1     -21.988 -10.591  27.197  0.00  0.00     0.066 H 
ENDBRANCH  37  38
ENDBRANCH  25  37
ENDBRANCH   1  23
TORSDOF 8
