REMARK  9 active torsions:
REMARK  status: ('A' for Active; 'I' for Inactive)
REMARK    1  A    between atoms: O2_1  and  C1_2 
REMARK    2  A    between atoms: C2_3  and  O1_4 
REMARK    3  A    between atoms: C3_5  and  C5_6 
REMARK    4  A    between atoms: C5_6  and  O_7 
REMARK    5  A    between atoms: C_9  and  N_10 
REMARK    6  A    between atoms: N_10  and  C6_11 
REMARK    7  A    between atoms: C8_20  and  O3_21 
REMARK    8  A    between atoms: O3_21  and  C14_22 
REMARK    9  A    between atoms: C14_22  and  C15_23 
ROOT
ATOM      1  C6  KC7 d   1     -24.102   0.988  26.475  0.00  0.00     0.140 A 
ATOM      2  N2  KC7 d   1     -24.715  -0.049  25.852  0.00  0.00    -0.224 NA
ATOM      3  C13 KC7 d   1     -25.930   0.228  25.303  0.00  0.00     0.089 A 
ATOM      4  N1  KC7 d   1     -26.589   1.375  25.296  0.00  0.00    -0.241 NA
ATOM      5  C12 KC7 d   1     -25.959   2.419  25.941  0.00  0.00     0.075 A 
ATOM      6  C7  KC7 d   1     -24.709   2.289  26.564  0.00  0.00     0.072 A 
ATOM      7  C11 KC7 d   1     -26.621   3.671  25.936  0.00  0.00    -0.054 A 
ATOM      8  C10 KC7 d   1     -26.051   4.749  26.531  0.00  0.00    -0.078 A 
ATOM      9  C9  KC7 d   1     -24.801   4.645  27.171  0.00  0.00    -0.050 A 
ATOM     10  C8  KC7 d   1     -24.157   3.437  27.188  0.00  0.00     0.085 A 
ATOM     11  H13 KC7 d   1     -26.422  -0.601  24.806  0.00  0.00     0.146 H 
ATOM     12  H14 KC7 d   1     -27.587   3.768  25.455  0.00  0.00     0.087 H 
ATOM     13  H15 KC7 d   1     -26.565   5.703  26.513  0.00  0.00     0.083 H 
ATOM     14  H16 KC7 d   1     -24.354   5.511  27.645  0.00  0.00     0.087 H 
ENDROOT
BRANCH   1  15
ATOM     15  N   KC7 d   1     -22.862   0.808  27.009  0.00  0.00    -0.367 N 
ATOM     16  H12 KC7 d   1     -22.426   1.613  27.482  0.00  0.00     0.161 HD
BRANCH  15  17
ATOM     17  C   KC7 d   1     -22.110  -0.428  26.963  0.00  0.00     0.038 C 
ATOM     18  C1  KC7 d   1     -20.775  -0.221  26.248  0.00  0.00     0.080 C 
ATOM     19  C2  KC7 d   1     -19.961  -1.448  26.668  0.00  0.00     0.067 C 
ATOM     20  H2  KC7 d   1     -20.291   0.696  26.614  0.00  0.00     0.090 H 
ATOM     21  C3  KC7 d   1     -20.416  -1.760  28.107  0.00  0.00    -0.004 C 
ATOM     22  H3  KC7 d   1     -18.891  -1.193  26.671  0.00  0.00     0.087 H 
ATOM     23  C4  KC7 d   1     -21.652  -0.889  28.345  0.00  0.00    -0.036 C 
ATOM     24  H5  KC7 d   1     -20.726  -2.814  28.151  0.00  0.00     0.047 H 
ATOM     25  H9  KC7 d   1     -21.395  -0.022  28.972  0.00  0.00     0.036 H 
ATOM     26  H10 KC7 d   1     -22.444  -1.474  28.835  0.00  0.00     0.036 H 
ATOM     27  H11 KC7 d   1     -22.715  -1.203  26.469  0.00  0.00     0.076 H 
BRANCH  18  28
ATOM     28  O2  KC7 d   1     -20.915  -0.116  24.837  0.00  0.00    -0.391 OA
ATOM     29  H1  KC7 d   1     -20.055  -0.047  24.439  0.00  0.00     0.210 HD
ENDBRANCH  18  28
BRANCH  19  30
ATOM     30  O1  KC7 d   1     -20.146  -2.550  25.791  0.00  0.00    -0.392 OA
ATOM     31  H4  KC7 d   1     -19.875  -2.305  24.914  0.00  0.00     0.210 HD
ENDBRANCH  19  30
BRANCH  21  32
ATOM     32  C5  KC7 d   1     -19.323  -1.587  29.140  0.00  0.00     0.022 C 
ATOM     33  H6  KC7 d   1     -19.717  -1.863  30.129  0.00  0.00     0.074 H 
ATOM     34  H7  KC7 d   1     -19.005  -0.534  29.152  0.00  0.00     0.074 H 
BRANCH  32  35
ATOM     35  O   KC7 d   1     -18.202  -2.406  28.844  0.00  0.00    -0.400 OA
ATOM     36  H8  KC7 d   1     -17.534  -2.277  29.507  0.00  0.00     0.209 HD
ENDBRANCH  32  35
ENDBRANCH  21  32
ENDBRANCH  15  17
ENDBRANCH   1  15
BRANCH  10  37
ATOM     37  O3  KC7 d   1     -22.966   3.256  27.832  0.00  0.00    -0.346 OA
BRANCH  37  38
ATOM     38  C14 KC7 d   1     -22.028   4.314  27.758  0.00  0.00     0.050 C 
ATOM     39  H17 KC7 d   1     -22.417   5.213  28.259  0.00  0.00     0.082 H 
ATOM     40  H18 KC7 d   1     -21.793   4.551  26.710  0.00  0.00     0.082 H 
BRANCH  38  41
ATOM     41  C15 KC7 d   1     -20.816   3.798  28.466  0.00  0.00    -0.034 A 
ATOM     42  C20 KC7 d   1     -20.887   3.438  29.802  0.00  0.00    -0.075 A 
ATOM     43  C19 KC7 d   1     -19.762   2.954  30.453  0.00  0.00    -0.082 A 
ATOM     44  H19 KC7 d   1     -21.823   3.535  30.339  0.00  0.00     0.084 H 
ATOM     45  C18 KC7 d   1     -18.567   2.827  29.771  0.00  0.00    -0.083 A 
ATOM     46  H20 KC7 d   1     -19.820   2.675  31.499  0.00  0.00     0.083 H 
ATOM     47  C17 KC7 d   1     -18.501   3.187  28.433  0.00  0.00    -0.082 A 
ATOM     48  H21 KC7 d   1     -17.687   2.449  30.278  0.00  0.00     0.083 H 
ATOM     49  C16 KC7 d   1     -19.622   3.673  27.778  0.00  0.00    -0.075 A 
ATOM     50  H22 KC7 d   1     -17.565   3.087  27.895  0.00  0.00     0.083 H 
ATOM     51  H23 KC7 d   1     -19.564   3.954  26.733  0.00  0.00     0.084 H 
ENDBRANCH  38  41
ENDBRANCH  37  38
ENDBRANCH  10  37
TORSDOF 9
