REMARK  9 active torsions:
REMARK  status: ('A' for Active; 'I' for Inactive)
REMARK    1  A    between atoms: N_2  and  C_1 
REMARK    2  A    between atoms: C1_4  and  O3_12 
REMARK    3  A    between atoms: C4_13  and  O1_6 
REMARK    4  A    between atoms: C2_7  and  O2_9 
REMARK    5  A    between atoms: C3_10  and  C4_13 
REMARK    6  A    between atoms: C9_21  and  N4_14 
REMARK    7  A    between atoms: N5_16  and  C5_15 
REMARK    8  A    between atoms: C10_22  and  N5_16 
REMARK    9  A    between atoms: C11_23  and  C10_22 
ROOT
ATOM      1  N   GB8 d   1       5.052   8.340  -8.162  0.00  0.00    -0.132 N 
ATOM      2  N1  GB8 d   1       3.438   9.567  -7.179  0.00  0.00    -0.057 NA
ATOM      3  N2  GB8 d   1       4.188   8.313 -10.443  0.00  0.00    -0.221 NA
ATOM      4  N3  GB8 d   1       2.162   9.591 -10.659  0.00  0.00    -0.222 NA
ATOM      5  C5  GB8 d   1       4.561   8.925  -6.954  0.00  0.00     0.707 A 
ATOM      6  C6  GB8 d   1       3.168   9.415  -8.532  0.00  0.00     0.168 A 
ATOM      7  C7  GB8 d   1       4.139   8.649  -9.149  0.00  0.00     0.182 A 
ATOM      8  C8  GB8 d   1       3.156   8.827 -11.112  0.00  0.00     0.091 A 
ATOM      9  C9  GB8 d   1       2.138   9.919  -9.350  0.00  0.00     0.156 A 
ATOM     10  H13 GB8 d   1       3.120   8.591 -12.169  0.00  0.00     0.146 H 
ENDROOT
BRANCH   5  11
ATOM     11  N5  GB8 d   1       5.161   8.822  -5.762  0.00  0.00    -0.220 N 
ATOM     12  H12 GB8 d   1       6.021   8.262  -5.671  0.00  0.00     0.178 HD
BRANCH  11  13
ATOM     13  C10 GB8 d   1       4.612   9.491  -4.595  0.00  0.00     0.033 C 
ATOM     14  H14 GB8 d   1       4.731   8.836  -3.719  0.00  0.00     0.072 H 
ATOM     15  H15 GB8 d   1       3.543   9.685  -4.765  0.00  0.00     0.072 H 
BRANCH  13  16
ATOM     16  C11 GB8 d   1       5.310  10.800  -4.326  0.00  0.00    -0.039 A 
ATOM     17  C12 GB8 d   1       4.598  11.894  -3.907  0.00  0.00    -0.063 A 
ATOM     18  C13 GB8 d   1       5.229  13.135  -3.661  0.00  0.00    -0.007 A 
ATOM     19  H16 GB8 d   1       3.527  11.806  -3.761  0.00  0.00     0.085 H 
ATOM     20  C14 GB8 d   1       6.620  13.234  -3.864  0.00  0.00     0.066 A 
ATOM     21  C19 GB8 d   1       4.550  14.281  -3.211  0.00  0.00    -0.069 A 
ATOM     22  N6  GB8 d   1       7.302  14.403  -3.641  0.00  0.00    -0.260 NA
ATOM     23  C15 GB8 d   1       7.327  12.093  -4.296  0.00  0.00    -0.054 A 
ATOM     24  C17 GB8 d   1       6.602  15.444  -3.218  0.00  0.00     0.003 A 
ATOM     25  C18 GB8 d   1       5.238  15.430  -2.990  0.00  0.00    -0.065 A 
ATOM     26  H19 GB8 d   1       7.134  16.371  -3.038  0.00  0.00     0.114 H 
ATOM     27  H20 GB8 d   1       4.728  16.320  -2.641  0.00  0.00     0.085 H 
ATOM     28  C16 GB8 d   1       6.679  10.919  -4.515  0.00  0.00    -0.073 A 
ATOM     29  H17 GB8 d   1       8.398  12.153  -4.455  0.00  0.00     0.087 H 
ATOM     30  H18 GB8 d   1       7.245  10.055  -4.845  0.00  0.00     0.084 H 
ATOM     31  H21 GB8 d   1       3.480  14.247  -3.041  0.00  0.00     0.085 H 
ENDBRANCH  13  16
ENDBRANCH  11  13
ENDBRANCH   5  11
BRANCH   1  32
ATOM     32  C   GB8 d   1       6.338   7.698  -8.363  0.00  0.00     0.156 C 
ATOM     33  O   GB8 d   1       6.419   6.584  -7.503  0.00  0.00    -0.353 OA
ATOM     34  C3  GB8 d   1       7.808   6.339  -7.184  0.00  0.00     0.088 C 
ATOM     35  C2  GB8 d   1       8.604   7.472  -7.837  0.00  0.00     0.091 C 
ATOM     36  H6  GB8 d   1       8.128   5.385  -7.627  0.00  0.00     0.090 H 
ATOM     37  C1  GB8 d   1       7.546   8.557  -8.021  0.00  0.00     0.105 C 
ATOM     38  H4  GB8 d   1       9.415   7.815  -7.178  0.00  0.00     0.091 H 
ATOM     39  H2  GB8 d   1       7.389   9.123  -7.091  0.00  0.00     0.093 H 
ATOM     40  H1  GB8 d   1       6.409   7.379  -9.413  0.00  0.00     0.123 H 
BRANCH  34  41
ATOM     41  C4  GB8 d   1       7.965   6.234  -5.686  0.00  0.00     0.043 C 
ATOM     42  H8  GB8 d   1       7.356   5.394  -5.319  0.00  0.00     0.078 H 
ATOM     43  H9  GB8 d   1       9.023   6.051  -5.448  0.00  0.00     0.078 H 
BRANCH  41  44
ATOM     44  O1  GB8 d   1       7.546   7.423  -5.044  0.00  0.00    -0.398 OA
ATOM     45  H3  GB8 d   1       7.655   7.330  -4.105  0.00  0.00     0.209 HD
ENDBRANCH  41  44
ENDBRANCH  34  41
BRANCH  35  46
ATOM     46  O2  GB8 d   1       9.148   7.077  -9.088  0.00  0.00    -0.390 OA
ATOM     47  H5  GB8 d   1       9.550   7.828  -9.509  0.00  0.00     0.210 HD
ENDBRANCH  35  46
BRANCH  37  48
ATOM     48  O3  GB8 d   1       7.858   9.466  -9.068  0.00  0.00    -0.388 OA
ATOM     49  H7  GB8 d   1       8.683   9.896  -8.877  0.00  0.00     0.210 HD
ENDBRANCH  37  48
ENDBRANCH   1  32
BRANCH   9  50
ATOM     50  N4  GB8 d   1       1.182  10.738  -8.918  0.00  0.00    -0.382 N 
ATOM     51  H10 GB8 d   1       1.142  11.004  -7.924  0.00  0.00     0.157 HD
ATOM     52  H11 GB8 d   1       0.482  11.106  -9.578  0.00  0.00     0.157 HD
ENDBRANCH   9  50
TORSDOF 9
