REMARK  6 active torsions:
REMARK  status: ('A' for Active; 'I' for Inactive)
REMARK    1  A    between atoms: S1_3  and  O2_1 
REMARK    2  A    between atoms: S1_3  and  C1_2 
REMARK    3  A    between atoms: CA3_6  and  S1_3 
REMARK    4  A    between atoms: CC2_17  and  CA6_9 
REMARK    5  A    between atoms: CC5_20  and  CB4_13 
REMARK    6  A    between atoms: CD6_26  and  CC4_19 
ROOT
ATOM      1  NC1 SB2 d   1      79.497  60.088  17.687  0.00  0.00    -0.227 NA
ATOM      2  CC2 SB2 d   1      80.020  60.294  16.442  0.00  0.00     0.139 A 
ATOM      3  NC3 SB2 d   1      79.294  61.182  15.778  0.00  0.00    -0.338 N 
ATOM      4  CC4 SB2 d   1      78.238  61.562  16.608  0.00  0.00     0.074 A 
ATOM      5  CC5 SB2 d   1      78.365  60.879  17.813  0.00  0.00     0.097 A 
ATOM      6  H13 SB2 d   1      79.476  61.528  14.825  0.00  0.00     0.167 HD
ENDROOT
BRANCH   2   7
ATOM      7  CA6 SB2 d   1      81.244  59.672  15.888  0.00  0.00     0.010 A 
ATOM      8  CA1 SB2 d   1      81.367  59.435  14.497  0.00  0.00    -0.068 A 
ATOM      9  CA2 SB2 d   1      82.548  58.864  13.993  0.00  0.00    -0.065 A 
ATOM     10  H5  SB2 d   1      80.556  59.692  13.826  0.00  0.00     0.085 H 
ATOM     11  CA3 SB2 d   1      83.598  58.537  14.864  0.00  0.00     0.015 A 
ATOM     12  H6  SB2 d   1      82.648  58.676  12.930  0.00  0.00     0.085 H 
ATOM     13  CA4 SB2 d   1      83.483  58.778  16.237  0.00  0.00    -0.065 A 
ATOM     14  CA5 SB2 d   1      82.310  59.348  16.756  0.00  0.00    -0.068 A 
ATOM     15  H7  SB2 d   1      84.301  58.524  16.901  0.00  0.00     0.085 H 
ATOM     16  H8  SB2 d   1      82.223  59.539  17.820  0.00  0.00     0.085 H 
BRANCH  11  17
ATOM     17  S1  SB2 d   1      85.104  57.813  14.172  0.00  0.00    -0.062 S 
BRANCH  17  18
ATOM     18  O2  SB2 d   1      84.891  57.001  12.927  0.00  0.00    -0.337 OA
ATOM     19  H1  SB2 d   1      85.707  56.581  12.681  0.00  0.00     0.227 HD
ENDBRANCH  17  18
BRANCH  17  20
ATOM     20  C1  SB2 d   1      85.655  56.703  15.500  0.00  0.00    -0.017 C 
ATOM     21  H2  SB2 d   1      85.816  57.284  16.420  0.00  0.00     0.044 H 
ATOM     22  H3  SB2 d   1      86.596  56.217  15.204  0.00  0.00     0.044 H 
ATOM     23  H4  SB2 d   1      84.887  55.937  15.680  0.00  0.00     0.044 H 
ENDBRANCH  17  20
ENDBRANCH  11  17
ENDBRANCH   2   7
BRANCH   5  24
ATOM     24  CB4 SB2 d   1      77.538  60.890  19.040  0.00  0.00    -0.002 A 
ATOM     25  CB3 SB2 d   1      76.148  61.102  18.992  0.00  0.00    -0.054 A 
ATOM     26  CB2 SB2 d   1      75.404  61.099  20.172  0.00  0.00     0.003 A 
ATOM     27  H10 SB2 d   1      75.656  61.267  18.040  0.00  0.00     0.087 H 
ATOM     28  NB1 SB2 d   1      75.999  60.893  21.364  0.00  0.00    -0.273 NA
ATOM     29  H9  SB2 d   1      74.334  61.264  20.130  0.00  0.00     0.114 H 
ATOM     30  CB6 SB2 d   1      77.328  60.686  21.421  0.00  0.00     0.003 A 
ATOM     31  CB5 SB2 d   1      78.153  60.674  20.286  0.00  0.00    -0.054 A 
ATOM     32  H12 SB2 d   1      77.783  60.520  22.391  0.00  0.00     0.114 H 
ATOM     33  H11 SB2 d   1      79.221  60.505  20.366  0.00  0.00     0.087 H 
ENDBRANCH   5  24
BRANCH   4  34
ATOM     34  CD6 SB2 d   1      77.269  62.561  16.079  0.00  0.00    -0.007 A 
ATOM     35  CD1 SB2 d   1      76.712  63.587  16.868  0.00  0.00    -0.068 A 
ATOM     36  CD2 SB2 d   1      75.802  64.508  16.285  0.00  0.00    -0.045 A 
ATOM     37  H14 SB2 d   1      76.977  63.673  17.916  0.00  0.00     0.085 H 
ATOM     38  CD3 SB2 d   1      75.491  64.380  14.943  0.00  0.00     0.116 A 
ATOM     39  H15 SB2 d   1      75.359  65.298  16.881  0.00  0.00     0.088 H 
ATOM     40  CD4 SB2 d   1      76.032  63.389  14.158  0.00  0.00    -0.045 A 
ATOM     41  FD3 SB2 d   1      74.629  65.236  14.342  0.00  0.00    -0.206 F 
ATOM     42  CD5 SB2 d   1      76.931  62.467  14.714  0.00  0.00    -0.068 A 
ATOM     43  H16 SB2 d   1      75.764  63.320  13.110  0.00  0.00     0.088 H 
ATOM     44  H17 SB2 d   1      77.363  61.687  14.098  0.00  0.00     0.085 H 
ENDBRANCH   4  34
TORSDOF 6
