REMARK  11 active torsions:
REMARK  status: ('A' for Active; 'I' for Inactive)
REMARK    1  A    between atoms: C1_1  and  O2_2 
REMARK    2  A    between atoms: O2_2  and  C3_3 
REMARK    3  A    between atoms: C3_3  and  C4_4 
REMARK    4  A    between atoms: C4_4  and  N5_5 
REMARK       I    between atoms: N5_5  and  C6_6 
REMARK    5  A    between atoms: C6_6  and  C8_8 
REMARK    6  A    between atoms: N12_12  and  C13_13 
REMARK    7  A    between atoms: C13_13  and  C14_14 
REMARK    8  A    between atoms: C14_14  and  O15_15 
REMARK    9  A    between atoms: O15_15  and  C16_16 
REMARK   10  A    between atoms: C17_17  and  C21_21 
REMARK   11  A    between atoms: C24_24  and  C26_26 
ROOT
ATOM      1  C8  IQ7 d   1     -67.595  20.403  -8.804  0.00  0.00     0.034 A 
ATOM      2  C9  IQ7 d   1     -66.757  21.418  -8.388  0.00  0.00    -0.065 A 
ATOM      3  C10 IQ7 d   1     -65.507  21.122  -7.889  0.00  0.00    -0.054 A 
ATOM      4  C11 IQ7 d   1     -65.120  19.802  -7.817  0.00  0.00     0.065 A 
ATOM      5  N12 IQ7 d   1     -63.971  19.198  -7.377  0.00  0.00    -0.326 N 
ATOM      6  C17 IQ7 d   1     -64.180  17.841  -7.554  0.00  0.00     0.161 A 
ATOM      7  N18 IQ7 d   1     -65.359  17.563  -8.063  0.00  0.00    -0.226 NA
ATOM      8  C19 IQ7 d   1     -65.958  18.781  -8.230  0.00  0.00     0.087 A 
ATOM      9  C20 IQ7 d   1     -67.209  19.083  -8.733  0.00  0.00    -0.038 A 
ATOM     10  H9  IQ7 d   1     -67.083  22.450  -8.454  0.00  0.00     0.085 H 
ATOM     11  H10 IQ7 d   1     -64.842  21.912  -7.560  0.00  0.00     0.087 H 
ATOM     12  H18 IQ7 d   1     -67.875  18.295  -9.066  0.00  0.00     0.088 H 
ENDROOT
BRANCH   6  13
ATOM     13  C21 IQ7 d   1     -63.219  16.795  -7.259  0.00  0.00     0.120 A 
ATOM     14  C22 IQ7 d   1     -62.947  15.636  -7.944  0.00  0.00     0.010 A 
ATOM     15  N23 IQ7 d   1     -61.968  14.940  -7.280  0.00  0.00    -0.348 N 
ATOM     16  H19 IQ7 d   1     -63.431  15.320  -8.867  0.00  0.00     0.115 H 
ATOM     17  C24 IQ7 d   1     -61.655  15.666  -6.224  0.00  0.00     0.138 A 
ATOM     18  H20 IQ7 d   1     -61.560  14.034  -7.551  0.00  0.00     0.167 HD
ATOM     19  N25 IQ7 d   1     -62.394  16.815  -6.171  0.00  0.00    -0.225 NA
BRANCH  17  20
ATOM     20  C26 IQ7 d   1     -60.667  15.262  -5.201  0.00  0.00     0.010 A 
ATOM     21  C27 IQ7 d   1     -59.849  14.173  -5.428  0.00  0.00    -0.068 A 
ATOM     22  C28 IQ7 d   1     -58.956  13.762  -4.464  0.00  0.00    -0.061 A 
ATOM     23  H21 IQ7 d   1     -59.910  13.639  -6.370  0.00  0.00     0.085 H 
ATOM     24  C29 IQ7 d   1     -58.880  14.436  -3.261  0.00  0.00     0.034 A 
ATOM     25  H22 IQ7 d   1     -58.313  12.909  -4.649  0.00  0.00     0.086 H 
ATOM     26 CL30 IQ7 d   1     -57.758  13.890  -2.050  0.00  0.00    -0.084 Cl
ATOM     27  C31 IQ7 d   1     -59.687  15.531  -3.027  0.00  0.00    -0.061 A 
ATOM     28  C32 IQ7 d   1     -60.581  15.939  -3.996  0.00  0.00    -0.068 A 
ATOM     29  H23 IQ7 d   1     -59.619  16.067  -2.087  0.00  0.00     0.086 H 
ATOM     30  H24 IQ7 d   1     -61.220  16.795  -3.813  0.00  0.00     0.085 H 
ENDBRANCH  17  20
ENDBRANCH   6  13
BRANCH   5  31
ATOM     31  C13 IQ7 d   1     -62.837  19.919  -6.839  0.00  0.00     0.021 C 
ATOM     32  H11 IQ7 d   1     -62.871  20.959  -7.195  0.00  0.00     0.068 H 
ATOM     33  H12 IQ7 d   1     -61.910  19.442  -7.189  0.00  0.00     0.068 H 
BRANCH  31  34
ATOM     34  C14 IQ7 d   1     -62.854  19.914  -5.326  0.00  0.00     0.034 C 
ATOM     35  H13 IQ7 d   1     -62.858  18.873  -4.970  0.00  0.00     0.076 H 
ATOM     36  H14 IQ7 d   1     -63.762  20.425  -4.975  0.00  0.00     0.076 H 
BRANCH  34  37
ATOM     37  O15 IQ7 d   1     -61.712  20.581  -4.800  0.00  0.00    -0.394 OA
BRANCH  37  38
ATOM     38  C16 IQ7 d   1     -60.666  19.632  -4.587  0.00  0.00     0.004 C 
ATOM     39  H15 IQ7 d   1     -59.782  20.145  -4.180  0.00  0.00     0.066 H 
ATOM     40  H16 IQ7 d   1     -60.405  19.154  -5.542  0.00  0.00     0.066 H 
ATOM     41  H17 IQ7 d   1     -61.005  18.866  -3.874  0.00  0.00     0.066 H 
ENDBRANCH  37  38
ENDBRANCH  34  37
ENDBRANCH  31  34
ENDBRANCH   5  31
BRANCH   1  42
ATOM     42  C6  IQ7 d   1     -68.956  20.746  -9.349  0.00  0.00     0.251 C 
ATOM     43  N5  IQ7 d   1     -69.949  19.957  -8.920  0.00  0.00    -0.355 N 
ATOM     44  H8  IQ7 d   1     -69.727  19.084  -8.486  0.00  0.00     0.162 HD
ATOM     45  O7  IQ7 d   1     -69.117  21.681 -10.120  0.00  0.00    -0.268 OA
BRANCH  43  46
ATOM     46  C4  IQ7 d   1     -71.334  20.340  -9.071  0.00  0.00     0.015 C 
ATOM     47  H6  IQ7 d   1     -71.384  21.286  -9.630  0.00  0.00     0.067 H 
ATOM     48  H7  IQ7 d   1     -71.863  19.555  -9.631  0.00  0.00     0.067 H 
BRANCH  46  49
ATOM     49  C3  IQ7 d   1     -72.009  20.526  -7.727  0.00  0.00     0.034 C 
ATOM     50  H4  IQ7 d   1     -71.254  20.760  -6.962  0.00  0.00     0.076 H 
ATOM     51  H5  IQ7 d   1     -72.736  21.349  -7.788  0.00  0.00     0.076 H 
BRANCH  49  52
ATOM     52  O2  IQ7 d   1     -72.680  19.318  -7.384  0.00  0.00    -0.394 OA
BRANCH  52  53
ATOM     53  C1  IQ7 d   1     -73.410  19.531  -6.182  0.00  0.00     0.004 C 
ATOM     54  H1  IQ7 d   1     -73.935  18.605  -5.903  0.00  0.00     0.066 H 
ATOM     55  H2  IQ7 d   1     -74.143  20.336  -6.336  0.00  0.00     0.066 H 
ATOM     56  H3  IQ7 d   1     -72.716  19.816  -5.377  0.00  0.00     0.066 H 
ENDBRANCH  52  53
ENDBRANCH  49  52
ENDBRANCH  46  49
ENDBRANCH  43  46
ENDBRANCH   1  42
TORSDOF 11
