REMARK  8 active torsions:
REMARK  status: ('A' for Active; 'I' for Inactive)
REMARK       I    between atoms: C9_2  and  N3_3 
REMARK       I    between atoms: C9_2  and  N4_12 
REMARK    1  A    between atoms: N3_3  and  C8_4 
REMARK    2  A    between atoms: C2_6  and  C3_7 
REMARK    3  A    between atoms: C3_7  and  C6_8 
REMARK    4  A    between atoms: C3_7  and  C5_9 
REMARK    5  A    between atoms: C3_7  and  C4_10 
REMARK    6  A    between atoms: N4_12  and  C10_13 
REMARK    7  A    between atoms: C13_16  and  O2_19 
REMARK    8  A    between atoms: O2_19  and  C14_20 
ROOT
ATOM      1  O1  SR8 d   1      56.232 -61.684  12.802  0.00  0.00    -0.247 OA
ATOM      2  C9  SR8 d   1      56.077 -62.815  12.350  0.00  0.00     0.326 C 
ATOM      3  N3  SR8 d   1      56.559 -63.196  11.077  0.00  0.00    -0.291 N 
ATOM      4  N4  SR8 d   1      55.416 -63.768  13.090  0.00  0.00    -0.309 N 
ATOM      5  H1  SR8 d   1      56.397 -64.137  10.780  0.00  0.00     0.172 HD
ATOM      6  H12 SR8 d   1      55.321 -64.675  12.679  0.00  0.00     0.170 HD
ENDROOT
BRANCH   3   7
ATOM      7  C8  SR8 d   1      57.252 -62.342  10.198  0.00  0.00     0.161 A 
ATOM      8  C7  SR8 d   1      57.585 -60.984  10.332  0.00  0.00    -0.005 A 
ATOM      9  C2  SR8 d   1      58.243 -60.642   9.213  0.00  0.00     0.090 A 
ATOM     10  H2  SR8 d   1      57.355 -60.337  11.177  0.00  0.00     0.093 H 
ATOM     11  O3  SR8 d   1      58.325 -61.725   8.409  0.00  0.00    -0.215 OA
ATOM     12  N1  SR8 d   1      57.675 -62.820   9.064  0.00  0.00    -0.110 NA
BRANCH   9  13
ATOM     13  C3  SR8 d   1      58.885 -59.385   8.672  0.00  0.00     0.000 C 
BRANCH  13  14
ATOM     14  C6  SR8 d   1      58.723 -58.228   9.647  0.00  0.00    -0.064 C 
ATOM     15  H3  SR8 d   1      59.198 -57.328   9.230  0.00  0.00     0.028 H 
ATOM     16  H4  SR8 d   1      59.201 -58.485  10.604  0.00  0.00     0.028 H 
ATOM     17  H5  SR8 d   1      57.653 -58.035   9.812  0.00  0.00     0.028 H 
ENDBRANCH  13  14
BRANCH  13  18
ATOM     18  C5  SR8 d   1      60.373 -59.643   8.428  0.00  0.00    -0.064 C 
ATOM     19  H6  SR8 d   1      60.489 -60.479   7.723  0.00  0.00     0.028 H 
ATOM     20  H7  SR8 d   1      60.862 -59.895   9.380  0.00  0.00     0.028 H 
ATOM     21  H8  SR8 d   1      60.837 -58.740   8.005  0.00  0.00     0.028 H 
ENDBRANCH  13  18
BRANCH  13  22
ATOM     22  C4  SR8 d   1      58.197 -58.981   7.377  0.00  0.00    -0.064 C 
ATOM     23  H9  SR8 d   1      57.129 -58.800   7.570  0.00  0.00     0.028 H 
ATOM     24  H10 SR8 d   1      58.304 -59.788   6.638  0.00  0.00     0.028 H 
ATOM     25  H11 SR8 d   1      58.660 -58.063   6.987  0.00  0.00     0.028 H 
ENDBRANCH  13  22
ENDBRANCH   9  13
ENDBRANCH   3   7
BRANCH   4  26
ATOM     26  C10 SR8 d   1      54.860 -63.587  14.373  0.00  0.00     0.036 A 
ATOM     27  C20 SR8 d   1      53.989 -62.505  14.579  0.00  0.00    -0.054 A 
ATOM     28  C19 SR8 d   1      53.431 -62.311  15.842  0.00  0.00    -0.048 A 
ATOM     29  H13 SR8 d   1      53.753 -61.828  13.766  0.00  0.00     0.087 H 
ATOM     30  C13 SR8 d   1      53.733 -63.190  16.892  0.00  0.00     0.076 A 
ATOM     31  H14 SR8 d   1      52.761 -61.477  16.013  0.00  0.00     0.087 H 
ATOM     32  C12 SR8 d   1      54.598 -64.274  16.693  0.00  0.00    -0.048 A 
ATOM     33  C11 SR8 d   1      55.163 -64.468  15.421  0.00  0.00    -0.054 A 
ATOM     34  H15 SR8 d   1      54.828 -64.952  17.507  0.00  0.00     0.087 H 
ATOM     35  H16 SR8 d   1      55.835 -65.301  15.249  0.00  0.00     0.087 H 
BRANCH  30  36
ATOM     36  O2  SR8 d   1      53.165 -62.973  18.122  0.00  0.00    -0.311 OA
BRANCH  36  37
ATOM     37  C14 SR8 d   1      53.862 -62.352  19.145  0.00  0.00     0.078 A 
ATOM     38  C18 SR8 d   1      55.260 -62.142  19.098  0.00  0.00    -0.033 A 
ATOM     39  C17 SR8 d   1      55.870 -61.509  20.177  0.00  0.00     0.004 A 
ATOM     40  H17 SR8 d   1      55.842 -62.466  18.243  0.00  0.00     0.090 H 
ATOM     41  N5  SR8 d   1      55.169 -61.098  21.254  0.00  0.00    -0.273 NA
ATOM     42  H18 SR8 d   1      56.941 -61.341  20.151  0.00  0.00     0.114 H 
ATOM     43  C16 SR8 d   1      53.833 -61.299  21.300  0.00  0.00     0.004 A 
ATOM     44  C15 SR8 d   1      53.132 -61.923  20.268  0.00  0.00    -0.033 A 
ATOM     45  H19 SR8 d   1      53.285 -60.962  22.173  0.00  0.00     0.114 H 
ATOM     46  H20 SR8 d   1      52.060 -62.072  20.329  0.00  0.00     0.090 H 
ENDBRANCH  36  37
ENDBRANCH  30  36
ENDBRANCH   4  26
TORSDOF 8
