REMARK  10 active torsions:
REMARK  status: ('A' for Active; 'I' for Inactive)
REMARK    1  A    between atoms: C1_1  and  S2_2 
REMARK    2  A    between atoms: S2_2  and  C5_5 
REMARK    3  A    between atoms: C9_9  and  N10_10 
REMARK    4  A    between atoms: N10_10  and  C11_11 
REMARK    5  A    between atoms: C15_15  and  C17_17 
REMARK    6  A    between atoms: C19_19  and  N40_40 
REMARK    7  A    between atoms: C21_21  and  C22_22 
REMARK    8  A    between atoms: C26_26  and  N27_27 
REMARK    9  A    between atoms: N27_27  and  S28_28 
REMARK   10  A    between atoms: S28_28  and  C31_31 
ROOT
ATOM      1  C17 XYW d   1      39.707 -37.548  53.159  0.00  0.00     0.067 A 
ATOM      2  S18 XYW d   1      39.753 -39.263  53.010  0.00  0.00    -0.048 SA
ATOM      3  C19 XYW d   1      39.258 -39.431  54.644  0.00  0.00     0.170 A 
ATOM      4  N20 XYW d   1      39.059 -38.287  55.257  0.00  0.00    -0.222 NA
ATOM      5  C21 XYW d   1      39.311 -37.209  54.439  0.00  0.00     0.089 A 
ENDROOT
BRANCH   1   6
ATOM      6  C15 XYW d   1      40.132 -36.837  51.952  0.00  0.00     0.097 A 
ATOM      7  C14 XYW d   1      40.416 -35.483  51.923  0.00  0.00    -0.036 A 
ATOM      8  C13 XYW d   1      40.830 -34.980  50.713  0.00  0.00     0.023 A 
ATOM      9  H9  XYW d   1      40.318 -34.856  52.802  0.00  0.00     0.089 H 
ATOM     10  N12 XYW d   1      40.972 -35.743  49.619  0.00  0.00    -0.075 NA
ATOM     11  H8  XYW d   1      41.051 -33.921  50.639  0.00  0.00     0.115 H 
ATOM     12  C11 XYW d   1      40.678 -37.053  49.747  0.00  0.00     0.727 A 
ATOM     13  N16 XYW d   1      40.256 -37.642  50.882  0.00  0.00    -0.061 NA
BRANCH  12  14
ATOM     14  N10 XYW d   1      40.840 -37.772  48.598  0.00  0.00    -0.188 N 
ATOM     15  H7  XYW d   1      41.142 -37.225  47.779  0.00  0.00     0.184 HD
BRANCH  14  16
ATOM     16  C9  XYW d   1      40.657 -39.144  48.364  0.00  0.00     0.050 A 
ATOM     17  C8  XYW d   1      40.885 -39.550  47.065  0.00  0.00    -0.057 A 
ATOM     18  C7  XYW d   1      40.748 -40.863  46.682  0.00  0.00    -0.079 A 
ATOM     19  H6  XYW d   1      41.180 -38.813  46.327  0.00  0.00     0.086 H 
ATOM     20  C6  XYW d   1      40.372 -41.792  47.626  0.00  0.00    -0.062 A 
ATOM     21  H5  XYW d   1      40.932 -41.161  45.656  0.00  0.00     0.083 H 
ATOM     22  C5  XYW d   1      40.140 -41.402  48.928  0.00  0.00     0.061 A 
ATOM     23  H4  XYW d   1      40.258 -42.833  47.345  0.00  0.00     0.085 H 
ATOM     24  C46 XYW d   1      40.280 -40.077  49.309  0.00  0.00    -0.036 A 
ATOM     25  H26 XYW d   1      40.096 -39.778  50.334  0.00  0.00     0.089 H 
BRANCH  22  26
ATOM     26  S2  XYW d   1      39.656 -42.634  50.112  0.00  0.00     0.172 S 
ATOM     27  O3  XYW d   1      40.855 -43.260  50.639  0.00  0.00    -0.223 OA
ATOM     28  O4  XYW d   1      38.733 -42.031  51.060  0.00  0.00    -0.223 OA
BRANCH  26  29
ATOM     29  C1  XYW d   1      38.801 -43.867  49.164  0.00  0.00     0.020 C 
ATOM     30  H1  XYW d   1      39.497 -44.325  48.446  0.00  0.00     0.049 H 
ATOM     31  H2  XYW d   1      37.968 -43.398  48.620  0.00  0.00     0.049 H 
ATOM     32  H3  XYW d   1      38.408 -44.642  49.839  0.00  0.00     0.049 H 
ENDBRANCH  26  29
ENDBRANCH  22  26
ENDBRANCH  14  16
ENDBRANCH  12  14
ENDBRANCH   1   6
BRANCH   5  33
ATOM     33  C22 XYW d   1      39.119 -35.896  55.095  0.00  0.00    -0.004 A 
ATOM     34  C23 XYW d   1      38.453 -34.838  54.517  0.00  0.00    -0.071 A 
ATOM     35  C24 XYW d   1      38.323 -33.659  55.226  0.00  0.00    -0.080 A 
ATOM     36  H10 XYW d   1      38.037 -34.929  53.520  0.00  0.00     0.084 H 
ATOM     37  C25 XYW d   1      38.853 -33.525  56.505  0.00  0.00    -0.057 A 
ATOM     38  H11 XYW d   1      37.798 -32.823  54.777  0.00  0.00     0.083 H 
ATOM     39  C26 XYW d   1      39.523 -34.588  57.085  0.00  0.00     0.043 A 
ATOM     40  H12 XYW d   1      38.742 -32.592  57.045  0.00  0.00     0.086 H 
ATOM     41  C39 XYW d   1      39.642 -35.760  56.367  0.00  0.00    -0.044 A 
ATOM     42  H17 XYW d   1      40.161 -36.600  56.814  0.00  0.00     0.088 H 
BRANCH  39  43
ATOM     43  N27 XYW d   1      40.101 -34.529  58.406  0.00  0.00    -0.280 N 
ATOM     44  H13 XYW d   1      40.709 -35.290  58.631  0.00  0.00     0.179 HD
BRANCH  43  45
ATOM     45  S28 XYW d   1      39.922 -33.415  59.599  0.00  0.00     0.269 S 
ATOM     46  O29 XYW d   1      38.499 -33.223  59.809  0.00  0.00    -0.200 OA
ATOM     47  O30 XYW d   1      40.700 -33.909  60.716  0.00  0.00    -0.200 OA
BRANCH  45  48
ATOM     48  C31 XYW d   1      40.706 -31.896  59.070  0.00  0.00     0.156 A 
ATOM     49  C32 XYW d   1      39.961 -30.733  58.893  0.00  0.00     0.142 A 
ATOM     50  F33 XYW d   1      38.641 -30.762  59.123  0.00  0.00    -0.204 F 
ATOM     51  C34 XYW d   1      40.542 -29.546  58.486  0.00  0.00    -0.044 A 
ATOM     52  C35 XYW d   1      41.901 -29.499  58.245  0.00  0.00    -0.077 A 
ATOM     53  H14 XYW d   1      39.934 -28.658  58.357  0.00  0.00     0.088 H 
ATOM     54  C36 XYW d   1      42.670 -30.635  58.410  0.00  0.00    -0.044 A 
ATOM     55  H15 XYW d   1      42.364 -28.572  57.927  0.00  0.00     0.083 H 
ATOM     56  C37 XYW d   1      42.070 -31.805  58.816  0.00  0.00     0.142 A 
ATOM     57  H16 XYW d   1      43.737 -30.605  58.221  0.00  0.00     0.088 H 
ATOM     58  F38 XYW d   1      42.817 -32.903  58.976  0.00  0.00    -0.204 F 
ENDBRANCH  45  48
ENDBRANCH  43  45
ENDBRANCH  39  43
ENDBRANCH   5  33
BRANCH   3  59
ATOM     59  N40 XYW d   1      39.092 -40.651  55.225  0.00  0.00    -0.356 N 
ATOM     60  C41 XYW d   1      39.257 -40.699  56.697  0.00  0.00     0.017 C 
ATOM     61  C42 XYW d   1      39.189 -42.086  57.307  0.00  0.00     0.034 C 
ATOM     62  H18 XYW d   1      38.462 -40.089  57.149  0.00  0.00     0.067 H 
ATOM     63  H19 XYW d   1      40.237 -40.266  56.944  0.00  0.00     0.067 H 
ATOM     64  O43 XYW d   1      39.816 -43.100  56.521  0.00  0.00    -0.388 OA
ATOM     65  H20 XYW d   1      38.130 -42.355  57.437  0.00  0.00     0.076 H 
ATOM     66  H21 XYW d   1      39.683 -42.056  58.289  0.00  0.00     0.076 H 
ATOM     67  C44 XYW d   1      39.323 -43.086  55.193  0.00  0.00     0.034 C 
ATOM     68  C45 XYW d   1      39.720 -41.785  54.558  0.00  0.00     0.017 C 
ATOM     69  H22 XYW d   1      38.227 -43.176  55.202  0.00  0.00     0.076 H 
ATOM     70  H23 XYW d   1      39.755 -43.924  54.627  0.00  0.00     0.076 H 
ATOM     71  H24 XYW d   1      40.813 -41.676  54.620  0.00  0.00     0.067 H 
ATOM     72  H25 XYW d   1      39.412 -41.794  53.502  0.00  0.00     0.067 H 
ENDBRANCH   3  59
TORSDOF 10
