REMARK  8 active torsions:
REMARK  status: ('A' for Active; 'I' for Inactive)
REMARK    1  A    between atoms: CAB_10  and  NAF_11 
REMARK    2  A    between atoms: NAF_11  and  CAK_12 
REMARK       I    between atoms: NAF_11  and  CAJ_14 
REMARK    3  A    between atoms: CAK_12  and  CAQ_13 
REMARK    4  A    between atoms: CAJ_14  and  CAO_16 
REMARK    5  A    between atoms: CAO_16  and  OAU_17 
REMARK       I    between atoms: NAI_19  and  CAN_20 
REMARK       I    between atoms: CAN_20  and  NAT_21 
REMARK    6  A    between atoms: NAS_24  and  CAW_25 
REMARK    7  A    between atoms: CBB_30  and  OBE_31 
REMARK    8  A    between atoms: OBE_31  and  CBF_32 
ROOT
ATOM      1  CAG I9H d   1      13.667 -16.751  -6.319  0.00  0.00    -0.069 A 
ATOM      2  CAL I9H d   1      14.030 -18.099  -6.330  0.00  0.00    -0.061 A 
ATOM      3  CAR I9H d   1      13.687 -18.872  -5.182  0.00  0.00     0.034 A 
ATOM      4 CL1  I9H d   1      14.190 -20.492  -5.215  0.00  0.00    -0.084 Cl
ATOM      5  CAM I9H d   1      13.078 -18.276  -4.090  0.00  0.00    -0.061 A 
ATOM      6  CAH I9H d   1      12.727 -16.937  -4.147  0.00  0.00    -0.069 A 
ATOM      7  CAC I9H d   1      13.039 -16.156  -5.262  0.00  0.00    -0.007 A 
ATOM      8  CAA I9H d   1      12.710 -14.821  -5.381  0.00  0.00     0.090 A 
ATOM      9  NAD I9H d   1      13.098 -13.971  -6.348  0.00  0.00    -0.159 NA
ATOM     10  CAB I9H d   1      11.766 -14.075  -4.469  0.00  0.00     0.077 A 
ATOM     11  CAE I9H d   1      11.724 -12.708  -5.045  0.00  0.00     0.059 A 
ATOM     12  NAI I9H d   1      12.550 -12.846  -6.246  0.00  0.00    -0.098 N 
ATOM     13  CAN I9H d   1      12.944 -11.807  -7.041  0.00  0.00     0.710 C 
ATOM     14  NAT I9H d   1      12.397 -10.575  -6.892  0.00  0.00    -0.124 N 
ATOM     15  CAX I9H d   1      12.809  -9.476  -7.601  0.00  0.00     0.196 C 
ATOM     16  NBA I9H d   1      13.157  -8.536  -8.199  0.00  0.00    -0.171 NA
ATOM     17  NAS I9H d   1      13.989 -12.173  -7.824  0.00  0.00    -0.190 N 
ATOM     18  H1  I9H d   1      13.894 -16.148  -7.191  0.00  0.00     0.085 H 
ATOM     19  H2  I9H d   1      14.550 -18.538  -7.174  0.00  0.00     0.086 H 
ATOM     20  H3  I9H d   1      12.877 -18.854  -3.195  0.00  0.00     0.086 H 
ATOM     21  H4  I9H d   1      12.201 -16.488  -3.312  0.00  0.00     0.085 H 
ATOM     22  H5  I9H d   1      10.776 -14.554  -4.497  0.00  0.00     0.085 H 
ATOM     23  H14 I9H d   1      12.152 -11.970  -4.350  0.00  0.00     0.072 H 
ATOM     24  H15 I9H d   1      10.695 -12.416  -5.301  0.00  0.00     0.072 H 
ATOM     25  H16 I9H d   1      11.633 -10.459  -6.211  0.00  0.00     0.197 HD
ATOM     26  H17 I9H d   1      14.493 -13.030  -7.555  0.00  0.00     0.184 HD
ENDROOT
BRANCH  17  27
ATOM     27  CAW I9H d   1      14.434 -11.525  -8.922  0.00  0.00     0.051 A 
ATOM     28  CAY I9H d   1      15.701 -11.001  -8.967  0.00  0.00    -0.024 A 
ATOM     29  CBB I9H d   1      16.186 -10.371 -10.133  0.00  0.00     0.077 A 
ATOM     30  H18 I9H d   1      16.339 -11.072  -8.094  0.00  0.00     0.091 H 
ATOM     31  CBD I9H d   1      15.383 -10.265 -11.279  0.00  0.00    -0.050 A 
ATOM     32  CBC I9H d   1      14.059 -10.747 -11.244  0.00  0.00    -0.078 A 
ATOM     33  H21 I9H d   1      15.778  -9.816 -12.183  0.00  0.00     0.087 H 
ATOM     34  CAZ I9H d   1      13.610 -11.413 -10.069  0.00  0.00    -0.057 A 
ATOM     35  H20 I9H d   1      13.398 -10.614 -12.093  0.00  0.00     0.083 H 
ATOM     36  H19 I9H d   1      12.616 -11.844 -10.051  0.00  0.00     0.086 H 
BRANCH  29  37
ATOM     37  OBE I9H d   1      17.487  -9.892 -10.103  0.00  0.00    -0.290 OA
BRANCH  37  38
ATOM     38  CBF I9H d   1      17.738  -8.716 -10.990  0.00  0.00     0.310 C 
ATOM     39  FBH I9H d   1      18.810  -8.039 -10.468  0.00  0.00    -0.184 F 
ATOM     40  FBG I9H d   1      18.083  -9.321 -12.085  0.00  0.00    -0.184 F 
ATOM     41  H22 I9H d   1      16.863  -8.061 -11.116  0.00  0.00     0.195 H 
ENDBRANCH  37  38
ENDBRANCH  29  37
ENDBRANCH  17  27
BRANCH  10  42
ATOM     42  NAF I9H d   1      12.202 -13.923  -3.004  0.00  0.00    -0.339 N 
ATOM     43  CAJ I9H d   1      13.410 -13.404  -2.701  0.00  0.00     0.243 C 
ATOM     44  OAP I9H d   1      14.262 -13.251  -3.582  0.00  0.00    -0.271 OA
BRANCH  42  45
ATOM     45  CAK I9H d   1      11.125 -14.179  -1.961  0.00  0.00    -0.005 C 
ATOM     46  H6  I9H d   1      11.621 -14.410  -1.007  0.00  0.00     0.063 H 
ATOM     47  H7  I9H d   1      10.534 -15.047  -2.287  0.00  0.00     0.063 H 
BRANCH  45  48
ATOM     48  CAQ I9H d   1      10.166 -13.012  -1.727  0.00  0.00    -0.061 C 
ATOM     49  H8  I9H d   1       9.428 -13.292  -0.961  0.00  0.00     0.029 H 
ATOM     50  H9  I9H d   1       9.646 -12.771  -2.666  0.00  0.00     0.029 H 
ATOM     51  H10 I9H d   1      10.734 -12.134  -1.386  0.00  0.00     0.029 H 
ENDBRANCH  45  48
ENDBRANCH  42  45
BRANCH  43  52
ATOM     52  CAO I9H d   1      13.733 -13.059  -1.200  0.00  0.00     0.090 C 
ATOM     53  H11 I9H d   1      13.322 -13.859  -0.567  0.00  0.00     0.088 H 
ATOM     54  H12 I9H d   1      13.242 -12.106  -0.952  0.00  0.00     0.088 H 
BRANCH  52  55
ATOM     55  OAU I9H d   1      15.157 -12.929  -0.905  0.00  0.00    -0.392 OA
ATOM     56  H13 I9H d   1      15.596 -13.748  -1.103  0.00  0.00     0.210 HD
ENDBRANCH  52  55
ENDBRANCH  43  52
ENDBRANCH  10  42
TORSDOF 8
