REMARK  9 active torsions:
REMARK  status: ('A' for Active; 'I' for Inactive)
REMARK    1  A    between atoms: C3_8  and  C2_9 
REMARK    2  A    between atoms: C1_11  and  N29_12 
REMARK    3  A    between atoms: N29_12  and  C34_13 
REMARK       I    between atoms: N29_12  and  C30_15 
REMARK    4  A    between atoms: C34_13  and  C35_14 
REMARK    5  A    between atoms: C30_15  and  C31_17 
REMARK    6  A    between atoms: C31_17  and  O32_18 
REMARK       I    between atoms: N12_20  and  C14_21 
REMARK       I    between atoms: C14_21  and  N26_22 
REMARK    7  A    between atoms: N15_25  and  C16_26 
REMARK    8  A    between atoms: C20_31  and  O22_32 
REMARK    9  A    between atoms: O22_32  and  C23_33 
ROOT
ATOM      1  C2  H41 d   1     -14.572   5.084 -12.681  0.00  0.00     0.090 A 
ATOM      2  N11 H41 d   1     -13.836   6.110 -13.074  0.00  0.00    -0.159 NA
ATOM      3  C1  H41 d   1     -13.795   4.216 -11.713  0.00  0.00     0.077 A 
ATOM      4  C13 H41 d   1     -12.451   4.909 -11.647  0.00  0.00     0.059 A 
ATOM      5  N12 H41 d   1     -12.602   6.073 -12.550  0.00  0.00    -0.098 N 
ATOM      6  C14 H41 d   1     -11.654   6.920 -13.001  0.00  0.00     0.710 C 
ATOM      7  N26 H41 d   1     -10.420   6.892 -12.531  0.00  0.00    -0.124 N 
ATOM      8  C27 H41 d   1      -9.305   7.543 -12.946  0.00  0.00     0.196 C 
ATOM      9  N28 H41 d   1      -8.343   8.095 -13.294  0.00  0.00    -0.171 NA
ATOM     10  N15 H41 d   1     -12.108   7.763 -13.962  0.00  0.00    -0.190 N 
ATOM     11  H4  H41 d   1     -14.287   4.200 -10.729  0.00  0.00     0.085 H 
ATOM     12  H13 H41 d   1     -11.650   4.242 -11.999  0.00  0.00     0.072 H 
ATOM     13  H14 H41 d   1     -12.230   5.237 -10.620  0.00  0.00     0.072 H 
ATOM     14  H15 H41 d   1     -10.282   6.276 -11.717  0.00  0.00     0.197 HD
ATOM     15  H16 H41 d   1     -13.039   7.584 -14.364  0.00  0.00     0.184 HD
ENDROOT
BRANCH  10  16
ATOM     16  C16 H41 d   1     -11.430   8.792 -14.408  0.00  0.00     0.051 A 
ATOM     17  C21 H41 d   1     -10.842   8.885 -15.667  0.00  0.00    -0.024 A 
ATOM     18  C20 H41 d   1     -10.197  10.057 -16.073  0.00  0.00     0.077 A 
ATOM     19  H17 H41 d   1     -10.885   8.037 -16.341  0.00  0.00     0.091 H 
ATOM     20  C19 H41 d   1     -10.106  11.177 -15.214  0.00  0.00    -0.050 A 
ATOM     21  C18 H41 d   1     -10.692  11.079 -13.931  0.00  0.00    -0.078 A 
ATOM     22  H20 H41 d   1      -9.602  12.083 -15.530  0.00  0.00     0.087 H 
ATOM     23  C17 H41 d   1     -11.376   9.915 -13.527  0.00  0.00    -0.057 A 
ATOM     24  H19 H41 d   1     -10.614  11.915 -13.245  0.00  0.00     0.083 H 
ATOM     25  H18 H41 d   1     -11.857   9.872 -12.556  0.00  0.00     0.086 H 
BRANCH  18  26
ATOM     26  O22 H41 d   1      -9.677  10.054 -17.307  0.00  0.00    -0.290 OA
BRANCH  26  27
ATOM     27  C23 H41 d   1      -8.600  10.979 -17.649  0.00  0.00     0.310 C 
ATOM     28  F25 H41 d   1      -9.310  12.021 -18.152  0.00  0.00    -0.184 F 
ATOM     29  F24 H41 d   1      -7.939  10.474 -18.704  0.00  0.00    -0.184 F 
ATOM     30  H21 H41 d   1      -7.942  11.234 -16.805  0.00  0.00     0.195 H 
ENDBRANCH  26  27
ENDBRANCH  18  26
ENDBRANCH  10  16
BRANCH   1  31
ATOM     31  C3  H41 d   1     -15.996   5.044 -13.083  0.00  0.00    -0.006 C 
ATOM     32  C4  H41 d   1     -16.597   6.154 -13.670  0.00  0.00    -0.048 C 
ATOM     33  C5  H41 d   1     -17.901   6.084 -14.063  0.00  0.00     0.056 C 
ATOM     34  H1  H41 d   1     -16.032   7.068 -13.814  0.00  0.00     0.087 H 
ATOM     35 CL10 H41 d   1     -18.710   7.425 -14.818  0.00  0.00    -0.083 Cl
ATOM     36  C6  H41 d   1     -18.710   4.955 -13.740  0.00  0.00     0.055 C 
ATOM     37 CL7  H41 d   1     -20.272   4.846 -14.242  0.00  0.00    -0.083 Cl
ATOM     38  C8  H41 d   1     -18.103   3.878 -13.154  0.00  0.00    -0.059 C 
ATOM     39  C9  H41 d   1     -16.793   3.945 -12.820  0.00  0.00    -0.069 C 
ATOM     40  H2  H41 d   1     -18.669   2.974 -12.958  0.00  0.00     0.086 H 
ATOM     41  H3  H41 d   1     -16.346   3.093 -12.321  0.00  0.00     0.085 H 
ENDBRANCH   1  31
BRANCH   3  42
ATOM     42  N29 H41 d   1     -13.604   2.807 -12.193  0.00  0.00    -0.339 N 
ATOM     43  C30 H41 d   1     -13.170   2.588 -13.457  0.00  0.00     0.243 C 
ATOM     44  O33 H41 d   1     -13.043   3.510 -14.317  0.00  0.00    -0.271 OA
BRANCH  42  45
ATOM     45  C34 H41 d   1     -13.790   1.719 -11.141  0.00  0.00    -0.005 C 
ATOM     46  H5  H41 d   1     -13.845   0.741 -11.642  0.00  0.00     0.063 H 
ATOM     47  H6  H41 d   1     -14.727   1.904 -10.596  0.00  0.00     0.063 H 
BRANCH  45  48
ATOM     48  C35 H41 d   1     -12.630   1.704 -10.146  0.00  0.00    -0.061 C 
ATOM     49  H7  H41 d   1     -12.795   0.910  -9.403  0.00  0.00     0.029 H 
ATOM     50  H8  H41 d   1     -12.572   2.677  -9.636  0.00  0.00     0.029 H 
ATOM     51  H9  H41 d   1     -11.689   1.514 -10.683  0.00  0.00     0.029 H 
ENDBRANCH  45  48
ENDBRANCH  42  45
BRANCH  43  52
ATOM     52  C31 H41 d   1     -12.935   1.066 -13.818  0.00  0.00     0.090 C 
ATOM     53  H10 H41 d   1     -13.896   0.537 -13.729  0.00  0.00     0.088 H 
ATOM     54  H11 H41 d   1     -12.217   0.647 -13.097  0.00  0.00     0.088 H 
BRANCH  52  55
ATOM     55  O32 H41 d   1     -12.419   0.848 -15.152  0.00  0.00    -0.392 OA
ATOM     56  H12 H41 d   1     -13.033   1.195 -15.789  0.00  0.00     0.210 HD
ENDBRANCH  52  55
ENDBRANCH  43  52
ENDBRANCH   3  42
TORSDOF 9
