REMARK  5 active torsions:
REMARK  status: ('A' for Active; 'I' for Inactive)
REMARK    1  A    between atoms: C2_3  and  O1_2 
REMARK    2  A    between atoms: C4_7  and  O2_4 
REMARK    3  A    between atoms: C12_18  and  O5_10 
REMARK    4  A    between atoms: C13_19  and  O6_12 
REMARK    5  A    between atoms: C10_16  and  C9_15 
ROOT
ATOM      1  C1  LU2 d   1     -25.543   5.649  -9.054  0.00  0.00    -0.017 A 
ATOM      2  C2  LU2 d   1     -26.720   5.772  -9.769  0.00  0.00     0.071 A 
ATOM      3  C3  LU2 d   1     -26.948   4.993 -10.900  0.00  0.00    -0.018 A 
ATOM      4  O3  LU2 d   1     -24.031   2.284 -11.956  0.00  0.00    -0.287 OA
ATOM      5  C4  LU2 d   1     -25.972   4.087 -11.298  0.00  0.00     0.085 A 
ATOM      6  O4  LU2 d   1     -23.434   4.628  -8.758  0.00  0.00    -0.309 OA
ATOM      7  C5  LU2 d   1     -24.779   3.947 -10.590  0.00  0.00     0.081 A 
ATOM      8  C6  LU2 d   1     -24.585   4.738  -9.463  0.00  0.00     0.095 A 
ATOM      9  C7  LU2 d   1     -23.826   3.021 -10.987  0.00  0.00     0.190 A 
ATOM     10  C8  LU2 d   1     -22.678   2.867 -10.215  0.00  0.00    -0.000 A 
ATOM     11  C9  LU2 d   1     -22.520   3.694  -9.106  0.00  0.00     0.090 A 
ATOM     12  H1  LU2 d   1     -25.372   6.263  -8.177  0.00  0.00     0.092 H 
ATOM     13  H4  LU2 d   1     -27.871   5.091 -11.460  0.00  0.00     0.092 H 
ATOM     14  H7  LU2 d   1     -21.926   2.122 -10.471  0.00  0.00     0.094 H 
ENDROOT
BRANCH  11  15
ATOM     15  C10 LU2 d   1     -21.407   3.691  -8.263  0.00  0.00     0.001 A 
ATOM     16  C11 LU2 d   1     -20.569   2.592  -8.168  0.00  0.00    -0.036 A 
ATOM     17  C12 LU2 d   1     -19.483   2.643  -7.307  0.00  0.00     0.099 A 
ATOM     18  H8  LU2 d   1     -20.760   1.704  -8.759  0.00  0.00     0.089 H 
ATOM     19  C13 LU2 d   1     -19.240   3.792  -6.545  0.00  0.00     0.098 A 
ATOM     20  C14 LU2 d   1     -20.078   4.895  -6.633  0.00  0.00    -0.047 A 
ATOM     21  C15 LU2 d   1     -21.166   4.830  -7.495  0.00  0.00    -0.068 A 
ATOM     22  H9  LU2 d   1     -19.888   5.785  -6.044  0.00  0.00     0.087 H 
ATOM     23  H10 LU2 d   1     -21.838   5.677  -7.572  0.00  0.00     0.085 H 
BRANCH  17  24
ATOM     24  O5  LU2 d   1     -18.631   1.578  -7.189  0.00  0.00    -0.358 OA
ATOM     25  H5  LU2 d   1     -17.950   1.787  -6.560  0.00  0.00     0.217 HD
ENDBRANCH  17  24
BRANCH  19  26
ATOM     26  O6  LU2 d   1     -18.150   3.805  -5.740  0.00  0.00    -0.358 OA
ATOM     27  H6  LU2 d   1     -18.216   3.099  -5.108  0.00  0.00     0.217 HD
ENDBRANCH  19  26
ENDBRANCH  11  15
BRANCH   2  28
ATOM     28  O1  LU2 d   1     -27.633   6.668  -9.340  0.00  0.00    -0.361 OA
ATOM     29  H2  LU2 d   1     -27.903   6.445  -8.457  0.00  0.00     0.217 HD
ENDBRANCH   2  28
BRANCH   5  30
ATOM     30  O2  LU2 d   1     -26.130   3.301 -12.398  0.00  0.00    -0.360 OA
ATOM     31  H3  LU2 d   1     -25.362   2.752 -12.507  0.00  0.00     0.217 HD
ENDBRANCH   5  30
TORSDOF 5
