REMARK  4 active torsions:
REMARK  status: ('A' for Active; 'I' for Inactive)
REMARK    1  A    between atoms: CAM_3  and  OAB_4 
REMARK    2  A    between atoms: CAP_7  and  CAQ_8 
REMARK    3  A    between atoms: CAN_16  and  OAC_17 
REMARK    4  A    between atoms: CAO_19  and  OAD_20 
ROOT
ATOM      1  CAQ AGI d   1     -23.628   2.443 -11.667  0.00  0.00     0.090 A 
ATOM      2  OAL AGI d   1     -22.511   2.097 -10.970  0.00  0.00    -0.309 OA
ATOM      3  CAJ AGI d   1     -24.036   1.785 -12.820  0.00  0.00    -0.000 A 
ATOM      4  CAR AGI d   1     -23.249   0.740 -13.297  0.00  0.00     0.190 A 
ATOM      5  OAA AGI d   1     -23.576   0.132 -14.321  0.00  0.00    -0.287 OA
ATOM      6  CAT AGI d   1     -22.132   0.359 -12.559  0.00  0.00     0.081 A 
ATOM      7  CAS AGI d   1     -21.771   1.030 -11.394  0.00  0.00     0.095 A 
ATOM      8  CAK AGI d   1     -20.668   0.616 -10.656  0.00  0.00    -0.017 A 
ATOM      9  CAN AGI d   1     -19.916  -0.478 -11.066  0.00  0.00     0.071 A 
ATOM     10  CAI AGI d   1     -20.268  -1.165 -12.220  0.00  0.00    -0.018 A 
ATOM     11  CAO AGI d   1     -21.376  -0.743 -12.946  0.00  0.00     0.085 A 
ATOM     12  H6  AGI d   1     -24.948   2.079 -13.338  0.00  0.00     0.094 H 
ATOM     13  H7  AGI d   1     -20.393   1.151  -9.754  0.00  0.00     0.092 H 
ATOM     14  H9  AGI d   1     -19.687  -2.018 -12.550  0.00  0.00     0.092 H 
ENDROOT
BRANCH   1  15
ATOM     15  CAP AGI d   1     -24.368   3.463 -11.077  0.00  0.00    -0.002 A 
ATOM     16  CAG AGI d   1     -25.498   3.959 -11.707  0.00  0.00    -0.068 A 
ATOM     17  CAE AGI d   1     -26.243   4.956 -11.101  0.00  0.00    -0.050 A 
ATOM     18  H1  AGI d   1     -25.798   3.567 -12.672  0.00  0.00     0.085 H 
ATOM     19  CAM AGI d   1     -25.884   5.445  -9.857  0.00  0.00     0.065 A 
ATOM     20  H2  AGI d   1     -27.115   5.357 -11.605  0.00  0.00     0.087 H 
ATOM     21  CAF AGI d   1     -24.757   4.941  -9.204  0.00  0.00    -0.050 A 
ATOM     22  CAH AGI d   1     -24.004   3.943  -9.817  0.00  0.00    -0.068 A 
ATOM     23  H4  AGI d   1     -24.472   5.323  -8.230  0.00  0.00     0.087 H 
ATOM     24  H5  AGI d   1     -23.133   3.538  -9.315  0.00  0.00     0.085 H 
BRANCH  19  25
ATOM     25  OAB AGI d   1     -26.651   6.420  -9.297  0.00  0.00    -0.361 OA
ATOM     26  H3  AGI d   1     -26.291   6.658  -8.451  0.00  0.00     0.217 HD
ENDBRANCH  19  25
ENDBRANCH   1  15
BRANCH  11  27
ATOM     27  OAD AGI d   1     -21.767  -1.372 -14.082  0.00  0.00    -0.360 OA
ATOM     28  H10 AGI d   1     -22.538  -0.941 -14.432  0.00  0.00     0.217 HD
ENDBRANCH  11  27
BRANCH   9  29
ATOM     29  OAC AGI d   1     -18.842  -0.865 -10.327  0.00  0.00    -0.361 OA
ATOM     30  H8  AGI d   1     -18.435  -1.621 -10.734  0.00  0.00     0.217 HD
ENDBRANCH   9  29
TORSDOF 4
