REMARK  6 active torsions:
REMARK  status: ('A' for Active; 'I' for Inactive)
REMARK    1  A    between atoms: C2_2  and  O30_22 
REMARK    2  A    between atoms: C6_6  and  O29_21 
REMARK    3  A    between atoms: C10_8  and  O27_20 
REMARK    4  A    between atoms: C11_9  and  C14_10 
REMARK    5  A    between atoms: C17_13  and  O24_19 
REMARK    6  A    between atoms: C18_14  and  O23_18 
ROOT
ATOM      1  C1  QUE d   1     -26.730   4.750 -11.084  0.00  0.00    -0.018 A 
ATOM      2  C2  QUE d   1     -25.741   3.880 -11.508  0.00  0.00     0.085 A 
ATOM      3  C3  QUE d   1     -24.562   3.710 -10.782  0.00  0.00     0.084 A 
ATOM      4  C4  QUE d   1     -24.403   4.431  -9.598  0.00  0.00     0.096 A 
ATOM      5  C5  QUE d   1     -25.386   5.308  -9.163  0.00  0.00    -0.017 A 
ATOM      6  C6  QUE d   1     -26.540   5.463  -9.913  0.00  0.00     0.071 A 
ATOM      7  C9  QUE d   1     -23.582   2.829 -11.201  0.00  0.00     0.223 A 
ATOM      8  C10 QUE d   1     -22.462   2.693 -10.395  0.00  0.00     0.152 A 
ATOM      9  C11 QUE d   1     -22.289   3.428  -9.218  0.00  0.00     0.123 A 
ATOM     10  O12 QUE d   1     -23.270   4.308  -8.855  0.00  0.00    -0.306 OA
ATOM     11  O13 QUE d   1     -23.712   2.156 -12.224  0.00  0.00    -0.284 OA
ATOM     12  H1  QUE d   1     -27.640   4.871 -11.660  0.00  0.00     0.092 H 
ATOM     13  H2  QUE d   1     -25.252   5.867  -8.244  0.00  0.00     0.092 H 
ENDROOT
BRANCH   9  14
ATOM     14  C14 QUE d   1     -21.197   3.420  -8.343  0.00  0.00     0.004 A 
ATOM     15  C15 QUE d   1     -20.955   4.601  -7.654  0.00  0.00    -0.068 A 
ATOM     16  C16 QUE d   1     -19.904   4.702  -6.758  0.00  0.00    -0.047 A 
ATOM     17  H3  QUE d   1     -21.599   5.457  -7.820  0.00  0.00     0.085 H 
ATOM     18  C17 QUE d   1     -19.094   3.594  -6.560  0.00  0.00     0.098 A 
ATOM     19  H4  QUE d   1     -19.719   5.627  -6.223  0.00  0.00     0.087 H 
ATOM     20  C18 QUE d   1     -19.331   2.394  -7.244  0.00  0.00     0.099 A 
ATOM     21  C19 QUE d   1     -20.388   2.317  -8.139  0.00  0.00    -0.035 A 
ATOM     22  H5  QUE d   1     -20.579   1.395  -8.677  0.00  0.00     0.089 H 
BRANCH  18  23
ATOM     23  O24 QUE d   1     -18.056   3.657  -5.707  0.00  0.00    -0.358 OA
ATOM     24  H7  QUE d   1     -18.170   3.008  -5.023  0.00  0.00     0.217 HD
ENDBRANCH  18  23
BRANCH  20  25
ATOM     25  O23 QUE d   1     -18.527   1.305  -7.025  0.00  0.00    -0.358 OA
ATOM     26  H6  QUE d   1     -17.858   1.529  -6.388  0.00  0.00     0.217 HD
ENDBRANCH  20  25
ENDBRANCH   9  14
BRANCH   8  27
ATOM     27  O27 QUE d   1     -21.499   1.812 -10.795  0.00  0.00    -0.355 OA
ATOM     28  H8  QUE d   1     -21.768   1.398 -11.607  0.00  0.00     0.218 HD
ENDBRANCH   8  27
BRANCH   2  29
ATOM     29  O30 QUE d   1     -25.894   3.168 -12.659  0.00  0.00    -0.360 OA
ATOM     30  H10 QUE d   1     -25.857   2.239 -12.463  0.00  0.00     0.217 HD
ENDBRANCH   2  29
BRANCH   6  31
ATOM     31  O29 QUE d   1     -27.500   6.304  -9.485  0.00  0.00    -0.361 OA
ATOM     32  H9  QUE d   1     -27.810   6.021  -8.633  0.00  0.00     0.217 HD
ENDBRANCH   6  31
TORSDOF 6
