REMARK  5 active torsions:
REMARK  status: ('A' for Active; 'I' for Inactive)
REMARK    1  A    between atoms: C2_2  and  O30_21 
REMARK    2  A    between atoms: C6_6  and  O29_20 
REMARK    3  A    between atoms: C10_8  and  O27_19 
REMARK    4  A    between atoms: C11_9  and  C14_10 
REMARK    5  A    between atoms: C17_13  and  O24_18 
ROOT
ATOM      1  C1  KMP d   1     -20.137  -1.161 -12.130  0.00  0.00    -0.018 A 
ATOM      2  C2  KMP d   1     -21.224  -0.812 -12.927  0.00  0.00     0.085 A 
ATOM      3  C3  KMP d   1     -22.042   0.278 -12.617  0.00  0.00     0.084 A 
ATOM      4  C4  KMP d   1     -21.761   1.004 -11.462  0.00  0.00     0.096 A 
ATOM      5  C5  KMP d   1     -20.683   0.658 -10.653  0.00  0.00    -0.017 A 
ATOM      6  C6  KMP d   1     -19.867  -0.418 -10.985  0.00  0.00     0.071 A 
ATOM      7  C9  KMP d   1     -23.139   0.616 -13.403  0.00  0.00     0.223 A 
ATOM      8  C10 KMP d   1     -23.948   1.663 -12.973  0.00  0.00     0.152 A 
ATOM      9  C11 KMP d   1     -23.661   2.413 -11.828  0.00  0.00     0.123 A 
ATOM     10  O12 KMP d   1     -22.559   2.057 -11.105  0.00  0.00    -0.306 OA
ATOM     11  O13 KMP d   1     -23.417  -0.012 -14.429  0.00  0.00    -0.284 OA
ATOM     12  H1  KMP d   1     -19.508  -2.002 -12.399  0.00  0.00     0.092 H 
ATOM     13  H2  KMP d   1     -20.478   1.232  -9.757  0.00  0.00     0.092 H 
ENDROOT
BRANCH   9  14
ATOM     14  C14 KMP d   1     -24.419   3.429 -11.234  0.00  0.00     0.001 A 
ATOM     15  C15 KMP d   1     -25.560   3.972 -11.812  0.00  0.00    -0.068 A 
ATOM     16  C16 KMP d   1     -26.285   4.951 -11.140  0.00  0.00    -0.050 A 
ATOM     17  H3  KMP d   1     -25.886   3.632 -12.788  0.00  0.00     0.085 H 
ATOM     18  C17 KMP d   1     -25.883   5.378  -9.881  0.00  0.00     0.065 A 
ATOM     19  H4  KMP d   1     -27.167   5.382 -11.601  0.00  0.00     0.087 H 
ATOM     20  C18 KMP d   1     -24.754   4.827  -9.277  0.00  0.00    -0.050 A 
ATOM     21  C19 KMP d   1     -24.031   3.854  -9.964  0.00  0.00    -0.068 A 
ATOM     22  H5  KMP d   1     -24.444   5.150  -8.290  0.00  0.00     0.087 H 
ATOM     23  H6  KMP d   1     -23.151   3.420  -9.503  0.00  0.00     0.085 H 
BRANCH  18  24
ATOM     24  O24 KMP d   1     -26.614   6.330  -9.249  0.00  0.00    -0.361 OA
ATOM     25  H7  KMP d   1     -26.947   5.981  -8.431  0.00  0.00     0.217 HD
ENDBRANCH  18  24
ENDBRANCH   9  14
BRANCH   8  26
ATOM     26  O27 KMP d   1     -25.040   1.957 -13.734  0.00  0.00    -0.355 OA
ATOM     27  H8  KMP d   1     -25.085   1.355 -14.467  0.00  0.00     0.218 HD
ENDBRANCH   8  26
BRANCH   2  28
ATOM     28  O30 KMP d   1     -21.520  -1.509 -14.059  0.00  0.00    -0.360 OA
ATOM     29  H10 KMP d   1     -22.399  -1.862 -13.992  0.00  0.00     0.217 HD
ENDBRANCH   2  28
BRANCH   6  30
ATOM     30  O29 KMP d   1     -18.813  -0.741 -10.183  0.00  0.00    -0.361 OA
ATOM     31  H9  KMP d   1     -18.216  -0.004 -10.134  0.00  0.00     0.217 HD
ENDBRANCH   6  30
TORSDOF 5
