REMARK  5 active torsions:
REMARK  status: ('A' for Active; 'I' for Inactive)
REMARK    1  A    between atoms: OAB_1  and  CAM_2 
REMARK    2  A    between atoms: CAO_6  and  OAC_7 
REMARK    3  A    between atoms: CAR_9  and  OAF_10 
REMARK    4  A    between atoms: CAW_18  and  OAG_19 
REMARK    5  A    between atoms: CAQ_21  and  OAE_22 
ROOT
ATOM      1  CAM MRI d   1     -22.274   2.562 -10.620  0.00  0.00     0.152 A 
ATOM      2  CAN MRI d   1     -23.397   2.763 -11.416  0.00  0.00     0.223 A 
ATOM      3  OAD MRI d   1     -23.536   2.177 -12.494  0.00  0.00    -0.284 OA
ATOM      4  CAI MRI d   1     -24.377   3.637 -10.946  0.00  0.00     0.084 A 
ATOM      5  CAO MRI d   1     -25.542   3.874 -11.673  0.00  0.00     0.085 A 
ATOM      6  CAS MRI d   1     -26.532   4.736 -11.222  0.00  0.00    -0.018 A 
ATOM      7  CAR MRI d   1     -26.356   5.379 -10.009  0.00  0.00     0.071 A 
ATOM      8  CAP MRI d   1     -25.201   5.159  -9.267  0.00  0.00    -0.017 A 
ATOM      9  CAJ MRI d   1     -24.216   4.293  -9.734  0.00  0.00     0.096 A 
ATOM     10  OAA MRI d   1     -23.084   4.074  -8.996  0.00  0.00    -0.306 OA
ATOM     11  CAK MRI d   1     -22.098   3.206  -9.395  0.00  0.00     0.126 A 
ATOM     12  CAL MRI d   1     -21.008   3.112  -8.506  0.00  0.00     0.034 A 
ATOM     13  CAT MRI d   1     -20.823   4.194  -7.646  0.00  0.00    -0.065 A 
ATOM     14  CAV MRI d   1     -19.782   4.202  -6.720  0.00  0.00    -0.050 A 
ATOM     15  CAW MRI d   1     -18.900   3.136  -6.629  0.00  0.00     0.068 A 
ATOM     16  CAU MRI d   1     -19.066   2.042  -7.468  0.00  0.00    -0.018 A 
ATOM     17  CAQ MRI d   1     -20.110   2.038  -8.392  0.00  0.00     0.081 A 
ATOM     18  H3  MRI d   1     -27.427   4.903 -11.810  0.00  0.00     0.092 H 
ATOM     19  H5  MRI d   1     -25.066   5.665  -8.318  0.00  0.00     0.092 H 
ATOM     20  H6  MRI d   1     -21.498   5.040  -7.699  0.00  0.00     0.085 H 
ATOM     21  H7  MRI d   1     -19.660   5.054  -6.061  0.00  0.00     0.087 H 
ATOM     22  H9  MRI d   1     -18.389   1.198  -7.405  0.00  0.00     0.092 H 
ENDROOT
BRANCH   1  23
ATOM     23  OAB MRI d   1     -21.305   1.702 -11.058  0.00  0.00    -0.355 OA
ATOM     24  H1  MRI d   1     -20.604   1.664 -10.418  0.00  0.00     0.218 HD
ENDBRANCH   1  23
BRANCH  17  25
ATOM     25  OAE MRI d   1     -20.272   0.974  -9.220  0.00  0.00    -0.360 OA
ATOM     26  H10 MRI d   1     -21.021   1.125  -9.784  0.00  0.00     0.217 HD
ENDBRANCH  17  25
BRANCH   5  27
ATOM     27  OAC MRI d   1     -25.671   3.219 -12.856  0.00  0.00    -0.360 OA
ATOM     28  H2  MRI d   1     -25.650   2.282 -12.702  0.00  0.00     0.217 HD
ENDBRANCH   5  27
BRANCH   7  29
ATOM     29  OAF MRI d   1     -27.314   6.227  -9.551  0.00  0.00    -0.361 OA
ATOM     30  H4  MRI d   1     -27.045   6.584  -8.713  0.00  0.00     0.217 HD
ENDBRANCH   7  29
BRANCH  15  31
ATOM     31  OAG MRI d   1     -17.883   3.169  -5.714  0.00  0.00    -0.361 OA
ATOM     32  H8  MRI d   1     -17.374   2.370  -5.779  0.00  0.00     0.217 HD
ENDBRANCH  15  31
TORSDOF 5
