REMARK  3 active torsions:
REMARK  status: ('A' for Active; 'I' for Inactive)
REMARK    1  A    between atoms: C2_2  and  O2_3 
REMARK    2  A    between atoms: C4_5  and  O4_6 
REMARK    3  A    between atoms: C14_17  and  O14_18 
ROOT
ATOM      1  C1  GEN d   1     -21.171  -0.615 -12.361  0.00  0.00    -0.017 A 
ATOM      2  C2  GEN d   1     -19.965  -0.997 -11.782  0.00  0.00     0.071 A 
ATOM      3  C3  GEN d   1     -19.420  -0.251 -10.739  0.00  0.00    -0.018 A 
ATOM      4  C4  GEN d   1     -20.100   0.879 -10.298  0.00  0.00     0.085 A 
ATOM      5  C5  GEN d   1     -21.303   1.286 -10.874  0.00  0.00     0.082 A 
ATOM      6  C6  GEN d   1     -21.944   2.415 -10.369  0.00  0.00     0.200 A 
ATOM      7  O6  GEN d   1     -21.438   3.038  -9.428  0.00  0.00    -0.286 OA
ATOM      8  C7  GEN d   1     -23.167   2.769 -10.939  0.00  0.00     0.048 A 
ATOM      9  C8  GEN d   1     -23.661   1.986 -11.977  0.00  0.00     0.034 A 
ATOM     10  O9  GEN d   1     -23.026   0.893 -12.485  0.00  0.00    -0.321 OA
ATOM     11  C10 GEN d   1     -21.841   0.519 -11.911  0.00  0.00     0.094 A 
ATOM     12  C11 GEN d   1     -24.006   3.802 -10.515  0.00  0.00    -0.020 A 
ATOM     13  C12 GEN d   1     -24.078   4.205  -9.182  0.00  0.00    -0.069 A 
ATOM     14  C13 GEN d   1     -24.977   5.196  -8.804  0.00  0.00    -0.050 A 
ATOM     15  C14 GEN d   1     -25.816   5.768  -9.753  0.00  0.00     0.065 A 
ATOM     16  C15 GEN d   1     -25.757   5.361 -11.085  0.00  0.00    -0.050 A 
ATOM     17  C16 GEN d   1     -24.867   4.361 -11.448  0.00  0.00    -0.069 A 
ATOM     18  H1  GEN d   1     -21.592  -1.204 -13.168  0.00  0.00     0.092 H 
ATOM     19  H3  GEN d   1     -18.483  -0.546 -10.280  0.00  0.00     0.092 H 
ATOM     20  H5  GEN d   1     -24.619   2.265 -12.413  0.00  0.00     0.125 H 
ATOM     21  H6  GEN d   1     -23.433   3.746  -8.441  0.00  0.00     0.085 H 
ATOM     22  H7  GEN d   1     -25.023   5.522  -7.771  0.00  0.00     0.087 H 
ATOM     23  H9  GEN d   1     -26.399   5.820 -11.828  0.00  0.00     0.087 H 
ATOM     24  H10 GEN d   1     -24.844   4.012 -12.474  0.00  0.00     0.085 H 
ENDROOT
BRANCH   4  25
ATOM     25  O4  GEN d   1     -19.627   1.662  -9.291  0.00  0.00    -0.360 OA
ATOM     26  H4  GEN d   1     -20.231   2.379  -9.139  0.00  0.00     0.217 HD
ENDBRANCH   4  25
BRANCH  15  27
ATOM     27  O14 GEN d   1     -26.686   6.739  -9.395  0.00  0.00    -0.361 OA
ATOM     28  H8  GEN d   1     -27.282   6.402  -8.737  0.00  0.00     0.217 HD
ENDBRANCH  15  27
BRANCH   2  29
ATOM     29  O2  GEN d   1     -19.332  -2.110 -12.244  0.00  0.00    -0.361 OA
ATOM     30  H2  GEN d   1     -18.528  -2.242 -11.755  0.00  0.00     0.217 HD
ENDBRANCH   2  29
TORSDOF 3
