REMARK  4 active torsions:
REMARK  status: ('A' for Active; 'I' for Inactive)
REMARK    1  A    between atoms: CAB_2  and  OAS_19 
REMARK    2  A    between atoms: CAI_9  and  CAK_11 
REMARK    3  A    between atoms: CAM_13  and  OAR_18 
REMARK    4  A    between atoms: CAN_14  and  OAQ_17 
ROOT
ATOM      1  CAA 47X d   1     -24.799   4.998  -8.879  0.00  0.00    -0.050 A 
ATOM      2  CAB 47X d   1     -25.889   5.410  -9.648  0.00  0.00     0.068 A 
ATOM      3  CAC 47X d   1     -26.065   4.916 -10.927  0.00  0.00    -0.017 A 
ATOM      4  CAD 47X d   1     -23.875   4.090  -9.397  0.00  0.00    -0.064 A 
ATOM      5  CAE 47X d   1     -24.052   3.587 -10.679  0.00  0.00     0.049 A 
ATOM      6  CAF 47X d   1     -25.145   4.011 -11.437  0.00  0.00     0.091 A 
ATOM      7  OAG 47X d   1     -25.322   3.519 -12.698  0.00  0.00    -0.321 OA
ATOM      8  CAH 47X d   1     -24.401   2.644 -13.194  0.00  0.00     0.034 A 
ATOM      9  CAI 47X d   1     -23.297   2.209 -12.477  0.00  0.00     0.048 A 
ATOM     10  CAJ 47X d   1     -23.122   2.680 -11.179  0.00  0.00     0.197 A 
ATOM     11  OAT 47X d   1     -22.159   2.341 -10.488  0.00  0.00    -0.286 OA
ATOM     12  H1  47X d   1     -24.670   5.385  -7.875  0.00  0.00     0.087 H 
ATOM     13  H2  47X d   1     -26.912   5.232 -11.525  0.00  0.00     0.092 H 
ATOM     14  H3  47X d   1     -23.024   3.779  -8.802  0.00  0.00     0.085 H 
ATOM     15  H4  47X d   1     -24.540   2.267 -14.206  0.00  0.00     0.125 H 
ENDROOT
BRANCH   9  16
ATOM     16  CAK 47X d   1     -22.424   1.302 -13.085  0.00  0.00    -0.017 A 
ATOM     17  CAL 47X d   1     -21.965   0.186 -12.392  0.00  0.00    -0.037 A 
ATOM     18  CAM 47X d   1     -21.103  -0.701 -13.023  0.00  0.00     0.099 A 
ATOM     19  H5  47X d   1     -22.277   0.011 -11.369  0.00  0.00     0.089 H 
ATOM     20  CAN 47X d   1     -20.709  -0.491 -14.342  0.00  0.00     0.098 A 
ATOM     21  CAO 47X d   1     -21.168   0.616 -15.052  0.00  0.00    -0.047 A 
ATOM     22  CAP 47X d   1     -22.033   1.505 -14.413  0.00  0.00    -0.069 A 
ATOM     23  H6  47X d   1     -20.860   0.783 -16.078  0.00  0.00     0.087 H 
ATOM     24  H7  47X d   1     -22.408   2.366 -14.954  0.00  0.00     0.085 H 
BRANCH  18  25
ATOM     25  OAR 47X d   1     -20.615  -1.804 -12.387  0.00  0.00    -0.358 OA
ATOM     26  H9  47X d   1     -19.666  -1.760 -12.362  0.00  0.00     0.217 HD
ENDBRANCH  18  25
BRANCH  20  27
ATOM     27  OAQ 47X d   1     -19.865  -1.410 -14.886  0.00  0.00    -0.358 OA
ATOM     28  H8  47X d   1     -19.673  -2.082 -14.242  0.00  0.00     0.217 HD
ENDBRANCH  20  27
ENDBRANCH   9  16
BRANCH   2  29
ATOM     29  OAS 47X d   1     -26.790   6.303  -9.163  0.00  0.00    -0.361 OA
ATOM     30  H10 47X d   1     -26.543   6.553  -8.280  0.00  0.00     0.217 HD
ENDBRANCH   2  29
TORSDOF 4
