REMARK  13 active torsions:
REMARK  status: ('A' for Active; 'I' for Inactive)
REMARK    1  A    between atoms: C7_13  and  C5_8 
REMARK    2  A    between atoms: C1_9  and  C27_21 
REMARK    3  A    between atoms: C4_10  and  C14_20 
REMARK    4  A    between atoms: C19_11  and  N22_23 
REMARK    5  A    between atoms: O15_26  and  C16_12 
REMARK    6  A    between atoms: O9_27  and  C7_13 
REMARK    7  A    between atoms: C24_14  and  C26_15 
REMARK       I    between atoms: N22_23  and  C24_14 
REMARK    8  A    between atoms: C10_22  and  C11_16 
REMARK    9  A    between atoms: C10_22  and  C12_17 
REMARK   10  A    between atoms: C10_22  and  C13_18 
REMARK   11  A    between atoms: N22_23  and  C23_19 
REMARK   12  A    between atoms: C14_20  and  O15_26 
REMARK   13  A    between atoms: C10_22  and  O9_27 
ROOT
ATOM      1  C2  4KM d   1     136.730  24.415  65.377  0.00  0.00    -0.068 A 
ATOM      2  C3  4KM d   1     136.946  23.100  65.031  0.00  0.00    -0.073 A 
ATOM      3  C6  4KM d   1     139.036  24.848  65.022  0.00  0.00    -0.052 A 
ATOM      4  C5  4KM d   1     139.257  23.536  64.670  0.00  0.00     0.048 A 
ATOM      5  C1  4KM d   1     137.787  25.293  65.374  0.00  0.00     0.049 A 
ATOM      6  C4  4KM d   1     138.193  22.636  64.673  0.00  0.00    -0.018 A 
ATOM      7  H1  4KM d   1     135.737  24.754  65.649  0.00  0.00     0.084 H 
ATOM      8  H2  4KM d   1     136.111  22.409  65.040  0.00  0.00     0.084 H 
ATOM      9  H7  4KM d   1     139.867  25.545  65.021  0.00  0.00     0.086 H 
ENDROOT
BRANCH   6  10
ATOM     10  C14 4KM d   1     138.221  21.184  64.346  0.00  0.00     0.051 C 
ATOM     11  H23 4KM d   1     138.612  21.017  63.332  0.00  0.00     0.082 H 
ATOM     12  H24 4KM d   1     137.217  20.743  64.429  0.00  0.00     0.082 H 
BRANCH  10  13
ATOM     13  O15 4KM d   1     139.088  20.646  65.314  0.00  0.00    -0.347 OA
BRANCH  13  14
ATOM     14  C16 4KM d   1     139.310  19.317  65.037  0.00  0.00     0.069 A 
ATOM     15  C17 4KM d   1     140.043  18.669  65.992  0.00  0.00    -0.049 A 
ATOM     16  C18 4KM d   1     140.328  17.343  65.830  0.00  0.00    -0.054 A 
ATOM     17  H5  4KM d   1     140.394  19.202  66.868  0.00  0.00     0.087 H 
ATOM     18  C19 4KM d   1     139.918  16.647  64.712  0.00  0.00     0.036 A 
ATOM     19  H3  4KM d   1     140.890  16.825  66.599  0.00  0.00     0.087 H 
ATOM     20  C20 4KM d   1     139.174  17.320  63.761  0.00  0.00    -0.054 A 
ATOM     21  C21 4KM d   1     138.867  18.658  63.911  0.00  0.00    -0.049 A 
ATOM     22  H4  4KM d   1     138.826  16.788  62.883  0.00  0.00     0.087 H 
ATOM     23  H6  4KM d   1     138.288  19.180  63.157  0.00  0.00     0.087 H 
BRANCH  18  24
ATOM     24  N22 4KM d   1     140.203  15.260  64.559  0.00  0.00    -0.323 N 
ATOM     25  C24 4KM d   1     141.393  14.585  64.263  0.00  0.00     0.220 C 
ATOM     26  O25 4KM d   1     141.429  13.366  64.155  0.00  0.00    -0.274 OA
BRANCH  25  27
ATOM     27  C26 4KM d   1     142.677  15.335  64.062  0.00  0.00    -0.002 C 
ATOM     28  H8  4KM d   1     143.486  14.624  63.840  0.00  0.00     0.040 H 
ATOM     29  H9  4KM d   1     142.921  15.895  64.977  0.00  0.00     0.040 H 
ATOM     30  H10 4KM d   1     142.565  16.036  63.222  0.00  0.00     0.040 H 
ENDBRANCH  25  27
BRANCH  24  31
ATOM     31  C23 4KM d   1     139.063  14.419  64.839  0.00  0.00    -0.011 C 
ATOM     32  H20 4KM d   1     138.188  15.049  65.057  0.00  0.00     0.057 H 
ATOM     33  H21 4KM d   1     139.282  13.782  65.709  0.00  0.00     0.057 H 
ATOM     34  H22 4KM d   1     138.851  13.786  63.965  0.00  0.00     0.057 H 
ENDBRANCH  24  31
ENDBRANCH  18  24
ENDBRANCH  13  14
ENDBRANCH  10  13
ENDBRANCH   6  10
BRANCH   4  35
ATOM     35  C7  4KM d   1     140.692  23.364  64.349  0.00  0.00     0.294 C 
ATOM     36  O8  4KM d   1     141.477  24.070  64.968  0.00  0.00    -0.259 OA
BRANCH  35  37
ATOM     37  O9  4KM d   1     140.938  22.551  63.268  0.00  0.00    -0.307 OA
BRANCH  37  38
ATOM     38  C10 4KM d   1     142.057  21.651  63.195  0.00  0.00     0.060 C 
BRANCH  38  39
ATOM     39  C11 4KM d   1     142.527  20.956  64.452  0.00  0.00    -0.048 C 
ATOM     40  H11 4KM d   1     143.385  20.310  64.215  0.00  0.00     0.031 H 
ATOM     41  H12 4KM d   1     141.709  20.344  64.860  0.00  0.00     0.031 H 
ATOM     42  H13 4KM d   1     142.828  21.708  65.196  0.00  0.00     0.031 H 
ENDBRANCH  38  39
BRANCH  38  43
ATOM     43  C12 4KM d   1     141.634  20.574  62.237  0.00  0.00    -0.048 C 
ATOM     44  H14 4KM d   1     141.282  21.033  61.301  0.00  0.00     0.031 H 
ATOM     45  H15 4KM d   1     140.821  19.984  62.685  0.00  0.00     0.031 H 
ATOM     46  H16 4KM d   1     142.490  19.916  62.023  0.00  0.00     0.031 H 
ENDBRANCH  38  43
BRANCH  38  47
ATOM     47  C13 4KM d   1     143.227  22.346  62.570  0.00  0.00    -0.048 C 
ATOM     48  H17 4KM d   1     143.576  23.148  63.237  0.00  0.00     0.031 H 
ATOM     49  H18 4KM d   1     142.924  22.777  61.605  0.00  0.00     0.031 H 
ATOM     50  H19 4KM d   1     144.040  21.623  62.410  0.00  0.00     0.031 H 
ENDBRANCH  38  47
ENDBRANCH  37  38
ENDBRANCH  35  37
ENDBRANCH   4  35
BRANCH   5  51
ATOM     51  C27 4KM d   1     137.590  26.711  65.745  0.00  0.00     0.417 C 
ATOM     52  F28 4KM d   1     136.536  27.252  65.087  0.00  0.00    -0.166 F 
ATOM     53  F29 4KM d   1     137.365  26.864  67.075  0.00  0.00    -0.166 F 
ATOM     54  F30 4KM d   1     138.666  27.498  65.486  0.00  0.00    -0.166 F 
ENDBRANCH   5  51
TORSDOF 13
