REMARK  16 active torsions:
REMARK  status: ('A' for Active; 'I' for Inactive)
REMARK    1  A    between atoms: O33_1  and  C26_2 
REMARK    2  A    between atoms: C26_2  and  C25_3 
REMARK    3  A    between atoms: C25_3  and  C20_4 
REMARK    4  A    between atoms: C20_4  and  C21_5 
REMARK    5  A    between atoms: C20_4  and  C18_11 
REMARK    6  A    between atoms: C21_5  and  C22_6 
REMARK    7  A    between atoms: C22_6  and  C23_7 
REMARK    8  A    between atoms: C23_7  and  C24_8 
REMARK    9  A    between atoms: C24_8  and  C31_9 
REMARK   10  A    between atoms: C31_9  and  C32_10 
REMARK   11  A    between atoms: C18_11  and  C19_12 
REMARK   12  A    between atoms: C18_11  and  C17_13 
REMARK   13  A    between atoms: C13_14  and  C34_15 
REMARK   14  A    between atoms: C8_23  and  C7_24 
REMARK   15  A    between atoms: C4_27  and  O31_28 
REMARK   16  A    between atoms: C2_31  and  O32_32 
ROOT
ATOM      1  C17 YSL d   1      19.770 -25.271 -26.635  0.00  0.00    -0.043 C 
ATOM      2  C13 YSL d   1      19.513 -26.615 -25.977  0.00  0.00    -0.033 C 
ATOM      3  C12 YSL d   1      19.183 -27.749 -26.927  0.00  0.00    -0.057 C 
ATOM      4  C11 YSL d   1      19.052 -29.051 -26.142  0.00  0.00    -0.061 C 
ATOM      5  C10 YSL d   1      20.251 -29.363 -25.242  0.00  0.00    -0.044 C 
ATOM      6  C9  YSL d   1      20.737 -28.127 -24.520  0.00  0.00    -0.075 C 
ATOM      7  C14 YSL d   1      20.862 -26.903 -25.365  0.00  0.00    -0.025 C 
ATOM      8  C15 YSL d   1      21.295 -25.593 -24.734  0.00  0.00    -0.057 C 
ATOM      9  C16 YSL d   1      20.660 -24.532 -25.635  0.00  0.00    -0.060 C 
ATOM     10  C8  YSL d   1      21.025 -28.140 -23.208  0.00  0.00    -0.080 C 
ATOM     11  H24 YSL d   1      20.328 -25.425 -27.570  0.00  0.00     0.041 H 
ATOM     12  H28 YSL d   1      19.987 -27.849 -27.671  0.00  0.00     0.034 H 
ATOM     13  H29 YSL d   1      18.234 -27.533 -27.439  0.00  0.00     0.034 H 
ATOM     14  H30 YSL d   1      18.935 -29.877 -26.860  0.00  0.00     0.033 H 
ATOM     15  H31 YSL d   1      18.154 -28.984 -25.510  0.00  0.00     0.033 H 
ATOM     16  H32 YSL d   1      21.069 -29.760 -25.861  0.00  0.00     0.039 H 
ATOM     17  H33 YSL d   1      19.954 -30.117 -24.499  0.00  0.00     0.039 H 
ATOM     18  H34 YSL d   1      21.586 -27.139 -26.159  0.00  0.00     0.048 H 
ATOM     19  H35 YSL d   1      22.391 -25.502 -24.732  0.00  0.00     0.034 H 
ATOM     20  H36 YSL d   1      20.918 -25.510 -23.704  0.00  0.00     0.034 H 
ATOM     21  H37 YSL d   1      20.056 -23.837 -25.033  0.00  0.00     0.033 H 
ATOM     22  H38 YSL d   1      21.442 -23.971 -26.168  0.00  0.00     0.033 H 
ATOM     23  H39 YSL d   1      21.374 -27.236 -22.712  0.00  0.00     0.083 H 
ENDROOT
BRANCH   1  24
ATOM     24  C18 YSL d   1      18.490 -24.524 -26.986  0.00  0.00    -0.050 C 
ATOM     25  H20 YSL d   1      17.965 -24.286 -26.049  0.00  0.00     0.040 H 
BRANCH  24  26
ATOM     26  C20 YSL d   1      18.806 -23.216 -27.694  0.00  0.00    -0.049 C 
ATOM     27  H6  YSL d   1      19.503 -22.648 -27.061  0.00  0.00     0.040 H 
BRANCH  26  28
ATOM     28  C25 YSL d   1      17.558 -22.367 -27.900  0.00  0.00    -0.042 C 
ATOM     29  H4  YSL d   1      17.754 -21.633 -28.695  0.00  0.00     0.036 H 
ATOM     30  H5  YSL d   1      16.728 -23.022 -28.202  0.00  0.00     0.036 H 
BRANCH  28  31
ATOM     31  C26 YSL d   1      17.162 -21.624 -26.631  0.00  0.00     0.017 C 
ATOM     32  H2  YSL d   1      16.601 -22.301 -25.970  0.00  0.00     0.073 H 
ATOM     33  H3  YSL d   1      18.067 -21.273 -26.114  0.00  0.00     0.073 H 
BRANCH  31  34
ATOM     34  O33 YSL d   1      16.343 -20.503 -26.970  0.00  0.00    -0.401 OA
ATOM     35  H1  YSL d   1      16.828 -19.919 -27.541  0.00  0.00     0.209 HD
ENDBRANCH  31  34
ENDBRANCH  28  31
ENDBRANCH  26  28
BRANCH  26  36
ATOM     36  C21 YSL d   1      19.482 -23.479 -29.031  0.00  0.00    -0.061 C 
ATOM     37  H7  YSL d   1      18.714 -23.643 -29.801  0.00  0.00     0.033 H 
ATOM     38  H8  YSL d   1      20.116 -24.374 -28.949  0.00  0.00     0.033 H 
BRANCH  36  39
ATOM     39  C22 YSL d   1      20.343 -22.287 -29.424  0.00  0.00    -0.065 C 
ATOM     40  H9  YSL d   1      20.757 -21.830 -28.513  0.00  0.00     0.033 H 
ATOM     41  H10 YSL d   1      19.716 -21.552 -29.950  0.00  0.00     0.033 H 
BRANCH  39  42
ATOM     42  C23 YSL d   1      21.489 -22.699 -30.334  0.00  0.00    -0.065 C 
ATOM     43  H11 YSL d   1      21.256 -23.673 -30.789  0.00  0.00     0.033 H 
ATOM     44  H12 YSL d   1      22.410 -22.783 -29.739  0.00  0.00     0.033 H 
BRANCH  42  45
ATOM     45  C24 YSL d   1      21.698 -21.670 -31.436  0.00  0.00    -0.065 C 
ATOM     46  H13 YSL d   1      20.737 -21.186 -31.665  0.00  0.00     0.033 H 
ATOM     47  H14 YSL d   1      22.077 -22.177 -32.336  0.00  0.00     0.033 H 
BRANCH  45  48
ATOM     48  C31 YSL d   1      22.700 -20.609 -31.002  0.00  0.00    -0.069 C 
ATOM     49  H15 YSL d   1      22.587 -20.426 -29.923  0.00  0.00     0.032 H 
ATOM     50  H16 YSL d   1      22.503 -19.679 -31.555  0.00  0.00     0.032 H 
BRANCH  48  51
ATOM     51  C32 YSL d   1      24.115 -21.061 -31.282  0.00  0.00    -0.077 C 
ATOM     52  H17 YSL d   1      24.820 -20.280 -30.961  0.00  0.00     0.027 H 
ATOM     53  H18 YSL d   1      24.235 -21.242 -32.360  0.00  0.00     0.027 H 
ATOM     54  H19 YSL d   1      24.320 -21.989 -30.729  0.00  0.00     0.027 H 
ENDBRANCH  48  51
ENDBRANCH  45  48
ENDBRANCH  42  45
ENDBRANCH  39  42
ENDBRANCH  36  39
ENDBRANCH  26  36
ENDBRANCH  24  26
BRANCH  24  55
ATOM     55  C19 YSL d   1      17.575 -25.397 -27.832  0.00  0.00    -0.072 C 
ATOM     56  H21 YSL d   1      17.364 -26.334 -27.296  0.00  0.00     0.028 H 
ATOM     57  H22 YSL d   1      18.067 -25.625 -28.789  0.00  0.00     0.028 H 
ATOM     58  H23 YSL d   1      16.632 -24.863 -28.023  0.00  0.00     0.028 H 
ENDBRANCH  24  55
ENDBRANCH   1  24
BRANCH   2  59
ATOM     59  C34 YSL d   1      18.435 -26.481 -24.907  0.00  0.00    -0.068 C 
ATOM     60  H25 YSL d   1      18.259 -27.461 -24.439  0.00  0.00     0.028 H 
ATOM     61  H26 YSL d   1      17.503 -26.122 -25.368  0.00  0.00     0.028 H 
ATOM     62  H27 YSL d   1      18.765 -25.763 -24.142  0.00  0.00     0.028 H 
ENDBRANCH   2  59
BRANCH  10  63
ATOM     63  C7  YSL d   1      20.864 -29.382 -22.455  0.00  0.00    -0.080 C 
ATOM     64  C6  YSL d   1      20.551 -29.407 -21.153  0.00  0.00    -0.074 C 
ATOM     65  C5  YSL d   1      20.388 -30.742 -20.459  0.00  0.00    -0.017 C 
ATOM     66  C1  YSL d   1      20.350 -28.132 -20.364  0.00  0.00    -0.017 C 
ATOM     67  C4  YSL d   1      21.051 -30.769 -19.087  0.00  0.00     0.062 C 
ATOM     68  H41 YSL d   1      20.842 -31.524 -21.086  0.00  0.00     0.043 H 
ATOM     69  H42 YSL d   1      19.314 -30.948 -20.336  0.00  0.00     0.043 H 
ATOM     70  C3  YSL d   1      20.687 -29.545 -18.310  0.00  0.00    -0.032 C 
ATOM     71  H43 YSL d   1      20.721 -31.664 -18.539  0.00  0.00     0.090 H 
ATOM     72  C33 YSL d   1      20.170 -29.658 -17.103  0.00  0.00    -0.114 C 
ATOM     73  C2  YSL d   1      20.931 -28.209 -18.951  0.00  0.00     0.062 C 
ATOM     74  H45 YSL d   1      19.905 -28.765 -16.538  0.00  0.00     0.067 H 
ATOM     75  H46 YSL d   1      20.007 -30.644 -16.670  0.00  0.00     0.067 H 
ATOM     76  H47 YSL d   1      22.018 -28.051 -19.014  0.00  0.00     0.090 H 
ATOM     77  H49 YSL d   1      19.271 -27.932 -20.289  0.00  0.00     0.043 H 
ATOM     78  H50 YSL d   1      20.840 -27.306 -20.901  0.00  0.00     0.043 H 
ATOM     79  H40 YSL d   1      21.005 -30.328 -22.975  0.00  0.00     0.083 H 
BRANCH  67  80
ATOM     80  O31 YSL d   1      22.466 -30.800 -19.254  0.00  0.00    -0.391 OA
ATOM     81  H44 YSL d   1      22.709 -31.578 -19.743  0.00  0.00     0.210 HD
ENDBRANCH  67  80
BRANCH  73  82
ATOM     82  O32 YSL d   1      20.361 -27.174 -18.151  0.00  0.00    -0.391 OA
ATOM     83  H48 YSL d   1      19.425 -27.317 -18.070  0.00  0.00     0.210 HD
ENDBRANCH  73  82
ENDBRANCH  10  63
TORSDOF 16
