REMARK WARNING: 32 MAX_TORS EXCEEDED!!!
REMARK  34 active torsions:
REMARK  status: ('A' for Active; 'I' for Inactive)
REMARK    1  A    between atoms: N_1  and  CA_2 
REMARK    2  A    between atoms: CA_2  and  C_3 
REMARK    3  A    between atoms: CA_2  and  CB_5 
REMARK       I    between atoms: C_3  and  N_13 
REMARK    4  A    between atoms: CB_5  and  CG_6 
REMARK    5  A    between atoms: CZ_11  and  OH_12 
REMARK    6  A    between atoms: N_13  and  CA_14 
REMARK    7  A    between atoms: CA_14  and  C_15 
REMARK    8  A    between atoms: CA_14  and  CB_17 
REMARK       I    between atoms: C_15  and  N_21 
REMARK    9  A    between atoms: CB_17  and  CG_18 
REMARK   10  A    between atoms: CA_22  and  C_23 
REMARK       I    between atoms: C_23  and  N_28 
REMARK   11  A    between atoms: N_28  and  CA_29 
REMARK   12  A    between atoms: CA_29  and  C_30 
REMARK   13  A    between atoms: CA_29  and  CB_32 
REMARK       I    between atoms: C_30  and  N_39 
REMARK   14  A    between atoms: CB_32  and  CG_33 
REMARK   15  A    between atoms: N_39  and  CA_40 
REMARK   16  A    between atoms: CA_40  and  C_41 
REMARK       I    between atoms: C_41  and  N_43 
REMARK   17  A    between atoms: N_43  and  CA_44 
REMARK   18  A    between atoms: CA_44  and  C_45 
REMARK       I    between atoms: C_45  and  N_47 
REMARK   19  A    between atoms: N_47  and  CA_48 
REMARK   20  A    between atoms: CA_48  and  C_49 
REMARK   21  A    between atoms: CA_48  and  CB_51 
REMARK       I    between atoms: C_49  and  N_55 
REMARK   22  A    between atoms: CB_51  and  CG_52 
REMARK   23  A    between atoms: CA_56  and  C_57 
REMARK       I    between atoms: C_57  and  N_62 
REMARK   24  A    between atoms: N_62  and  CA_63 
REMARK   25  A    between atoms: CA_63  and  C_64 
REMARK   26  A    between atoms: CA_63  and  CB_66 
REMARK       I    between atoms: C_64  and  N_73 
REMARK   27  A    between atoms: CB_66  and  CG_67 
REMARK   28  A    between atoms: N_73  and  CA_74 
REMARK   29  A    between atoms: CA_74  and  C_75 
REMARK   30  A    between atoms: CA_74  and  CB_77 
REMARK   31  A    between atoms: CB_77  and  CG_78 
REMARK   32  A    between atoms: CG_78  and  CD_79 
REMARK   33  A    between atoms: CD_79  and  CE_80 
REMARK   34  A    between atoms: CE_80  and  NZ_81 
ROOT
ATOM      1  C   GLY d   1      22.779  11.228 116.563  0.00  0.00     0.235 C 
ATOM      2  O   GLY d   1      21.585  11.458 116.762  0.00  0.00    -0.272 OA
ATOM      3  N   GLY d   1      23.492  10.384 117.298  0.00  0.00    -0.351 N 
ATOM      4  H35 GLY d   1      24.475  10.307 117.132  0.00  0.00     0.163 HD
ENDROOT
BRANCH   1   5
ATOM      5  CA  GLY d   1      23.525  11.890 115.426  0.00  0.00     0.069 C 
ATOM      6  H33 GLY d   1      22.798  12.244 114.681  0.00  0.00     0.078 H 
ATOM      7  H34 GLY d   1      24.091  12.746 115.822  0.00  0.00     0.078 H 
BRANCH   5   8
ATOM      8  N   GLY d   1      24.450  10.969 114.782  0.00  0.00    -0.351 N 
ATOM      9  C   PHE d   1      24.106   9.727 114.443  0.00  0.00     0.241 C 
ATOM     10  O   PHE d   1      22.987   9.259 114.631  0.00  0.00    -0.271 OA
ATOM     11  H32 GLY d   1      25.380  11.280 114.586  0.00  0.00     0.163 HD
BRANCH   9  12
ATOM     12  CA  PHE d   1      25.180   8.884 113.776  0.00  0.00     0.093 C 
ATOM     13  H24 PHE d   1      24.746   8.485 112.847  0.00  0.00     0.088 H 
BRANCH  12  14
ATOM     14  N   PHE d   1      26.358   9.648 113.411  0.00  0.00    -0.346 N 
ATOM     15  C   PRO d   1      26.501  10.089 112.165  0.00  0.00     0.241 C 
ATOM     16  O   PRO d   1      25.651   9.900 111.276  0.00  0.00    -0.271 OA
ATOM     17  H23 PHE d   1      27.061   9.842 114.095  0.00  0.00     0.163 HD
BRANCH  15  18
ATOM     18  CA  PRO d   1      27.780  10.869 111.857  0.00  0.00     0.091 C 
ATOM     19  N   PRO d   1      28.526  11.248 113.064  0.00  0.00    -0.337 N 
ATOM     20  C   ASP d   1      28.033  12.135 113.936  0.00  0.00     0.243 C 
ATOM     21  CD  PRO d   1      29.914  10.757 113.044  0.00  0.00    -0.001 C 
ATOM     22  O   ASP d   1      26.910  12.636 113.815  0.00  0.00    -0.271 OA
ATOM     23  CG  PRO d   1      29.873   9.665 112.023  0.00  0.00    -0.048 C 
ATOM     24  H21 PRO d   1      30.209  10.366 114.029  0.00  0.00     0.064 H 
ATOM     25  H22 PRO d   1      30.610  11.553 112.743  0.00  0.00     0.064 H 
ATOM     26  CB  PRO d   1      28.774   9.989 111.082  0.00  0.00    -0.036 C 
ATOM     27  H19 PRO d   1      30.830   9.617 111.483  0.00  0.00     0.035 H 
ATOM     28  H20 PRO d   1      29.679   8.699 112.512  0.00  0.00     0.035 H 
ATOM     29  H17 PRO d   1      29.167  10.536 110.212  0.00  0.00     0.036 H 
ATOM     30  H18 PRO d   1      28.280   9.066 110.743  0.00  0.00     0.036 H 
ATOM     31  H16 PRO d   1      27.518  11.765 111.275  0.00  0.00     0.087 H 
BRANCH  20  32
ATOM     32  CA  ASP d   1      28.930  12.487 115.113  0.00  0.00     0.099 C 
ATOM     33  H13 ASP d   1      29.797  11.810 115.112  0.00  0.00     0.088 H 
BRANCH  32  34
ATOM     34  N   ASP d   1      29.408  13.857 115.005  0.00  0.00    -0.345 N 
ATOM     35  C   TYR d   1      30.679  14.149 114.740  0.00  0.00     0.249 C 
ATOM     36  O   TYR d   1      31.531  13.291 114.494  0.00  0.00    -0.271 OA
ATOM     37  H12 ASP d   1      28.758  14.606 115.135  0.00  0.00     0.163 HD
BRANCH  35  38
ATOM     38  CA  TYR d   1      31.036  15.634 114.726  0.00  0.00     0.179 C 
ATOM     39  H4  TYR d   1      30.196  16.194 115.164  0.00  0.00     0.099 H 
BRANCH  38  40
ATOM     40  N   TYR d   1      32.227  15.917 115.512  0.00  0.00    -0.066 N 
ATOM     41  H1  TYR d   1      32.426  16.904 115.476  0.00  0.00     0.275 HD
ATOM     42  H2  TYR d   1      33.008  15.403 115.136  0.00  0.00     0.275 HD
ATOM     43  H3  TYR d   1      32.072  15.640 116.469  0.00  0.00     0.275 HD
ENDBRANCH  38  40
BRANCH  38  44
ATOM     44  CB  TYR d   1      31.233  16.100 113.287  0.00  0.00    -0.006 C 
ATOM     45  H5  TYR d   1      32.252  15.833 112.970  0.00  0.00     0.043 H 
ATOM     46  H6  TYR d   1      31.113  17.193 113.254  0.00  0.00     0.043 H 
BRANCH  44  47
ATOM     47  CG  TYR d   1      30.251  15.480 112.320  0.00  0.00    -0.056 A 
ATOM     48  CD1 TYR d   1      30.622  14.407 111.509  0.00  0.00    -0.074 A 
ATOM     49  CE1 TYR d   1      29.721  13.825 110.627  0.00  0.00    -0.051 A 
ATOM     50  H7  TYR d   1      31.633  14.020 111.569  0.00  0.00     0.084 H 
ATOM     51  CZ  TYR d   1      28.429  14.316 110.543  0.00  0.00     0.065 A 
ATOM     52  H9  TYR d   1      30.028  12.990 110.007  0.00  0.00     0.087 H 
ATOM     53  CE2 TYR d   1      28.034  15.382 111.344  0.00  0.00    -0.051 A 
ATOM     54  CD2 TYR d   1      28.944  15.953 112.228  0.00  0.00    -0.074 A 
ATOM     55  H10 TYR d   1      27.022  15.766 111.280  0.00  0.00     0.087 H 
ATOM     56  H8  TYR d   1      28.631  16.780 112.856  0.00  0.00     0.084 H 
BRANCH  51  57
ATOM     57  OH  TYR d   1      27.538  13.733 109.663  0.00  0.00    -0.361 OA
ATOM     58  H11 TYR d   1      27.970  13.025 109.199  0.00  0.00     0.217 HD
ENDBRANCH  51  57
ENDBRANCH  44  47
ENDBRANCH  38  44
ENDBRANCH  35  38
ENDBRANCH  32  34
BRANCH  32  59
ATOM     59  CB  ASP d   1      28.159  12.301 116.418  0.00  0.00     0.043 C 
ATOM     60  H14 ASP d   1      27.239  12.902 116.372  0.00  0.00     0.052 H 
ATOM     61  H15 ASP d   1      28.786  12.653 117.251  0.00  0.00     0.052 H 
BRANCH  59  62
ATOM     62  CG  ASP d   1      27.785  10.866 116.671  0.00  0.00     0.175 C 
ATOM     63  OD1 ASP d   1      27.561  10.540 117.843  0.00  0.00    -0.648 OA
ATOM     64  OD2 ASP d   1      27.722  10.056 115.716  0.00  0.00    -0.648 OA
ENDBRANCH  59  62
ENDBRANCH  32  59
ENDBRANCH  20  32
ENDBRANCH  15  18
ENDBRANCH  12  14
BRANCH  12  65
ATOM     65  CB  PHE d   1      25.582   7.703 114.642  0.00  0.00    -0.014 C 
ATOM     66  H25 PHE d   1      24.674   7.152 114.928  0.00  0.00     0.043 H 
ATOM     67  H26 PHE d   1      26.079   8.084 115.546  0.00  0.00     0.043 H 
BRANCH  65  68
ATOM     68  CG  PHE d   1      26.508   6.765 113.951  0.00  0.00    -0.056 A 
ATOM     69  CD1 PHE d   1      26.014   5.797 113.091  0.00  0.00    -0.077 A 
ATOM     70  CE1 PHE d   1      26.867   4.932 112.429  0.00  0.00    -0.082 A 
ATOM     71  H27 PHE d   1      24.944   5.716 112.935  0.00  0.00     0.084 H 
ATOM     72  CZ  PHE d   1      28.227   5.035 112.617  0.00  0.00    -0.083 A 
ATOM     73  H29 PHE d   1      26.466   4.176 111.764  0.00  0.00     0.083 H 
ATOM     74  CE2 PHE d   1      28.733   6.004 113.463  0.00  0.00    -0.082 A 
ATOM     75  H31 PHE d   1      28.899   4.358 112.103  0.00  0.00     0.083 H 
ATOM     76  CD2 PHE d   1      27.873   6.869 114.121  0.00  0.00    -0.077 A 
ATOM     77  H30 PHE d   1      29.803   6.087 113.612  0.00  0.00     0.083 H 
ATOM     78  H28 PHE d   1      28.276   7.634 114.775  0.00  0.00     0.084 H 
ENDBRANCH  65  68
ENDBRANCH  12  65
ENDBRANCH   9  12
ENDBRANCH   5   8
ENDBRANCH   1   5
BRANCH   3  79
ATOM     79  CA  GLY d   1      22.888   9.569 118.336  0.00  0.00     0.069 C 
ATOM     80  H36 GLY d   1      21.799   9.548 118.180  0.00  0.00     0.078 H 
ATOM     81  H37 GLY d   1      23.110  10.021 119.314  0.00  0.00     0.078 H 
BRANCH  79  82
ATOM     82  C   GLY d   1      23.410   8.141 118.328  0.00  0.00     0.236 C 
ATOM     83  O   GLY d   1      24.319   7.805 117.568  0.00  0.00    -0.272 OA
ATOM     84  N   ASP d   1      22.826   7.301 119.180  0.00  0.00    -0.346 N 
ATOM     85  H38 ASP d   1      22.066   7.636 119.738  0.00  0.00     0.163 HD
BRANCH  84  86
ATOM     86  CA  ASP d   1      23.250   5.906 119.335  0.00  0.00     0.098 C 
ATOM     87  H39 ASP d   1      24.350   5.877 119.340  0.00  0.00     0.088 H 
BRANCH  86  88
ATOM     88  C   ASP d   1      22.750   5.025 118.181  0.00  0.00     0.243 C 
ATOM     89  O   ASP d   1      21.540   4.924 117.949  0.00  0.00    -0.271 OA
ATOM     90  N   PRO d   1      23.687   4.392 117.450  0.00  0.00    -0.337 N 
ATOM     91  CA  PRO d   1      23.355   3.472 116.358  0.00  0.00     0.091 C 
ATOM     92  CD  PRO d   1      25.142   4.627 117.533  0.00  0.00    -0.001 C 
ATOM     93  CB  PRO d   1      24.641   3.464 115.527  0.00  0.00    -0.036 C 
ATOM     94  H42 PRO d   1      22.494   3.838 115.779  0.00  0.00     0.087 H 
ATOM     95  CG  PRO d   1      25.715   3.632 116.544  0.00  0.00    -0.048 C 
ATOM     96  H43 PRO d   1      24.648   4.295 114.807  0.00  0.00     0.036 H 
ATOM     97  H44 PRO d   1      24.755   2.511 114.989  0.00  0.00     0.036 H 
ATOM     98  H45 PRO d   1      26.632   4.027 116.081  0.00  0.00     0.035 H 
ATOM     99  H46 PRO d   1      25.937   2.675 117.038  0.00  0.00     0.035 H 
ATOM    100  H47 PRO d   1      25.515   4.431 118.549  0.00  0.00     0.064 H 
ATOM    101  H48 PRO d   1      25.391   5.658 117.243  0.00  0.00     0.064 H 
BRANCH  91 102
ATOM    102  C   PRO d   1      23.085   2.059 116.851  0.00  0.00     0.241 C 
ATOM    103  O   PRO d   1      22.758   1.188 116.048  0.00  0.00    -0.271 OA
ATOM    104  N   PHE d   1      23.231   1.825 118.152  0.00  0.00    -0.346 N 
ATOM    105  H49 PHE d   1      23.376   2.591 118.778  0.00  0.00     0.163 HD
BRANCH 104 106
ATOM    106  CA  PHE d   1      23.182   0.461 118.681  0.00  0.00     0.093 C 
ATOM    107  H50 PHE d   1      23.219  -0.212 117.811  0.00  0.00     0.088 H 
BRANCH 106 108
ATOM    108  C   PHE d   1      21.883   0.128 119.430  0.00  0.00     0.241 C 
ATOM    109  O   PHE d   1      21.316  -0.951 119.240  0.00  0.00    -0.271 OA
ATOM    110  N   LYS d   1      21.420   1.054 120.269  0.00  0.00    -0.345 N 
ATOM    111  H58 LYS d   1      21.905   1.926 120.335  0.00  0.00     0.163 HD
BRANCH 110 112
ATOM    112  CA  LYS d   1      20.229   0.847 121.099  0.00  0.00     0.096 C 
ATOM    113  H59 LYS d   1      20.134   1.715 121.768  0.00  0.00     0.089 H 
BRANCH 112 114
ATOM    114  C   LYS d   1      20.365  -0.400 121.973  0.00  0.00     0.196 C 
ATOM    115  O   LYS d   1      21.479  -0.845 122.269  0.00  0.00    -0.646 OA
ATOM    116  OXT LYS d   1      19.363  -0.985 122.399  0.00  0.00    -0.646 OA
ENDBRANCH 112 114
BRANCH 112 117
ATOM    117  CB  LYS d   1      18.959   0.779 120.237  0.00  0.00    -0.037 C 
ATOM    118  H60 LYS d   1      18.087   0.771 120.908  0.00  0.00     0.036 H 
ATOM    119  H61 LYS d   1      18.985  -0.156 119.658  0.00  0.00     0.036 H 
BRANCH 117 120
ATOM    120  CG  LYS d   1      18.799   1.950 119.254  0.00  0.00    -0.061 C 
ATOM    121  H62 LYS d   1      17.889   1.791 118.657  0.00  0.00     0.033 H 
ATOM    122  H63 LYS d   1      19.674   1.978 118.588  0.00  0.00     0.033 H 
BRANCH 120 123
ATOM    123  CD  LYS d   1      18.686   3.302 119.984  0.00  0.00    -0.043 C 
ATOM    124  H64 LYS d   1      19.547   3.416 120.659  0.00  0.00     0.035 H 
ATOM    125  H65 LYS d   1      17.756   3.314 120.571  0.00  0.00     0.035 H 
BRANCH 123 126
ATOM    126  CE  LYS d   1      18.668   4.480 118.994  0.00  0.00     0.080 C 
ATOM    127  H66 LYS d   1      17.783   4.380 118.349  0.00  0.00     0.075 H 
ATOM    128  H67 LYS d   1      19.578   4.432 118.378  0.00  0.00     0.075 H 
BRANCH 126 129
ATOM    129  NZ  LYS d   1      18.618   5.822 119.667  0.00  0.00    -0.079 N 
ATOM    130  H68 LYS d   1      18.608   6.548 118.968  0.00  0.00     0.274 HD
ATOM    131  H69 LYS d   1      19.429   5.933 120.256  0.00  0.00     0.274 HD
ATOM    132  H70 LYS d   1      17.784   5.885 120.229  0.00  0.00     0.274 HD
ENDBRANCH 126 129
ENDBRANCH 123 126
ENDBRANCH 120 123
ENDBRANCH 117 120
ENDBRANCH 112 117
ENDBRANCH 110 112
ENDBRANCH 106 108
BRANCH 106 133
ATOM    133  CB  PHE d   1      24.428   0.154 119.540  0.00  0.00    -0.014 C 
ATOM    134  H51 PHE d   1      24.282  -0.822 120.026  0.00  0.00     0.043 H 
ATOM    135  H52 PHE d   1      24.521   0.936 120.308  0.00  0.00     0.043 H 
BRANCH 133 136
ATOM    136  CG  PHE d   1      25.721   0.105 118.750  0.00  0.00    -0.056 A 
ATOM    137  CD1 PHE d   1      26.048  -1.011 117.996  0.00  0.00    -0.077 A 
ATOM    138  CE1 PHE d   1      27.218  -1.055 117.280  0.00  0.00    -0.082 A 
ATOM    139  H53 PHE d   1      25.372  -1.858 117.972  0.00  0.00     0.084 H 
ATOM    140  CZ  PHE d   1      28.083   0.022 117.306  0.00  0.00    -0.083 A 
ATOM    141  H55 PHE d   1      27.463  -1.934 116.695  0.00  0.00     0.083 H 
ATOM    142  CE2 PHE d   1      27.776   1.137 118.048  0.00  0.00    -0.082 A 
ATOM    143  H57 PHE d   1      29.006  -0.013 116.739  0.00  0.00     0.083 H 
ATOM    144  CD2 PHE d   1      26.606   1.178 118.763  0.00  0.00    -0.077 A 
ATOM    145  H56 PHE d   1      28.456   1.981 118.068  0.00  0.00     0.083 H 
ATOM    146  H54 PHE d   1      26.368   2.060 119.347  0.00  0.00     0.084 H 
ENDBRANCH 133 136
ENDBRANCH 106 133
ENDBRANCH 104 106
ENDBRANCH  91 102
ENDBRANCH  86  88
BRANCH  86 147
ATOM    147  CB  ASP d   1      22.737   5.355 120.671  0.00  0.00     0.043 C 
ATOM    148  H40 ASP d   1      21.738   4.925 120.511  0.00  0.00     0.052 H 
ATOM    149  H41 ASP d   1      22.668   6.186 121.388  0.00  0.00     0.052 H 
BRANCH 147 150
ATOM    150  CG  ASP d   1      23.643   4.273 121.266  0.00  0.00     0.175 C 
ATOM    151  OD1 ASP d   1      23.797   4.247 122.504  0.00  0.00    -0.648 OA
ATOM    152  OD2 ASP d   1      24.186   3.439 120.517  0.00  0.00    -0.648 OA
ENDBRANCH 147 150
ENDBRANCH  86 147
ENDBRANCH  84  86
ENDBRANCH  79  82
ENDBRANCH   3  79
TORSDOF 34
