REMARK WARNING: 32 MAX_TORS EXCEEDED!!!
REMARK  39 active torsions:
REMARK  status: ('A' for Active; 'I' for Inactive)
REMARK    1  A    between atoms: N_1  and  CA_2 
REMARK    2  A    between atoms: CA_2  and  C_3 
REMARK    3  A    between atoms: CA_2  and  CB_5 
REMARK       I    between atoms: C_3  and  N_13 
REMARK    4  A    between atoms: CB_5  and  CG_6 
REMARK    5  A    between atoms: CZ_11  and  OH_12 
REMARK    6  A    between atoms: N_13  and  CA_14 
REMARK    7  A    between atoms: CA_14  and  C_15 
REMARK    8  A    between atoms: CA_14  and  CB_17 
REMARK       I    between atoms: C_15  and  N_21 
REMARK    9  A    between atoms: CB_17  and  CG_18 
REMARK   10  A    between atoms: CA_22  and  C_23 
REMARK       I    between atoms: C_23  and  N_28 
REMARK   11  A    between atoms: N_28  and  CA_29 
REMARK   12  A    between atoms: CA_29  and  C_30 
REMARK   13  A    between atoms: CA_29  and  CB_32 
REMARK       I    between atoms: C_30  and  N_39 
REMARK   14  A    between atoms: CB_32  and  CG_33 
REMARK   15  A    between atoms: N_39  and  CA_40 
REMARK   16  A    between atoms: CA_40  and  C_41 
REMARK   17  A    between atoms: CA_40  and  CB_43 
REMARK       I    between atoms: C_41  and  N_48 
REMARK   18  A    between atoms: CB_43  and  CG_44 
REMARK   19  A    between atoms: CG_44  and  CD_45 
REMARK   20  A    between atoms: CD_45  and  CE_46 
REMARK   21  A    between atoms: CE_46  and  NZ_47 
REMARK   22  A    between atoms: N_48  and  CA_49 
REMARK   23  A    between atoms: CA_49  and  C_50 
REMARK       I    between atoms: C_50  and  N_52 
REMARK   24  A    between atoms: N_52  and  CA_53 
REMARK   25  A    between atoms: CA_53  and  C_54 
REMARK   26  A    between atoms: CA_53  and  CB_56 
REMARK       I    between atoms: C_54  and  N_58 
REMARK   27  A    between atoms: CB_56  and  OG_57 
REMARK   28  A    between atoms: N_58  and  CA_59 
REMARK   29  A    between atoms: CA_59  and  C_60 
REMARK   30  A    between atoms: CA_59  and  CB_62 
REMARK       I    between atoms: C_60  and  N_66 
REMARK   31  A    between atoms: CB_62  and  CG_63 
REMARK   32  A    between atoms: CA_67  and  C_68 
REMARK       I    between atoms: C_68  and  N_73 
REMARK   33  A    between atoms: N_73  and  CA_74 
REMARK   34  A    between atoms: CA_74  and  C_75 
REMARK   35  A    between atoms: CA_74  and  CB_77 
REMARK       I    between atoms: C_75  and  N_84 
REMARK   36  A    between atoms: CB_77  and  CG_78 
REMARK   37  A    between atoms: N_84  and  CA_85 
REMARK   38  A    between atoms: CA_85  and  C_86 
REMARK   39  A    between atoms: CA_85  and  CB_88 
ROOT
ATOM      1  CA  LYS d   1      24.985  11.716 116.723  0.00  0.00     0.089 C 
ATOM      2  H33 LYS d   1      24.755  11.102 117.606  0.00  0.00     0.087 H 
ENDROOT
BRANCH   1   3
ATOM      3  N   LYS d   1      25.690  10.870 115.757  0.00  0.00    -0.346 N 
ATOM      4  C   PHE d   1      25.111   9.824 115.172  0.00  0.00     0.241 C 
ATOM      5  O   PHE d   1      23.927   9.541 115.320  0.00  0.00    -0.271 OA
ATOM      6  H32 LYS d   1      26.640  11.086 115.529  0.00  0.00     0.163 HD
BRANCH   4   7
ATOM      7  CA  PHE d   1      25.996   8.946 114.298  0.00  0.00     0.093 C 
ATOM      8  H24 PHE d   1      25.410   8.652 113.415  0.00  0.00     0.088 H 
BRANCH   7   9
ATOM      9  N   PHE d   1      27.200   9.621 113.820  0.00  0.00    -0.346 N 
ATOM     10  C   PRO d   1      27.221  10.223 112.633  0.00  0.00     0.241 C 
ATOM     11  O   PRO d   1      26.238  10.287 111.887  0.00  0.00    -0.271 OA
ATOM     12  H23 PHE d   1      28.020   9.631 114.392  0.00  0.00     0.163 HD
BRANCH  10  13
ATOM     13  CA  PRO d   1      28.535  10.868 112.201  0.00  0.00     0.091 C 
ATOM     14  N   PRO d   1      29.401  11.229 113.330  0.00  0.00    -0.337 N 
ATOM     15  C   ASP d   1      29.068  12.221 114.168  0.00  0.00     0.243 C 
ATOM     16  CD  PRO d   1      30.697  10.528 113.294  0.00  0.00    -0.001 C 
ATOM     17  O   ASP d   1      28.002  12.840 114.081  0.00  0.00    -0.271 OA
ATOM     18  CG  PRO d   1      30.453   9.402 112.348  0.00  0.00    -0.048 C 
ATOM     19  H21 PRO d   1      30.970  10.152 114.291  0.00  0.00     0.064 H 
ATOM     20  H22 PRO d   1      31.493  11.190 112.921  0.00  0.00     0.064 H 
ATOM     21  CB  PRO d   1      29.390   9.876 111.400  0.00  0.00    -0.036 C 
ATOM     22  H19 PRO d   1      31.374   9.159 111.798  0.00  0.00     0.035 H 
ATOM     23  H20 PRO d   1      30.107   8.512 112.895  0.00  0.00     0.035 H 
ATOM     24  H17 PRO d   1      29.845  10.375 110.532  0.00  0.00     0.036 H 
ATOM     25  H18 PRO d   1      28.776   9.030 111.057  0.00  0.00     0.036 H 
ATOM     26  H16 PRO d   1      28.308  11.759 111.598  0.00  0.00     0.087 H 
BRANCH  15  27
ATOM     27  CA  ASP d   1      30.080  12.556 115.261  0.00  0.00     0.099 C 
ATOM     28  H13 ASP d   1      30.949  11.895 115.130  0.00  0.00     0.088 H 
BRANCH  27  29
ATOM     29  N   ASP d   1      30.556  13.934 115.180  0.00  0.00    -0.345 N 
ATOM     30  C   TYR d   1      31.800  14.207 114.803  0.00  0.00     0.249 C 
ATOM     31  O   TYR d   1      32.609  13.334 114.494  0.00  0.00    -0.271 OA
ATOM     32  H12 ASP d   1      29.936  14.684 115.412  0.00  0.00     0.163 HD
BRANCH  30  33
ATOM     33  CA  TYR d   1      32.189  15.679 114.736  0.00  0.00     0.179 C 
ATOM     34  H4  TYR d   1      31.323  16.279 115.052  0.00  0.00     0.099 H 
BRANCH  33  35
ATOM     35  N   TYR d   1      33.304  16.005 115.623  0.00  0.00    -0.066 N 
ATOM     36  H1  TYR d   1      33.522  16.986 115.542  0.00  0.00     0.275 HD
ATOM     37  H2  TYR d   1      34.111  15.459 115.363  0.00  0.00     0.275 HD
ATOM     38  H3  TYR d   1      33.048  15.795 116.575  0.00  0.00     0.275 HD
ENDBRANCH  33  35
BRANCH  33  39
ATOM     39  CB  TYR d   1      32.518  16.026 113.283  0.00  0.00    -0.006 C 
ATOM     40  H5  TYR d   1      33.531  15.666 113.050  0.00  0.00     0.043 H 
ATOM     41  H6  TYR d   1      32.480  17.118 113.159  0.00  0.00     0.043 H 
BRANCH  39  42
ATOM     42  CG  TYR d   1      31.538  15.389 112.325  0.00  0.00    -0.056 A 
ATOM     43  CD1 TYR d   1      31.884  14.265 111.587  0.00  0.00    -0.074 A 
ATOM     44  CE1 TYR d   1      30.977  13.667 110.730  0.00  0.00    -0.051 A 
ATOM     45  H7  TYR d   1      32.880  13.849 111.684  0.00  0.00     0.084 H 
ATOM     46  CZ  TYR d   1      29.704  14.190 110.610  0.00  0.00     0.065 A 
ATOM     47  H9  TYR d   1      31.264  12.793 110.156  0.00  0.00     0.087 H 
ATOM     48  CE2 TYR d   1      29.335  15.300 111.338  0.00  0.00    -0.051 A 
ATOM     49  CD2 TYR d   1      30.247  15.888 112.191  0.00  0.00    -0.074 A 
ATOM     50  H10 TYR d   1      28.336  15.709 111.242  0.00  0.00     0.087 H 
ATOM     51  H8  TYR d   1      29.951  16.756 112.768  0.00  0.00     0.084 H 
BRANCH  46  52
ATOM     52  OH  TYR d   1      28.795  13.605 109.754  0.00  0.00    -0.361 OA
ATOM     53  H11 TYR d   1      29.198  12.857 109.329  0.00  0.00     0.217 HD
ENDBRANCH  46  52
ENDBRANCH  39  42
ENDBRANCH  33  39
ENDBRANCH  30  33
ENDBRANCH  27  29
BRANCH  27  54
ATOM     54  CB  ASP d   1      29.470  12.276 116.628  0.00  0.00     0.043 C 
ATOM     55  H14 ASP d   1      28.637  12.975 116.793  0.00  0.00     0.052 H 
ATOM     56  H15 ASP d   1      30.240  12.434 117.398  0.00  0.00     0.052 H 
BRANCH  54  57
ATOM     57  CG  ASP d   1      28.948  10.863 116.747  0.00  0.00     0.175 C 
ATOM     58  OD1 ASP d   1      27.987  10.650 117.507  0.00  0.00    -0.648 OA
ATOM     59  OD2 ASP d   1      29.499   9.961 116.081  0.00  0.00    -0.648 OA
ENDBRANCH  54  57
ENDBRANCH  27  54
ENDBRANCH  15  27
ENDBRANCH  10  13
ENDBRANCH   7   9
BRANCH   7  60
ATOM     60  CB  PHE d   1      26.362   7.684 115.075  0.00  0.00    -0.014 C 
ATOM     61  H25 PHE d   1      25.433   7.165 115.352  0.00  0.00     0.043 H 
ATOM     62  H26 PHE d   1      26.901   7.981 115.987  0.00  0.00     0.043 H 
BRANCH  60  63
ATOM     63  CG  PHE d   1      27.221   6.736 114.308  0.00  0.00    -0.056 A 
ATOM     64  CD1 PHE d   1      26.678   5.955 113.307  0.00  0.00    -0.077 A 
ATOM     65  CE1 PHE d   1      27.463   5.081 112.581  0.00  0.00    -0.082 A 
ATOM     66  H27 PHE d   1      25.619   6.029 113.088  0.00  0.00     0.084 H 
ATOM     67  CZ  PHE d   1      28.794   4.977 112.854  0.00  0.00    -0.083 A 
ATOM     68  H29 PHE d   1      27.021   4.479 111.795  0.00  0.00     0.083 H 
ATOM     69  CE2 PHE d   1      29.356   5.743 113.861  0.00  0.00    -0.082 A 
ATOM     70  H31 PHE d   1      29.413   4.295 112.283  0.00  0.00     0.083 H 
ATOM     71  CD2 PHE d   1      28.570   6.620 114.583  0.00  0.00    -0.077 A 
ATOM     72  H30 PHE d   1      30.413   5.654 114.083  0.00  0.00     0.083 H 
ATOM     73  H28 PHE d   1      29.014   7.220 115.369  0.00  0.00     0.084 H 
ENDBRANCH  60  63
ENDBRANCH   7  60
ENDBRANCH   4   7
ENDBRANCH   1   3
BRANCH   1  74
ATOM     74  C   LYS d   1      23.671  12.241 116.154  0.00  0.00     0.240 C 
ATOM     75  O   LYS d   1      23.635  12.747 115.030  0.00  0.00    -0.271 OA
ATOM     76  N   GLY d   1      22.593  12.110 116.926  0.00  0.00    -0.351 N 
ATOM     77  H45 GLY d   1      21.707  12.410 116.573  0.00  0.00     0.163 HD
BRANCH  76  78
ATOM     78  CA  GLY d   1      22.660  11.546 118.264  0.00  0.00     0.069 C 
ATOM     79  H46 GLY d   1      22.044  12.169 118.929  0.00  0.00     0.078 H 
ATOM     80  H47 GLY d   1      23.708  11.579 118.597  0.00  0.00     0.078 H 
BRANCH  78  81
ATOM     81  C   GLY d   1      22.174  10.112 118.375  0.00  0.00     0.236 C 
ATOM     82  O   GLY d   1      22.303   9.489 119.432  0.00  0.00    -0.272 OA
ATOM     83  N   SER d   1      21.623   9.590 117.280  0.00  0.00    -0.344 N 
ATOM     84  H48 SER d   1      21.599  10.141 116.446  0.00  0.00     0.163 HD
BRANCH  83  85
ATOM     85  CA  SER d   1      21.052   8.244 117.247  0.00  0.00     0.109 C 
ATOM     86  H49 SER d   1      20.200   8.221 117.942  0.00  0.00     0.090 H 
BRANCH  85  87
ATOM     87  C   SER d   1      22.051   7.186 117.691  0.00  0.00     0.243 C 
ATOM     88  O   SER d   1      23.263   7.391 117.632  0.00  0.00    -0.271 OA
ATOM     89  N   ASP d   1      21.534   6.050 118.139  0.00  0.00    -0.345 N 
ATOM     90  H53 ASP d   1      20.541   5.931 118.160  0.00  0.00     0.163 HD
BRANCH  89  91
ATOM     91  CA  ASP d   1      22.397   4.977 118.599  0.00  0.00     0.099 C 
ATOM     92  H54 ASP d   1      23.404   5.393 118.747  0.00  0.00     0.088 H 
BRANCH  91  93
ATOM     93  C   ASP d   1      22.492   3.865 117.566  0.00  0.00     0.243 C 
ATOM     94  O   ASP d   1      21.471   3.366 117.083  0.00  0.00    -0.271 OA
ATOM     95  N   PRO d   1      23.731   3.487 117.220  0.00  0.00    -0.337 N 
ATOM     96  CA  PRO d   1      24.067   2.422 116.266  0.00  0.00     0.091 C 
ATOM     97  CD  PRO d   1      24.922   4.241 117.642  0.00  0.00    -0.001 C 
ATOM     98  CB  PRO d   1      25.581   2.587 116.070  0.00  0.00    -0.036 C 
ATOM     99  H57 PRO d   1      23.527   2.575 115.320  0.00  0.00     0.087 H 
ATOM    100  CG  PRO d   1      25.898   3.951 116.553  0.00  0.00    -0.048 C 
ATOM    101  H58 PRO d   1      25.844   2.485 115.007  0.00  0.00     0.036 H 
ATOM    102  H59 PRO d   1      26.129   1.835 116.657  0.00  0.00     0.036 H 
ATOM    103  H60 PRO d   1      25.787   4.680 115.737  0.00  0.00     0.035 H 
ATOM    104  H61 PRO d   1      26.926   3.989 116.942  0.00  0.00     0.035 H 
ATOM    105  H62 PRO d   1      25.294   3.883 118.613  0.00  0.00     0.064 H 
ATOM    106  H63 PRO d   1      24.707   5.318 117.706  0.00  0.00     0.064 H 
BRANCH  96 107
ATOM    107  C   PRO d   1      23.768   1.011 116.789  0.00  0.00     0.241 C 
ATOM    108  O   PRO d   1      23.556   0.096 115.992  0.00  0.00    -0.271 OA
ATOM    109  N   PHE d   1      23.757   0.832 118.105  0.00  0.00    -0.346 N 
ATOM    110  H64 PHE d   1      23.889   1.615 118.713  0.00  0.00     0.163 HD
BRANCH 109 111
ATOM    111  CA  PHE d   1      23.554  -0.500 118.671  0.00  0.00     0.093 C 
ATOM    112  H65 PHE d   1      23.497  -1.214 117.837  0.00  0.00     0.088 H 
BRANCH 111 113
ATOM    113  C   PHE d   1      22.232  -0.587 119.445  0.00  0.00     0.241 C 
ATOM    114  O   PHE d   1      22.222  -0.755 120.665  0.00  0.00    -0.271 OA
ATOM    115  N   ALA d   1      21.121  -0.468 118.720  0.00  0.00    -0.345 N 
ATOM    116  H73 ALA d   1      21.200  -0.368 117.728  0.00  0.00     0.163 HD
BRANCH 115 117
ATOM    117  CA  ALA d   1      19.790  -0.478 119.325  0.00  0.00     0.093 C 
ATOM    118  H74 ALA d   1      19.830  -1.099 120.232  0.00  0.00     0.089 H 
BRANCH 117 119
ATOM    119  C   ALA d   1      18.756  -1.083 118.379  0.00  0.00     0.196 C 
ATOM    120  O   ALA d   1      19.009  -1.237 117.183  0.00  0.00    -0.646 OA
ATOM    121  OXT ALA d   1      17.648  -1.429 118.793  0.00  0.00    -0.646 OA
ENDBRANCH 117 119
BRANCH 117 122
ATOM    122  CB  ALA d   1      19.380   0.931 119.728  0.00  0.00    -0.048 C 
ATOM    123  H75 ALA d   1      18.378   0.906 120.181  0.00  0.00     0.030 H 
ATOM    124  H76 ALA d   1      19.364   1.577 118.838  0.00  0.00     0.030 H 
ATOM    125  H77 ALA d   1      20.102   1.329 120.457  0.00  0.00     0.030 H 
ENDBRANCH 117 122
ENDBRANCH 115 117
ENDBRANCH 111 113
BRANCH 111 126
ATOM    126  CB  PHE d   1      24.752  -0.897 119.546  0.00  0.00    -0.014 C 
ATOM    127  H66 PHE d   1      24.640  -1.954 119.830  0.00  0.00     0.043 H 
ATOM    128  H67 PHE d   1      24.743  -0.272 120.451  0.00  0.00     0.043 H 
BRANCH 126 129
ATOM    129  CG  PHE d   1      26.093  -0.726 118.859  0.00  0.00    -0.056 A 
ATOM    130  CD1 PHE d   1      26.515  -1.624 117.882  0.00  0.00    -0.077 A 
ATOM    131  CE1 PHE d   1      27.747  -1.467 117.242  0.00  0.00    -0.082 A 
ATOM    132  H68 PHE d   1      25.877  -2.458 117.614  0.00  0.00     0.084 H 
ATOM    133  CZ  PHE d   1      28.567  -0.412 117.581  0.00  0.00    -0.083 A 
ATOM    134  H70 PHE d   1      28.057  -2.173 116.481  0.00  0.00     0.083 H 
ATOM    135  CE2 PHE d   1      28.164   0.488 118.552  0.00  0.00    -0.082 A 
ATOM    136  H72 PHE d   1      29.525  -0.288 117.088  0.00  0.00     0.083 H 
ATOM    137  CD2 PHE d   1      26.932   0.329 119.190  0.00  0.00    -0.077 A 
ATOM    138  H71 PHE d   1      28.807   1.319 118.818  0.00  0.00     0.083 H 
ATOM    139  H69 PHE d   1      26.628   1.037 119.952  0.00  0.00     0.084 H 
ENDBRANCH 126 129
ENDBRANCH 111 126
ENDBRANCH 109 111
ENDBRANCH  96 107
ENDBRANCH  91  93
BRANCH  91 140
ATOM    140  CB  ASP d   1      21.914   4.416 119.935  0.00  0.00     0.043 C 
ATOM    141  H55 ASP d   1      20.956   3.900 119.776  0.00  0.00     0.052 H 
ATOM    142  H56 ASP d   1      21.769   5.250 120.637  0.00  0.00     0.052 H 
BRANCH 140 143
ATOM    143  CG  ASP d   1      22.902   3.435 120.540  0.00  0.00     0.175 C 
ATOM    144  OD1 ASP d   1      22.825   2.231 120.218  0.00  0.00    -0.648 OA
ATOM    145  OD2 ASP d   1      23.763   3.869 121.333  0.00  0.00    -0.648 OA
ENDBRANCH 140 143
ENDBRANCH  91 140
ENDBRANCH  89  91
ENDBRANCH  85  87
BRANCH  85 146
ATOM    146  CB  SER d   1      20.539   7.912 115.843  0.00  0.00     0.044 C 
ATOM    147  H50 SER d   1      19.990   6.959 115.879  0.00  0.00     0.077 H 
ATOM    148  H51 SER d   1      21.398   7.816 115.162  0.00  0.00     0.077 H 
BRANCH 146 149
ATOM    149  OG  SER d   1      19.674   8.924 115.354  0.00  0.00    -0.398 OA
ATOM    150  H52 SER d   1      19.374   8.689 114.484  0.00  0.00     0.209 HD
ENDBRANCH 146 149
ENDBRANCH  85 146
ENDBRANCH  83  85
ENDBRANCH  78  81
ENDBRANCH  76  78
ENDBRANCH   1  74
BRANCH   1 151
ATOM    151  CB  LYS d   1      25.869  12.889 117.169  0.00  0.00    -0.038 C 
ATOM    152  H34 LYS d   1      25.611  13.768 116.560  0.00  0.00     0.036 H 
ATOM    153  H35 LYS d   1      26.920  12.617 116.993  0.00  0.00     0.036 H 
BRANCH 151 154
ATOM    154  CG  LYS d   1      25.710  13.260 118.637  0.00  0.00    -0.061 C 
ATOM    155  H36 LYS d   1      24.693  13.646 118.802  0.00  0.00     0.033 H 
ATOM    156  H37 LYS d   1      26.444  14.039 118.892  0.00  0.00     0.033 H 
BRANCH 154 157
ATOM    157  CD  LYS d   1      25.936  12.045 119.542  0.00  0.00    -0.043 C 
ATOM    158  H38 LYS d   1      27.008  11.798 119.544  0.00  0.00     0.035 H 
ATOM    159  H39 LYS d   1      25.365  11.194 119.143  0.00  0.00     0.035 H 
BRANCH 157 160
ATOM    160  CE  LYS d   1      25.488  12.309 120.980  0.00  0.00     0.080 C 
ATOM    161  H40 LYS d   1      24.433  12.619 120.969  0.00  0.00     0.075 H 
ATOM    162  H41 LYS d   1      26.104  13.119 121.398  0.00  0.00     0.075 H 
BRANCH 160 163
ATOM    163  NZ  LYS d   1      25.625  11.103 121.853  0.00  0.00    -0.079 N 
ATOM    164  H42 LYS d   1      25.318  11.328 122.787  0.00  0.00     0.274 HD
ATOM    165  H43 LYS d   1      26.590  10.813 121.877  0.00  0.00     0.274 HD
ATOM    166  H44 LYS d   1      25.059  10.355 121.484  0.00  0.00     0.274 HD
ENDBRANCH 160 163
ENDBRANCH 157 160
ENDBRANCH 154 157
ENDBRANCH 151 154
ENDBRANCH   1 151
TORSDOF 39
