REMARK  8 active torsions:
REMARK  status: ('A' for Active; 'I' for Inactive)
REMARK    1  A    between atoms: C17_3  and  N2_27 
REMARK    2  A    between atoms: C19_7  and  O2_26 
REMARK    3  A    between atoms: C8_15  and  C4_11 
REMARK    4  A    between atoms: N3_30  and  C9_14 
REMARK    5  A    between atoms: O2_26  and  C24_16 
REMARK    6  A    between atoms: C6_17  and  O1_23 
REMARK    7  A    between atoms: O1_23  and  C13_24 
REMARK    8  A    between atoms: C15_25  and  N3_30 
ROOT
ATOM      1  C3  4KT d   1      -6.853 -53.913 -31.110  0.00  0.00    -0.060 A 
ATOM      2  C2  4KT d   1      -7.387 -53.437 -28.863  0.00  0.00    -0.050 A 
ATOM      3  C4  4KT d   1      -8.733 -53.862 -28.958  0.00  0.00     0.009 A 
ATOM      4  C5  4KT d   1      -8.190 -54.340 -31.283  0.00  0.00    -0.049 A 
ATOM      5  C6  4KT d   1      -9.154 -54.328 -30.262  0.00  0.00     0.079 A 
ATOM      6  C1  4KT d   1      -6.388 -53.431 -29.868  0.00  0.00     0.045 A 
ATOM      7  C12 4KT d   1      -5.012 -52.965 -29.615  0.00  0.00     0.099 C 
ATOM      8  N4  4KT d   1      -3.930 -52.593 -29.385  0.00  0.00    -0.191 NA
ATOM      9  H10 4KT d   1      -6.170 -53.957 -31.951  0.00  0.00     0.086 H 
ATOM     10  H11 4KT d   1      -7.079 -53.067 -27.892  0.00  0.00     0.087 H 
ATOM     11  H12 4KT d   1      -8.488 -54.698 -32.262  0.00  0.00     0.087 H 
ENDROOT
BRANCH   3  12
ATOM     12  C8  4KT d   1      -9.674 -53.761 -27.764  0.00  0.00    -0.018 A 
ATOM     13  C7  4KT d   1     -10.792 -54.591 -27.559  0.00  0.00    -0.028 A 
ATOM     14  C9  4KT d   1     -11.694 -54.437 -26.428  0.00  0.00     0.128 A 
ATOM     15  H17 4KT d   1     -10.990 -55.380 -28.276  0.00  0.00     0.090 H 
ATOM     16  N1  4KT d   1     -11.431 -53.453 -25.513  0.00  0.00    -0.243 NA
ATOM     17  C11 4KT d   1     -10.354 -52.649 -25.707  0.00  0.00     0.005 A 
ATOM     18  C10 4KT d   1      -9.478 -52.768 -26.793  0.00  0.00    -0.055 A 
ATOM     19  H13 4KT d   1     -10.161 -51.870 -24.979  0.00  0.00     0.114 H 
ATOM     20  H18 4KT d   1      -8.640 -52.086 -26.884  0.00  0.00     0.087 H 
BRANCH  14  21
ATOM     21  N3  4KT d   1     -12.860 -55.263 -26.193  0.00  0.00    -0.341 N 
ATOM     22  H24 4KT d   1     -13.201 -55.227 -25.222  0.00  0.00     0.167 HD
BRANCH  21  23
ATOM     23  C15 4KT d   1     -13.657 -56.146 -27.065  0.00  0.00     0.036 A 
ATOM     24  C14 4KT d   1     -13.447 -56.186 -28.473  0.00  0.00    -0.055 A 
ATOM     25  C16 4KT d   1     -14.196 -57.036 -29.312  0.00  0.00    -0.052 A 
ATOM     26  H1  4KT d   1     -12.691 -55.545 -28.912  0.00  0.00     0.087 H 
ATOM     27  C17 4KT d   1     -15.213 -57.888 -28.815  0.00  0.00     0.064 A 
ATOM     28  H2  4KT d   1     -13.986 -57.038 -30.375  0.00  0.00     0.087 H 
ATOM     29  C19 4KT d   1     -15.433 -57.857 -27.411  0.00  0.00     0.096 A 
ATOM     30  C18 4KT d   1     -14.668 -57.012 -26.593  0.00  0.00    -0.023 A 
ATOM     31  H9  4KT d   1     -14.866 -57.025 -25.527  0.00  0.00     0.091 H 
BRANCH  27  32
ATOM     32  N2  4KT d   1     -15.956 -58.753 -29.682  0.00  0.00    -0.375 N 
ATOM     33  C20 4KT d   1     -15.685 -60.189 -29.749  0.00  0.00     0.015 C 
ATOM     34  C22 4KT d   1     -16.451 -61.029 -30.850  0.00  0.00     0.034 C 
ATOM     35  H7  4KT d   1     -14.607 -60.312 -29.932  0.00  0.00     0.067 H 
ATOM     36  H8  4KT d   1     -15.942 -60.618 -28.770  0.00  0.00     0.067 H 
ATOM     37  O3  4KT d   1     -17.129 -60.184 -31.753  0.00  0.00    -0.388 OA
ATOM     38  H3  4KT d   1     -17.181 -61.687 -30.356  0.00  0.00     0.076 H 
ATOM     39  H4  4KT d   1     -15.724 -61.640 -31.406  0.00  0.00     0.076 H 
ATOM     40  C21 4KT d   1     -18.046 -59.440 -30.960  0.00  0.00     0.034 C 
ATOM     41  C23 4KT d   1     -17.359 -58.466 -29.938  0.00  0.00     0.015 C 
ATOM     42  H5  4KT d   1     -18.671 -60.149 -30.397  0.00  0.00     0.076 H 
ATOM     43  H6  4KT d   1     -18.681 -58.845 -31.632  0.00  0.00     0.076 H 
ATOM     44  H22 4KT d   1     -17.902 -58.530 -28.984  0.00  0.00     0.067 H 
ATOM     45  H23 4KT d   1     -17.434 -57.443 -30.335  0.00  0.00     0.067 H 
ENDBRANCH  27  32
BRANCH  29  46
ATOM     46  O2  4KT d   1     -16.418 -58.678 -26.844  0.00  0.00    -0.354 OA
BRANCH  46  47
ATOM     47  C24 4KT d   1     -16.819 -58.433 -25.481  0.00  0.00     0.010 C 
ATOM     48  H14 4KT d   1     -17.593 -59.158 -25.191  0.00  0.00     0.066 H 
ATOM     49  H15 4KT d   1     -17.221 -57.413 -25.395  0.00  0.00     0.066 H 
ATOM     50  H16 4KT d   1     -15.948 -58.541 -24.817  0.00  0.00     0.066 H 
ENDBRANCH  46  47
ENDBRANCH  29  46
ENDBRANCH  21  23
ENDBRANCH  14  21
ENDBRANCH   3  12
BRANCH   5  51
ATOM     51  O1  4KT d   1     -10.460 -54.776 -30.518  0.00  0.00    -0.355 OA
BRANCH  51  52
ATOM     52  C13 4KT d   1     -10.857 -55.296 -31.786  0.00  0.00     0.010 C 
ATOM     53  H19 4KT d   1     -11.919 -55.581 -31.749  0.00  0.00     0.066 H 
ATOM     54  H20 4KT d   1     -10.248 -56.180 -32.027  0.00  0.00     0.066 H 
ATOM     55  H21 4KT d   1     -10.710 -54.528 -32.560  0.00  0.00     0.066 H 
ENDBRANCH  51  52
ENDBRANCH   5  51
TORSDOF 8
