REMARK  19 active torsions:
REMARK  status: ('A' for Active; 'I' for Inactive)
REMARK    1  A    between atoms: N_1  and  CA_2 
REMARK    2  A    between atoms: CA_2  and  C_3 
REMARK    3  A    between atoms: CA_2  and  CB_5 
REMARK       I    between atoms: C_3  and  N_9 
REMARK    4  A    between atoms: CB_5  and  CG_6 
REMARK    5  A    between atoms: N_9  and  CA_10 
REMARK    6  A    between atoms: CA_10  and  C_11 
REMARK       I    between atoms: C_11  and  N_13 
REMARK    7  A    between atoms: N_13  and  CA_14 
REMARK    8  A    between atoms: CA_14  and  C_15 
REMARK    9  A    between atoms: CA_14  and  CB_17 
REMARK       I    between atoms: C_15  and  N_29 
REMARK   10  A    between atoms: CB_17  and  CG_18 
REMARK   11  A    between atoms: CZ_23  and  OH_24 
REMARK   12  A    between atoms: OH_24  and  P_25 
REMARK   13  A    between atoms: N_29  and  CA_30 
REMARK   14  A    between atoms: CA_30  and  C_31 
REMARK   15  A    between atoms: CA_30  and  CB_33 
REMARK       I    between atoms: C_31  and  N_37 
REMARK   16  A    between atoms: CB_33  and  CG_34 
REMARK   17  A    between atoms: CG_34  and  SD_35 
REMARK   18  A    between atoms: SD_35  and  CE_36 
REMARK   19  A    between atoms: CA_38  and  C_39 
ROOT
ATOM      1  CA  PTR d   1      27.997   7.813   4.684  0.00  0.00     0.093 C 
ATOM      2  H11 PTR d   1      27.455   8.733   4.949  0.00  0.00     0.088 H 
ENDROOT
BRANCH   1   3
ATOM      3  N   PTR d   1      27.417   7.219   3.492  0.00  0.00    -0.346 N 
ATOM      4  C   GLY d   1      26.625   7.905   2.678  0.00  0.00     0.236 C 
ATOM      5  O   GLY d   1      26.302   9.073   2.883  0.00  0.00    -0.272 OA
ATOM      6  H10 PTR d   1      27.621   6.264   3.278  0.00  0.00     0.163 HD
BRANCH   4   7
ATOM      7  CA  GLY d   1      26.125   7.149   1.464  0.00  0.00     0.069 C 
ATOM      8  H8  GLY d   1      26.983   6.638   1.002  0.00  0.00     0.078 H 
ATOM      9  H9  GLY d   1      25.392   6.402   1.804  0.00  0.00     0.078 H 
BRANCH   7  10
ATOM     10  N   GLY d   1      25.488   7.980   0.445  0.00  0.00    -0.351 N 
ATOM     11  C   ASP d   1      24.476   7.512  -0.281  0.00  0.00     0.249 C 
ATOM     12  O   ASP d   1      23.970   6.407  -0.070  0.00  0.00    -0.271 OA
ATOM     13  H7  GLY d   1      25.817   8.912   0.291  0.00  0.00     0.163 HD
BRANCH  11  14
ATOM     14  CA  ASP d   1      23.941   8.403  -1.411  0.00  0.00     0.185 C 
ATOM     15  H4  ASP d   1      24.071   7.853  -2.355  0.00  0.00     0.100 H 
BRANCH  14  16
ATOM     16  N   ASP d   1      22.482   8.675  -1.243  0.00  0.00    -0.066 N 
ATOM     17  H1  ASP d   1      22.160   9.261  -1.998  0.00  0.00     0.275 HD
ATOM     18  H2  ASP d   1      22.327   9.144  -0.364  0.00  0.00     0.275 HD
ATOM     19  H3  ASP d   1      21.974   7.804  -1.254  0.00  0.00     0.275 HD
ENDBRANCH  14  16
BRANCH  14  20
ATOM     20  CB  ASP d   1      24.734   9.715  -1.526  0.00  0.00     0.050 C 
ATOM     21  H5  ASP d   1      25.089   9.821  -2.562  0.00  0.00     0.052 H 
ATOM     22  H6  ASP d   1      25.597   9.664  -0.846  0.00  0.00     0.052 H 
BRANCH  20  23
ATOM     23  CG  ASP d   1      23.905  10.943  -1.169  0.00  0.00     0.175 C 
ATOM     24  OD1 ASP d   1      24.502  11.975  -0.794  0.00  0.00    -0.648 OA
ATOM     25  OD2 ASP d   1      22.660  10.884  -1.272  0.00  0.00    -0.648 OA
ENDBRANCH  20  23
ENDBRANCH  14  20
ENDBRANCH  11  14
ENDBRANCH   7  10
ENDBRANCH   4   7
ENDBRANCH   1   3
BRANCH   1  26
ATOM     26  C   PTR d   1      29.434   8.141   4.387  0.00  0.00     0.241 C 
ATOM     27  O   PTR d   1      30.079   7.459   3.592  0.00  0.00    -0.271 OA
ATOM     28  N   MET d   1      29.945   9.194   5.015  0.00  0.00    -0.346 N 
ATOM     29  H18 MET d   1      29.360   9.726   5.628  0.00  0.00     0.163 HD
BRANCH  28  30
ATOM     30  CA  MET d   1      31.335   9.595   4.835  0.00  0.00     0.090 C 
ATOM     31  H19 MET d   1      31.690   9.210   3.868  0.00  0.00     0.087 H 
BRANCH  30  32
ATOM     32  C   MET d   1      32.204   9.011   5.944  0.00  0.00     0.243 C 
ATOM     33  O   MET d   1      31.741   8.832   7.071  0.00  0.00    -0.271 OA
ATOM     34  N   PRO d   1      33.472   8.705   5.623  0.00  0.00    -0.336 N 
ATOM     35  CA  PRO d   1      34.418   8.166   6.599  0.00  0.00     0.098 C 
ATOM     36  CD  PRO d   1      34.072   8.839   4.283  0.00  0.00    -0.001 C 
ATOM     37  CB  PRO d   1      35.611   7.743   5.735  0.00  0.00    -0.035 C 
ATOM     38  H27 PRO d   1      33.984   7.301   7.121  0.00  0.00     0.089 H 
ATOM     39  CG  PRO d   1      35.536   8.611   4.526  0.00  0.00    -0.048 C 
ATOM     40  H28 PRO d   1      35.530   6.682   5.455  0.00  0.00     0.036 H 
ATOM     41  H29 PRO d   1      36.556   7.909   6.272  0.00  0.00     0.036 H 
ATOM     42  H30 PRO d   1      35.995   8.107   3.662  0.00  0.00     0.035 H 
ATOM     43  H31 PRO d   1      36.049   9.567   4.707  0.00  0.00     0.035 H 
ATOM     44  H32 PRO d   1      33.894   9.844   3.872  0.00  0.00     0.064 H 
ATOM     45  H33 PRO d   1      33.666   8.084   3.594  0.00  0.00     0.064 H 
BRANCH  35  46
ATOM     46  C   PRO d   1      34.848   9.210   7.629  0.00  0.00     0.196 C 
ATOM     47  O   PRO d   1      35.029  10.384   7.302  0.00  0.00    -0.646 OA
ATOM     48  OXT PRO d   1      35.023   8.904   8.811  0.00  0.00    -0.646 OA
ENDBRANCH  35  46
ENDBRANCH  30  32
BRANCH  30  49
ATOM     49  CB  MET d   1      31.454  11.122   4.831  0.00  0.00    -0.030 C 
ATOM     50  H20 MET d   1      32.515  11.384   4.958  0.00  0.00     0.037 H 
ATOM     51  H21 MET d   1      30.875  11.514   5.680  0.00  0.00     0.037 H 
BRANCH  49  52
ATOM     52  CG  MET d   1      30.947  11.791   3.560  0.00  0.00    -0.021 C 
ATOM     53  H22 MET d   1      30.761  12.853   3.776  0.00  0.00     0.049 H 
ATOM     54  H23 MET d   1      30.005  11.307   3.263  0.00  0.00     0.049 H 
BRANCH  52  55
ATOM     55  SD  MET d   1      32.106  11.682   2.181  0.00  0.00    -0.173 SA
BRANCH  55  56
ATOM     56  CE  MET d   1      31.270  12.680   0.950  0.00  0.00    -0.035 C 
ATOM     57  H24 MET d   1      31.872  12.708   0.030  0.00  0.00     0.041 H 
ATOM     58  H25 MET d   1      31.140  13.703   1.334  0.00  0.00     0.041 H 
ATOM     59  H26 MET d   1      30.285  12.242   0.731  0.00  0.00     0.041 H 
ENDBRANCH  55  56
ENDBRANCH  52  55
ENDBRANCH  49  52
ENDBRANCH  30  49
ENDBRANCH  28  30
ENDBRANCH   1  26
BRANCH   1  60
ATOM     60  CB  PTR d   1      27.892   6.813   5.833  0.00  0.00    -0.014 C 
ATOM     61  H12 PTR d   1      28.405   7.224   6.715  0.00  0.00     0.043 H 
ATOM     62  H13 PTR d   1      28.374   5.870   5.535  0.00  0.00     0.043 H 
BRANCH  60  63
ATOM     63  CG  PTR d   1      26.443   6.540   6.184  0.00  0.00    -0.056 A 
ATOM     64  CD1 PTR d   1      25.692   7.520   6.818  0.00  0.00    -0.074 A 
ATOM     65  CE1 PTR d   1      24.364   7.279   7.147  0.00  0.00    -0.050 A 
ATOM     66  H14 PTR d   1      26.143   8.476   7.057  0.00  0.00     0.084 H 
ATOM     67  CZ  PTR d   1      23.772   6.060   6.852  0.00  0.00     0.082 A 
ATOM     68  H16 PTR d   1      23.785   8.052   7.639  0.00  0.00     0.087 H 
ATOM     69  CE2 PTR d   1      24.519   5.072   6.220  0.00  0.00    -0.050 A 
ATOM     70  CD2 PTR d   1      25.852   5.315   5.886  0.00  0.00    -0.074 A 
ATOM     71  H17 PTR d   1      24.067   4.115   5.987  0.00  0.00     0.087 H 
ATOM     72  H15 PTR d   1      26.432   4.544   5.391  0.00  0.00     0.084 H 
BRANCH  67  73
ATOM     73  OH  PTR d   1      22.458   5.876   7.204  0.00  0.00    -0.240 OA
BRANCH  73  74
ATOM     74  P   PTR d   1      21.623   4.518   6.957  0.00  0.00     0.427 P 
ATOM     75  O1P PTR d   1      21.571   4.390   5.457  0.00  0.00    -0.617 OA
ATOM     76  O2P PTR d   1      20.309   4.852   7.622  0.00  0.00    -0.617 OA
ATOM     77  O3P PTR d   1      22.400   3.415   7.634  0.00  0.00    -0.617 OA
ENDBRANCH  73  74
ENDBRANCH  67  73
ENDBRANCH  60  63
ENDBRANCH   1  60
TORSDOF 19
