REMARK  6 active torsions:
REMARK  status: ('A' for Active; 'I' for Inactive)
REMARK    1  A    between atoms: N21_26  and  C22_11 
REMARK    2  A    between atoms: N7_28  and  C4_12 
REMARK    3  A    between atoms: C13_13  and  N14_27 
REMARK    4  A    between atoms: C16_17  and  C17_15 
REMARK    5  A    between atoms: C29_18  and  O30_32 
REMARK    6  A    between atoms: O30_32  and  C31_23 
ROOT
ATOM      1  C28 4LK d   1       6.355  -3.290 -21.703  0.00  0.00     0.041 A 
ATOM      2  C16 4LK d   1       7.376  -2.640 -19.267  0.00  0.00     0.159 A 
ATOM      3  C29 4LK d   1       5.565  -3.696 -20.699  0.00  0.00     0.138 A 
ATOM      4  C32 4LK d   1       6.067  -3.363 -19.349  0.00  0.00     0.239 A 
ATOM      5  N15 4LK d   1       8.054  -2.311 -20.325  0.00  0.00    -0.161 NA
ATOM      6  N14 4LK d   1       7.549  -2.620 -21.546  0.00  0.00    -0.239 N 
ATOM      7  O33 4LK d   1       5.476  -3.660 -18.320  0.00  0.00    -0.283 OA
ATOM      8  H11 4LK d   1       6.029  -3.506 -22.719  0.00  0.00     0.119 H 
ENDROOT
BRANCH   6   9
ATOM      9  C13 4LK d   1       8.410  -2.202 -22.596  0.00  0.00     0.096 A 
ATOM     10  C6  4LK d   1       8.946  -0.929 -22.595  0.00  0.00    -0.050 A 
ATOM     11  C5  4LK d   1       9.837  -0.516 -23.565  0.00  0.00    -0.054 A 
ATOM     12  H7  4LK d   1       8.659  -0.236 -21.812  0.00  0.00     0.087 H 
ATOM     13  C4  4LK d   1      10.221  -1.379 -24.573  0.00  0.00     0.042 A 
ATOM     14  H6  4LK d   1      10.238   0.491 -23.536  0.00  0.00     0.087 H 
ATOM     15  C3  4LK d   1       9.679  -2.645 -24.602  0.00  0.00    -0.017 A 
ATOM     16  C2  4LK d   1       8.798  -3.046 -23.618  0.00  0.00     0.147 A 
ATOM     17  H9  4LK d   1       9.945  -3.329 -25.400  0.00  0.00     0.091 H 
ATOM     18  F1  4LK d   1       8.316  -4.294 -23.660  0.00  0.00    -0.204 F 
BRANCH  13  19
ATOM     19  N7  4LK d   1      11.141  -0.953 -25.561  0.00  0.00    -0.292 N 
ATOM     20  C11 4LK d   1      11.878  -1.781 -26.376  0.00  0.00     0.367 A 
ATOM     21  O12 4LK d   1      11.758  -2.988 -26.523  0.00  0.00    -0.238 OA
ATOM     22  O10 4LK d   1      12.812  -1.031 -27.045  0.00  0.00    -0.302 OA
ATOM     23  C9  4LK d   1      12.714   0.335 -26.634  0.00  0.00     0.046 A 
ATOM     24  C8  4LK d   1      11.593   0.408 -25.623  0.00  0.00     0.025 A 
ATOM     25  H14 4LK d   1      13.659   0.661 -26.175  0.00  0.00     0.077 H 
ATOM     26  H15 4LK d   1      12.486   0.975 -27.499  0.00  0.00     0.077 H 
ATOM     27  H12 4LK d   1      10.791   1.078 -25.966  0.00  0.00     0.068 H 
ATOM     28  H13 4LK d   1      11.962   0.749 -24.645  0.00  0.00     0.068 H 
ENDBRANCH  13  19
ENDBRANCH   6   9
BRANCH   3  29
ATOM     29  O30 4LK d   1       4.360  -4.381 -20.783  0.00  0.00    -0.351 OA
BRANCH  29  30
ATOM     30  C31 4LK d   1       4.119  -4.794 -22.136  0.00  0.00     0.011 C 
ATOM     31  H16 4LK d   1       3.163  -5.335 -22.189  0.00  0.00     0.067 H 
ATOM     32  H17 4LK d   1       4.933  -5.455 -22.468  0.00  0.00     0.067 H 
ATOM     33  H18 4LK d   1       4.076  -3.909 -22.788  0.00  0.00     0.067 H 
ENDBRANCH  29  30
ENDBRANCH   3  29
BRANCH   2  34
ATOM     34  C17 4LK d   1       7.920  -2.339 -17.984  0.00  0.00     0.095 A 
ATOM     35  C18 4LK d   1       7.806  -3.009 -16.787  0.00  0.00    -0.034 A 
ATOM     36  C19 4LK d   1       8.595  -2.270 -15.878  0.00  0.00     0.024 A 
ATOM     37  H8  4LK d   1       7.232  -3.912 -16.585  0.00  0.00     0.089 H 
ATOM     38  N20 4LK d   1       9.177  -1.219 -16.460  0.00  0.00    -0.179 NA
ATOM     39  H10 4LK d   1       8.714  -2.527 -14.827  0.00  0.00     0.117 H 
ATOM     40  N21 4LK d   1       8.748  -1.281 -17.731  0.00  0.00    -0.232 N 
BRANCH  40  41
ATOM     41  C22 4LK d   1       9.015  -0.214 -18.592  0.00  0.00     0.059 A 
ATOM     42  C23 4LK d   1       8.027   0.708 -18.850  0.00  0.00    -0.055 A 
ATOM     43  C24 4LK d   1       8.305   1.753 -19.702  0.00  0.00    -0.081 A 
ATOM     44  H4  4LK d   1       7.049   0.614 -18.392  0.00  0.00     0.087 H 
ATOM     45  C25 4LK d   1       9.554   1.870 -20.279  0.00  0.00    -0.083 A 
ATOM     46  H2  4LK d   1       7.539   2.488 -19.921  0.00  0.00     0.083 H 
ATOM     47  C26 4LK d   1      10.531   0.936 -20.008  0.00  0.00    -0.081 A 
ATOM     48  H1  4LK d   1       9.767   2.698 -20.946  0.00  0.00     0.083 H 
ATOM     49  C27 4LK d   1      10.266  -0.116 -19.160  0.00  0.00    -0.055 A 
ATOM     50  H3  4LK d   1      11.510   1.030 -20.463  0.00  0.00     0.083 H 
ATOM     51  H5  4LK d   1      11.029  -0.855 -18.943  0.00  0.00     0.087 H 
ENDBRANCH  40  41
ENDBRANCH   2  34
TORSDOF 6
