REMARK  9 active torsions:
REMARK  status: ('A' for Active; 'I' for Inactive)
REMARK    1  A    between atoms: N29_31  and  C30_11 
REMARK    2  A    between atoms: C6_13  and  N5_32 
REMARK    3  A    between atoms: C24_17  and  C25_15 
REMARK    4  A    between atoms: C3_18  and  O2_36 
REMARK    5  A    between atoms: C15_28  and  C16_23 
REMARK    6  A    between atoms: C10_24  and  C11_25 
REMARK    7  A    between atoms: C10_24  and  C12_26 
REMARK    8  A    between atoms: O2_36  and  C1_27 
REMARK    9  A    between atoms: C15_28  and  N14_33 
ROOT
ATOM      1  C21 4LP d   1      15.558  -0.549  23.885  0.00  0.00    -0.054 A 
ATOM      2  C22 4LP d   1      16.227  -1.032  22.778  0.00  0.00    -0.050 A 
ATOM      3  C9  4LP d   1      15.934  -2.680  24.952  0.00  0.00     0.027 A 
ATOM      4  C20 4LP d   1      15.438  -1.408  24.953  0.00  0.00     0.048 A 
ATOM      5  C6  4LP d   1      16.749  -2.312  22.748  0.00  0.00     0.097 A 
ATOM      6  C7  4LP d   1      16.598  -3.143  23.844  0.00  0.00     0.154 A 
ATOM      7  C13 4LP d   1      14.917  -2.285  27.007  0.00  0.00     0.237 A 
ATOM      8  C10 4LP d   1      15.653  -3.368  26.248  0.00  0.00     0.066 A 
ATOM      9  N14 4LP d   1      14.823  -1.176  26.174  0.00  0.00    -0.316 N 
ATOM     10  O19 4LP d   1      14.489  -2.407  28.147  0.00  0.00    -0.272 OA
ATOM     11  F8  4LP d   1      17.095  -4.386  23.848  0.00  0.00    -0.203 F 
ATOM     12  H6  4LP d   1      15.149   0.454  23.911  0.00  0.00     0.087 H 
ATOM     13  H7  4LP d   1      16.346  -0.392  21.911  0.00  0.00     0.087 H 
ENDROOT
BRANCH   5  14
ATOM     14  N5  4LP d   1      17.450  -2.708  21.599  0.00  0.00    -0.239 N 
ATOM     15  C4  4LP d   1      18.643  -3.371  21.684  0.00  0.00     0.041 A 
ATOM     16  C3  4LP d   1      19.380  -3.755  20.639  0.00  0.00     0.138 A 
ATOM     17  H10 4LP d   1      19.020  -3.603  22.679  0.00  0.00     0.119 H 
ATOM     18  C36 4LP d   1      18.808  -3.399  19.330  0.00  0.00     0.239 A 
ATOM     19  C24 4LP d   1      17.494  -2.679  19.325  0.00  0.00     0.159 A 
ATOM     20  O37 4LP d   1      19.374  -3.674  18.281  0.00  0.00    -0.283 OA
ATOM     21  N23 4LP d   1      16.876  -2.361  20.419  0.00  0.00    -0.161 NA
BRANCH  16  22
ATOM     22  O2  4LP d   1      20.586  -4.432  20.660  0.00  0.00    -0.351 OA
BRANCH  22  23
ATOM     23  C1  4LP d   1      20.879  -4.807  22.007  0.00  0.00     0.011 C 
ATOM     24  H22 4LP d   1      21.837  -5.347  22.037  0.00  0.00     0.067 H 
ATOM     25  H23 4LP d   1      20.079  -5.458  22.389  0.00  0.00     0.067 H 
ATOM     26  H24 4LP d   1      20.947  -3.905  22.632  0.00  0.00     0.067 H 
ENDBRANCH  22  23
ENDBRANCH  16  22
BRANCH  19  27
ATOM     27  C25 4LP d   1      16.879  -2.363  18.071  0.00  0.00     0.095 A 
ATOM     28  C26 4LP d   1      16.956  -3.003  16.856  0.00  0.00    -0.034 A 
ATOM     29  C27 4LP d   1      16.100  -2.277  15.996  0.00  0.00     0.024 A 
ATOM     30  H8  4LP d   1      17.550  -3.882  16.609  0.00  0.00     0.089 H 
ATOM     31  N28 4LP d   1      15.511  -1.257  16.632  0.00  0.00    -0.179 NA
ATOM     32  H9  4LP d   1      15.940  -2.518  14.946  0.00  0.00     0.117 H 
ATOM     33  N29 4LP d   1      15.997  -1.333  17.885  0.00  0.00    -0.232 N 
BRANCH  33  34
ATOM     34  C30 4LP d   1      15.755  -0.280  18.774  0.00  0.00     0.059 A 
ATOM     35  C31 4LP d   1      14.587  -0.278  19.504  0.00  0.00    -0.055 A 
ATOM     36  C32 4LP d   1      14.347   0.766  20.371  0.00  0.00    -0.081 A 
ATOM     37  H4  4LP d   1      13.869  -1.083  19.398  0.00  0.00     0.087 H 
ATOM     38  C33 4LP d   1      15.268   1.785  20.490  0.00  0.00    -0.083 A 
ATOM     39  H2  4LP d   1      13.436   0.786  20.958  0.00  0.00     0.083 H 
ATOM     40  C34 4LP d   1      16.434   1.768  19.754  0.00  0.00    -0.081 A 
ATOM     41  H1  4LP d   1      15.074   2.608  21.169  0.00  0.00     0.083 H 
ATOM     42  C35 4LP d   1      16.686   0.728  18.884  0.00  0.00    -0.055 A 
ATOM     43  H3  4LP d   1      17.153   2.572  19.859  0.00  0.00     0.083 H 
ATOM     44  H5  4LP d   1      17.598   0.705  18.299  0.00  0.00     0.087 H 
ENDBRANCH  33  34
ENDBRANCH  19  27
ENDBRANCH   5  14
BRANCH   8  45
ATOM     45  C11 4LP d   1      16.920  -3.774  26.980  0.00  0.00    -0.057 C 
ATOM     46  H16 4LP d   1      17.436  -4.561  26.410  0.00  0.00     0.029 H 
ATOM     47  H17 4LP d   1      16.660  -4.155  27.979  0.00  0.00     0.029 H 
ATOM     48  H18 4LP d   1      17.581  -2.901  27.081  0.00  0.00     0.029 H 
ENDBRANCH   8  45
BRANCH   8  49
ATOM     49  C12 4LP d   1      14.740  -4.561  26.078  0.00  0.00    -0.057 C 
ATOM     50  H19 4LP d   1      13.828  -4.252  25.547  0.00  0.00     0.029 H 
ATOM     51  H20 4LP d   1      14.471  -4.961  27.067  0.00  0.00     0.029 H 
ATOM     52  H21 4LP d   1      15.257  -5.338  25.497  0.00  0.00     0.029 H 
ENDBRANCH   8  49
BRANCH   9  53
ATOM     53  C15 4LP d   1      14.065   0.027  26.417  0.00  0.00     0.006 C 
ATOM     54  H25 4LP d   1      14.051   0.242  27.496  0.00  0.00     0.065 H 
ATOM     55  H26 4LP d   1      14.528   0.869  25.881  0.00  0.00     0.065 H 
BRANCH  53  56
ATOM     56  C16 4LP d   1      12.675  -0.169  25.930  0.00  0.00    -0.038 A 
ATOM     57  C17 4LP d   1      11.777  -1.006  26.801  0.00  0.00    -0.060 A 
ATOM     58  C18 4LP d   1      11.558   0.475  26.696  0.00  0.00    -0.060 A 
ATOM     59  H11 4LP d   1      11.059  -1.702  26.343  0.00  0.00     0.033 H 
ATOM     60  H12 4LP d   1      12.165  -1.440  27.734  0.00  0.00     0.033 H 
ATOM     61  H13 4LP d   1      11.784   1.126  27.553  0.00  0.00     0.033 H 
ATOM     62  H14 4LP d   1      10.678   0.864  26.162  0.00  0.00     0.033 H 
ATOM     63  H15 4LP d   1      12.645  -0.238  24.833  0.00  0.00     0.042 H 
ENDBRANCH  53  56
ENDBRANCH   9  53
TORSDOF 9
