REMARK  1 active torsions:
REMARK  status: ('A' for Active; 'I' for Inactive)
REMARK    1  A    between atoms: N_1  and  C21_4 
ROOT
ATOM      1  N   C7H d   1      33.924  -3.531  15.549  0.00  0.00    -0.074 N 
ATOM      2  C17 C7H d   1      36.276  -3.772  14.993  0.00  0.00    -0.021 C 
ATOM      3  C18 C7H d   1      35.278  -3.170  15.972  0.00  0.00     0.086 C 
ATOM      4  C19 C7H d   1      33.748  -4.961  15.835  0.00  0.00     0.086 C 
ATOM      5  C20 C7H d   1      34.654  -5.769  14.901  0.00  0.00    -0.021 C 
ATOM      6  C16 C7H d   1      36.093  -5.270  14.891  0.00  0.00    -0.065 C 
ATOM      7  C5  C7H d   1      37.157  -6.109  14.780  0.00  0.00    -0.011 C 
ATOM      8  C13 C7H d   1      38.571  -5.595  14.762  0.00  0.00    -0.015 A 
ATOM      9  C4  C7H d   1      39.019  -4.768  13.728  0.00  0.00    -0.071 A 
ATOM     10  C3  C7H d   1      40.317  -4.283  13.705  0.00  0.00    -0.082 A 
ATOM     11  C2  C7H d   1      41.192  -4.644  14.718  0.00  0.00    -0.082 A 
ATOM     12  C1  C7H d   1      40.761  -5.484  15.741  0.00  0.00    -0.072 A 
ATOM     13  C12 C7H d   1      39.458  -5.969  15.762  0.00  0.00    -0.025 A 
ATOM     14  C11 C7H d   1      39.074  -6.856  16.890  0.00  0.00    -0.071 C 
ATOM     15  C10 C7H d   1      38.263  -7.915  16.828  0.00  0.00    -0.071 C 
ATOM     16  C15 C7H d   1      37.545  -8.434  15.636  0.00  0.00    -0.025 A 
ATOM     17  C14 C7H d   1      37.000  -7.602  14.666  0.00  0.00    -0.015 A 
ATOM     18  C6  C7H d   1      36.337  -8.165  13.569  0.00  0.00    -0.071 A 
ATOM     19  C7  C7H d   1      36.186  -9.541  13.460  0.00  0.00    -0.082 A 
ATOM     20  C8  C7H d   1      36.720 -10.364  14.444  0.00  0.00    -0.082 A 
ATOM     21  C9  C7H d   1      37.391  -9.812  15.528  0.00  0.00    -0.072 A 
ATOM     22  H1  C7H d   1      33.811  -3.360  14.562  0.00  0.00     0.279 HD
ATOM     23  H2  C7H d   1      37.297  -3.557  15.341  0.00  0.00     0.042 H 
ATOM     24  H3  C7H d   1      36.124  -3.322  14.001  0.00  0.00     0.042 H 
ATOM     25  H4  C7H d   1      35.467  -3.564  16.981  0.00  0.00     0.076 H 
ATOM     26  H5  C7H d   1      35.383  -2.075  15.980  0.00  0.00     0.076 H 
ATOM     27  H9  C7H d   1      32.698  -5.245  15.668  0.00  0.00     0.076 H 
ATOM     28  H10 C7H d   1      34.021  -5.165  16.881  0.00  0.00     0.076 H 
ATOM     29  H11 C7H d   1      34.253  -5.702  13.879  0.00  0.00     0.042 H 
ATOM     30  H12 C7H d   1      34.649  -6.819  15.229  0.00  0.00     0.042 H 
ATOM     31  H13 C7H d   1      38.338  -4.501  12.928  0.00  0.00     0.084 H 
ATOM     32  H14 C7H d   1      40.644  -3.629  12.905  0.00  0.00     0.083 H 
ATOM     33  H15 C7H d   1      42.210  -4.273  14.713  0.00  0.00     0.083 H 
ATOM     34  H16 C7H d   1      41.449  -5.763  16.530  0.00  0.00     0.084 H 
ATOM     35  H17 C7H d   1      39.496  -6.619  17.865  0.00  0.00     0.084 H 
ATOM     36  H18 C7H d   1      38.111  -8.461  17.758  0.00  0.00     0.084 H 
ATOM     37  H19 C7H d   1      35.937  -7.519  12.796  0.00  0.00     0.084 H 
ATOM     38  H20 C7H d   1      35.657  -9.969  12.616  0.00  0.00     0.083 H 
ATOM     39  H21 C7H d   1      36.613 -11.440  14.366  0.00  0.00     0.083 H 
ATOM     40  H22 C7H d   1      37.798 -10.460  16.296  0.00  0.00     0.084 H 
ENDROOT
BRANCH   1  41
ATOM     41  C21 C7H d   1      32.943  -2.735  16.301  0.00  0.00     0.066 C 
ATOM     42  H6  C7H d   1      31.927  -3.008  15.981  0.00  0.00     0.068 H 
ATOM     43  H7  C7H d   1      33.113  -1.666  16.108  0.00  0.00     0.068 H 
ATOM     44  H8  C7H d   1      33.055  -2.936  17.377  0.00  0.00     0.068 H 
ENDBRANCH   1  41
TORSDOF 1
