REMARK  23 active torsions:
REMARK  status: ('A' for Active; 'I' for Inactive)
REMARK    1  A    between atoms: N_1  and  CA_2 
REMARK    2  A    between atoms: CA_2  and  C_3 
REMARK    3  A    between atoms: CA_2  and  CB_5 
REMARK       I    between atoms: C_3  and  N_9 
REMARK    4  A    between atoms: CB_5  and  CG_6 
REMARK    5  A    between atoms: N_9  and  CA_10 
REMARK    6  A    between atoms: CA_10  and  C_11 
REMARK    7  A    between atoms: CA_10  and  CB_13 
REMARK       I    between atoms: C_11  and  N_20 
REMARK    8  A    between atoms: CB_13  and  CG_14 
REMARK    9  A    between atoms: N_20  and  CA_21 
REMARK   10  A    between atoms: CA_21  and  C_22 
REMARK   11  A    between atoms: CA_21  and  CB_24 
REMARK       I    between atoms: C_22  and  N_27 
REMARK   12  A    between atoms: CB_24  and  OG1_25 
REMARK   13  A    between atoms: CB_24  and  CG2_26 
REMARK   14  A    between atoms: N_27  and  CA_28 
REMARK   15  A    between atoms: CA_28  and  C_29 
REMARK   16  A    between atoms: CA_28  and  CB_31 
REMARK       I    between atoms: C_29  and  N_38 
REMARK   17  A    between atoms: CB_31  and  CG_32 
REMARK   18  A    between atoms: N_38  and  CA_39 
REMARK   19  A    between atoms: CA_39  and  C_40 
REMARK   20  A    between atoms: CA_39  and  CB_42 
REMARK   21  A    between atoms: CB_42  and  CG_43 
REMARK   22  A    between atoms: CG_43  and  CD1_44 
REMARK   23  A    between atoms: CG_43  and  CD2_45 
ROOT
ATOM      1  CA  THR d   1       9.148  25.789  20.503  0.00  0.00     0.113 C 
ATOM      2  H17 THR d   1       8.732  26.601  21.117  0.00  0.00     0.091 H 
ENDROOT
BRANCH   1   3
ATOM      3  N   THR d   1       9.610  26.340  19.237  0.00  0.00    -0.344 N 
ATOM      4  C   PHE d   1       9.915  27.624  19.080  0.00  0.00     0.241 C 
ATOM      5  O   PHE d   1       9.752  28.473  19.959  0.00  0.00    -0.271 OA
ATOM      6  H16 THR d   1       9.702  25.727  18.453  0.00  0.00     0.163 HD
BRANCH   4   7
ATOM      7  CA  PHE d   1      10.516  27.999  17.730  0.00  0.00     0.093 C 
ATOM      8  H8  PHE d   1      10.188  27.258  16.986  0.00  0.00     0.088 H 
BRANCH   7   9
ATOM      9  N   PHE d   1      10.076  29.323  17.273  0.00  0.00    -0.346 N 
ATOM     10  C   ASP d   1       8.865  29.536  16.767  0.00  0.00     0.249 C 
ATOM     11  O   ASP d   1       8.006  28.662  16.693  0.00  0.00    -0.271 OA
ATOM     12  H7  PHE d   1      10.710  30.093  17.345  0.00  0.00     0.163 HD
BRANCH  10  13
ATOM     13  CA  ASP d   1       8.566  30.959  16.288  0.00  0.00     0.185 C 
ATOM     14  H4  ASP d   1       9.483  31.395  15.866  0.00  0.00     0.100 H 
BRANCH  13  15
ATOM     15  N   ASP d   1       7.519  30.915  15.231  0.00  0.00    -0.066 N 
ATOM     16  H1  ASP d   1       7.321  31.852  14.915  0.00  0.00     0.275 HD
ATOM     17  H2  ASP d   1       6.679  30.503  15.607  0.00  0.00     0.275 HD
ATOM     18  H3  ASP d   1       7.847  30.361  14.456  0.00  0.00     0.275 HD
ENDBRANCH  13  15
BRANCH  13  19
ATOM     19  CB  ASP d   1       8.099  31.832  17.464  0.00  0.00     0.050 C 
ATOM     20  H5  ASP d   1       7.894  31.180  18.326  0.00  0.00     0.052 H 
ATOM     21  H6  ASP d   1       7.175  32.352  17.170  0.00  0.00     0.052 H 
BRANCH  19  22
ATOM     22  CG  ASP d   1       9.132  32.873  17.877  0.00  0.00     0.175 C 
ATOM     23  OD1 ASP d   1       9.577  33.647  17.005  0.00  0.00    -0.648 OA
ATOM     24  OD2 ASP d   1       9.483  32.935  19.076  0.00  0.00    -0.648 OA
ENDBRANCH  19  22
ENDBRANCH  13  19
ENDBRANCH  10  13
ENDBRANCH   7   9
BRANCH   7  25
ATOM     25  CB  PHE d   1      12.040  27.935  17.844  0.00  0.00    -0.014 C 
ATOM     26  H9  PHE d   1      12.309  27.012  18.378  0.00  0.00     0.043 H 
ATOM     27  H10 PHE d   1      12.381  28.806  18.422  0.00  0.00     0.043 H 
BRANCH  25  28
ATOM     28  CG  PHE d   1      12.745  27.939  16.527  0.00  0.00    -0.056 A 
ATOM     29  CD1 PHE d   1      13.021  29.137  15.878  0.00  0.00    -0.077 A 
ATOM     30  CE1 PHE d   1      13.672  29.147  14.658  0.00  0.00    -0.082 A 
ATOM     31  H11 PHE d   1      12.722  30.074  16.334  0.00  0.00     0.084 H 
ATOM     32  CZ  PHE d   1      14.061  27.955  14.072  0.00  0.00    -0.083 A 
ATOM     33  H13 PHE d   1      13.878  30.088  14.161  0.00  0.00     0.083 H 
ATOM     34  CE2 PHE d   1      13.792  26.748  14.707  0.00  0.00    -0.082 A 
ATOM     35  H15 PHE d   1      14.575  27.963  13.118  0.00  0.00     0.083 H 
ATOM     36  CD2 PHE d   1      13.139  26.744  15.930  0.00  0.00    -0.077 A 
ATOM     37  H14 PHE d   1      14.092  25.813  14.248  0.00  0.00     0.083 H 
ATOM     38  H12 PHE d   1      12.933  25.802  16.426  0.00  0.00     0.084 H 
ENDBRANCH  25  28
ENDBRANCH   7  25
ENDBRANCH   4   7
ENDBRANCH   1   3
BRANCH   1  39
ATOM     39  C   THR d   1      10.337  25.168  21.230  0.00  0.00     0.243 C 
ATOM     40  O   THR d   1      11.044  24.336  20.666  0.00  0.00    -0.271 OA
ATOM     41  N   PHE d   1      10.547  25.573  22.481  0.00  0.00    -0.346 N 
ATOM     42  H23 PHE d   1       9.945  26.271  22.868  0.00  0.00     0.163 HD
BRANCH  41  43
ATOM     43  CA  PHE d   1      11.627  25.034  23.311  0.00  0.00     0.093 C 
ATOM     44  H24 PHE d   1      12.491  24.802  22.670  0.00  0.00     0.088 H 
BRANCH  43  45
ATOM     45  C   PHE d   1      11.144  23.758  23.988  0.00  0.00     0.241 C 
ATOM     46  O   PHE d   1      10.088  23.764  24.628  0.00  0.00    -0.271 OA
ATOM     47  N   LEU d   1      11.906  22.672  23.842  0.00  0.00    -0.345 N 
ATOM     48  H32 LEU d   1      12.695  22.717  23.229  0.00  0.00     0.163 HD
BRANCH  47  49
ATOM     49  CA  LEU d   1      11.631  21.413  24.547  0.00  0.00     0.096 C 
ATOM     50  H33 LEU d   1      10.625  21.476  24.987  0.00  0.00     0.089 H 
BRANCH  49  51
ATOM     51  C   LEU d   1      12.638  21.198  25.681  0.00  0.00     0.196 C 
ATOM     52  O   LEU d   1      12.555  20.232  26.444  0.00  0.00    -0.646 OA
ATOM     53  OXT LEU d   1      13.563  21.989  25.874  0.00  0.00    -0.646 OA
ENDBRANCH  49  51
BRANCH  49  54
ATOM     54  CB  LEU d   1      11.656  20.232  23.568  0.00  0.00    -0.034 C 
ATOM     55  H34 LEU d   1      11.561  19.308  24.157  0.00  0.00     0.037 H 
ATOM     56  H35 LEU d   1      12.630  20.243  23.056  0.00  0.00     0.037 H 
BRANCH  54  57
ATOM     57  CG  LEU d   1      10.563  20.213  22.491  0.00  0.00    -0.059 C 
ATOM     58  H36 LEU d   1      10.638  21.149  21.918  0.00  0.00     0.038 H 
BRANCH  57  59
ATOM     59  CD1 LEU d   1      10.766  19.050  21.534  0.00  0.00    -0.073 C 
ATOM     60  H37 LEU d   1       9.972  19.058  20.773  0.00  0.00     0.028 H 
ATOM     61  H38 LEU d   1      10.728  18.104  22.093  0.00  0.00     0.028 H 
ATOM     62  H39 LEU d   1      11.745  19.146  21.043  0.00  0.00     0.028 H 
ENDBRANCH  57  59
BRANCH  57  63
ATOM     63  CD2 LEU d   1       9.169  20.142  23.099  0.00  0.00    -0.073 C 
ATOM     64  H40 LEU d   1       9.027  20.986  23.791  0.00  0.00     0.028 H 
ATOM     65  H41 LEU d   1       9.056  19.195  23.648  0.00  0.00     0.028 H 
ATOM     66  H42 LEU d   1       8.417  20.194  22.298  0.00  0.00     0.028 H 
ENDBRANCH  57  63
ENDBRANCH  54  57
ENDBRANCH  49  54
ENDBRANCH  47  49
ENDBRANCH  43  45
BRANCH  43  67
ATOM     67  CB  PHE d   1      12.057  26.049  24.381  0.00  0.00    -0.014 C 
ATOM     68  H25 PHE d   1      12.684  25.528  25.119  0.00  0.00     0.043 H 
ATOM     69  H26 PHE d   1      11.153  26.435  24.875  0.00  0.00     0.043 H 
BRANCH  67  70
ATOM     70  CG  PHE d   1      12.834  27.216  23.840  0.00  0.00    -0.056 A 
ATOM     71  CD1 PHE d   1      12.198  28.220  23.112  0.00  0.00    -0.077 A 
ATOM     72  CE1 PHE d   1      12.914  29.301  22.617  0.00  0.00    -0.082 A 
ATOM     73  H27 PHE d   1      11.131  28.156  22.930  0.00  0.00     0.084 H 
ATOM     74  CZ  PHE d   1      14.275  29.393  22.846  0.00  0.00    -0.083 A 
ATOM     75  H29 PHE d   1      12.406  30.073  22.051  0.00  0.00     0.083 H 
ATOM     76  CE2 PHE d   1      14.925  28.407  23.572  0.00  0.00    -0.082 A 
ATOM     77  H31 PHE d   1      14.834  30.237  22.457  0.00  0.00     0.083 H 
ATOM     78  CD2 PHE d   1      14.204  27.325  24.067  0.00  0.00    -0.077 A 
ATOM     79  H30 PHE d   1      15.991  28.479  23.753  0.00  0.00     0.083 H 
ATOM     80  H28 PHE d   1      14.715  26.557  24.637  0.00  0.00     0.084 H 
ENDBRANCH  67  70
ENDBRANCH  43  67
ENDBRANCH  41  43
ENDBRANCH   1  39
BRANCH   1  81
ATOM     81  CB  THR d   1       8.055  24.730  20.277  0.00  0.00     0.060 C 
ATOM     82  H18 THR d   1       8.456  23.935  19.631  0.00  0.00     0.086 H 
BRANCH  81  83
ATOM     83  OG1 THR d   1       6.930  25.344  19.629  0.00  0.00    -0.393 OA
ATOM     84  H19 THR d   1       7.205  25.703  18.794  0.00  0.00     0.210 HD
ENDBRANCH  81  83
BRANCH  81  85
ATOM     85  CG2 THR d   1       7.605  24.112  21.600  0.00  0.00    -0.050 C 
ATOM     86  H20 THR d   1       6.825  23.360  21.407  0.00  0.00     0.031 H 
ATOM     87  H21 THR d   1       7.202  24.899  22.254  0.00  0.00     0.031 H 
ATOM     88  H22 THR d   1       8.464  23.631  22.091  0.00  0.00     0.031 H 
ENDBRANCH  81  85
ENDBRANCH   1  81
TORSDOF 23
