REMARK  6 active torsions:
REMARK  status: ('A' for Active; 'I' for Inactive)
REMARK    1  A    between atoms: C2_2  and  C13_7 
REMARK    2  A    between atoms: C5_5  and  C24_12 
REMARK    3  A    between atoms: C17_10  and  N30_15 
REMARK       I    between atoms: N30_15  and  C32_16 
REMARK    4  A    between atoms: C32_16  and  C33_17 
REMARK    5  A    between atoms: C40_21  and  O49_24 
REMARK    6  A    between atoms: O49_24  and  C51_25 
ROOT
ATOM      1  C13 HCK d   1     -12.754   6.727  12.602  0.00  0.00     0.036 A 
ATOM      2  C15 HCK d   1     -12.362   7.832  13.387  0.00  0.00     0.022 A 
ATOM      3  N16 HCK d   1     -12.569   9.010  12.710  0.00  0.00    -0.235 NA
ATOM      4  C17 HCK d   1     -13.094   8.825  11.454  0.00  0.00     0.173 A 
ATOM      5  S18 HCK d   1     -13.353   7.166  11.089  0.00  0.00    -0.050 SA
ATOM      6  H5  HCK d   1     -11.951   7.761  14.393  0.00  0.00     0.117 H 
ENDROOT
BRANCH   4   7
ATOM      7  N30 HCK d   1     -13.386   9.922  10.516  0.00  0.00    -0.301 N 
ATOM      8  C32 HCK d   1     -13.726   9.653   9.233  0.00  0.00     0.257 C 
ATOM      9  O36 HCK d   1     -14.046   8.522   8.888  0.00  0.00    -0.267 OA
ATOM     10  H6  HCK d   1     -13.333  10.871  10.828  0.00  0.00     0.171 HD
BRANCH   8  11
ATOM     11  C33 HCK d   1     -13.653  10.787   8.292  0.00  0.00     0.032 A 
ATOM     12  C38 HCK d   1     -13.673  10.509   6.905  0.00  0.00    -0.065 A 
ATOM     13  C39 HCK d   1     -13.594  11.565   5.981  0.00  0.00    -0.050 A 
ATOM     14  H7  HCK d   1     -13.749   9.485   6.556  0.00  0.00     0.085 H 
ATOM     15  C40 HCK d   1     -13.487  12.897   6.448  0.00  0.00     0.068 A 
ATOM     16  H8  HCK d   1     -13.615  11.361   4.917  0.00  0.00     0.087 H 
ATOM     17  C41 HCK d   1     -13.495  13.175   7.833  0.00  0.00    -0.050 A 
ATOM     18  C42 HCK d   1     -13.575  12.119   8.758  0.00  0.00    -0.065 A 
ATOM     19  H9  HCK d   1     -13.440  14.200   8.182  0.00  0.00     0.087 H 
ATOM     20  H10 HCK d   1     -13.577  12.325   9.822  0.00  0.00     0.085 H 
BRANCH  15  21
ATOM     21  O49 HCK d   1     -13.394  13.999   5.594  0.00  0.00    -0.356 OA
BRANCH  21  22
ATOM     22  C51 HCK d   1     -13.415  13.756   4.187  0.00  0.00     0.010 C 
ATOM     23  H11 HCK d   1     -13.334  14.712   3.649  0.00  0.00     0.066 H 
ATOM     24  H12 HCK d   1     -14.358  13.260   3.914  0.00  0.00     0.066 H 
ATOM     25  H13 HCK d   1     -12.569  13.109   3.914  0.00  0.00     0.066 H 
ENDBRANCH  21  22
ENDBRANCH  15  21
ENDBRANCH   8  11
ENDBRANCH   4   7
BRANCH   1  26
ATOM     26  C2  HCK d   1     -12.650   5.401  12.997  0.00  0.00    -0.018 A 
ATOM     27  C1  HCK d   1     -12.058   5.072  14.232  0.00  0.00    -0.071 A 
ATOM     28  C6  HCK d   1     -11.943   3.727  14.580  0.00  0.00    -0.066 A 
ATOM     29  H1  HCK d   1     -11.699   5.848  14.898  0.00  0.00     0.084 H 
ATOM     30  C5  HCK d   1     -12.419   2.730  13.701  0.00  0.00     0.040 A 
ATOM     31  H4  HCK d   1     -11.489   3.447  15.524  0.00  0.00     0.085 H 
ATOM     32  C4  HCK d   1     -13.055   3.061  12.484  0.00  0.00    -0.066 A 
ATOM     33  C3  HCK d   1     -13.166   4.411  12.132  0.00  0.00    -0.071 A 
ATOM     34  H3  HCK d   1     -13.449   2.286  11.836  0.00  0.00     0.085 H 
ATOM     35  H2  HCK d   1     -13.645   4.695  11.202  0.00  0.00     0.084 H 
BRANCH  30  36
ATOM     36  C24 HCK d   1     -12.259   1.324  14.085  0.00  0.00     0.209 C 
ATOM     37  O26 HCK d   1     -11.442   1.060  14.967  0.00  0.00    -0.644 OA
ATOM     38  O28 HCK d   1     -12.899   0.449  13.497  0.00  0.00    -0.644 OA
ENDBRANCH  30  36
ENDBRANCH   1  26
TORSDOF 6
