REMARK  5 active torsions:
REMARK  status: ('A' for Active; 'I' for Inactive)
REMARK    1  A    between atoms: N15_26  and  C12_16 
REMARK    2  A    between atoms: C9_17  and  O8_27 
REMARK    3  A    between atoms: O8_27  and  C7_18 
REMARK    4  A    between atoms: C16_19  and  N15_26 
REMARK    5  A    between atoms: N2_25  and  C1_20 
ROOT
ATOM      1  C11 6DT d   1       5.617  -4.676 -21.770  0.00  0.00    -0.054 A 
ATOM      2  C13 6DT d   1       3.699  -3.374 -21.275  0.00  0.00    -0.054 A 
ATOM      3  C10 6DT d   1       6.347  -3.963 -20.845  0.00  0.00    -0.048 A 
ATOM      4  C14 6DT d   1       4.413  -2.652 -20.345  0.00  0.00    -0.048 A 
ATOM      5  C12 6DT d   1       4.287  -4.396 -21.993  0.00  0.00     0.049 A 
ATOM      6  C9  6DT d   1       5.737  -2.959 -20.133  0.00  0.00     0.078 A 
ATOM      7  H5  6DT d   1       6.097  -5.470 -22.331  0.00  0.00     0.087 H 
ATOM      8  H6  6DT d   1       2.656  -3.135 -21.447  0.00  0.00     0.087 H 
ATOM      9  H7  6DT d   1       7.394  -4.192 -20.680  0.00  0.00     0.087 H 
ATOM     10  H8  6DT d   1       3.938  -1.853 -19.788  0.00  0.00     0.087 H 
ENDROOT
BRANCH   6  11
ATOM     11  O8  6DT d   1       6.481  -2.236 -19.221  0.00  0.00    -0.290 OA
BRANCH  11  12
ATOM     12  C7  6DT d   1       6.464  -2.633 -17.903  0.00  0.00     0.201 A 
ATOM     13  C6  6DT d   1       7.443  -2.198 -17.038  0.00  0.00     0.117 A 
ATOM     14  C5  6DT d   1       7.436  -2.585 -15.715  0.00  0.00     0.090 A 
ATOM     15  N2  6DT d   1       8.537  -1.389 -17.197  0.00  0.00    -0.356 N 
ATOM     16  C4  6DT d   1       8.549  -1.993 -15.068  0.00  0.00    -0.038 A 
ATOM     17  N27 6DT d   1       6.485  -3.389 -15.216  0.00  0.00    -0.240 NA
ATOM     18  C3  6DT d   1       9.216  -1.254 -16.019  0.00  0.00    -0.018 A 
ATOM     19  H9  6DT d   1       8.824  -2.102 -14.020  0.00  0.00     0.089 H 
ATOM     20  H10 6DT d   1      10.120  -0.668 -15.861  0.00  0.00     0.111 H 
ATOM     21  C26 6DT d   1       5.585  -3.751 -16.137  0.00  0.00     0.090 A 
ATOM     22  N25 6DT d   1       5.504  -3.434 -17.432  0.00  0.00    -0.215 NA
ATOM     23  H11 6DT d   1       4.798  -4.404 -15.776  0.00  0.00     0.146 H 
BRANCH  15  24
ATOM     24  C1  6DT d   1       8.951  -0.749 -18.427  0.00  0.00    -0.014 C 
ATOM     25  H12 6DT d   1       9.864  -0.163 -18.246  0.00  0.00     0.057 H 
ATOM     26  H13 6DT d   1       8.151  -0.082 -18.780  0.00  0.00     0.057 H 
ATOM     27  H14 6DT d   1       9.152  -1.516 -19.190  0.00  0.00     0.057 H 
ENDBRANCH  15  24
ENDBRANCH  11  12
ENDBRANCH   6  11
BRANCH   5  28
ATOM     28  N15 6DT d   1       3.599  -5.146 -22.966  0.00  0.00    -0.190 N 
ATOM     29  H16 6DT d   1       4.133  -5.835 -23.514  0.00  0.00     0.184 HD
BRANCH  28  30
ATOM     30  C16 6DT d   1       2.275  -5.014 -23.224  0.00  0.00     0.706 A 
ATOM     31  N17 6DT d   1       1.337  -4.273 -22.674  0.00  0.00    -0.188 N 
ATOM     32  C18 6DT d   1       0.181  -4.559 -23.353  0.00  0.00     0.078 A 
ATOM     33  H15 6DT d   1       1.449  -3.612 -21.892  0.00  0.00     0.184 HD
ATOM     34  C19 6DT d   1      -1.094  -4.050 -23.171  0.00  0.00    -0.054 A 
ATOM     35  C23 6DT d   1       0.422  -5.491 -24.342  0.00  0.00     0.103 A 
ATOM     36  C20 6DT d   1      -2.065  -4.528 -24.021  0.00  0.00    -0.081 A 
ATOM     37  H3  6DT d   1      -1.315  -3.317 -22.403  0.00  0.00     0.087 H 
ATOM     38  C21 6DT d   1      -1.794  -5.457 -25.000  0.00  0.00    -0.081 A 
ATOM     39  H1  6DT d   1      -3.079  -4.160 -23.916  0.00  0.00     0.083 H 
ATOM     40  C22 6DT d   1      -0.536  -5.980 -25.201  0.00  0.00    -0.052 A 
ATOM     41  H2  6DT d   1      -2.604  -5.790 -25.639  0.00  0.00     0.083 H 
ATOM     42  H4  6DT d   1      -0.319  -6.713 -25.969  0.00  0.00     0.087 H 
ATOM     43  N24 6DT d   1       1.751  -5.769 -24.233  0.00  0.00    -0.062 NA
ENDBRANCH  28  30
ENDBRANCH   5  28
TORSDOF 5
