REMARK  8 active torsions:
REMARK  status: ('A' for Active; 'I' for Inactive)
REMARK    1  A    between atoms: N8_33  and  C9_14 
REMARK    2  A    between atoms: C3_18  and  C4_15 
REMARK    3  A    between atoms: O23_37  and  C22_19 
REMARK    4  A    between atoms: C17_26  and  C18_25 
REMARK    5  A    between atoms: N16_35  and  C17_26 
REMARK    6  A    between atoms: C24_28  and  C25_27 
REMARK    7  A    between atoms: C25_27  and  N26_34 
REMARK    8  A    between atoms: C24_28  and  O23_37 
ROOT
ATOM      1  C21 6DW d   1       6.627  -3.438 -21.419  0.00  0.00     0.035 A 
ATOM      2  C3  6DW d   1       7.756  -2.767 -19.071  0.00  0.00     0.158 A 
ATOM      3  C22 6DW d   1       5.772  -3.601 -20.409  0.00  0.00     0.138 A 
ATOM      4  C2  6DW d   1       6.330  -3.253 -19.100  0.00  0.00     0.239 A 
ATOM      5  N15 6DW d   1       8.490  -2.645 -20.135  0.00  0.00    -0.166 NA
ATOM      6  N16 6DW d   1       7.918  -2.987 -21.317  0.00  0.00    -0.277 N 
ATOM      7  O1  6DW d   1       5.676  -3.349 -18.068  0.00  0.00    -0.283 OA
ATOM      8  H12 6DW d   1       6.267  -3.686 -22.416  0.00  0.00     0.118 H 
ENDROOT
BRANCH   3   9
ATOM      9  O23 6DW d   1       4.470  -4.050 -20.476  0.00  0.00    -0.344 OA
BRANCH   9  10
ATOM     10  C24 6DW d   1       4.155  -4.164 -21.854  0.00  0.00     0.042 C 
ATOM     11  H24 6DW d   1       3.287  -3.531 -22.091  0.00  0.00     0.077 H 
ATOM     12  H25 6DW d   1       5.016  -3.848 -22.461  0.00  0.00     0.077 H 
BRANCH  10  13
ATOM     13  C25 6DW d   1       3.830  -5.606 -22.142  0.00  0.00     0.036 C 
ATOM     14  H22 6DW d   1       3.222  -6.018 -21.323  0.00  0.00     0.069 H 
ATOM     15  H23 6DW d   1       4.762  -6.184 -22.233  0.00  0.00     0.069 H 
BRANCH  13  16
ATOM     16  N26 6DW d   1       3.089  -5.680 -23.383  0.00  0.00    -0.188 N 
ATOM     17  C30 6DW d   1       1.772  -5.439 -23.491  0.00  0.00     0.714 A 
ATOM     18  N31 6DW d   1       0.771  -4.982 -22.780  0.00  0.00    -0.062 NA
ATOM     19  N29 6DW d   1       1.400  -5.724 -24.752  0.00  0.00    -0.152 N 
ATOM     20  C32 6DW d   1      -0.298  -5.015 -23.648  0.00  0.00     0.103 A 
ATOM     21  C33 6DW d   1      -1.611  -4.648 -23.406  0.00  0.00    -0.052 A 
ATOM     22  C37 6DW d   1       0.069  -5.483 -24.900  0.00  0.00     0.086 A 
ATOM     23  C34 6DW d   1      -2.485  -4.780 -24.460  0.00  0.00    -0.081 A 
ATOM     24  H6  6DW d   1      -1.932  -4.277 -22.439  0.00  0.00     0.087 H 
ATOM     25  C35 6DW d   1      -2.089  -5.251 -25.691  0.00  0.00    -0.081 A 
ATOM     26  H2  6DW d   1      -3.523  -4.503 -24.316  0.00  0.00     0.083 H 
ATOM     27  C36 6DW d   1      -0.790  -5.623 -25.966  0.00  0.00    -0.054 A 
ATOM     28  H3  6DW d   1      -2.830  -5.333 -26.478  0.00  0.00     0.083 H 
ATOM     29  H7  6DW d   1      -0.474  -5.992 -26.935  0.00  0.00     0.087 H 
ATOM     30  C28 6DW d   1       2.454  -6.232 -25.598  0.00  0.00     0.018 A 
ATOM     31  C27 6DW d   1       3.621  -6.265 -24.613  0.00  0.00     0.013 A 
ATOM     32  H17 6DW d   1       2.425  -6.514 -26.649  0.00  0.00     0.115 H 
ATOM     33  H18 6DW d   1       4.628  -6.641 -24.788  0.00  0.00     0.114 H 
ENDBRANCH  13  16
ENDBRANCH  10  13
ENDBRANCH   9  10
ENDBRANCH   3   9
BRANCH   6  34
ATOM     34  C17 6DW d   1       8.756  -2.840 -22.492  0.00  0.00     0.020 C 
ATOM     35  H20 6DW d   1       9.808  -2.748 -22.184  0.00  0.00     0.068 H 
ATOM     36  H21 6DW d   1       8.639  -3.722 -23.139  0.00  0.00     0.068 H 
BRANCH  34  37
ATOM     37  C18 6DW d   1       8.347  -1.618 -23.238  0.00  0.00    -0.037 A 
ATOM     38  C19 6DW d   1       8.628  -1.537 -24.709  0.00  0.00    -0.060 A 
ATOM     39  C20 6DW d   1       9.393  -0.671 -23.750  0.00  0.00    -0.060 A 
ATOM     40  H13 6DW d   1       9.132  -2.371 -25.219  0.00  0.00     0.033 H 
ATOM     41  H14 6DW d   1       7.888  -1.087 -25.386  0.00  0.00     0.033 H 
ATOM     42  H15 6DW d   1       9.213   0.414 -23.724  0.00  0.00     0.033 H 
ATOM     43  H16 6DW d   1      10.457  -0.871 -23.557  0.00  0.00     0.033 H 
ATOM     44  H19 6DW d   1       7.403  -1.230 -22.829  0.00  0.00     0.042 H 
ENDBRANCH  34  37
ENDBRANCH   6  34
BRANCH   2  45
ATOM     45  C4  6DW d   1       8.272  -2.423 -17.787  0.00  0.00     0.095 A 
ATOM     46  C5  6DW d   1       8.171  -3.089 -16.589  0.00  0.00    -0.034 A 
ATOM     47  C6  6DW d   1       8.863  -2.287 -15.655  0.00  0.00     0.024 A 
ATOM     48  H10 6DW d   1       7.665  -4.035 -16.400  0.00  0.00     0.089 H 
ATOM     49  N7  6DW d   1       9.365  -1.188 -16.228  0.00  0.00    -0.179 NA
ATOM     50  H11 6DW d   1       8.974  -2.533 -14.600  0.00  0.00     0.117 H 
ATOM     51  N8  6DW d   1       8.995  -1.292 -17.518  0.00  0.00    -0.232 N 
BRANCH  51  52
ATOM     52  C9  6DW d   1       9.284  -0.276 -18.430  0.00  0.00     0.059 A 
ATOM     53  C10 6DW d   1       8.309   0.644 -18.746  0.00  0.00    -0.055 A 
ATOM     54  C11 6DW d   1       8.590   1.645 -19.652  0.00  0.00    -0.081 A 
ATOM     55  H8  6DW d   1       7.329   0.582 -18.287  0.00  0.00     0.087 H 
ATOM     56  C12 6DW d   1       9.838   1.710 -20.231  0.00  0.00    -0.083 A 
ATOM     57  H4  6DW d   1       7.832   2.377 -19.907  0.00  0.00     0.083 H 
ATOM     58  C13 6DW d   1      10.807   0.782 -19.909  0.00  0.00    -0.081 A 
ATOM     59  H1  6DW d   1      10.060   2.495 -20.944  0.00  0.00     0.083 H 
ATOM     60  C14 6DW d   1      10.535  -0.221 -19.001  0.00  0.00    -0.055 A 
ATOM     61  H5  6DW d   1      11.786   0.841 -20.371  0.00  0.00     0.083 H 
ATOM     62  H9  6DW d   1      11.293  -0.952 -18.742  0.00  0.00     0.087 H 
ENDBRANCH  51  52
ENDBRANCH   2  45
TORSDOF 8
