REMARK WARNING: 32 MAX_TORS EXCEEDED!!!
REMARK  42 active torsions:
REMARK  status: ('A' for Active; 'I' for Inactive)
REMARK    1  A    between atoms: CA_5  and  CB_6 
REMARK    2  A    between atoms: CB_6  and  CG_7 
REMARK    3  A    between atoms: CA_19  and  CB_22 
REMARK    4  A    between atoms: CB_22  and  CG_23 
REMARK    5  A    between atoms: CG_23  and  CD_24 
REMARK    6  A    between atoms: CD_24  and  NE_25 
REMARK       I    between atoms: NE_25  and  CZ_26 
REMARK       I    between atoms: CZ_26  and  NH1_27 
REMARK       I    between atoms: CZ_26  and  NH2_28 
REMARK    7  A    between atoms: CA_37  and  CB_40 
REMARK    8  A    between atoms: CB_40  and  CG_41 
REMARK    9  A    between atoms: CG_41  and  CD_42 
REMARK   10  A    between atoms: CD_42  and  NE_43 
REMARK       I    between atoms: NE_43  and  CZ_44 
REMARK       I    between atoms: CZ_44  and  NH1_45 
REMARK       I    between atoms: CZ_44  and  NH2_46 
REMARK   11  A    between atoms: CA_48  and  CB_51 
REMARK   12  A    between atoms: CB_51  and  CG1_52 
REMARK   13  A    between atoms: CB_51  and  CG2_53 
REMARK   14  A    between atoms: CA_55  and  CB_58 
REMARK   15  A    between atoms: CA_60  and  CB_63 
REMARK   16  A    between atoms: CB_63  and  CG_64 
REMARK   17  A    between atoms: CG_64  and  CD_65 
REMARK   18  A    between atoms: CD_65  and  NE_66 
REMARK       I    between atoms: NE_66  and  CZ_67 
REMARK       I    between atoms: CZ_67  and  NH1_68 
REMARK   19  A    between atoms: CA_71  and  CB_74 
REMARK   20  A    between atoms: CB_74  and  CG_75 
REMARK   21  A    between atoms: CA_85  and  CB_88 
REMARK   22  A    between atoms: CB_88  and  OG1_89 
REMARK   23  A    between atoms: CB_88  and  CG2_90 
REMARK   24  A    between atoms: CA_96  and  CB_99 
REMARK   25  A    between atoms: CB_99  and  CG_100 
REMARK   26  A    between atoms: CG_100  and  CD_101 
REMARK       I    between atoms: CD_101  and  NE2_103 
REMARK   27  A    between atoms: CA_105  and  CB_108 
REMARK   28  A    between atoms: CB_108  and  CG1_109 
REMARK   29  A    between atoms: CB_108  and  CG2_110 
REMARK   30  A    between atoms: CG1_109  and  CD1_111 
REMARK   31  A    between atoms: CA_113  and  CB_116 
REMARK   32  A    between atoms: CB_116  and  CG1_117 
REMARK   33  A    between atoms: CB_116  and  CG2_118 
REMARK   34  A    between atoms: CG1_117  and  CD1_119 
REMARK   35  A    between atoms: CA_121  and  CB_124 
REMARK   36  A    between atoms: CB_124  and  CG_125 
REMARK   37  A    between atoms: CZ_130  and  OH_131 
REMARK   38  A    between atoms: CA_133  and  C_134 
REMARK       I    between atoms: C_134  and  N_138 
REMARK   39  A    between atoms: N_138  and  CA_139 
REMARK   40  A    between atoms: CA_139  and  C_140 
REMARK   41  A    between atoms: CA_139  and  CB_142 
REMARK       I    between atoms: C_140  and  N_144 
REMARK   42  A    between atoms: CB_142  and  OG_143 
ROOT
ATOM      1  C   ACE d   1      88.913 -30.733  56.964  0.00  0.00     0.227 C 
ATOM      2  O   ACE d   1      87.794 -30.612  57.452  0.00  0.00    -0.273 OA
ATOM      3  CH3 ACE d   1      89.196 -31.715  55.882  0.00  0.00     0.051 C 
ATOM      4  H1  ACE d   1      90.138 -32.233  56.112  0.00  0.00     0.063 H 
ATOM      5  H2  ACE d   1      89.299 -31.173  54.930  0.00  0.00     0.063 H 
ATOM      6  N   DTR d   1      89.966 -30.030  57.353  0.00  0.00    -0.347 N 
ATOM      7  CA  DTR d   1      89.964 -29.000  58.380  0.00  0.00     0.093 C 
ATOM      8  C   DTR d   1      90.603 -29.540  59.668  0.00  0.00     0.241 C 
ATOM      9  O   DTR d   1      91.565 -30.317  59.605  0.00  0.00    -0.271 OA
ATOM     10  H3  DTR d   1      90.837 -30.224  56.902  0.00  0.00     0.163 HD
ATOM     11  H4  DTR d   1      88.928 -28.700  58.598  0.00  0.00     0.088 H 
ATOM     12  N   ARG d   1      90.061 -29.151  60.828  0.00  0.00    -0.346 N 
ATOM     13  CA  ARG d   1      90.581 -29.597  62.135  0.00  0.00     0.089 C 
ATOM     14  C   ARG d   1      90.114 -30.998  62.542  0.00  0.00     0.243 C 
ATOM     15  O   ARG d   1      88.952 -31.374  62.354  0.00  0.00    -0.271 OA
ATOM     16  N   ARG d   1      88.910 -34.136  64.896  0.00  0.00    -0.346 N 
ATOM     17  CA  ARG d   1      88.090 -34.351  66.074  0.00  0.00     0.089 C 
ATOM     18  C   ARG d   1      88.212 -35.811  66.504  0.00  0.00     0.241 C 
ATOM     19  O   ARG d   1      88.776 -36.648  65.792  0.00  0.00    -0.271 OA
ATOM     20  N   ARG d   1      83.636 -40.535  68.599  0.00  0.00    -0.346 N 
ATOM     21  CA  ARG d   1      82.942 -41.096  69.740  0.00  0.00     0.089 C 
ATOM     22  C   ARG d   1      83.154 -42.600  69.800  0.00  0.00     0.241 C 
ATOM     23  O   ARG d   1      83.109 -43.284  68.775  0.00  0.00    -0.271 OA
ATOM     24  H13 ARG d   1      89.274 -28.535  60.808  0.00  0.00     0.163 HD
ATOM     25  H14 ARG d   1      91.678 -29.616  62.061  0.00  0.00     0.087 H 
ATOM     26  H33 ARG d   1      88.859 -34.800  64.150  0.00  0.00     0.163 HD
ATOM     27  H34 ARG d   1      88.470 -33.714  66.887  0.00  0.00     0.087 H 
ATOM     28  H60 ARG d   1      83.122 -40.009  67.921  0.00  0.00     0.163 HD
ATOM     29  H61 ARG d   1      83.349 -40.647  70.658  0.00  0.00     0.087 H 
ATOM     30  N   PRO d   1      91.019 -31.777  63.115  0.00  0.00    -0.337 N 
ATOM     31  CA  PRO d   1      90.647 -33.126  63.549  0.00  0.00     0.091 C 
ATOM     32  C   PRO d   1      89.726 -33.094  64.767  0.00  0.00     0.241 C 
ATOM     33  O   PRO d   1      89.725 -32.148  65.561  0.00  0.00    -0.271 OA
ATOM     34  CB  PRO d   1      91.998 -33.772  63.880  0.00  0.00    -0.036 C 
ATOM     35  CG  PRO d   1      93.050 -32.874  63.235  0.00  0.00    -0.048 C 
ATOM     36  CD  PRO d   1      92.455 -31.510  63.299  0.00  0.00    -0.001 C 
ATOM     37  H26 PRO d   1      90.145 -33.670  62.735  0.00  0.00     0.087 H 
ATOM     38  H27 PRO d   1      92.051 -34.788  63.461  0.00  0.00     0.036 H 
ATOM     39  H28 PRO d   1      92.146 -33.816  64.969  0.00  0.00     0.036 H 
ATOM     40  H29 PRO d   1      93.231 -33.172  62.192  0.00  0.00     0.035 H 
ATOM     41  H30 PRO d   1      93.995 -32.914  63.797  0.00  0.00     0.035 H 
ATOM     42  H31 PRO d   1      92.649 -31.037  64.273  0.00  0.00     0.064 H 
ATOM     43  H32 PRO d   1      92.846 -30.868  62.495  0.00  0.00     0.064 H 
ATOM     44  N   VAL d   1      87.723 -36.123  67.699  0.00  0.00    -0.346 N 
ATOM     45  CA  VAL d   1      87.881 -37.459  68.246  0.00  0.00     0.092 C 
ATOM     46  C   VAL d   1      86.585 -38.222  68.048  0.00  0.00     0.241 C 
ATOM     47  O   VAL d   1      85.508 -37.765  68.449  0.00  0.00    -0.271 OA
ATOM     48  H46 VAL d   1      87.239 -35.428  68.230  0.00  0.00     0.163 HD
ATOM     49  H47 VAL d   1      88.678 -37.972  67.688  0.00  0.00     0.088 H 
ATOM     50  N   ALA d   1      86.690 -39.380  67.413  0.00  0.00    -0.346 N 
ATOM     51  CA  ALA d   1      85.517 -40.177  67.135  0.00  0.00     0.086 C 
ATOM     52  C   ALA d   1      84.939 -40.707  68.438  0.00  0.00     0.240 C 
ATOM     53  O   ALA d   1      85.665 -41.229  69.289  0.00  0.00    -0.271 OA
ATOM     54  H55 ALA d   1      87.590 -39.706  67.123  0.00  0.00     0.163 HD
ATOM     55  H56 ALA d   1      84.762 -39.542  66.649  0.00  0.00     0.086 H 
ATOM     56  N   TRP d   1      83.415 -43.093  71.021  0.00  0.00    -0.346 N 
ATOM     57  CA  TRP d   1      83.606 -44.490  71.427  0.00  0.00     0.093 C 
ATOM     58  C   TRP d   1      84.946 -45.091  71.023  0.00  0.00     0.241 C 
ATOM     59  O   TRP d   1      85.526 -45.867  71.786  0.00  0.00    -0.271 OA
ATOM     60  H73 TRP d   1      83.489 -42.416  71.753  0.00  0.00     0.163 HD
ATOM     61  H74 TRP d   1      83.563 -44.503  72.526  0.00  0.00     0.088 H 
ATOM     62  N   THR d   1      85.443 -44.781  69.831  0.00  0.00    -0.344 N 
ATOM     63  CA  THR d   1      86.685 -45.408  69.413  0.00  0.00     0.113 C 
ATOM     64  C   THR d   1      87.921 -44.669  69.895  0.00  0.00     0.243 C 
ATOM     65  O   THR d   1      89.000 -45.265  69.912  0.00  0.00    -0.271 OA
ATOM     66  H83 THR d   1      84.973 -44.130  69.235  0.00  0.00     0.163 HD
ATOM     67  H84 THR d   1      86.708 -46.419  69.846  0.00  0.00     0.091 H 
ATOM     68  N   GLY d   1      87.794 -43.398  70.270  0.00  0.00    -0.350 N 
ATOM     69  CA  GLY d   1      88.925 -42.532  70.460  0.00  0.00     0.069 C 
ATOM     70  C   GLY d   1      89.816 -42.358  69.254  0.00  0.00     0.236 C 
ATOM     71  O   GLY d   1      90.812 -41.636  69.357  0.00  0.00    -0.272 OA
ATOM     72  H90 GLY d   1      86.876 -43.032  70.425  0.00  0.00     0.163 HD
ATOM     73  H91 GLY d   1      89.536 -42.945  71.276  0.00  0.00     0.078 H 
ATOM     74  H92 GLY d   1      88.548 -41.540  70.750  0.00  0.00     0.078 H 
ATOM     75  N   GLN d   1      89.503 -42.999  68.126  0.00  0.00    -0.346 N 
ATOM     76  CA  GLN d   1      90.231 -42.776  66.886  0.00  0.00     0.090 C 
ATOM     77  C   GLN d   1      89.975 -41.363  66.379  0.00  0.00     0.241 C 
ATOM     78  O   GLN d   1      88.914 -40.775  66.608  0.00  0.00    -0.271 OA
ATOM     79  H93 GLN d   1      88.746 -43.652  68.133  0.00  0.00     0.163 HD
ATOM     80  H94 GLN d   1      91.307 -42.889  67.083  0.00  0.00     0.087 H 
ATOM     81  N   ILE d   1      90.953 -40.824  65.677  0.00  0.00    -0.346 N 
ATOM     82  CA  ILE d   1      90.931 -39.418  65.281  0.00  0.00     0.092 C 
ATOM     83  C   ILE d   1      90.339 -39.253  63.875  0.00  0.00     0.241 C 
ATOM     84  O   ILE d   1      90.759 -39.929  62.928  0.00  0.00    -0.271 OA
ATOM     85  N   ILE d   1      89.345 -38.367  63.747  0.00  0.00    -0.346 N 
ATOM     86  CA  ILE d   1      88.696 -38.036  62.474  0.00  0.00     0.092 C 
ATOM     87  C   ILE d   1      89.414 -36.830  61.889  0.00  0.00     0.241 C 
ATOM     88  O   ILE d   1      89.246 -35.718  62.386  0.00  0.00    -0.271 OA
ATOM     89 1H10 ILE d   1      91.730 -41.393  65.409  0.00  0.00     0.163 HD
ATOM     90 2H10 ILE d   1      90.288 -38.871  65.986  0.00  0.00     0.088 H 
ATOM     91 2H11 ILE d   1      89.024 -37.901  64.571  0.00  0.00     0.163 HD
ATOM     92 3H11 ILE d   1      88.787 -38.892  61.789  0.00  0.00     0.088 H 
ATOM     93  N   TYR d   1      90.146 -37.029  60.789  0.00  0.00    -0.346 N 
ATOM     94  CA  TYR d   1      91.012 -35.970  60.268  0.00  0.00     0.093 C 
ATOM     95  C   TYR d   1      90.236 -34.832  59.606  0.00  0.00     0.241 C 
ATOM     96  O   TYR d   1      90.668 -33.673  59.675  0.00  0.00    -0.271 OA
ATOM     97 3H12 TYR d   1      90.102 -37.910  60.317  0.00  0.00     0.163 HD
ATOM     98 4H12 TYR d   1      91.558 -35.539  61.120  0.00  0.00     0.088 H 
ATOM     99  N   CYS d   1      89.108 -35.128  58.958  0.00  0.00    -0.345 N 
ATOM    100  CA  CYS d   1      88.350 -34.126  58.214  0.00  0.00     0.097 C 
ATOM    101  CB  CYS d   1      88.585 -34.272  56.717  0.00  0.00     0.004 C 
ATOM    102  SG  CYS d   1      87.910 -32.920  55.715  0.00  0.00    -0.157 SA
ATOM    103 2H13 CYS d   1      88.770 -36.069  58.983  0.00  0.00     0.163 HD
ATOM    104 3H13 CYS d   1      88.696 -33.129  58.525  0.00  0.00     0.088 H 
ATOM    105 4H13 CYS d   1      88.118 -35.211  56.386  0.00  0.00     0.052 H 
ATOM    106 5H13 CYS d   1      89.670 -34.320  56.543  0.00  0.00     0.052 H 
ENDROOT
BRANCH   7 107
ATOM    107  CB  DTR d   1      90.732 -27.797  57.830  0.00  0.00    -0.012 C 
ATOM    108  H5  DTR d   1      90.301 -27.542  56.851  0.00  0.00     0.044 H 
ATOM    109  H6  DTR d   1      91.782 -28.099  57.701  0.00  0.00     0.044 H 
BRANCH 107 110
ATOM    110  CG  DTR d   1      90.711 -26.570  58.670  0.00  0.00    -0.028 A 
ATOM    111  CD1 DTR d   1      89.702 -25.656  58.774  0.00  0.00    -0.015 A 
ATOM    112  NE1 DTR d   1      90.069 -24.649  59.633  0.00  0.00    -0.365 N 
ATOM    113  H7  DTR d   1      88.748 -25.716  58.253  0.00  0.00     0.112 H 
ATOM    114  CE2 DTR d   1      91.337 -24.894  60.088  0.00  0.00     0.042 A 
ATOM    115  H8  DTR d   1      89.485 -23.841  59.893  0.00  0.00     0.165 HD
ATOM    116  CZ2 DTR d   1      92.131 -24.164  60.968  0.00  0.00    -0.056 A 
ATOM    117  CD2 DTR d   1      91.772 -26.096  59.498  0.00  0.00    -0.002 A 
ATOM    118  CH2 DTR d   1      93.378 -24.653  61.249  0.00  0.00    -0.081 A 
ATOM    119  H9  DTR d   1      91.775 -23.242  61.414  0.00  0.00     0.086 H 
ATOM    120  CZ3 DTR d   1      93.845 -25.844  60.671  0.00  0.00    -0.082 A 
ATOM    121  H10 DTR d   1      94.019 -24.109  61.933  0.00  0.00     0.083 H 
ATOM    122  CE3 DTR d   1      93.052 -26.573  59.796  0.00  0.00    -0.070 A 
ATOM    123  H11 DTR d   1      94.840 -26.200  60.912  0.00  0.00     0.083 H 
ATOM    124  H12 DTR d   1      93.417 -27.492  59.353  0.00  0.00     0.084 H 
ENDBRANCH 107 110
ENDBRANCH   7 107
BRANCH  13 125
ATOM    125  CB  ARG d   1      90.188 -28.616  63.245  0.00  0.00    -0.036 C 
ATOM    126  H15 ARG d   1      90.471 -29.064  64.209  0.00  0.00     0.036 H 
ATOM    127  H16 ARG d   1      89.097 -28.483  63.209  0.00  0.00     0.036 H 
BRANCH 125 128
ATOM    128  CG  ARG d   1      90.829 -27.242  63.163  0.00  0.00    -0.048 C 
ATOM    129  H17 ARG d   1      90.551 -26.768  62.210  0.00  0.00     0.035 H 
ATOM    130  H18 ARG d   1      91.923 -27.348  63.215  0.00  0.00     0.035 H 
BRANCH 128 131
ATOM    131  CD  ARG d   1      90.355 -26.369  64.314  0.00  0.00     0.009 C 
ATOM    132  H19 ARG d   1      90.790 -26.753  65.248  0.00  0.00     0.064 H 
ATOM    133  H20 ARG d   1      89.258 -26.427  64.370  0.00  0.00     0.064 H 
BRANCH 131 134
ATOM    134  NE  ARG d   1      90.741 -24.967  64.161  0.00  0.00    -0.227 N 
ATOM    135  CZ  ARG d   1      91.981 -24.506  64.318  0.00  0.00     0.665 C 
ATOM    136  NH1 ARG d   1      92.974 -25.333  64.620  0.00  0.00    -0.235 N 
ATOM    137  NH2 ARG d   1      92.234 -23.216  64.163  0.00  0.00    -0.235 N 
ATOM    138  H22 ARG d   1      93.930 -24.968  64.740  0.00  0.00     0.174 HD
ATOM    139  H23 ARG d   1      92.789 -26.340  64.735  0.00  0.00     0.174 HD
ATOM    140  H24 ARG d   1      91.470 -22.566  63.929  0.00  0.00     0.174 HD
ATOM    141  H25 ARG d   1      93.195 -22.862  64.277  0.00  0.00     0.174 HD
ATOM    142  H21 ARG d   1      90.004 -24.290  63.915  0.00  0.00     0.177 HD
ENDBRANCH 131 134
ENDBRANCH 128 131
ENDBRANCH 125 128
ENDBRANCH  13 125
BRANCH 100 143
ATOM    143  C   CYS d   1      86.861 -34.239  58.526  0.00  0.00     0.242 C 
ATOM    144  O   CYS d   1      86.309 -35.340  58.579  0.00  0.00    -0.271 OA
ATOM    145  N   SER d   1      86.211 -33.101  58.736  0.00  0.00    -0.344 N 
ATOM    146 6H13 SER d   1      86.685 -32.230  58.605  0.00  0.00     0.163 HD
BRANCH 145 147
ATOM    147  CA  SER d   1      84.813 -33.104  59.156  0.00  0.00     0.109 C 
ATOM    148 7H13 SER d   1      84.557 -34.122  59.485  0.00  0.00     0.090 H 
BRANCH 147 149
ATOM    149  C   SER d   1      83.858 -32.719  58.025  0.00  0.00     0.240 C 
ATOM    150  O   SER d   1      84.192 -31.898  57.178  0.00  0.00    -0.271 OA
ATOM    151  N   NH2 d   1      82.665 -33.304  58.030  0.00  0.00    -0.368 N 
ATOM    152 1H14 NH2 d   1      82.000 -33.090  57.314  0.00  0.00     0.159 HD
ATOM    153 2H14 NH2 d   1      82.432 -33.958  58.749  0.00  0.00     0.159 HD
ENDBRANCH 147 149
BRANCH 147 154
ATOM    154  CB  SER d   1      84.636 -32.155  60.330  0.00  0.00     0.044 C 
ATOM    155 8H13 SER d   1      85.153 -32.563  61.211  0.00  0.00     0.077 H 
ATOM    156 9H13 SER d   1      83.564 -32.044  60.552  0.00  0.00     0.077 H 
BRANCH 154 157
ATOM    157  OG  SER d   1      85.183 -30.888  60.009  0.00  0.00    -0.398 OA
ATOM    158 0H14 SER d   1      84.736 -30.535  59.249  0.00  0.00     0.209 HD
ENDBRANCH 154 157
ENDBRANCH 147 154
ENDBRANCH 145 147
ENDBRANCH 100 143
BRANCH  94 159
ATOM    159  CB  TYR d   1      92.040 -36.577  59.309  0.00  0.00    -0.014 C 
ATOM    160 5H12 TYR d   1      92.547 -35.761  58.773  0.00  0.00     0.043 H 
ATOM    161 6H12 TYR d   1      91.513 -37.218  58.587  0.00  0.00     0.043 H 
BRANCH 159 162
ATOM    162  CG  TYR d   1      93.091 -37.415  60.031  0.00  0.00    -0.056 A 
ATOM    163  CD1 TYR d   1      92.902 -38.782  60.255  0.00  0.00    -0.074 A 
ATOM    164  CE1 TYR d   1      93.869 -39.547  60.895  0.00  0.00    -0.051 A 
ATOM    165 7H12 TYR d   1      91.984 -39.254  59.923  0.00  0.00     0.084 H 
ATOM    166  CZ  TYR d   1      95.029 -38.950  61.345  0.00  0.00     0.065 A 
ATOM    167 9H12 TYR d   1      93.713 -40.610  61.041  0.00  0.00     0.087 H 
ATOM    168  CE2 TYR d   1      95.233 -37.602  61.132  0.00  0.00    -0.051 A 
ATOM    169  CD2 TYR d   1      94.271 -36.840  60.483  0.00  0.00    -0.074 A 
ATOM    170 0H13 TYR d   1      96.150 -37.135  61.474  0.00  0.00     0.087 H 
ATOM    171 8H12 TYR d   1      94.444 -35.781  60.327  0.00  0.00     0.084 H 
BRANCH 166 172
ATOM    172  OH  TYR d   1      96.010 -39.674  62.004  0.00  0.00    -0.361 OA
ATOM    173 1H13 TYR d   1      95.736 -40.581  62.079  0.00  0.00     0.217 HD
ENDBRANCH 166 172
ENDBRANCH 159 162
ENDBRANCH  94 159
BRANCH  17 174
ATOM    174  CB  ARG d   1      86.637 -33.967  65.811  0.00  0.00    -0.036 C 
ATOM    175  H35 ARG d   1      86.057 -34.148  66.728  0.00  0.00     0.036 H 
ATOM    176  H36 ARG d   1      86.250 -34.601  65.000  0.00  0.00     0.036 H 
BRANCH 174 177
ATOM    177  CG  ARG d   1      86.463 -32.519  65.412  0.00  0.00    -0.048 C 
ATOM    178  H37 ARG d   1      85.421 -32.352  65.101  0.00  0.00     0.035 H 
ATOM    179  H38 ARG d   1      87.137 -32.291  64.573  0.00  0.00     0.035 H 
BRANCH 177 180
ATOM    180  CD  ARG d   1      86.783 -31.619  66.555  0.00  0.00     0.009 C 
ATOM    181  H39 ARG d   1      87.844 -31.755  66.814  0.00  0.00     0.064 H 
ATOM    182  H40 ARG d   1      86.156 -31.912  67.410  0.00  0.00     0.064 H 
BRANCH 180 183
ATOM    183  NE  ARG d   1      86.555 -30.199  66.285  0.00  0.00    -0.227 N 
ATOM    184  CZ  ARG d   1      87.519 -29.281  66.193  0.00  0.00     0.665 C 
ATOM    185  NH1 ARG d   1      88.802 -29.622  66.322  0.00  0.00    -0.235 N 
ATOM    186  NH2 ARG d   1      87.202 -28.012  65.982  0.00  0.00    -0.235 N 
ATOM    187  H42 ARG d   1      89.536 -28.903  66.249  0.00  0.00     0.174 HD
ATOM    188  H43 ARG d   1      89.059 -30.604  66.495  0.00  0.00     0.174 HD
ATOM    189  H44 ARG d   1      86.214 -27.738  65.881  0.00  0.00     0.174 HD
ATOM    190  H45 ARG d   1      87.943 -27.300  65.919  0.00  0.00     0.174 HD
ATOM    191  H41 ARG d   1      85.582 -29.886  66.157  0.00  0.00     0.177 HD
ENDBRANCH 180 183
ENDBRANCH 177 180
ENDBRANCH 174 177
ENDBRANCH  17 174
BRANCH  86 192
ATOM    192  CB  ILE d   1      87.210 -37.701  62.654  0.00  0.00    -0.030 C 
ATOM    193 4H11 ILE d   1      87.156 -36.750  63.204  0.00  0.00     0.043 H 
BRANCH 192 194
ATOM    194  CG1 ILE d   1      86.483 -38.742  63.496  0.00  0.00    -0.063 C 
ATOM    195 5H11 ILE d   1      87.216 -39.277  64.118  0.00  0.00     0.033 H 
ATOM    196 6H11 ILE d   1      85.978 -39.456  62.828  0.00  0.00     0.033 H 
BRANCH 194 197
ATOM    197  CD1 ILE d   1      85.441 -38.084  64.404  0.00  0.00    -0.076 C 
ATOM    198 0H12 ILE d   1      84.933 -38.857  64.999  0.00  0.00     0.027 H 
ATOM    199 1H12 ILE d   1      84.702 -37.551  63.788  0.00  0.00     0.027 H 
ATOM    200 2H12 ILE d   1      85.939 -37.371  65.078  0.00  0.00     0.027 H 
ENDBRANCH 194 197
ENDBRANCH 192 194
BRANCH 192 201
ATOM    201  CG2 ILE d   1      86.536 -37.482  61.314  0.00  0.00    -0.071 C 
ATOM    202 7H11 ILE d   1      87.093 -36.725  60.743  0.00  0.00     0.028 H 
ATOM    203 8H11 ILE d   1      85.505 -37.134  61.475  0.00  0.00     0.028 H 
ATOM    204 9H11 ILE d   1      86.521 -38.428  60.752  0.00  0.00     0.028 H 
ENDBRANCH 192 201
ENDBRANCH  86 192
BRANCH  45 205
ATOM    205  CB  VAL d   1      88.285 -37.425  69.720  0.00  0.00    -0.033 C 
ATOM    206  H48 VAL d   1      87.475 -36.962  70.302  0.00  0.00     0.042 H 
BRANCH 205 207
ATOM    207  CG1 VAL d   1      88.501 -38.842  70.226  0.00  0.00    -0.071 C 
ATOM    208  H49 VAL d   1      88.791 -38.812  71.287  0.00  0.00     0.028 H 
ATOM    209  H50 VAL d   1      89.299 -39.323  69.641  0.00  0.00     0.028 H 
ATOM    210  H51 VAL d   1      87.569 -39.416  70.117  0.00  0.00     0.028 H 
ENDBRANCH 205 207
BRANCH 205 211
ATOM    211  CG2 VAL d   1      89.540 -36.595  69.886  0.00  0.00    -0.071 C 
ATOM    212  H52 VAL d   1      89.358 -35.576  69.513  0.00  0.00     0.028 H 
ATOM    213  H53 VAL d   1      90.361 -37.053  69.315  0.00  0.00     0.028 H 
ATOM    214  H54 VAL d   1      89.813 -36.552  70.951  0.00  0.00     0.028 H 
ENDBRANCH 205 211
ENDBRANCH  45 205
BRANCH  82 215
ATOM    215  CB  ILE d   1      92.346 -38.828  65.366  0.00  0.00    -0.030 C 
ATOM    216 3H10 ILE d   1      92.463 -38.382  66.365  0.00  0.00     0.043 H 
BRANCH 215 217
ATOM    217  CG1 ILE d   1      92.556 -37.702  64.350  0.00  0.00    -0.063 C 
ATOM    218 4H10 ILE d   1      91.600 -37.181  64.196  0.00  0.00     0.033 H 
ATOM    219 5H10 ILE d   1      92.892 -38.141  63.399  0.00  0.00     0.033 H 
BRANCH 217 220
ATOM    220  CD1 ILE d   1      93.579 -36.707  64.810  0.00  0.00    -0.076 C 
ATOM    221 9H10 ILE d   1      93.694 -35.921  64.049  0.00  0.00     0.027 H 
ATOM    222 0H11 ILE d   1      94.543 -37.215  64.961  0.00  0.00     0.027 H 
ATOM    223 1H11 ILE d   1      93.251 -36.255  65.758  0.00  0.00     0.027 H 
ENDBRANCH 217 220
ENDBRANCH 215 217
BRANCH 215 224
ATOM    224  CG2 ILE d   1      93.372 -39.957  65.247  0.00  0.00    -0.071 C 
ATOM    225 6H10 ILE d   1      93.160 -40.726  66.004  0.00  0.00     0.028 H 
ATOM    226 7H10 ILE d   1      94.382 -39.553  65.408  0.00  0.00     0.028 H 
ATOM    227 8H10 ILE d   1      93.311 -40.404  64.244  0.00  0.00     0.028 H 
ENDBRANCH 215 224
ENDBRANCH  82 215
BRANCH  51 228
ATOM    228  CB  ALA d   1      85.881 -41.317  66.183  0.00  0.00    -0.049 C 
ATOM    229  H57 ALA d   1      84.985 -41.921  65.974  0.00  0.00     0.030 H 
ATOM    230  H58 ALA d   1      86.650 -41.951  66.647  0.00  0.00     0.030 H 
ATOM    231  H59 ALA d   1      86.269 -40.899  65.242  0.00  0.00     0.030 H 
ENDBRANCH  51 228
BRANCH  76 232
ATOM    232  CB  GLN d   1      89.816 -43.813  65.834  0.00  0.00    -0.030 C 
ATOM    233  H95 GLN d   1      90.350 -43.597  64.897  0.00  0.00     0.037 H 
ATOM    234  H96 GLN d   1      88.732 -43.730  65.666  0.00  0.00     0.037 H 
BRANCH 232 235
ATOM    235  CG  GLN d   1      90.133 -45.232  66.256  0.00  0.00     0.011 C 
ATOM    236  H97 GLN d   1      89.646 -45.421  67.224  0.00  0.00     0.047 H 
ATOM    237  H98 GLN d   1      91.223 -45.322  66.370  0.00  0.00     0.047 H 
BRANCH 235 238
ATOM    238  CD  GLN d   1      89.669 -46.290  65.278  0.00  0.00     0.215 C 
ATOM    239  OE1 GLN d   1      90.023 -46.278  64.098  0.00  0.00    -0.274 OA
ATOM    240  NE2 GLN d   1      88.884 -47.235  65.773  0.00  0.00    -0.370 N 
ATOM    241  H99 GLN d   1      88.543 -47.964  65.179  0.00  0.00     0.159 HD
ATOM    242 0H10 GLN d   1      88.632 -47.220  66.741  0.00  0.00     0.159 HD
ENDBRANCH 235 238
ENDBRANCH 232 235
ENDBRANCH  76 232
BRANCH  21 243
ATOM    243  CB  ARG d   1      81.447 -40.768  69.653  0.00  0.00    -0.036 C 
ATOM    244  H62 ARG d   1      81.145 -40.810  68.596  0.00  0.00     0.036 H 
ATOM    245  H63 ARG d   1      81.294 -39.749  70.038  0.00  0.00     0.036 H 
BRANCH 243 246
ATOM    246  CG  ARG d   1      80.563 -41.706  70.434  0.00  0.00    -0.048 C 
ATOM    247  H64 ARG d   1      81.203 -42.399  71.000  0.00  0.00     0.035 H 
ATOM    248  H65 ARG d   1      79.944 -42.275  69.724  0.00  0.00     0.035 H 
BRANCH 246 249
ATOM    249  CD  ARG d   1      79.637 -40.988  71.418  0.00  0.00     0.009 C 
ATOM    250  H66 ARG d   1      79.725 -39.902  71.265  0.00  0.00     0.064 H 
ATOM    251  H67 ARG d   1      79.942 -41.239  72.445  0.00  0.00     0.064 H 
BRANCH 249 252
ATOM    252  NE  ARG d   1      78.247 -41.384  71.225  0.00  0.00    -0.227 N 
ATOM    253  CZ  ARG d   1      77.272 -41.100  72.072  0.00  0.00     0.665 C 
ATOM    254  NH1 ARG d   1      77.536 -40.436  73.182  0.00  0.00    -0.235 N 
ATOM    255  NH2 ARG d   1      76.036 -41.493  71.807  0.00  0.00    -0.235 N 
ATOM    256  H69 ARG d   1      76.777 -40.214  73.842  0.00  0.00     0.174 HD
ATOM    257  H70 ARG d   1      78.501 -40.140  73.388  0.00  0.00     0.174 HD
ATOM    258  H71 ARG d   1      75.835 -42.011  70.940  0.00  0.00     0.174 HD
ATOM    259  H72 ARG d   1      75.275 -41.281  72.468  0.00  0.00     0.174 HD
ATOM    260  H68 ARG d   1      78.010 -41.918  70.377  0.00  0.00     0.177 HD
ENDBRANCH 249 252
ENDBRANCH 246 249
ENDBRANCH 243 246
ENDBRANCH  21 243
BRANCH  57 261
ATOM    261  CB  TRP d   1      82.490 -45.399  70.909  0.00  0.00    -0.012 C 
ATOM    262  H75 TRP d   1      82.853 -46.438  70.915  0.00  0.00     0.044 H 
ATOM    263  H76 TRP d   1      82.246 -45.102  69.879  0.00  0.00     0.044 H 
BRANCH 261 264
ATOM    264  CG  TRP d   1      81.266 -45.325  71.721  0.00  0.00    -0.028 A 
ATOM    265  CD1 TRP d   1      81.153 -45.546  73.067  0.00  0.00    -0.015 A 
ATOM    266  NE1 TRP d   1      79.847 -45.376  73.469  0.00  0.00    -0.365 N 
ATOM    267  H77 TRP d   1      81.977 -45.817  73.725  0.00  0.00     0.112 H 
ATOM    268  CE2 TRP d   1      79.093 -45.052  72.372  0.00  0.00     0.042 A 
ATOM    269  H78 TRP d   1      79.496 -45.476  74.432  0.00  0.00     0.165 HD
ATOM    270  CD2 TRP d   1      79.956 -45.011  71.255  0.00  0.00    -0.002 A 
ATOM    271  CZ2 TRP d   1      77.734 -44.791  72.268  0.00  0.00    -0.056 A 
ATOM    272  CE3 TRP d   1      79.423 -44.710  69.997  0.00  0.00    -0.070 A 
ATOM    273  CZ3 TRP d   1      78.079 -44.439  69.898  0.00  0.00    -0.082 A 
ATOM    274  H79 TRP d   1      80.057 -44.691  69.118  0.00  0.00     0.084 H 
ATOM    275  CH2 TRP d   1      77.246 -44.486  71.023  0.00  0.00    -0.081 A 
ATOM    276  H81 TRP d   1      77.657 -44.184  68.933  0.00  0.00     0.083 H 
ATOM    277  H82 TRP d   1      76.189 -44.276  70.907  0.00  0.00     0.083 H 
ATOM    278  H80 TRP d   1      77.085 -44.827  73.135  0.00  0.00     0.086 H 
ENDBRANCH 261 264
ENDBRANCH  57 261
BRANCH  63 279
ATOM    279  CB  THR d   1      86.734 -45.536  67.894  0.00  0.00     0.060 C 
ATOM    280  H85 THR d   1      87.785 -45.610  67.577  0.00  0.00     0.086 H 
BRANCH 279 281
ATOM    281  OG1 THR d   1      86.147 -44.378  67.297  0.00  0.00    -0.393 OA
ATOM    282  H86 THR d   1      86.179 -44.460  66.351  0.00  0.00     0.210 HD
ENDBRANCH 279 281
BRANCH 279 283
ATOM    283  CG2 THR d   1      85.996 -46.781  67.438  0.00  0.00    -0.050 C 
ATOM    284  H87 THR d   1      86.043 -46.854  66.341  0.00  0.00     0.031 H 
ATOM    285  H88 THR d   1      84.945 -46.721  67.757  0.00  0.00     0.031 H 
ATOM    286  H89 THR d   1      86.465 -47.670  67.885  0.00  0.00     0.031 H 
ENDBRANCH 279 283
ENDBRANCH  63 279
TORSDOF 41
