REMARK WARNING: 32 MAX_TORS EXCEEDED!!!
REMARK  57 active torsions:
REMARK  status: ('A' for Active; 'I' for Inactive)
REMARK    1  A    between atoms: N_1  and  CA_2 
REMARK    2  A    between atoms: CA_2  and  C_3 
REMARK    3  A    between atoms: CA_2  and  CB_5 
REMARK       I    between atoms: C_3  and  N_10 
REMARK    4  A    between atoms: CB_5  and  CG_6 
REMARK    5  A    between atoms: CG_6  and  CD_7 
REMARK       I    between atoms: CD_7  and  NE2_9 
REMARK    6  A    between atoms: N_10  and  CA_11 
REMARK    7  A    between atoms: CA_11  and  C_12 
REMARK    8  A    between atoms: CA_11  and  CB_14 
REMARK       I    between atoms: C_12  and  N_19 
REMARK    9  A    between atoms: CB_14  and  CG_15 
REMARK   10  A    between atoms: CG_15  and  CD_16 
REMARK       I    between atoms: CD_16  and  NE2_18 
REMARK   11  A    between atoms: N_19  and  CA_20 
REMARK   12  A    between atoms: CA_20  and  C_21 
REMARK   13  A    between atoms: CA_20  and  CB_23 
REMARK       I    between atoms: C_21  and  N_30 
REMARK   14  A    between atoms: CB_23  and  CG_24 
REMARK   15  A    between atoms: CG_24  and  CD_25 
REMARK   16  A    between atoms: CD_25  and  NE_26 
REMARK       I    between atoms: NE_26  and  CZ_27 
REMARK       I    between atoms: CZ_27  and  NH1_28 
REMARK       I    between atoms: CZ_27  and  NH2_29 
REMARK   17  A    between atoms: N_30  and  CA_31 
REMARK   18  A    between atoms: CA_31  and  C_32 
REMARK   19  A    between atoms: CA_31  and  CB_34 
REMARK       I    between atoms: C_32  and  N_41 
REMARK   20  A    between atoms: CB_34  and  CG_35 
REMARK   21  A    between atoms: CG_35  and  CD_36 
REMARK   22  A    between atoms: CD_36  and  NE_37 
REMARK       I    between atoms: NE_37  and  CZ_38 
REMARK       I    between atoms: CZ_38  and  NH1_39 
REMARK       I    between atoms: CZ_38  and  NH2_40 
REMARK   23  A    between atoms: N_41  and  CA_42 
REMARK   24  A    between atoms: CA_42  and  C_43 
REMARK   25  A    between atoms: CA_42  and  CB_45 
REMARK       I    between atoms: C_43  and  N_48 
REMARK   26  A    between atoms: CB_45  and  OG1_46 
REMARK   27  A    between atoms: CB_45  and  CG2_47 
REMARK   28  A    between atoms: N_48  and  CA_49 
REMARK   29  A    between atoms: CA_49  and  C_50 
REMARK   30  A    between atoms: CA_49  and  CB_52 
REMARK       I    between atoms: C_50  and  N_59 
REMARK   31  A    between atoms: CB_52  and  CG_53 
REMARK   32  A    between atoms: CG_53  and  CD_54 
REMARK   33  A    between atoms: CD_54  and  NE_55 
REMARK       I    between atoms: NE_55  and  CZ_56 
REMARK       I    between atoms: CZ_56  and  NH1_57 
REMARK   34  A    between atoms: N_59  and  CA_60 
REMARK   35  A    between atoms: CA_60  and  C_61 
REMARK   36  A    between atoms: CA_60  and  CB_63 
REMARK       I    between atoms: C_61  and  N_67 
REMARK   37  A    between atoms: CB_63  and  CG_64 
REMARK       I    between atoms: CG_64  and  ND2_66 
REMARK   38  A    between atoms: N_67  and  CA_68 
REMARK   39  A    between atoms: CA_68  and  C_69 
REMARK       I    between atoms: C_69  and  N_71 
REMARK   40  A    between atoms: N_71  and  CA_72 
REMARK   41  A    between atoms: CA_72  and  C_73 
REMARK   42  A    between atoms: CA_72  and  CB_75 
REMARK       I    between atoms: C_73  and  N_76 
REMARK   43  A    between atoms: N_76  and  CA_77 
REMARK   44  A    between atoms: CA_77  and  C_78 
REMARK   45  A    between atoms: CA_77  and  CB_80 
REMARK       I    between atoms: C_78  and  N_82 
REMARK   46  A    between atoms: CB_80  and  OG_81 
REMARK   47  A    between atoms: N_82  and  CA_83 
REMARK   48  A    between atoms: CA_83  and  C_84 
REMARK   49  A    between atoms: CA_83  and  CB_86 
REMARK       I    between atoms: C_84  and  N_91 
REMARK   50  A    between atoms: CB_86  and  CG_87 
REMARK   51  A    between atoms: CG_87  and  CD_88 
REMARK   52  A    between atoms: CD_88  and  CE_89 
REMARK   53  A    between atoms: CE_89  and  NZ_90 
REMARK   54  A    between atoms: N_91  and  CA_92 
REMARK   55  A    between atoms: CA_92  and  C_93 
REMARK   56  A    between atoms: CA_92  and  CB_95 
REMARK   57  A    between atoms: CB_95  and  OG_96 
ROOT
ATOM      1  N   ARG d   1      22.846 -10.455  44.516  0.00  0.00    -0.346 N 
ATOM      2  H52 ARG d   1      23.362 -10.930  45.229  0.00  0.00     0.163 HD
ATOM      3  C   THR d   1      21.570 -10.768  44.322  0.00  0.00     0.243 C 
ATOM      4  O   THR d   1      20.906 -10.334  43.380  0.00  0.00    -0.271 OA
ENDROOT
BRANCH   1   5
ATOM      5  CA  ARG d   1      23.514  -9.435  43.714  0.00  0.00     0.089 C 
ATOM      6  H53 ARG d   1      22.974  -8.487  43.855  0.00  0.00     0.087 H 
BRANCH   5   7
ATOM      7  C   ARG d   1      23.505  -9.763  42.221  0.00  0.00     0.241 C 
ATOM      8  O   ARG d   1      23.505  -8.860  41.383  0.00  0.00    -0.271 OA
ATOM      9  N   ASN d   1      23.487 -11.052  41.891  0.00  0.00    -0.346 N 
ATOM     10  H65 ASN d   1      23.500 -11.741  42.615  0.00  0.00     0.163 HD
BRANCH   9  11
ATOM     11  CA  ASN d   1      23.449 -11.484  40.496  0.00  0.00     0.097 C 
ATOM     12  H66 ASN d   1      24.164 -10.866  39.933  0.00  0.00     0.088 H 
BRANCH  11  13
ATOM     13  C   ASN d   1      22.066 -11.296  39.864  0.00  0.00     0.241 C 
ATOM     14  O   ASN d   1      21.891 -11.505  38.664  0.00  0.00    -0.271 OA
ATOM     15  N   GLY d   1      21.088 -10.910  40.680  0.00  0.00    -0.351 N 
ATOM     16  H71 GLY d   1      21.276 -10.834  41.659  0.00  0.00     0.163 HD
BRANCH  15  17
ATOM     17  CA  GLY d   1      19.756 -10.595  40.192  0.00  0.00     0.069 C 
ATOM     18  H72 GLY d   1      19.857 -10.067  39.232  0.00  0.00     0.078 H 
ATOM     19  H73 GLY d   1      19.268  -9.935  40.924  0.00  0.00     0.078 H 
BRANCH  17  20
ATOM     20  C   GLY d   1      18.867 -11.805  39.977  0.00  0.00     0.236 C 
ATOM     21  O   GLY d   1      17.946 -11.763  39.160  0.00  0.00    -0.272 OA
ATOM     22  N   ALA d   1      19.127 -12.877  40.719  0.00  0.00    -0.347 N 
ATOM     23  H74 ALA d   1      19.871 -12.841  41.386  0.00  0.00     0.163 HD
BRANCH  22  24
ATOM     24  CA  ALA d   1      18.352 -14.104  40.582  0.00  0.00     0.086 C 
ATOM     25  H75 ALA d   1      17.956 -14.152  39.557  0.00  0.00     0.086 H 
BRANCH  24  26
ATOM     26  C   ALA d   1      17.174 -14.099  41.552  0.00  0.00     0.240 C 
ATOM     27  O   ALA d   1      16.114 -13.549  41.249  0.00  0.00    -0.271 OA
ATOM     28  N   SER d   1      17.365 -14.707  42.718  0.00  0.00    -0.344 N 
ATOM     29  H79 SER d   1      18.253 -15.128  42.902  0.00  0.00     0.163 HD
BRANCH  28  30
ATOM     30  CA  SER d   1      16.326 -14.782  43.738  0.00  0.00     0.109 C 
ATOM     31  H80 SER d   1      16.005 -13.761  43.990  0.00  0.00     0.090 H 
BRANCH  30  32
ATOM     32  C   SER d   1      16.894 -15.441  44.984  0.00  0.00     0.243 C 
ATOM     33  O   SER d   1      17.731 -16.341  44.890  0.00  0.00    -0.271 OA
ATOM     34  N   LYS d   1      16.440 -14.992  46.148  0.00  0.00    -0.346 N 
ATOM     35  H84 LYS d   1      15.716 -14.303  46.159  0.00  0.00     0.163 HD
BRANCH  34  36
ATOM     36  CA  LYS d   1      16.977 -15.484  47.411  0.00  0.00     0.089 C 
ATOM     37  H85 LYS d   1      18.073 -15.392  47.378  0.00  0.00     0.087 H 
BRANCH  36  38
ATOM     38  C   LYS d   1      16.627 -16.959  47.623  0.00  0.00     0.241 C 
ATOM     39  O   LYS d   1      15.476 -17.301  47.903  0.00  0.00    -0.271 OA
ATOM     40  N   SER d   1      17.629 -17.824  47.485  0.00  0.00    -0.343 N 
ATOM     41  H97 SER d   1      18.538 -17.479  47.252  0.00  0.00     0.163 HD
BRANCH  40  42
ATOM     42  CA  SER d   1      17.443 -19.263  47.663  0.00  0.00     0.116 C 
ATOM     43  H98 SER d   1      16.493 -19.551  47.188  0.00  0.00     0.093 H 
BRANCH  42  44
ATOM     44  C   SER d   1      17.371 -19.620  49.144  0.00  0.00     0.198 C 
ATOM     45  O   SER d   1      17.380 -18.744  50.009  0.00  0.00    -0.646 OA
ATOM     46  OXT SER d   1      17.300 -20.793  49.510  0.00  0.00    -0.646 OA
ENDBRANCH  42  44
BRANCH  42  47
ATOM     47  CB  SER d   1      18.579 -20.042  46.990  0.00  0.00     0.045 C 
ATOM     48  H99 SER d   1      18.419 -21.119  47.150  0.00  0.00     0.077 H 
ATOM     49 0H10 SER d   1      19.536 -19.742  47.442  0.00  0.00     0.077 H 
BRANCH  47  50
ATOM     50  OG  SER d   1      18.626 -19.784  45.596  0.00  0.00    -0.398 OA
ATOM     51 1H10 SER d   1      19.338 -20.279  45.207  0.00  0.00     0.209 HD
ENDBRANCH  47  50
ENDBRANCH  42  47
ENDBRANCH  40  42
ENDBRANCH  36  38
BRANCH  36  52
ATOM     52  CB  LYS d   1      16.457 -14.637  48.576  0.00  0.00    -0.038 C 
ATOM     53  H86 LYS d   1      15.377 -14.818  48.678  0.00  0.00     0.036 H 
ATOM     54  H87 LYS d   1      16.631 -13.578  48.336  0.00  0.00     0.036 H 
BRANCH  52  55
ATOM     55  CG  LYS d   1      17.119 -14.937  49.916  0.00  0.00    -0.061 C 
ATOM     56  H88 LYS d   1      16.884 -15.972  50.206  0.00  0.00     0.033 H 
ATOM     57  H89 LYS d   1      16.722 -14.245  50.673  0.00  0.00     0.033 H 
BRANCH  55  58
ATOM     58  CD  LYS d   1      18.632 -14.775  49.842  0.00  0.00    -0.043 C 
ATOM     59  H90 LYS d   1      18.865 -13.858  49.280  0.00  0.00     0.035 H 
ATOM     60  H91 LYS d   1      19.058 -15.644  49.319  0.00  0.00     0.035 H 
BRANCH  58  61
ATOM     61  CE  LYS d   1      19.259 -14.677  51.225  0.00  0.00     0.080 C 
ATOM     62  H92 LYS d   1      19.122 -15.636  51.746  0.00  0.00     0.075 H 
ATOM     63  H93 LYS d   1      18.754 -13.878  51.788  0.00  0.00     0.075 H 
BRANCH  61  64
ATOM     64  NZ  LYS d   1      20.717 -14.370  51.156  0.00  0.00    -0.079 N 
ATOM     65  H94 LYS d   1      21.093 -14.314  52.090  0.00  0.00     0.274 HD
ATOM     66  H95 LYS d   1      20.853 -13.489  50.685  0.00  0.00     0.274 HD
ATOM     67  H96 LYS d   1      21.190 -15.100  50.647  0.00  0.00     0.274 HD
ENDBRANCH  61  64
ENDBRANCH  58  61
ENDBRANCH  55  58
ENDBRANCH  52  55
ENDBRANCH  36  52
ENDBRANCH  34  36
ENDBRANCH  30  32
BRANCH  30  68
ATOM     68  CB  SER d   1      15.112 -15.562  43.233  0.00  0.00     0.044 C 
ATOM     69  H81 SER d   1      14.456 -15.795  44.084  0.00  0.00     0.077 H 
ATOM     70  H82 SER d   1      15.455 -16.498  42.767  0.00  0.00     0.077 H 
BRANCH  68  71
ATOM     71  OG  SER d   1      14.382 -14.811  42.279  0.00  0.00    -0.398 OA
ATOM     72  H83 SER d   1      14.943 -14.610  41.539  0.00  0.00     0.209 HD
ENDBRANCH  68  71
ENDBRANCH  30  68
ENDBRANCH  28  30
ENDBRANCH  24  26
BRANCH  24  73
ATOM     73  CB  ALA d   1      19.240 -15.323  40.809  0.00  0.00    -0.049 C 
ATOM     74  H76 ALA d   1      18.640 -16.239  40.702  0.00  0.00     0.030 H 
ATOM     75  H77 ALA d   1      19.668 -15.281  41.821  0.00  0.00     0.030 H 
ATOM     76  H78 ALA d   1      20.052 -15.328  40.067  0.00  0.00     0.030 H 
ENDBRANCH  24  73
ENDBRANCH  22  24
ENDBRANCH  17  20
ENDBRANCH  15  17
ENDBRANCH  11  13
BRANCH  11  77
ATOM     77  CB  ASN d   1      23.885 -12.950  40.380  0.00  0.00     0.036 C 
ATOM     78  H67 ASN d   1      24.947 -13.023  40.656  0.00  0.00     0.051 H 
ATOM     79  H68 ASN d   1      23.753 -13.274  39.337  0.00  0.00     0.051 H 
BRANCH  77  80
ATOM     80  CG  ASN d   1      23.085 -13.878  41.281  0.00  0.00     0.217 C 
ATOM     81  OD1 ASN d   1      21.946 -13.585  41.644  0.00  0.00    -0.274 OA
ATOM     82  ND2 ASN d   1      23.685 -15.007  41.647  0.00  0.00    -0.370 N 
ATOM     83  H69 ASN d   1      23.209 -15.657  42.239  0.00  0.00     0.159 HD
ATOM     84  H70 ASN d   1      24.612 -15.206  41.330  0.00  0.00     0.159 HD
ENDBRANCH  77  80
ENDBRANCH  11  77
ENDBRANCH   9  11
ENDBRANCH   5   7
BRANCH   5  85
ATOM     85  CB  ARG d   1      24.952  -9.249  44.201  0.00  0.00    -0.036 C 
ATOM     86  H54 ARG d   1      25.502 -10.185  44.024  0.00  0.00     0.036 H 
ATOM     87  H55 ARG d   1      24.928  -9.036  45.280  0.00  0.00     0.036 H 
BRANCH  85  88
ATOM     88  CG  ARG d   1      25.693  -8.121  43.508  0.00  0.00    -0.048 C 
ATOM     89  H56 ARG d   1      25.051  -7.228  43.497  0.00  0.00     0.035 H 
ATOM     90  H57 ARG d   1      25.917  -8.424  42.475  0.00  0.00     0.035 H 
BRANCH  88  91
ATOM     91  CD  ARG d   1      26.997  -7.782  44.215  0.00  0.00     0.009 C 
ATOM     92  H58 ARG d   1      27.616  -7.169  43.543  0.00  0.00     0.064 H 
ATOM     93  H59 ARG d   1      27.526  -8.717  44.450  0.00  0.00     0.064 H 
BRANCH  91  94
ATOM     94  NE  ARG d   1      26.774  -7.041  45.457  0.00  0.00    -0.227 N 
ATOM     95  CZ  ARG d   1      26.694  -7.583  46.671  0.00  0.00     0.665 C 
ATOM     96  NH1 ARG d   1      26.492  -6.799  47.721  0.00  0.00    -0.235 N 
ATOM     97  NH2 ARG d   1      26.816  -8.894  46.849  0.00  0.00    -0.235 N 
ATOM     98  H61 ARG d   1      26.428  -7.208  48.664  0.00  0.00     0.174 HD
ATOM     99  H62 ARG d   1      26.399  -5.781  47.593  0.00  0.00     0.174 HD
ATOM    100  H63 ARG d   1      26.973  -9.511  46.039  0.00  0.00     0.174 HD
ATOM    101  H64 ARG d   1      26.753  -9.293  47.797  0.00  0.00     0.174 HD
ATOM    102  H60 ARG d   1      26.671  -6.019  45.387  0.00  0.00     0.177 HD
ENDBRANCH  91  94
ENDBRANCH  88  91
ENDBRANCH  85  88
ENDBRANCH   5  85
ENDBRANCH   1   5
BRANCH   3 103
ATOM    103  CA  THR d   1      20.946 -11.719  45.331  0.00  0.00     0.113 C 
ATOM    104  H46 THR d   1      21.085 -11.313  46.344  0.00  0.00     0.091 H 
BRANCH 103 105
ATOM    105  N   THR d   1      19.520 -11.808  45.053  0.00  0.00    -0.344 N 
ATOM    106  C   ARG d   1      18.685 -10.829  45.384  0.00  0.00     0.241 C 
ATOM    107  O   ARG d   1      19.025  -9.850  46.050  0.00  0.00    -0.271 OA
ATOM    108  H45 THR d   1      19.160 -12.625  44.602  0.00  0.00     0.163 HD
BRANCH 106 109
ATOM    109  CA  ARG d   1      17.251 -10.982  44.905  0.00  0.00     0.089 C 
ATOM    110  H33 ARG d   1      17.026 -12.054  44.806  0.00  0.00     0.087 H 
BRANCH 109 111
ATOM    111  N   ARG d   1      16.329 -10.402  45.871  0.00  0.00    -0.346 N 
ATOM    112  C   ARG d   1      15.322 -11.096  46.386  0.00  0.00     0.241 C 
ATOM    113  O   ARG d   1      15.129 -12.285  46.141  0.00  0.00    -0.271 OA
ATOM    114  H32 ARG d   1      16.459  -9.452  46.155  0.00  0.00     0.163 HD
BRANCH 112 115
ATOM    115  CA  ARG d   1      14.388 -10.334  47.309  0.00  0.00     0.089 C 
ATOM    116  H20 ARG d   1      14.501  -9.257  47.117  0.00  0.00     0.087 H 
BRANCH 115 117
ATOM    117  N   ARG d   1      13.011 -10.717  47.022  0.00  0.00    -0.346 N 
ATOM    118  C   GLN d   1      12.348 -10.189  45.997  0.00  0.00     0.241 C 
ATOM    119  O   GLN d   1      12.791  -9.267  45.313  0.00  0.00    -0.271 OA
ATOM    120  H19 ARG d   1      12.556 -11.389  47.607  0.00  0.00     0.163 HD
BRANCH 118 121
ATOM    121  CA  GLN d   1      10.988 -10.795  45.685  0.00  0.00     0.090 C 
ATOM    122  H12 GLN d   1      10.830 -11.650  46.359  0.00  0.00     0.087 H 
BRANCH 121 123
ATOM    123  N   GLN d   1       9.901  -9.847  45.892  0.00  0.00    -0.346 N 
ATOM    124  C   GLN d   1       8.644 -10.260  46.013  0.00  0.00     0.249 C 
ATOM    125  O   GLN d   1       8.330 -11.449  46.027  0.00  0.00    -0.271 OA
ATOM    126  H11 GLN d   1      10.104  -8.869  45.944  0.00  0.00     0.163 HD
BRANCH 124 127
ATOM    127  CA  GLN d   1       7.581  -9.177  46.142  0.00  0.00     0.176 C 
ATOM    128  H4  GLN d   1       7.887  -8.312  45.535  0.00  0.00     0.099 H 
BRANCH 127 129
ATOM    129  N   GLN d   1       6.297  -9.656  45.649  0.00  0.00    -0.066 N 
ATOM    130  H1  GLN d   1       5.608  -8.926  45.743  0.00  0.00     0.275 HD
ATOM    131  H2  GLN d   1       6.010 -10.460  46.185  0.00  0.00     0.275 HD
ATOM    132  H3  GLN d   1       6.385  -9.913  44.678  0.00  0.00     0.275 HD
ENDBRANCH 127 129
BRANCH 127 133
ATOM    133  CB  GLN d   1       7.463  -8.732  47.597  0.00  0.00    -0.022 C 
ATOM    134  H5  GLN d   1       8.469  -8.482  47.964  0.00  0.00     0.037 H 
ATOM    135  H6  GLN d   1       7.056  -9.570  48.182  0.00  0.00     0.037 H 
BRANCH 133 136
ATOM    136  CG  GLN d   1       6.566  -7.525  47.806  0.00  0.00     0.011 C 
ATOM    137  H7  GLN d   1       5.558  -7.766  47.437  0.00  0.00     0.047 H 
ATOM    138  H8  GLN d   1       6.974  -6.679  47.234  0.00  0.00     0.047 H 
BRANCH 136 139
ATOM    139  CD  GLN d   1       6.467  -7.124  49.263  0.00  0.00     0.215 C 
ATOM    140  OE1 GLN d   1       5.947  -7.876  50.090  0.00  0.00    -0.274 OA
ATOM    141  NE2 GLN d   1       6.975  -5.939  49.589  0.00  0.00    -0.370 N 
ATOM    142  H9  GLN d   1       6.938  -5.623  50.537  0.00  0.00     0.159 HD
ATOM    143  H10 GLN d   1       7.394  -5.364  48.886  0.00  0.00     0.159 HD
ENDBRANCH 136 139
ENDBRANCH 133 136
ENDBRANCH 127 133
ENDBRANCH 124 127
ENDBRANCH 121 123
BRANCH 121 144
ATOM    144  CB  GLN d   1      10.972 -11.301  44.238  0.00  0.00    -0.030 C 
ATOM    145  H13 GLN d   1      11.008 -10.427  43.571  0.00  0.00     0.037 H 
ATOM    146  H14 GLN d   1      10.031 -11.847  44.078  0.00  0.00     0.037 H 
BRANCH 144 147
ATOM    147  CG  GLN d   1      12.125 -12.227  43.867  0.00  0.00     0.011 C 
ATOM    148  H15 GLN d   1      13.072 -11.709  44.077  0.00  0.00     0.047 H 
ATOM    149  H16 GLN d   1      12.061 -12.454  42.792  0.00  0.00     0.047 H 
BRANCH 147 150
ATOM    150  CD  GLN d   1      12.107 -13.532  44.638  0.00  0.00     0.215 C 
ATOM    151  OE1 GLN d   1      12.226 -13.553  45.864  0.00  0.00    -0.274 OA
ATOM    152  NE2 GLN d   1      11.959 -14.635  43.915  0.00  0.00    -0.370 N 
ATOM    153  H17 GLN d   1      11.939 -15.528  44.364  0.00  0.00     0.159 HD
ATOM    154  H18 GLN d   1      11.867 -14.573  42.921  0.00  0.00     0.159 HD
ENDBRANCH 147 150
ENDBRANCH 144 147
ENDBRANCH 121 144
ENDBRANCH 118 121
ENDBRANCH 115 117
BRANCH 115 155
ATOM    155  CB  ARG d   1      14.743 -10.602  48.770  0.00  0.00    -0.036 C 
ATOM    156  H21 ARG d   1      15.830 -10.488  48.890  0.00  0.00     0.036 H 
ATOM    157  H22 ARG d   1      14.454 -11.635  49.014  0.00  0.00     0.036 H 
BRANCH 155 158
ATOM    158  CG  ARG d   1      14.051  -9.666  49.746  0.00  0.00    -0.048 C 
ATOM    159  H23 ARG d   1      12.963  -9.734  49.595  0.00  0.00     0.035 H 
ATOM    160  H24 ARG d   1      14.385  -8.636  49.550  0.00  0.00     0.035 H 
BRANCH 158 161
ATOM    161  CD  ARG d   1      14.371 -10.022  51.187  0.00  0.00     0.009 C 
ATOM    162  H25 ARG d   1      15.431  -9.802  51.380  0.00  0.00     0.064 H 
ATOM    163  H26 ARG d   1      14.187 -11.096  51.337  0.00  0.00     0.064 H 
BRANCH 161 164
ATOM    164  NE  ARG d   1      13.552  -9.266  52.134  0.00  0.00    -0.227 N 
ATOM    165  CZ  ARG d   1      13.858  -8.059  52.602  0.00  0.00     0.665 C 
ATOM    166  NH1 ARG d   1      13.047  -7.457  53.461  0.00  0.00    -0.235 N 
ATOM    167  NH2 ARG d   1      14.970  -7.448  52.214  0.00  0.00    -0.235 N 
ATOM    168  H28 ARG d   1      13.283  -6.522  53.824  0.00  0.00     0.174 HD
ATOM    169  H29 ARG d   1      12.181  -7.924  53.765  0.00  0.00     0.174 HD
ATOM    170  H30 ARG d   1      15.605  -7.909  51.547  0.00  0.00     0.174 HD
ATOM    171  H31 ARG d   1      15.198  -6.513  52.580  0.00  0.00     0.174 HD
ATOM    172  H27 ARG d   1      12.677  -9.699  52.462  0.00  0.00     0.177 HD
ENDBRANCH 161 164
ENDBRANCH 158 161
ENDBRANCH 155 158
ENDBRANCH 115 155
ENDBRANCH 112 115
ENDBRANCH 109 111
BRANCH 109 173
ATOM    173  CB  ARG d   1      17.080 -10.317  43.535  0.00  0.00    -0.036 C 
ATOM    174  H34 ARG d   1      17.732 -10.836  42.817  0.00  0.00     0.036 H 
ATOM    175  H35 ARG d   1      17.393  -9.266  43.621  0.00  0.00     0.036 H 
BRANCH 173 176
ATOM    176  CG  ARG d   1      15.655 -10.346  42.992  0.00  0.00    -0.048 C 
ATOM    177  H36 ARG d   1      14.967  -9.988  43.772  0.00  0.00     0.035 H 
ATOM    178  H37 ARG d   1      15.396 -11.380  42.721  0.00  0.00     0.035 H 
BRANCH 176 179
ATOM    179  CD  ARG d   1      15.513  -9.463  41.764  0.00  0.00     0.009 C 
ATOM    180  H38 ARG d   1      14.481  -9.533  41.390  0.00  0.00     0.064 H 
ATOM    181  H39 ARG d   1      16.209  -9.814  40.988  0.00  0.00     0.064 H 
BRANCH 179 182
ATOM    182  NE  ARG d   1      15.814  -8.063  42.077  0.00  0.00    -0.227 N 
ATOM    183  CZ  ARG d   1      16.736  -7.318  41.469  0.00  0.00     0.665 C 
ATOM    184  NH1 ARG d   1      16.913  -6.063  41.856  0.00  0.00    -0.235 N 
ATOM    185  NH2 ARG d   1      17.478  -7.802  40.478  0.00  0.00    -0.235 N 
ATOM    186  H41 ARG d   1      17.623  -5.477  41.394  0.00  0.00     0.174 HD
ATOM    187  H42 ARG d   1      16.341  -5.674  42.619  0.00  0.00     0.174 HD
ATOM    188  H43 ARG d   1      17.351  -8.776  40.167  0.00  0.00     0.174 HD
ATOM    189  H44 ARG d   1      18.180  -7.203  40.021  0.00  0.00     0.174 HD
ATOM    190  H40 ARG d   1      15.268  -7.619  42.829  0.00  0.00     0.177 HD
ENDBRANCH 179 182
ENDBRANCH 176 179
ENDBRANCH 173 176
ENDBRANCH 109 173
ENDBRANCH 106 109
ENDBRANCH 103 105
BRANCH 103 191
ATOM    191  CB  THR d   1      21.637 -13.093  45.258  0.00  0.00     0.060 C 
ATOM    192  H47 THR d   1      22.714 -12.962  45.438  0.00  0.00     0.086 H 
BRANCH 191 193
ATOM    193  OG1 THR d   1      21.442 -13.662  43.958  0.00  0.00    -0.393 OA
ATOM    194  H48 THR d   1      21.816 -13.085  43.302  0.00  0.00     0.210 HD
ENDBRANCH 191 193
BRANCH 191 195
ATOM    195  CG2 THR d   1      21.071 -14.030  46.308  0.00  0.00    -0.050 C 
ATOM    196  H49 THR d   1      21.576 -15.005  46.240  0.00  0.00     0.031 H 
ATOM    197  H50 THR d   1      19.993 -14.163  46.137  0.00  0.00     0.031 H 
ATOM    198  H51 THR d   1      21.234 -13.601  47.308  0.00  0.00     0.031 H 
ENDBRANCH 191 195
ENDBRANCH 103 191
ENDBRANCH   3 103
TORSDOF 57
