REMARK  18 active torsions:
REMARK  status: ('A' for Active; 'I' for Inactive)
REMARK    1  A    between atoms: O3_1  and  C25_2 
REMARK    2  A    between atoms: C25_2  and  C27_3 
REMARK    3  A    between atoms: C25_2  and  C26_10 
REMARK    4  A    between atoms: C25_2  and  C24_17 
REMARK    5  A    between atoms: C27_3  and  C34_4 
REMARK    6  A    between atoms: C26_10  and  C28_11 
REMARK    7  A    between atoms: C24_17  and  C23_18 
REMARK    8  A    between atoms: C23_18  and  C22_19 
REMARK    9  A    between atoms: C22_19  and  C20_20 
REMARK   10  A    between atoms: C20_20  and  C21_21 
REMARK   11  A    between atoms: C20_20  and  C17_22 
REMARK   12  A    between atoms: C13_23  and  C18_24 
REMARK   13  A    between atoms: C8_31  and  C7_32 
REMARK   14  A    between atoms: C7_32  and  C6_33 
REMARK   15  A    between atoms: C6_33  and  C5_34 
REMARK   16  A    between atoms: C1_36  and  O1_37 
REMARK   17  A    between atoms: C3_39  and  O2_40 
REMARK   18  A    between atoms: C2_41  and  C40_42 
ROOT
ATOM      1  C17 AKX d   1     164.936   3.324  47.936  0.00  0.00    -0.043 C 
ATOM      2  C13 AKX d   1     164.453   4.559  47.153  0.00  0.00    -0.033 C 
ATOM      3  C12 AKX d   1     164.210   5.843  47.957  0.00  0.00    -0.057 C 
ATOM      4  C11 AKX d   1     164.083   7.088  47.020  0.00  0.00    -0.061 C 
ATOM      5  C9  AKX d   1     165.338   7.265  46.149  0.00  0.00    -0.044 C 
ATOM      6  C16 AKX d   1     165.645   2.520  46.837  0.00  0.00    -0.060 C 
ATOM      7  C15 AKX d   1     166.098   3.475  45.705  0.00  0.00    -0.057 C 
ATOM      8  C14 AKX d   1     165.678   4.799  46.257  0.00  0.00    -0.025 C 
ATOM      9  C8  AKX d   1     165.524   6.002  45.343  0.00  0.00    -0.075 C 
ATOM     10  H26 AKX d   1     165.686   3.700  48.647  0.00  0.00     0.041 H 
ATOM     11  H30 AKX d   1     165.053   5.998  48.646  0.00  0.00     0.034 H 
ATOM     12  H31 AKX d   1     163.280   5.733  48.534  0.00  0.00     0.034 H 
ATOM     13  H32 AKX d   1     163.946   7.988  47.637  0.00  0.00     0.033 H 
ATOM     14  H33 AKX d   1     163.209   6.956  46.365  0.00  0.00     0.033 H 
ATOM     15  H34 AKX d   1     166.217   7.433  46.789  0.00  0.00     0.039 H 
ATOM     16  H35 AKX d   1     165.207   8.123  45.474  0.00  0.00     0.039 H 
ATOM     17  H36 AKX d   1     164.952   1.770  46.428  0.00  0.00     0.033 H 
ATOM     18  H37 AKX d   1     166.524   2.014  47.263  0.00  0.00     0.033 H 
ATOM     19  H38 AKX d   1     165.584   3.251  44.759  0.00  0.00     0.034 H 
ATOM     20  H39 AKX d   1     167.186   3.429  45.550  0.00  0.00     0.034 H 
ATOM     21  H40 AKX d   1     166.497   5.091  46.931  0.00  0.00     0.048 H 
ENDROOT
BRANCH   1  22
ATOM     22  C20 AKX d   1     164.041   2.363  48.794  0.00  0.00    -0.053 C 
ATOM     23  H22 AKX d   1     164.743   1.830  49.452  0.00  0.00     0.040 H 
BRANCH  22  24
ATOM     24  C22 AKX d   1     163.037   2.999  49.685  0.00  0.00    -0.061 C 
ATOM     25  H20 AKX d   1     163.544   3.699  50.365  0.00  0.00     0.033 H 
ATOM     26  H21 AKX d   1     162.303   3.546  49.076  0.00  0.00     0.033 H 
BRANCH  24  27
ATOM     27  C23 AKX d   1     162.308   1.912  50.516  0.00  0.00    -0.062 C 
ATOM     28  H18 AKX d   1     162.814   0.948  50.359  0.00  0.00     0.033 H 
ATOM     29  H19 AKX d   1     162.362   2.185  51.580  0.00  0.00     0.033 H 
BRANCH  27  30
ATOM     30  C24 AKX d   1     160.840   1.768  50.119  0.00  0.00    -0.036 C 
ATOM     31  H16 AKX d   1     160.367   2.759  50.186  0.00  0.00     0.037 H 
ATOM     32  H17 AKX d   1     160.798   1.411  49.079  0.00  0.00     0.037 H 
BRANCH  30  33
ATOM     33  C25 AKX d   1     160.033   0.784  51.002  0.00  0.00     0.066 C 
BRANCH  33  34
ATOM     34  O3  AKX d   1     160.630  -0.554  50.985  0.00  0.00    -0.389 OA
ATOM     35  H1  AKX d   1     160.686  -0.863  50.089  0.00  0.00     0.210 HD
ENDBRANCH  33  34
BRANCH  33  36
ATOM     36  C27 AKX d   1     158.639   0.638  50.380  0.00  0.00    -0.012 C 
ATOM     37  H2  AKX d   1     158.164   1.630  50.389  0.00  0.00     0.044 H 
ATOM     38  H3  AKX d   1     158.061  -0.051  51.014  0.00  0.00     0.044 H 
BRANCH  36  39
ATOM     39  C34 AKX d   1     158.580   0.119  48.974  0.00  0.00    -0.055 A 
ATOM     40  C39 AKX d   1     158.513   0.969  47.866  0.00  0.00    -0.077 A 
ATOM     41  C38 AKX d   1     158.450   0.423  46.573  0.00  0.00    -0.082 A 
ATOM     42  H4  AKX d   1     158.510   2.044  48.004  0.00  0.00     0.084 H 
ATOM     43  C37 AKX d   1     158.460  -0.965  46.421  0.00  0.00    -0.083 A 
ATOM     44  H5  AKX d   1     158.394   1.070  45.705  0.00  0.00     0.083 H 
ATOM     45  C36 AKX d   1     158.534  -1.790  47.539  0.00  0.00    -0.082 A 
ATOM     46  H6  AKX d   1     158.410  -1.401  45.430  0.00  0.00     0.083 H 
ATOM     47  C35 AKX d   1     158.588  -1.248  48.797  0.00  0.00    -0.077 A 
ATOM     48  H7  AKX d   1     158.549  -2.867  47.415  0.00  0.00     0.083 H 
ATOM     49  H8  AKX d   1     158.637  -1.901  49.661  0.00  0.00     0.084 H 
ENDBRANCH  36  39
ENDBRANCH  33  36
BRANCH  33  50
ATOM     50  C26 AKX d   1     159.844   1.265  52.462  0.00  0.00    -0.012 C 
ATOM     51  H9  AKX d   1     160.827   1.209  52.951  0.00  0.00     0.044 H 
ATOM     52  H10 AKX d   1     159.152   0.561  52.948  0.00  0.00     0.044 H 
BRANCH  50  53
ATOM     53  C28 AKX d   1     159.295   2.684  52.708  0.00  0.00    -0.055 A 
ATOM     54  C33 AKX d   1     157.913   2.928  52.773  0.00  0.00    -0.077 A 
ATOM     55  C32 AKX d   1     157.423   4.203  53.020  0.00  0.00    -0.082 A 
ATOM     56  H11 AKX d   1     157.219   2.108  52.628  0.00  0.00     0.084 H 
ATOM     57  C31 AKX d   1     158.303   5.257  53.241  0.00  0.00    -0.083 A 
ATOM     58  H12 AKX d   1     156.353   4.377  53.041  0.00  0.00     0.083 H 
ATOM     59  C30 AKX d   1     159.676   5.020  53.195  0.00  0.00    -0.082 A 
ATOM     60  H13 AKX d   1     157.925   6.252  53.447  0.00  0.00     0.083 H 
ATOM     61  C29 AKX d   1     160.156   3.754  52.921  0.00  0.00    -0.077 A 
ATOM     62  H14 AKX d   1     160.370   5.833  53.375  0.00  0.00     0.083 H 
ATOM     63  H15 AKX d   1     161.227   3.592  52.871  0.00  0.00     0.084 H 
ENDBRANCH  50  53
ENDBRANCH  33  50
ENDBRANCH  30  33
ENDBRANCH  27  30
ENDBRANCH  24  27
ENDBRANCH  22  24
BRANCH  22  64
ATOM     64  C21 AKX d   1     163.308   1.297  47.965  0.00  0.00    -0.072 C 
ATOM     65  H23 AKX d   1     164.022   0.802  47.290  0.00  0.00     0.028 H 
ATOM     66  H24 AKX d   1     162.514   1.775  47.372  0.00  0.00     0.028 H 
ATOM     67  H25 AKX d   1     162.863   0.550  48.639  0.00  0.00     0.028 H 
ENDBRANCH  22  64
ENDBRANCH   1  22
BRANCH   2  68
ATOM     68  C18 AKX d   1     163.253   4.317  46.249  0.00  0.00    -0.068 C 
ATOM     69  H27 AKX d   1     162.986   5.253  45.736  0.00  0.00     0.028 H 
ATOM     70  H28 AKX d   1     162.401   3.974  46.855  0.00  0.00     0.028 H 
ATOM     71  H29 AKX d   1     163.505   3.549  45.503  0.00  0.00     0.028 H 
ENDBRANCH   2  68
BRANCH   9  72
ATOM     72  C7  AKX d   1     165.506   5.978  43.974  0.00  0.00    -0.080 C 
ATOM     73  H41 AKX d   1     165.644   5.033  43.450  0.00  0.00     0.083 H 
BRANCH  72  74
ATOM     74  C6  AKX d   1     165.300   7.231  43.193  0.00  0.00    -0.080 C 
ATOM     75  H42 AKX d   1     165.301   8.173  43.739  0.00  0.00     0.083 H 
BRANCH  74  76
ATOM     76  C5  AKX d   1     165.113   7.280  41.859  0.00  0.00    -0.074 C 
ATOM     77  C10 AKX d   1     164.898   8.620  41.174  0.00  0.00    -0.017 C 
ATOM     78  C1  AKX d   1     165.546   8.651  39.773  0.00  0.00     0.062 C 
ATOM     79  H43 AKX d   1     165.345   9.413  41.792  0.00  0.00     0.043 H 
ATOM     80  H44 AKX d   1     163.818   8.800  41.072  0.00  0.00     0.043 H 
ATOM     81  C2  AKX d   1     165.122   7.432  38.992  0.00  0.00    -0.032 C 
ATOM     82  H45 AKX d   1     165.219   9.560  39.247  0.00  0.00     0.090 H 
ATOM     83  C3  AKX d   1     165.572   6.153  39.597  0.00  0.00     0.062 C 
ATOM     84  C4  AKX d   1     165.061   6.019  41.028  0.00  0.00    -0.017 C 
ATOM     85  H49 AKX d   1     166.672   6.157  39.625  0.00  0.00     0.090 H 
ATOM     86  H47 AKX d   1     164.014   5.685  40.984  0.00  0.00     0.043 H 
ATOM     87  H48 AKX d   1     165.668   5.254  41.534  0.00  0.00     0.043 H 
BRANCH  78  88
ATOM     88  O1  AKX d   1     166.974   8.643  39.861  0.00  0.00    -0.391 OA
ATOM     89  H46 AKX d   1     167.344   8.662  38.986  0.00  0.00     0.210 HD
ENDBRANCH  78  88
BRANCH  81  90
ATOM     90  C40 AKX d   1     164.411   7.488  37.872  0.00  0.00    -0.114 C 
ATOM     91  H51 AKX d   1     164.105   8.452  37.469  0.00  0.00     0.067 H 
ATOM     92  H52 AKX d   1     164.134   6.570  37.357  0.00  0.00     0.067 H 
ENDBRANCH  81  90
BRANCH  83  93
ATOM     93  O2  AKX d   1     165.156   5.052  38.815  0.00  0.00    -0.391 OA
ATOM     94  H50 AKX d   1     164.207   5.015  38.801  0.00  0.00     0.210 HD
ENDBRANCH  83  93
ENDBRANCH  74  76
ENDBRANCH  72  74
ENDBRANCH   9  72
TORSDOF 18
