REMARK  5 active torsions:
REMARK  status: ('A' for Active; 'I' for Inactive)
REMARK    1  A    between atoms: N13_17  and  C14_8 
REMARK    2  A    between atoms: C6_12  and  C3_9 
REMARK    3  A    between atoms: S7_19  and  C8_10 
REMARK    4  A    between atoms: C1_11  and  N13_17 
REMARK    5  A    between atoms: C6_12  and  S7_19 
ROOT
ATOM      1  C4  WMM d   1      11.197  13.980  17.488  0.00  0.00    -0.017 A 
ATOM      2  C3  WMM d   1      10.189  14.778  17.970  0.00  0.00     0.053 A 
ATOM      3  C1  WMM d   1      11.171  14.278  19.925  0.00  0.00     0.171 A 
ATOM      4  N2  WMM d   1      10.185  14.925  19.338  0.00  0.00    -0.228 NA
ATOM      5  S5  WMM d   1      12.143  13.411  18.796  0.00  0.00    -0.062 SA
ATOM      6  H6  WMM d   1      11.368  13.746  16.438  0.00  0.00     0.098 H 
ENDROOT
BRANCH   3   7
ATOM      7  N13 WMM d   1      11.363  14.304  21.277  0.00  0.00    -0.335 N 
ATOM      8  H11 WMM d   1      10.636  14.774  21.835  0.00  0.00     0.168 HD
BRANCH   7   9
ATOM      9  C14 WMM d   1      12.443  13.760  21.989  0.00  0.00     0.034 A 
ATOM     10  C15 WMM d   1      12.662  14.209  23.277  0.00  0.00    -0.057 A 
ATOM     11  C16 WMM d   1      13.712  13.750  24.045  0.00  0.00    -0.081 A 
ATOM     12  H4  WMM d   1      11.987  14.946  23.698  0.00  0.00     0.086 H 
ATOM     13  C17 WMM d   1      14.580  12.832  23.500  0.00  0.00    -0.083 A 
ATOM     14  H2  WMM d   1      13.851  14.106  25.059  0.00  0.00     0.083 H 
ATOM     15  C18 WMM d   1      14.386  12.385  22.212  0.00  0.00    -0.081 A 
ATOM     16  H1  WMM d   1      15.415  12.461  24.083  0.00  0.00     0.083 H 
ATOM     17  C19 WMM d   1      13.328  12.844  21.460  0.00  0.00    -0.057 A 
ATOM     18  H3  WMM d   1      15.074  11.664  21.785  0.00  0.00     0.083 H 
ATOM     19  H5  WMM d   1      13.190  12.484  20.447  0.00  0.00     0.086 H 
ENDBRANCH   7   9
ENDBRANCH   3   7
BRANCH   2  20
ATOM     20  C6  WMM d   1       9.197  15.456  17.118  0.00  0.00     0.025 C 
ATOM     21  H8  WMM d   1       9.338  15.099  16.087  0.00  0.00     0.059 H 
ATOM     22  H9  WMM d   1       9.397  16.537  17.162  0.00  0.00     0.059 H 
BRANCH  20  23
ATOM     23  S7  WMM d   1       7.478  15.198  17.558  0.00  0.00    -0.084 SA
BRANCH  23  24
ATOM     24  C8  WMM d   1       7.301  13.692  16.741  0.00  0.00     0.189 A 
ATOM     25  N12 WMM d   1       7.034  12.528  17.288  0.00  0.00    -0.123 NA
ATOM     26  N11 WMM d   1       6.996  11.648  16.236  0.00  0.00    -0.143 NA
ATOM     27  C10 WMM d   1       7.242  12.284  15.115  0.00  0.00     0.087 A 
ATOM     28  N9  WMM d   1       7.445  13.600  15.390  0.00  0.00    -0.327 N 
ATOM     29  H7  WMM d   1       7.278  11.831  14.125  0.00  0.00     0.146 H 
ATOM     30  H10 WMM d   1       7.660  14.357  14.726  0.00  0.00     0.168 HD
ENDBRANCH  23  24
ENDBRANCH  20  23
ENDBRANCH   2  20
TORSDOF 5
