REMARK  8 active torsions:
REMARK  status: ('A' for Active; 'I' for Inactive)
REMARK    1  A    between atoms: C16_11  and  C15_18 
REMARK    2  A    between atoms: O22_29  and  C20_13 
REMARK    3  A    between atoms: S25_30  and  C26_14 
REMARK    4  A    between atoms: C12_17  and  C8_16 
REMARK       I    between atoms: N14_26  and  C12_17 
REMARK    5  A    between atoms: C15_18  and  N14_26 
REMARK    6  A    between atoms: C24_20  and  C23_19 
REMARK    7  A    between atoms: C23_19  and  O22_29 
REMARK    8  A    between atoms: C24_20  and  S25_30 
ROOT
ATOM      1  C18 WNN d   1     -44.536  30.486  15.299  0.00  0.00    -0.080 A 
ATOM      2  C17 WNN d   1     -44.467  31.048  14.038  0.00  0.00    -0.075 A 
ATOM      3  C19 WNN d   1     -43.823  30.999  16.364  0.00  0.00    -0.051 A 
ATOM      4  C21 WNN d   1     -42.965  32.664  14.880  0.00  0.00    -0.043 A 
ATOM      5  C16 WNN d   1     -43.673  32.162  13.826  0.00  0.00    -0.038 A 
ATOM      6  C20 WNN d   1     -43.030  32.105  16.127  0.00  0.00     0.069 A 
ATOM      7  H3  WNN d   1     -45.167  29.619  15.456  0.00  0.00     0.083 H 
ATOM      8  H5  WNN d   1     -45.032  30.618  13.219  0.00  0.00     0.084 H 
ATOM      9  H7  WNN d   1     -43.883  30.551  17.349  0.00  0.00     0.087 H 
ATOM     10  H8  WNN d   1     -42.333  33.531  14.724  0.00  0.00     0.088 H 
ENDROOT
BRANCH   5  11
ATOM     11  C15 WNN d   1     -43.493  32.889  12.534  0.00  0.00     0.019 C 
ATOM     12  H10 WNN d   1     -42.458  32.721  12.201  0.00  0.00     0.071 H 
ATOM     13  H11 WNN d   1     -43.645  33.960  12.732  0.00  0.00     0.071 H 
BRANCH  11  14
ATOM     14  N14 WNN d   1     -44.357  32.524  11.456  0.00  0.00    -0.350 N 
ATOM     15  C12 WNN d   1     -45.661  32.919  11.520  0.00  0.00     0.287 C 
ATOM     16  O13 WNN d   1     -46.189  33.591  12.391  0.00  0.00    -0.264 OA
ATOM     17  H18 WNN d   1     -44.016  31.995  10.679  0.00  0.00     0.163 HD
BRANCH  15  18
ATOM     18  C8  WNN d   1     -46.487  32.373  10.413  0.00  0.00     0.200 A 
ATOM     19  N7  WNN d   1     -45.921  31.783   9.408  0.00  0.00    -0.225 NA
ATOM     20  C6  WNN d   1     -46.786  31.298   8.431  0.00  0.00     0.075 A 
ATOM     21  C1  WNN d   1     -46.264  30.664   7.327  0.00  0.00    -0.054 A 
ATOM     22  C5  WNN d   1     -48.157  31.429   8.525  0.00  0.00     0.061 A 
ATOM     23  C2  WNN d   1     -47.100  30.175   6.346  0.00  0.00    -0.081 A 
ATOM     24  H6  WNN d   1     -45.191  30.549   7.228  0.00  0.00     0.087 H 
ATOM     25  C3  WNN d   1     -48.470  30.312   6.451  0.00  0.00    -0.082 A 
ATOM     26  H2  WNN d   1     -46.677  29.677   5.481  0.00  0.00     0.083 H 
ATOM     27  C4  WNN d   1     -49.002  30.942   7.554  0.00  0.00    -0.065 A 
ATOM     28  H1  WNN d   1     -49.120  29.928   5.673  0.00  0.00     0.083 H 
ATOM     29  H4  WNN d   1     -50.075  31.053   7.656  0.00  0.00     0.085 H 
ATOM     30  C10 WNN d   1     -48.747  32.098   9.687  0.00  0.00     0.259 A 
ATOM     31  N9  WNN d   1     -47.836  32.552  10.600  0.00  0.00    -0.303 N 
ATOM     32  O11 WNN d   1     -49.960  32.212   9.775  0.00  0.00    -0.267 OA
ATOM     33  H17 WNN d   1     -48.158  33.024  11.421  0.00  0.00     0.171 HD
ENDBRANCH  15  18
ENDBRANCH  11  14
ENDBRANCH   5  11
BRANCH   6  34
ATOM     34  O22 WNN d   1     -42.247  32.768  17.050  0.00  0.00    -0.350 OA
BRANCH  34  35
ATOM     35  C23 WNN d   1     -42.102  32.069  18.265  0.00  0.00     0.034 C 
ATOM     36  H12 WNN d   1     -43.079  31.931  18.752  0.00  0.00     0.076 H 
ATOM     37  H13 WNN d   1     -41.636  31.088  18.094  0.00  0.00     0.076 H 
BRANCH  35  38
ATOM     38  C24 WNN d   1     -41.201  32.949  19.114  0.00  0.00     0.004 C 
ATOM     39  H14 WNN d   1     -41.206  32.575  20.148  0.00  0.00     0.052 H 
ATOM     40  H15 WNN d   1     -41.585  33.980  19.095  0.00  0.00     0.052 H 
BRANCH  38  41
ATOM     41  S25 WNN d   1     -39.492  32.942  18.490  0.00  0.00    -0.088 SA
BRANCH  41  42
ATOM     42  C26 WNN d   1     -38.973  31.422  19.212  0.00  0.00     0.183 A 
ATOM     43  N27 WNN d   1     -39.020  31.245  20.567  0.00  0.00    -0.215 NA
ATOM     44  C28 WNN d   1     -38.572  30.021  20.714  0.00  0.00     0.108 A 
ATOM     45  N29 WNN d   1     -38.275  29.502  19.496  0.00  0.00    -0.166 NA
ATOM     46  H9  WNN d   1     -38.456  29.503  21.665  0.00  0.00     0.149 H 
ATOM     47  N30 WNN d   1     -38.518  30.372  18.504  0.00  0.00    -0.254 N 
ATOM     48  H16 WNN d   1     -38.392  30.266  17.487  0.00  0.00     0.191 HD
ENDBRANCH  41  42
ENDBRANCH  38  41
ENDBRANCH  35  38
ENDBRANCH  34  35
ENDBRANCH   6  34
TORSDOF 8
