REMARK WARNING: 32 MAX_TORS EXCEEDED!!!
REMARK  45 active torsions:
REMARK  status: ('A' for Active; 'I' for Inactive)
REMARK    1  A    between atoms: N_1  and  CA_2 
REMARK    2  A    between atoms: CA_2  and  C_3 
REMARK    3  A    between atoms: CA_2  and  CB_5 
REMARK       I    between atoms: C_3  and  N_12 
REMARK    4  A    between atoms: CB_5  and  CG_6 
REMARK    5  A    between atoms: N_12  and  CA_13 
REMARK    6  A    between atoms: CA_13  and  C_14 
REMARK    7  A    between atoms: CA_13  and  CB_16 
REMARK       I    between atoms: C_14  and  N_23 
REMARK    8  A    between atoms: CB_16  and  CG_17 
REMARK    9  A    between atoms: CG_17  and  CD_18 
REMARK   10  A    between atoms: CD_18  and  NE_19 
REMARK       I    between atoms: NE_19  and  CZ_20 
REMARK       I    between atoms: CZ_20  and  NH1_21 
REMARK       I    between atoms: CZ_20  and  NH2_22 
REMARK   11  A    between atoms: N_23  and  CA_24 
REMARK   12  A    between atoms: CA_24  and  C_25 
REMARK   13  A    between atoms: CA_24  and  CB_27 
REMARK       I    between atoms: C_25  and  N_28 
REMARK   14  A    between atoms: N_28  and  CA_29 
REMARK   15  A    between atoms: CA_29  and  C_30 
REMARK   16  A    between atoms: CA_29  and  CB_32 
REMARK       I    between atoms: C_30  and  N_39 
REMARK   17  A    between atoms: CB_32  and  CG_33 
REMARK   18  A    between atoms: N_39  and  CA_40 
REMARK   19  A    between atoms: CA_40  and  C_41 
REMARK   20  A    between atoms: CA_40  and  CB_43 
REMARK       I    between atoms: C_41  and  N_45 
REMARK   21  A    between atoms: CB_43  and  OG_44 
REMARK   22  A    between atoms: N_45  and  CA_46 
REMARK   23  A    between atoms: CA_46  and  C_47 
REMARK       I    between atoms: C_47  and  N_49 
REMARK   24  A    between atoms: N_49  and  CA_50 
REMARK   25  A    between atoms: CA_50  and  C_51 
REMARK   26  A    between atoms: CA_50  and  CB_53 
REMARK       I    between atoms: C_51  and  N_55 
REMARK   27  A    between atoms: CB_53  and  OG_54 
REMARK   28  A    between atoms: N_55  and  CA_56 
REMARK   29  A    between atoms: CA_56  and  C_57 
REMARK       I    between atoms: C_57  and  N_59 
REMARK   30  A    between atoms: N_59  and  CA_60 
REMARK   31  A    between atoms: CA_60  and  C_61 
REMARK   32  A    between atoms: CA_60  and  CB_63 
REMARK       I    between atoms: C_61  and  N_67 
REMARK   33  A    between atoms: CB_63  and  CG_64 
REMARK       I    between atoms: CG_64  and  ND2_66 
REMARK   34  A    between atoms: N_67  and  CA_68 
REMARK   35  A    between atoms: CA_68  and  C_69 
REMARK   36  A    between atoms: CA_68  and  CB_71 
REMARK       I    between atoms: C_69  and  N_78 
REMARK   37  A    between atoms: CB_71  and  CG_72 
REMARK   38  A    between atoms: CG_72  and  CD_73 
REMARK   39  A    between atoms: CD_73  and  NE_74 
REMARK       I    between atoms: NE_74  and  CZ_75 
REMARK       I    between atoms: CZ_75  and  NH1_76 
REMARK   40  A    between atoms: N_78  and  CA_79 
REMARK   41  A    between atoms: CA_79  and  C_80 
REMARK   42  A    between atoms: CA_79  and  CB_82 
REMARK   43  A    between atoms: CB_82  and  CG_83 
REMARK   44  A    between atoms: CG_83  and  CD1_84 
REMARK   45  A    between atoms: CG_83  and  CD2_85 
ROOT
ATOM      1  CA  SER d   1     -11.226  24.455  28.969  0.00  0.00     0.109 C 
ATOM      2  H40 SER d   1     -11.186  25.113  29.850  0.00  0.00     0.090 H 
ENDROOT
BRANCH   1   3
ATOM      3  N   SER d   1     -10.145  24.837  28.047  0.00  0.00    -0.344 N 
ATOM      4  C   PHE d   1      -8.838  24.812  28.335  0.00  0.00     0.241 C 
ATOM      5  O   PHE d   1      -8.319  24.584  29.442  0.00  0.00    -0.271 OA
ATOM      6  H39 SER d   1     -10.408  25.140  27.131  0.00  0.00     0.163 HD
BRANCH   4   7
ATOM      7  CA  PHE d   1      -7.911  24.996  27.127  0.00  0.00     0.093 C 
ATOM      8  H31 PHE d   1      -7.601  23.985  26.823  0.00  0.00     0.088 H 
BRANCH   7   9
ATOM      9  N   PHE d   1      -8.522  25.593  25.967  0.00  0.00    -0.346 N 
ATOM     10  C   ALA d   1      -8.937  26.854  25.874  0.00  0.00     0.240 C 
ATOM     11  O   ALA d   1      -8.936  27.613  26.827  0.00  0.00    -0.271 OA
ATOM     12  H30 PHE d   1      -8.645  25.010  25.163  0.00  0.00     0.163 HD
BRANCH  10  13
ATOM     13  CA  ALA d   1      -9.492  27.279  24.520  0.00  0.00     0.086 C 
ATOM     14  H26 ALA d   1      -9.646  26.357  23.940  0.00  0.00     0.086 H 
BRANCH  13  15
ATOM     15  N   ALA d   1     -10.807  27.940  24.610  0.00  0.00    -0.346 N 
ATOM     16  C   ARG d   1     -11.836  27.312  25.185  0.00  0.00     0.241 C 
ATOM     17  O   ARG d   1     -11.700  26.303  25.879  0.00  0.00    -0.271 OA
ATOM     18  H25 ALA d   1     -10.929  28.861  24.240  0.00  0.00     0.163 HD
BRANCH  16  19
ATOM     19  CA  ARG d   1     -13.235  27.897  24.918  0.00  0.00     0.089 C 
ATOM     20  H13 ARG d   1     -13.295  28.152  23.850  0.00  0.00     0.087 H 
BRANCH  19  21
ATOM     21  N   ARG d   1     -14.247  26.857  25.183  0.00  0.00    -0.346 N 
ATOM     22  C   PHE d   1     -15.303  26.682  24.384  0.00  0.00     0.249 C 
ATOM     23  O   PHE d   1     -15.893  27.620  23.825  0.00  0.00    -0.271 OA
ATOM     24  H12 ARG d   1     -14.139  26.267  25.983  0.00  0.00     0.163 HD
BRANCH  22  25
ATOM     25  CA  PHE d   1     -15.772  25.217  24.182  0.00  0.00     0.179 C 
ATOM     26  H4  PHE d   1     -15.198  24.586  24.876  0.00  0.00     0.099 H 
BRANCH  25  27
ATOM     27  N   PHE d   1     -17.224  24.966  24.455  0.00  0.00    -0.066 N 
ATOM     28  H1  PHE d   1     -17.432  23.992  24.297  0.00  0.00     0.275 HD
ATOM     29  H2  PHE d   1     -17.785  25.533  23.839  0.00  0.00     0.275 HD
ATOM     30  H3  PHE d   1     -17.432  25.203  25.412  0.00  0.00     0.275 HD
ENDBRANCH  25  27
BRANCH  25  31
ATOM     31  CB  PHE d   1     -15.424  24.802  22.738  0.00  0.00    -0.006 C 
ATOM     32  H5  PHE d   1     -16.237  25.130  22.074  0.00  0.00     0.043 H 
ATOM     33  H6  PHE d   1     -15.339  23.706  22.700  0.00  0.00     0.043 H 
BRANCH  31  34
ATOM     34  CG  PHE d   1     -14.147  25.393  22.250  0.00  0.00    -0.056 A 
ATOM     35  CD1 PHE d   1     -14.133  26.666  21.692  0.00  0.00    -0.077 A 
ATOM     36  CE1 PHE d   1     -12.951  27.247  21.279  0.00  0.00    -0.082 A 
ATOM     37  H7  PHE d   1     -15.064  27.210  21.580  0.00  0.00     0.084 H 
ATOM     38  CZ  PHE d   1     -11.766  26.552  21.431  0.00  0.00    -0.083 A 
ATOM     39  H9  PHE d   1     -12.952  28.238  20.840  0.00  0.00     0.083 H 
ATOM     40  CE2 PHE d   1     -11.774  25.273  21.997  0.00  0.00    -0.082 A 
ATOM     41  H11 PHE d   1     -10.831  26.998  21.112  0.00  0.00     0.083 H 
ATOM     42  CD2 PHE d   1     -12.956  24.707  22.410  0.00  0.00    -0.077 A 
ATOM     43  H10 PHE d   1     -10.845  24.727  22.110  0.00  0.00     0.083 H 
ATOM     44  H8  PHE d   1     -12.956  23.722  22.862  0.00  0.00     0.084 H 
ENDBRANCH  31  34
ENDBRANCH  25  31
ENDBRANCH  22  25
ENDBRANCH  19  21
BRANCH  19  45
ATOM     45  CB  ARG d   1     -13.471  29.194  25.699  0.00  0.00    -0.036 C 
ATOM     46  H14 ARG d   1     -12.535  29.772  25.691  0.00  0.00     0.036 H 
ATOM     47  H15 ARG d   1     -13.728  28.927  26.735  0.00  0.00     0.036 H 
BRANCH  45  48
ATOM     48  CG  ARG d   1     -14.586  30.088  25.148  0.00  0.00    -0.048 C 
ATOM     49  H16 ARG d   1     -14.435  31.100  25.551  0.00  0.00     0.035 H 
ATOM     50  H17 ARG d   1     -15.545  29.689  25.509  0.00  0.00     0.035 H 
BRANCH  48  51
ATOM     51  CD  ARG d   1     -14.672  30.201  23.618  0.00  0.00     0.009 C 
ATOM     52  H18 ARG d   1     -15.258  31.099  23.373  0.00  0.00     0.064 H 
ATOM     53  H19 ARG d   1     -15.191  29.309  23.237  0.00  0.00     0.064 H 
BRANCH  51  54
ATOM     54  NE  ARG d   1     -13.377  30.301  22.936  0.00  0.00    -0.227 N 
ATOM     55  CZ  ARG d   1     -13.202  30.751  21.693  0.00  0.00     0.665 C 
ATOM     56  NH1 ARG d   1     -14.227  31.183  20.960  0.00  0.00    -0.235 N 
ATOM     57  NH2 ARG d   1     -11.975  30.786  21.180  0.00  0.00    -0.235 N 
ATOM     58  H21 ARG d   1     -14.067  31.526  20.002  0.00  0.00     0.174 HD
ATOM     59  H22 ARG d   1     -15.180  31.174  21.351  0.00  0.00     0.174 HD
ATOM     60  H23 ARG d   1     -11.174  30.455  21.737  0.00  0.00     0.174 HD
ATOM     61  H24 ARG d   1     -11.826  31.144  20.226  0.00  0.00     0.174 HD
ATOM     62  H20 ARG d   1     -12.540  30.001  23.456  0.00  0.00     0.177 HD
ENDBRANCH  51  54
ENDBRANCH  48  51
ENDBRANCH  45  48
ENDBRANCH  19  45
ENDBRANCH  16  19
ENDBRANCH  13  15
BRANCH  13  63
ATOM     63  CB  ALA d   1      -8.475  28.125  23.747  0.00  0.00    -0.049 C 
ATOM     64  H27 ALA d   1      -7.513  27.594  23.706  0.00  0.00     0.030 H 
ATOM     65  H28 ALA d   1      -8.339  29.091  24.256  0.00  0.00     0.030 H 
ATOM     66  H29 ALA d   1      -8.843  28.297  22.725  0.00  0.00     0.030 H 
ENDBRANCH  13  63
ENDBRANCH  10  13
ENDBRANCH   7   9
BRANCH   7  67
ATOM     67  CB  PHE d   1      -6.637  25.755  27.526  0.00  0.00    -0.014 C 
ATOM     68  H32 PHE d   1      -6.078  25.139  28.246  0.00  0.00     0.043 H 
ATOM     69  H33 PHE d   1      -6.933  26.700  28.004  0.00  0.00     0.043 H 
BRANCH  67  70
ATOM     70  CG  PHE d   1      -5.741  26.069  26.385  0.00  0.00    -0.056 A 
ATOM     71  CD1 PHE d   1      -5.159  25.027  25.594  0.00  0.00    -0.077 A 
ATOM     72  CE1 PHE d   1      -4.319  25.359  24.548  0.00  0.00    -0.082 A 
ATOM     73  H34 PHE d   1      -5.375  23.988  25.814  0.00  0.00     0.084 H 
ATOM     74  CZ  PHE d   1      -3.964  26.651  24.289  0.00  0.00    -0.083 A 
ATOM     75  H36 PHE d   1      -3.931  24.570  23.915  0.00  0.00     0.083 H 
ATOM     76  CE2 PHE d   1      -4.516  27.673  25.027  0.00  0.00    -0.082 A 
ATOM     77  H38 PHE d   1      -3.249  26.872  23.504  0.00  0.00     0.083 H 
ATOM     78  CD2 PHE d   1      -5.405  27.390  26.055  0.00  0.00    -0.077 A 
ATOM     79  H37 PHE d   1      -4.256  28.702  24.805  0.00  0.00     0.083 H 
ATOM     80  H35 PHE d   1      -5.848  28.206  26.614  0.00  0.00     0.084 H 
ENDBRANCH  67  70
ENDBRANCH   7  67
ENDBRANCH   4   7
ENDBRANCH   1   3
BRANCH   1  81
ATOM     81  C   SER d   1     -11.036  23.031  29.410  0.00  0.00     0.242 C 
ATOM     82  O   SER d   1     -10.696  22.142  28.588  0.00  0.00    -0.271 OA
ATOM     83  N   GLY d   1     -11.246  22.816  30.709  0.00  0.00    -0.350 N 
ATOM     84  H44 GLY d   1     -11.537  23.582  31.283  0.00  0.00     0.163 HD
BRANCH  83  85
ATOM     85  CA  GLY d   1     -11.070  21.523  31.317  0.00  0.00     0.069 C 
ATOM     86  H45 GLY d   1     -11.350  20.751  30.585  0.00  0.00     0.078 H 
ATOM     87  H46 GLY d   1     -11.732  21.455  32.193  0.00  0.00     0.078 H 
BRANCH  85  88
ATOM     88  C   GLY d   1      -9.649  21.269  31.766  0.00  0.00     0.236 C 
ATOM     89  O   GLY d   1      -8.779  22.145  31.690  0.00  0.00    -0.272 OA
ATOM     90  N   SER d   1      -9.424  20.055  32.236  0.00  0.00    -0.344 N 
ATOM     91  H47 SER d   1     -10.185  19.407  32.249  0.00  0.00     0.163 HD
BRANCH  90  92
ATOM     92  CA  SER d   1      -8.149  19.612  32.730  0.00  0.00     0.109 C 
ATOM     93  H48 SER d   1      -7.644  20.478  33.183  0.00  0.00     0.090 H 
BRANCH  92  94
ATOM     94  C   SER d   1      -7.207  19.025  31.628  0.00  0.00     0.242 C 
ATOM     95  O   SER d   1      -5.972  18.851  31.840  0.00  0.00    -0.271 OA
ATOM     96  N   GLY d   1      -7.783  18.706  30.486  0.00  0.00    -0.350 N 
ATOM     97  H52 GLY d   1      -8.755  18.889  30.336  0.00  0.00     0.163 HD
BRANCH  96  98
ATOM     98  CA  GLY d   1      -6.975  18.082  29.446  0.00  0.00     0.069 C 
ATOM     99  H53 GLY d   1      -6.059  18.676  29.312  0.00  0.00     0.078 H 
ATOM    100  H54 GLY d   1      -7.552  18.081  28.509  0.00  0.00     0.078 H 
BRANCH  98 101
ATOM    101  C   GLY d   1      -6.588  16.686  29.761  0.00  0.00     0.236 C 
ATOM    102  O   GLY d   1      -7.040  16.096  30.727  0.00  0.00    -0.272 OA
ATOM    103  N   ASN d   1      -5.672  16.173  28.962  0.00  0.00    -0.346 N 
ATOM    104  H55 ASN d   1      -5.297  16.765  28.249  0.00  0.00     0.163 HD
BRANCH 103 105
ATOM    105  CA  ASN d   1      -5.181  14.851  29.038  0.00  0.00     0.097 C 
ATOM    106  H56 ASN d   1      -5.536  14.360  29.956  0.00  0.00     0.088 H 
BRANCH 105 107
ATOM    107  C   ASN d   1      -3.653  14.869  28.991  0.00  0.00     0.241 C 
ATOM    108  O   ASN d   1      -3.049  15.679  28.231  0.00  0.00    -0.271 OA
ATOM    109  N   ARG d   1      -3.011  13.951  29.681  0.00  0.00    -0.346 N 
ATOM    110  H61 ARG d   1      -3.536  13.286  30.212  0.00  0.00     0.163 HD
BRANCH 109 111
ATOM    111  CA  ARG d   1      -1.575  13.877  29.693  0.00  0.00     0.089 C 
ATOM    112  H62 ARG d   1      -1.181  14.784  29.212  0.00  0.00     0.087 H 
BRANCH 111 113
ATOM    113  C   ARG d   1      -1.126  12.675  28.901  0.00  0.00     0.241 C 
ATOM    114  O   ARG d   1      -1.726  11.550  29.002  0.00  0.00    -0.271 OA
ATOM    115  N   LEU d   1      -0.033  12.847  28.166  0.00  0.00    -0.345 N 
ATOM    116  H74 LEU d   1       0.376  13.758  28.107  0.00  0.00     0.163 HD
BRANCH 115 117
ATOM    117  CA  LEU d   1       0.581  11.752  27.449  0.00  0.00     0.096 C 
ATOM    118  H75 LEU d   1      -0.214  11.206  26.920  0.00  0.00     0.089 H 
BRANCH 117 119
ATOM    119  C   LEU d   1       1.304  10.761  28.406  0.00  0.00     0.196 C 
ATOM    120  O   LEU d   1       1.643  11.138  29.547  0.00  0.00    -0.646 OA
ATOM    121  OXT LEU d   1       1.563   9.587  28.068  0.00  0.00    -0.646 OA
ENDBRANCH 117 119
BRANCH 117 122
ATOM    122  CB  LEU d   1       1.605  12.267  26.405  0.00  0.00    -0.034 C 
ATOM    123  H76 LEU d   1       2.164  11.398  26.026  0.00  0.00     0.037 H 
ATOM    124  H77 LEU d   1       2.295  12.950  26.921  0.00  0.00     0.037 H 
BRANCH 122 125
ATOM    125  CG  LEU d   1       1.027  13.010  25.201  0.00  0.00    -0.059 C 
ATOM    126  H78 LEU d   1       0.399  13.835  25.569  0.00  0.00     0.038 H 
BRANCH 125 127
ATOM    127  CD1 LEU d   1       2.199  13.613  24.419  0.00  0.00    -0.073 C 
ATOM    128  H79 LEU d   1       1.815  14.156  23.543  0.00  0.00     0.028 H 
ATOM    129  H80 LEU d   1       2.870  12.808  24.085  0.00  0.00     0.028 H 
ATOM    130  H81 LEU d   1       2.753  14.308  25.067  0.00  0.00     0.028 H 
ENDBRANCH 125 127
BRANCH 125 131
ATOM    131  CD2 LEU d   1       0.143  12.108  24.355  0.00  0.00    -0.073 C 
ATOM    132  H82 LEU d   1      -0.674  11.710  24.974  0.00  0.00     0.028 H 
ATOM    133  H83 LEU d   1       0.742  11.274  23.959  0.00  0.00     0.028 H 
ATOM    134  H84 LEU d   1      -0.278  12.686  23.519  0.00  0.00     0.028 H 
ENDBRANCH 125 131
ENDBRANCH 122 125
ENDBRANCH 117 122
ENDBRANCH 115 117
ENDBRANCH 111 113
BRANCH 111 135
ATOM    135  CB  ARG d   1      -1.006  13.802  31.105  0.00  0.00    -0.036 C 
ATOM    136  H63 ARG d   1       0.085  13.674  31.050  0.00  0.00     0.036 H 
ATOM    137  H64 ARG d   1      -1.450  12.944  31.630  0.00  0.00     0.036 H 
BRANCH 135 138
ATOM    138  CG  ARG d   1      -1.322  15.068  31.864  0.00  0.00    -0.048 C 
ATOM    139  H65 ARG d   1      -2.408  15.083  32.038  0.00  0.00     0.035 H 
ATOM    140  H66 ARG d   1      -1.042  15.914  31.219  0.00  0.00     0.035 H 
BRANCH 138 141
ATOM    141  CD  ARG d   1      -0.635  15.286  33.232  0.00  0.00     0.009 C 
ATOM    142  H67 ARG d   1       0.416  14.964  33.201  0.00  0.00     0.064 H 
ATOM    143  H68 ARG d   1      -1.162  14.742  34.029  0.00  0.00     0.064 H 
BRANCH 141 144
ATOM    144  NE  ARG d   1      -0.737  16.751  33.431  0.00  0.00    -0.227 N 
ATOM    145  CZ  ARG d   1      -1.635  17.412  34.185  0.00  0.00     0.665 C 
ATOM    146  NH1 ARG d   1      -2.506  16.779  35.022  0.00  0.00    -0.235 N 
ATOM    147  NH2 ARG d   1      -1.600  18.743  34.160  0.00  0.00    -0.235 N 
ATOM    148  H70 ARG d   1      -3.176  17.328  35.580  0.00  0.00     0.174 HD
ATOM    149  H71 ARG d   1      -2.494  15.752  35.097  0.00  0.00     0.174 HD
ATOM    150  H72 ARG d   1      -0.945  19.229  33.531  0.00  0.00     0.174 HD
ATOM    151  H73 ARG d   1      -2.228  19.286  34.770  0.00  0.00     0.174 HD
ATOM    152  H69 ARG d   1      -0.042  17.329  32.937  0.00  0.00     0.177 HD
ENDBRANCH 141 144
ENDBRANCH 138 141
ENDBRANCH 135 138
ENDBRANCH 111 135
ENDBRANCH 109 111
ENDBRANCH 105 107
BRANCH 105 153
ATOM    153  CB  ASN d   1      -5.662  14.097  27.786  0.00  0.00     0.036 C 
ATOM    154  H57 ASN d   1      -5.284  13.065  27.834  0.00  0.00     0.051 H 
ATOM    155  H58 ASN d   1      -5.249  14.597  26.898  0.00  0.00     0.051 H 
BRANCH 153 156
ATOM    156  CG  ASN d   1      -7.197  14.049  27.649  0.00  0.00     0.217 C 
ATOM    157  OD1 ASN d   1      -7.824  13.212  28.270  0.00  0.00    -0.274 OA
ATOM    158  ND2 ASN d   1      -7.778  14.908  26.833  0.00  0.00    -0.370 N 
ATOM    159  H59 ASN d   1      -8.772  14.900  26.724  0.00  0.00     0.159 HD
ATOM    160  H60 ASN d   1      -7.224  15.567  26.324  0.00  0.00     0.159 HD
ENDBRANCH 153 156
ENDBRANCH 105 153
ENDBRANCH 103 105
ENDBRANCH  98 101
ENDBRANCH  96  98
ENDBRANCH  92  94
BRANCH  92 161
ATOM    161  CB  SER d   1      -8.364  18.553  33.798  0.00  0.00     0.044 C 
ATOM    162  H49 SER d   1      -9.254  18.817  34.388  0.00  0.00     0.077 H 
ATOM    163  H50 SER d   1      -7.483  18.526  34.456  0.00  0.00     0.077 H 
BRANCH 161 164
ATOM    164  OG  SER d   1      -8.554  17.268  33.230  0.00  0.00    -0.398 OA
ATOM    165  H51 SER d   1      -7.787  17.031  32.722  0.00  0.00     0.209 HD
ENDBRANCH 161 164
ENDBRANCH  92 161
ENDBRANCH  90  92
ENDBRANCH  85  88
ENDBRANCH  83  85
ENDBRANCH   1  81
BRANCH   1 166
ATOM    166  CB  SER d   1     -12.610  24.602  28.303  0.00  0.00     0.044 C 
ATOM    167  H41 SER d   1     -12.734  25.640  27.961  0.00  0.00     0.077 H 
ATOM    168  H42 SER d   1     -13.390  24.363  29.041  0.00  0.00     0.077 H 
BRANCH 166 169
ATOM    169  OG  SER d   1     -12.745  23.728  27.188  0.00  0.00    -0.398 OA
ATOM    170  H43 SER d   1     -12.643  22.829  27.478  0.00  0.00     0.209 HD
ENDBRANCH 166 169
ENDBRANCH   1 166
TORSDOF 45
