REMARK  30 active torsions:
REMARK  status: ('A' for Active; 'I' for Inactive)
REMARK    1  A    between atoms: C1_1  and  O2_3 
REMARK       I    between atoms: N_11  and  C1_1 
REMARK    2  A    between atoms: O2_3  and  C2_4 
REMARK    3  A    between atoms: C2_4  and  C3_5 
REMARK    4  A    between atoms: CA_12  and  N_11 
REMARK    5  A    between atoms: C_13  and  CA_12 
REMARK    6  A    between atoms: CA_12  and  CB_15 
REMARK       I    between atoms: N_16  and  C_13 
REMARK    7  A    between atoms: CA_17  and  N_16 
REMARK    8  A    between atoms: C_18  and  CA_17 
REMARK       I    between atoms: N_20  and  C_18 
REMARK    9  A    between atoms: CA_21  and  N_20 
REMARK   10  A    between atoms: C_22  and  CA_21 
REMARK   11  A    between atoms: CA_21  and  CB_24 
REMARK       I    between atoms: N_29  and  C_22 
REMARK   12  A    between atoms: CB_24  and  CG_25 
REMARK   13  A    between atoms: CG_25  and  CD_26 
REMARK   14  A    between atoms: CA_30  and  N_29 
REMARK   15  A    between atoms: C_31  and  CA_30 
REMARK   16  A    between atoms: CA_30  and  CB_33 
REMARK       I    between atoms: N_37  and  C_31 
REMARK   17  A    between atoms: CA_36  and  C_35 
REMARK       I    between atoms: C_35  and  N_44 
REMARK   18  A    between atoms: CA_36  and  N_37 
REMARK   19  A    between atoms: CA_36  and  CB_38 
REMARK   20  A    between atoms: CB_38  and  C04_39 
REMARK   21  A    between atoms: N_44  and  CA_45 
REMARK   22  A    between atoms: CA_45  and  C_46 
REMARK   23  A    between atoms: CA_45  and  CB_48 
REMARK       I    between atoms: C_46  and  N_56 
REMARK   24  A    between atoms: CB_48  and  CG_49 
REMARK   25  A    between atoms: CZ_54  and  OH_55 
REMARK   26  A    between atoms: N_56  and  CA_57 
REMARK   27  A    between atoms: CA_57  and  C_58 
REMARK   28  A    between atoms: CA_57  and  CB_60 
REMARK       I    between atoms: C_58  and  N_65 
REMARK   29  A    between atoms: CB_60  and  CG_61 
REMARK   30  A    between atoms: CG_61  and  CD_62 
ROOT
ATOM      1  C   PHQ d   1       3.661  20.133 102.814  0.00  0.00     0.240 C 
ATOM      2  O   PHQ d   1       3.742  19.792 104.001  0.00  0.00    -0.271 OA
ATOM      3  N   PHQ d   1       3.211  21.411 102.608  0.00  0.00    -0.346 N 
ATOM      4  H28 PHQ d   1       3.314  21.789 101.688  0.00  0.00     0.163 HD
ENDROOT
BRANCH   3   5
ATOM      5  CA  PHQ d   1       2.587  22.277 103.627  0.00  0.00     0.089 C 
ATOM      6  H27 PHQ d   1       3.240  22.307 104.512  0.00  0.00     0.087 H 
BRANCH   5   7
ATOM      7  C   PHQ d   1       1.212  21.760 104.014  0.00  0.00     0.241 C 
ATOM      8  O   PHQ d   1       0.671  20.930 103.310  0.00  0.00    -0.271 OA
ATOM      9  N   PHQ d   1       0.643  22.224 105.132  0.00  0.00    -0.346 N 
ATOM     10  H40 PHQ d   1       1.112  22.916 105.681  0.00  0.00     0.163 HD
BRANCH   9  11
ATOM     11  CA  PHQ d   1      -0.659  21.722 105.550  0.00  0.00     0.093 C 
ATOM     12  H41 PHQ d   1      -0.617  20.623 105.521  0.00  0.00     0.088 H 
BRANCH  11  13
ATOM     13  C   PHQ d   1      -1.763  22.182 104.579  0.00  0.00     0.241 C 
ATOM     14  O   PHQ d   1      -1.792  23.320 104.181  0.00  0.00    -0.271 OA
ATOM     15  N   PHQ d   1      -2.673  21.284 104.222  0.00  0.00    -0.346 N 
ATOM     16  H49 PHQ d   1      -2.637  20.369 104.624  0.00  0.00     0.163 HD
BRANCH  15  17
ATOM     17  CA  PHQ d   1      -3.735  21.597 103.250  0.00  0.00     0.089 C 
ATOM     18  H50 PHQ d   1      -3.915  22.681 103.289  0.00  0.00     0.087 H 
BRANCH  17  19
ATOM     19  C   PHQ d   1      -5.057  20.897 103.574  0.00  0.00     0.238 C 
ATOM     20  O   PHQ d   1      -5.154  20.149 104.545  0.00  0.00    -0.271 OA
ATOM     21  N   PHQ d   1      -6.152  21.146 102.697  0.00  0.00    -0.368 N 
ATOM     22  H55 PHQ d   1      -7.037  20.712 102.866  0.00  0.00     0.159 HD
ATOM     23  H56 PHQ d   1      -6.036  21.755 101.912  0.00  0.00     0.159 HD
ENDBRANCH  17  19
BRANCH  17  24
ATOM     24  CB  PHQ d   1      -3.272  21.241 101.830  0.00  0.00    -0.029 C 
ATOM     25  H51 PHQ d   1      -2.444  21.913 101.561  0.00  0.00     0.037 H 
ATOM     26  H52 PHQ d   1      -4.116  21.404 101.143  0.00  0.00     0.037 H 
BRANCH  24  27
ATOM     27  CG  PHQ d   1      -2.789  19.796 101.658  0.00  0.00     0.018 C 
ATOM     28  H53 PHQ d   1      -3.626  19.198 101.269  0.00  0.00     0.049 H 
ATOM     29  H54 PHQ d   1      -2.493  19.413 102.646  0.00  0.00     0.049 H 
BRANCH  27  30
ATOM     30  CD  PHQ d   1      -1.603  19.631 100.708  0.00  0.00     0.172 C 
ATOM     31  OE1 PHQ d   1      -1.468  18.522 100.139  0.00  0.00    -0.648 OA
ATOM     32  OE2 PHQ d   1      -0.799  20.582 100.536  0.00  0.00    -0.648 OA
ENDBRANCH  27  30
ENDBRANCH  24  27
ENDBRANCH  17  24
ENDBRANCH  15  17
ENDBRANCH  11  13
BRANCH  11  33
ATOM     33  CB  PHQ d   1      -1.006  22.140 106.992  0.00  0.00    -0.014 C 
ATOM     34  H42 PHQ d   1      -1.024  23.238 107.064  0.00  0.00     0.043 H 
ATOM     35  H43 PHQ d   1      -0.252  21.739 107.685  0.00  0.00     0.043 H 
BRANCH  33  36
ATOM     36  CG  PHQ d   1      -2.364  21.587 107.346  0.00  0.00    -0.056 A 
ATOM     37  CD1 PHQ d   1      -2.516  20.225 107.623  0.00  0.00    -0.074 A 
ATOM     38  CE1 PHQ d   1      -3.764  19.685 107.877  0.00  0.00    -0.051 A 
ATOM     39  H44 PHQ d   1      -1.643  19.583 107.639  0.00  0.00     0.084 H 
ATOM     40  CZ  PHQ d   1      -4.888  20.507 107.829  0.00  0.00     0.065 A 
ATOM     41  H46 PHQ d   1      -3.867  18.632 108.111  0.00  0.00     0.087 H 
ATOM     42  CE2 PHQ d   1      -4.773  21.853 107.513  0.00  0.00    -0.051 A 
ATOM     43  CD2 PHQ d   1      -3.513  22.384 107.261  0.00  0.00    -0.074 A 
ATOM     44  H47 PHQ d   1      -5.654  22.483 107.463  0.00  0.00     0.087 H 
ATOM     45  H45 PHQ d   1      -3.418  23.430 106.995  0.00  0.00     0.084 H 
BRANCH  40  46
ATOM     46  OH  PHQ d   1      -6.115  19.998 108.101  0.00  0.00    -0.361 OA
ATOM     47  H48 PHQ d   1      -6.036  19.072 108.298  0.00  0.00     0.217 HD
ENDBRANCH  40  46
ENDBRANCH  33  36
ENDBRANCH  11  33
ENDBRANCH   9  11
ENDBRANCH   5   7
BRANCH   5  48
ATOM     48  CB  PHQ d   1       2.354  23.695 103.108  0.00  0.00    -0.035 C 
ATOM     49  H29 PHQ d   1       1.790  24.251 103.871  0.00  0.00     0.037 H 
ATOM     50  H30 PHQ d   1       1.758  23.630 102.186  0.00  0.00     0.037 H 
BRANCH  48  51
ATOM     51  C04 PHQ d   1       3.634  24.477 102.795  0.00  0.00    -0.052 C 
ATOM     52  C08 PHQ d   1       3.290  25.821 102.141  0.00  0.00    -0.062 C 
ATOM     53  C07 PHQ d   1       3.299  26.868 103.242  0.00  0.00    -0.065 C 
ATOM     54  H32 PHQ d   1       2.294  25.771 101.676  0.00  0.00     0.033 H 
ATOM     55  H33 PHQ d   1       4.040  26.071 101.376  0.00  0.00     0.033 H 
ATOM     56  C06 PHQ d   1       3.735  26.135 104.512  0.00  0.00    -0.065 C 
ATOM     57  H34 PHQ d   1       2.294  27.295 103.373  0.00  0.00     0.033 H 
ATOM     58  H35 PHQ d   1       4.010  27.672 103.000  0.00  0.00     0.033 H 
ATOM     59  C05 PHQ d   1       4.385  24.836 104.073  0.00  0.00    -0.062 C 
ATOM     60  H36 PHQ d   1       2.861  25.925 105.146  0.00  0.00     0.033 H 
ATOM     61  H37 PHQ d   1       4.456  26.747 105.073  0.00  0.00     0.033 H 
ATOM     62  H38 PHQ d   1       5.457  24.981 103.872  0.00  0.00     0.033 H 
ATOM     63  H39 PHQ d   1       4.258  24.055 104.837  0.00  0.00     0.033 H 
ATOM     64  H31 PHQ d   1       4.274  23.878 102.131  0.00  0.00     0.040 H 
ENDBRANCH  48  51
ENDBRANCH   5  48
ENDBRANCH   3   5
BRANCH   1  65
ATOM     65  CA  PHQ d   1       3.841  19.608 101.402  0.00  0.00     0.086 C 
ATOM     66  H23 PHQ d   1       4.304  20.304 100.687  0.00  0.00     0.086 H 
BRANCH  65  67
ATOM     67  N   PHQ d   1       4.641  18.646 101.886  0.00  0.00    -0.346 N 
ATOM     68  C   PHQ d   1       5.425  17.909 101.053  0.00  0.00     0.241 C 
ATOM     69  O   PHQ d   1       5.483  18.187  99.842  0.00  0.00    -0.271 OA
ATOM     70  H22 PHQ d   1       4.661  18.468 102.870  0.00  0.00     0.163 HD
BRANCH  68  71
ATOM     71  CA  PHQ d   1       6.260  16.696 101.505  0.00  0.00     0.090 C 
ATOM     72  H17 PHQ d   1       5.654  16.051 102.159  0.00  0.00     0.087 H 
BRANCH  71  73
ATOM     73  N   PHQ d   1       6.665  15.941 100.268  0.00  0.00    -0.346 N 
ATOM     74  C   PHQ d   1       6.688  14.609 100.150  0.00  0.00     0.236 C 
ATOM     75  O   PHQ d   1       6.189  13.841 100.974  0.00  0.00    -0.272 OA
ATOM     76  H16 PHQ d   1       6.939  16.478  99.470  0.00  0.00     0.163 HD
BRANCH  74  77
ATOM     77  CA  PHQ d   1       7.362  14.057  98.887  0.00  0.00     0.069 C 
ATOM     78  H14 PHQ d   1       7.099  14.701  98.035  0.00  0.00     0.078 H 
ATOM     79  H15 PHQ d   1       8.452  14.070  99.033  0.00  0.00     0.078 H 
BRANCH  77  80
ATOM     80  N   PHQ d   1       6.940  12.677  98.586  0.00  0.00    -0.351 N 
ATOM     81  C   PHQ d   1       5.780  12.443  97.934  0.00  0.00     0.240 C 
ATOM     82  O   PHQ d   1       4.973  13.356  97.741  0.00  0.00    -0.271 OA
ATOM     83  H13 PHQ d   1       7.516  11.909  98.866  0.00  0.00     0.163 HD
BRANCH  81  84
ATOM     84  CA  PHQ d   1       5.201  11.101  97.719  0.00  0.00     0.088 C 
ATOM     85  H9  PHQ d   1       4.497  11.020  96.878  0.00  0.00     0.087 H 
BRANCH  84  86
ATOM     86  N   PHQ d   1       6.488  10.589  97.481  0.00  0.00    -0.324 N 
ATOM     87  C1  PHQ d   1       6.939  10.575  96.188  0.00  0.00     0.361 C 
ATOM     88  O1  PHQ d   1       6.458  11.229  95.274  0.00  0.00    -0.238 OA
ATOM     89  H8  PHQ d   1       7.055  10.247  98.230  0.00  0.00     0.165 HD
BRANCH  87  90
ATOM     90  O2  PHQ d   1       7.987   9.700  95.717  0.00  0.00    -0.299 OA
BRANCH  90  91
ATOM     91  C2  PHQ d   1       9.134   9.439  96.495  0.00  0.00     0.054 C 
ATOM     92  H1  PHQ d   1       8.976   9.827  97.512  0.00  0.00     0.082 H 
ATOM     93  H2  PHQ d   1      10.001   9.942  96.041  0.00  0.00     0.082 H 
BRANCH  91  94
ATOM     94  C3  PHQ d   1       9.401   7.970  96.566  0.00  0.00    -0.034 A 
ATOM     95  C4  PHQ d   1       8.966   7.286  97.701  0.00  0.00    -0.075 A 
ATOM     96  C5  PHQ d   1       9.198   5.923  97.787  0.00  0.00    -0.082 A 
ATOM     97  H3  PHQ d   1       8.456   7.811  98.501  0.00  0.00     0.084 H 
ATOM     98  C6  PHQ d   1       9.864   5.243  96.764  0.00  0.00    -0.083 A 
ATOM     99  H4  PHQ d   1       8.858   5.377  98.659  0.00  0.00     0.083 H 
ATOM    100  C7  PHQ d   1      10.308   5.936  95.637  0.00  0.00    -0.082 A 
ATOM    101  H5  PHQ d   1      10.036   4.176  96.846  0.00  0.00     0.083 H 
ATOM    102  C8  PHQ d   1      10.075   7.314  95.532  0.00  0.00    -0.075 A 
ATOM    103  H6  PHQ d   1      10.831   5.411  94.846  0.00  0.00     0.083 H 
ATOM    104  H7  PHQ d   1      10.413   7.864  94.661  0.00  0.00     0.084 H 
ENDBRANCH  91  94
ENDBRANCH  90  91
ENDBRANCH  87  90
ENDBRANCH  84  86
BRANCH  84 105
ATOM    105  CB  PHQ d   1       4.598  10.532  98.998  0.00  0.00    -0.049 C 
ATOM    106  H10 PHQ d   1       3.594  10.955  99.150  0.00  0.00     0.030 H 
ATOM    107  H11 PHQ d   1       5.239  10.793  99.853  0.00  0.00     0.030 H 
ATOM    108  H12 PHQ d   1       4.526   9.438  98.914  0.00  0.00     0.030 H 
ENDBRANCH  84 105
ENDBRANCH  81  84
ENDBRANCH  77  80
ENDBRANCH  74  77
ENDBRANCH  71  73
BRANCH  71 109
ATOM    109  CB  PHQ d   1       7.514  17.146 102.258  0.00  0.00    -0.029 C 
ATOM    110  H18 PHQ d   1       8.002  16.260 102.690  0.00  0.00     0.037 H 
ATOM    111  H19 PHQ d   1       7.213  17.829 103.066  0.00  0.00     0.037 H 
BRANCH 109 112
ATOM    112  CG  PHQ d   1       8.524  17.870 101.354  0.00  0.00     0.018 C 
ATOM    113  H20 PHQ d   1       8.009  18.705 100.857  0.00  0.00     0.049 H 
ATOM    114  H21 PHQ d   1       8.884  17.158 100.597  0.00  0.00     0.049 H 
BRANCH 112 115
ATOM    115  CD  PHQ d   1       9.716  18.420 102.095  0.00  0.00     0.172 C 
ATOM    116  OE1 PHQ d   1      10.499  19.166 101.445  0.00  0.00    -0.648 OA
ATOM    117  OE2 PHQ d   1       9.869  18.084 103.306  0.00  0.00    -0.648 OA
ENDBRANCH 112 115
ENDBRANCH 109 112
ENDBRANCH  71 109
ENDBRANCH  68  71
ENDBRANCH  65  67
BRANCH  65 118
ATOM    118  CB  PHQ d   1       2.543  19.020 100.852  0.00  0.00    -0.049 C 
ATOM    119  H24 PHQ d   1       1.909  19.831 100.463  0.00  0.00     0.030 H 
ATOM    120  H25 PHQ d   1       2.010  18.491 101.656  0.00  0.00     0.030 H 
ATOM    121  H26 PHQ d   1       2.775  18.315 100.040  0.00  0.00     0.030 H 
ENDBRANCH  65 118
ENDBRANCH   1  65
TORSDOF 30
