REMARK WARNING: 32 MAX_TORS EXCEEDED!!!
REMARK  37 active torsions:
REMARK  status: ('A' for Active; 'I' for Inactive)
REMARK    1  A    between atoms: N_1  and  CA_2 
REMARK    2  A    between atoms: CA_2  and  C_3 
REMARK    3  A    between atoms: CA_2  and  CB_5 
REMARK       I    between atoms: C_3  and  N_6 
REMARK    4  A    between atoms: N_6  and  CA_7 
REMARK    5  A    between atoms: CA_7  and  C_8 
REMARK    6  A    between atoms: CA_7  and  CB_10 
REMARK       I    between atoms: C_8  and  N_18 
REMARK    7  A    between atoms: CB_10  and  CG_11 
REMARK    8  A    between atoms: CZ_16  and  OH_17 
REMARK    9  A    between atoms: N_18  and  CA_19 
REMARK   10  A    between atoms: CA_19  and  C_20 
REMARK   11  A    between atoms: CA_19  and  CB_22 
REMARK       I    between atoms: C_20  and  N_29 
REMARK   12  A    between atoms: CB_22  and  CG_23 
REMARK   13  A    between atoms: N_29  and  CA_30 
REMARK   14  A    between atoms: CA_36  and  CB_39 
REMARK   15  A    between atoms: CB_39  and  OG1_40 
REMARK   16  A    between atoms: CB_39  and  CG2_41 
REMARK   17  A    between atoms: CA_43  and  CB_46 
REMARK   18  A    between atoms: CA_48  and  CB_51 
REMARK   19  A    between atoms: CB_51  and  CG_52 
REMARK   20  A    between atoms: CA_62  and  CB_65 
REMARK   21  A    between atoms: CA_67  and  CB_70 
REMARK   22  A    between atoms: CA_76  and  CB_79 
REMARK   23  A    between atoms: CB_79  and  CG_80 
REMARK   24  A    between atoms: CA_90  and  C_91 
REMARK       I    between atoms: C_91  and  N_95 
REMARK   25  A    between atoms: N_95  and  CA_96 
REMARK   26  A    between atoms: CA_96  and  C_97 
REMARK   27  A    between atoms: CA_96  and  CB_99 
REMARK       I    between atoms: C_97  and  N_100 
REMARK   28  A    between atoms: N_100  and  CA_101 
REMARK   29  A    between atoms: CA_101  and  C_102 
REMARK   30  A    between atoms: CA_101  and  CB_104 
REMARK       I    between atoms: C_102  and  N_105 
REMARK   31  A    between atoms: N_105  and  CA_106 
REMARK   32  A    between atoms: CA_106  and  C_107 
REMARK   33  A    between atoms: CA_106  and  CB_109 
REMARK       I    between atoms: C_107  and  N_112 
REMARK   34  A    between atoms: CB_109  and  CG1_110 
REMARK   35  A    between atoms: CB_109  and  CG2_111 
REMARK   36  A    between atoms: N_112  and  CA_113 
REMARK   37  A    between atoms: CA_113  and  C_114 
ROOT
ATOM      1  CA  CYS d   1     -36.350 -90.106 -18.854  0.00  0.00     0.098 C 
ATOM      2  C   CYS d   1     -37.483 -91.060 -19.238  0.00  0.00     0.242 C 
ATOM      3  O   CYS d   1     -37.224 -92.188 -19.642  0.00  0.00    -0.271 OA
ATOM      4  CB  CYS d   1     -35.003 -90.584 -19.424  0.00  0.00     0.013 C 
ATOM      5  SG  CYS d   1     -35.021 -90.693 -21.288  0.00  0.00    -0.095 SA
ATOM      6  N   CYS d   1     -32.662 -91.570 -25.323  0.00  0.00    -0.345 N 
ATOM      7  CA  CYS d   1     -33.793 -90.881 -24.630  0.00  0.00     0.098 C 
ATOM      8  CB  CYS d   1     -33.245 -89.874 -23.599  0.00  0.00     0.013 C 
ATOM      9  SG  CYS d   1     -33.095 -90.581 -21.921  0.00  0.00    -0.095 SA
ATOM     10  H27 CYS d   1     -36.585 -89.172 -19.385  0.00  0.00     0.088 H 
ATOM     11  H28 CYS d   1     -34.779 -91.580 -19.014  0.00  0.00     0.053 H 
ATOM     12  H29 CYS d   1     -34.218 -89.876 -19.119  0.00  0.00     0.053 H 
ATOM     13  H75 CYS d   1     -32.455 -91.357 -26.278  0.00  0.00     0.163 HD
ATOM     14  H76 CYS d   1     -34.270 -91.685 -24.050  0.00  0.00     0.088 H 
ATOM     15  H77 CYS d   1     -33.925 -89.011 -23.556  0.00  0.00     0.053 H 
ATOM     16  H78 CYS d   1     -32.250 -89.541 -23.929  0.00  0.00     0.053 H 
ATOM     17  N   THR d   1     -38.731 -90.612 -19.145  0.00  0.00    -0.344 N 
ATOM     18  CA  THR d   1     -39.855 -91.236 -19.886  0.00  0.00     0.113 C 
ATOM     19  C   THR d   1     -39.424 -91.638 -21.265  0.00  0.00     0.243 C 
ATOM     20  O   THR d   1     -39.163 -90.777 -22.077  0.00  0.00    -0.271 OA
ATOM     21  H30 THR d   1     -38.919 -89.827 -18.555  0.00  0.00     0.163 HD
ATOM     22  H31 THR d   1     -40.292 -92.065 -19.310  0.00  0.00     0.091 H 
ATOM     23  N   LYS d   1     -39.363 -92.914 -21.578  0.00  0.00    -0.346 N 
ATOM     24  CA  LYS d   1     -38.877 -93.319 -22.921  0.00  0.00     0.086 C 
ATOM     25  C   LYS d   1     -37.336 -93.218 -23.081  0.00  0.00     0.240 C 
ATOM     26  O   LYS d   1     -36.694 -92.374 -22.470  0.00  0.00    -0.271 OA
ATOM     27  N   LYS d   1     -34.602 -95.295 -26.192  0.00  0.00    -0.346 N 
ATOM     28  CA  LYS d   1     -34.670 -96.112 -27.429  0.00  0.00     0.086 C 
ATOM     29  C   LYS d   1     -33.271 -96.344 -27.943  0.00  0.00     0.240 C 
ATOM     30  O   LYS d   1     -32.351 -95.620 -27.585  0.00  0.00    -0.271 OA
ATOM     31  H37 LYS d   1     -39.643 -93.608 -20.915  0.00  0.00     0.163 HD
ATOM     32  H38 LYS d   1     -39.113 -94.390 -23.005  0.00  0.00     0.086 H 
ATOM     33  H52 LYS d   1     -33.891 -94.598 -26.096  0.00  0.00     0.163 HD
ATOM     34  H53 LYS d   1     -35.098 -97.088 -27.157  0.00  0.00     0.086 H 
ATOM     35  N   TRP d   1     -36.808 -94.076 -23.959  0.00  0.00    -0.346 N 
ATOM     36  CA  TRP d   1     -35.441 -94.603 -23.968  0.00  0.00     0.093 C 
ATOM     37  C   TRP d   1     -35.479 -95.483 -25.211  0.00  0.00     0.241 C 
ATOM     38  O   TRP d   1     -36.361 -96.315 -25.307  0.00  0.00    -0.271 OA
ATOM     39  N   TRP d   1     -30.746 -94.497 -25.768  0.00  0.00    -0.346 N 
ATOM     40  CA  TRP d   1     -30.711 -93.108 -25.335  0.00  0.00     0.093 C 
ATOM     41  C   TRP d   1     -31.929 -92.471 -24.664  0.00  0.00     0.241 C 
ATOM     42  O   TRP d   1     -32.154 -92.754 -23.501  0.00  0.00    -0.271 OA
ATOM     43  H42 TRP d   1     -37.412 -94.393 -24.690  0.00  0.00     0.163 HD
ATOM     44  H43 TRP d   1     -34.685 -93.806 -24.032  0.00  0.00     0.088 H 
ATOM     45  H65 TRP d   1     -31.371 -94.768 -26.500  0.00  0.00     0.163 HD
ATOM     46  H66 TRP d   1     -29.940 -93.086 -24.551  0.00  0.00     0.088 H 
ATOM     47  N   HIS d   1     -33.117 -97.345 -28.802  0.00  0.00    -0.346 N 
ATOM     48  CA  HIS d   1     -31.816 -98.004 -29.068  0.00  0.00     0.086 C 
ATOM     49  C   HIS d   1     -30.594 -97.549 -28.156  0.00  0.00     0.240 C 
ATOM     50  O   HIS d   1     -29.458 -97.618 -28.566  0.00  0.00    -0.271 OA
ATOM     51  H57 HIS d   1     -33.922 -97.672 -29.296  0.00  0.00     0.163 HD
ATOM     52  H58 HIS d   1     -31.979 -99.045 -28.753  0.00  0.00     0.086 H 
ATOM     53  N   GLY d   1     -30.837 -97.143 -26.908  0.00  0.00    -0.351 N 
ATOM     54  CA  GLY d   1     -29.761 -96.739 -25.968  0.00  0.00     0.069 C 
ATOM     55  C   GLY d   1     -29.959 -95.416 -25.205  0.00  0.00     0.236 C 
ATOM     56  O   GLY d   1     -29.437 -95.238 -24.103  0.00  0.00    -0.272 OA
ATOM     57  H62 GLY d   1     -31.785 -97.109 -26.592  0.00  0.00     0.163 HD
ATOM     58  H63 GLY d   1     -28.830 -96.652 -26.547  0.00  0.00     0.078 H 
ATOM     59  H64 GLY d   1     -29.655 -97.540 -25.221  0.00  0.00     0.078 H 
ENDROOT
BRANCH   1  60
ATOM     60  N   CYS d   1     -36.232 -89.711 -17.465  0.00  0.00    -0.345 N 
ATOM     61  C   PHE d   1     -36.838 -88.595 -17.079  0.00  0.00     0.241 C 
ATOM     62  O   PHE d   1     -37.636 -88.031 -17.811  0.00  0.00    -0.271 OA
ATOM     63  H26 CYS d   1     -35.709 -90.263 -16.816  0.00  0.00     0.163 HD
BRANCH  61  64
ATOM     64  CA  PHE d   1     -36.549 -88.058 -15.655  0.00  0.00     0.093 C 
ATOM     65  H18 PHE d   1     -35.472 -88.216 -15.496  0.00  0.00     0.088 H 
BRANCH  64  66
ATOM     66  N   PHE d   1     -36.776 -86.597 -15.365  0.00  0.00    -0.346 N 
ATOM     67  C   TYR d   1     -35.863 -85.825 -14.718  0.00  0.00     0.241 C 
ATOM     68  O   TYR d   1     -34.738 -86.223 -14.324  0.00  0.00    -0.271 OA
ATOM     69  H17 PHE d   1     -37.634 -86.178 -15.661  0.00  0.00     0.163 HD
BRANCH  67  70
ATOM     70  CA  TYR d   1     -36.191 -84.358 -14.510  0.00  0.00     0.093 C 
ATOM     71  H9  TYR d   1     -37.276 -84.183 -14.564  0.00  0.00     0.088 H 
BRANCH  70  72
ATOM     72  N   TYR d   1     -35.674 -83.933 -13.193  0.00  0.00    -0.346 N 
ATOM     73  C   ARG d   1     -36.371 -83.119 -12.398  0.00  0.00     0.248 C 
ATOM     74  O   ARG d   1     -37.480 -82.676 -12.722  0.00  0.00    -0.271 OA
ATOM     75  H8  TYR d   1     -34.780 -84.263 -12.890  0.00  0.00     0.163 HD
BRANCH  73  76
ATOM     76  CA  ARG d   1     -35.741 -82.732 -11.028  0.00  0.00     0.172 C 
ATOM     77  H4  ARG d   1     -34.658 -82.889 -11.136  0.00  0.00     0.098 H 
BRANCH  76  78
ATOM     78  N   ARG d   1     -35.914 -81.271 -10.654  0.00  0.00    -0.067 N 
ATOM     79  H1  ARG d   1     -35.482 -81.100  -9.759  0.00  0.00     0.275 HD
ATOM     80  H2  ARG d   1     -36.896 -81.052 -10.600  0.00  0.00     0.275 HD
ATOM     81  H3  ARG d   1     -35.478 -80.691 -11.354  0.00  0.00     0.275 HD
ENDBRANCH  76  78
BRANCH  76  82
ATOM     82  CB  ARG d   1     -36.213 -83.688  -9.895  0.00  0.00    -0.042 C 
ATOM     83  H5  ARG d   1     -36.068 -84.731 -10.212  0.00  0.00     0.030 H 
ATOM     84  H6  ARG d   1     -37.279 -83.512  -9.687  0.00  0.00     0.030 H 
ATOM     85  H7  ARG d   1     -35.626 -83.496  -8.985  0.00  0.00     0.030 H 
ENDBRANCH  76  82
ENDBRANCH  73  76
ENDBRANCH  70  72
BRANCH  70  86
ATOM     86  CB  TYR d   1     -35.469 -83.621 -15.630  0.00  0.00    -0.014 C 
ATOM     87  H10 TYR d   1     -35.573 -84.224 -16.544  0.00  0.00     0.043 H 
ATOM     88  H11 TYR d   1     -34.407 -83.555 -15.353  0.00  0.00     0.043 H 
BRANCH  86  89
ATOM     89  CG  TYR d   1     -35.937 -82.245 -15.944  0.00  0.00    -0.056 A 
ATOM     90  CD1 TYR d   1     -37.000 -82.030 -16.831  0.00  0.00    -0.074 A 
ATOM     91  CE1 TYR d   1     -37.416 -80.737 -17.152  0.00  0.00    -0.051 A 
ATOM     92  H12 TYR d   1     -37.506 -82.880 -17.274  0.00  0.00     0.084 H 
ATOM     93  CZ  TYR d   1     -36.743 -79.642 -16.584  0.00  0.00     0.065 A 
ATOM     94  H14 TYR d   1     -38.247 -80.580 -17.830  0.00  0.00     0.087 H 
ATOM     95  CE2 TYR d   1     -35.683 -79.839 -15.713  0.00  0.00    -0.051 A 
ATOM     96  CD2 TYR d   1     -35.280 -81.142 -15.411  0.00  0.00    -0.074 A 
ATOM     97  H15 TYR d   1     -35.172 -78.991 -15.271  0.00  0.00     0.087 H 
ATOM     98  H13 TYR d   1     -34.437 -81.296 -14.747  0.00  0.00     0.084 H 
BRANCH  93  99
ATOM     99  OH  TYR d   1     -37.116 -78.352 -16.877  0.00  0.00    -0.361 OA
ATOM    100  H16 TYR d   1     -36.385 -77.895 -17.275  0.00  0.00     0.217 HD
ENDBRANCH  93  99
ENDBRANCH  86  89
ENDBRANCH  70  86
ENDBRANCH  67  70
ENDBRANCH  64  66
BRANCH  64 101
ATOM    101  CB  PHE d   1     -37.280 -88.928 -14.647  0.00  0.00    -0.014 C 
ATOM    102  H19 PHE d   1     -37.051 -88.559 -13.636  0.00  0.00     0.043 H 
ATOM    103  H20 PHE d   1     -36.919 -89.962 -14.751  0.00  0.00     0.043 H 
BRANCH 101 104
ATOM    104  CG  PHE d   1     -38.741 -88.923 -14.826  0.00  0.00    -0.056 A 
ATOM    105  CD1 PHE d   1     -39.534 -88.028 -14.105  0.00  0.00    -0.077 A 
ATOM    106  CE1 PHE d   1     -40.922 -88.011 -14.275  0.00  0.00    -0.082 A 
ATOM    107  H21 PHE d   1     -39.070 -87.340 -13.407  0.00  0.00     0.084 H 
ATOM    108  CZ  PHE d   1     -41.512 -88.893 -15.204  0.00  0.00    -0.083 A 
ATOM    109  H23 PHE d   1     -41.537 -87.328 -13.700  0.00  0.00     0.083 H 
ATOM    110  CE2 PHE d   1     -40.716 -89.783 -15.933  0.00  0.00    -0.082 A 
ATOM    111  H25 PHE d   1     -42.586 -88.881 -15.354  0.00  0.00     0.083 H 
ATOM    112  CD2 PHE d   1     -39.343 -89.798 -15.737  0.00  0.00    -0.077 A 
ATOM    113  H24 PHE d   1     -41.171 -90.459 -16.648  0.00  0.00     0.083 H 
ATOM    114  H22 PHE d   1     -38.729 -90.495 -16.296  0.00  0.00     0.084 H 
ENDBRANCH 101 104
ENDBRANCH  64 101
ENDBRANCH  61  64
ENDBRANCH   1  60
BRANCH  18 115
ATOM    115  CB  THR d   1     -40.866 -90.177 -20.276  0.00  0.00     0.060 C 
ATOM    116  H32 THR d   1     -40.754 -89.983 -21.353  0.00  0.00     0.086 H 
BRANCH 115 117
ATOM    117  OG1 THR d   1     -40.591 -88.943 -19.582  0.00  0.00    -0.393 OA
ATOM    118  H33 THR d   1     -41.231 -88.289 -19.836  0.00  0.00     0.210 HD
ENDBRANCH 115 117
BRANCH 115 119
ATOM    119  CG2 THR d   1     -42.284 -90.674 -20.049  0.00  0.00    -0.050 C 
ATOM    120  H34 THR d   1     -42.998 -89.889 -20.339  0.00  0.00     0.031 H 
ATOM    121  H35 THR d   1     -42.421 -90.920 -18.985  0.00  0.00     0.031 H 
ATOM    122  H36 THR d   1     -42.459 -91.573 -20.658  0.00  0.00     0.031 H 
ENDBRANCH 115 119
ENDBRANCH  18 115
BRANCH   7 123
ATOM    123  C   CYS d   1     -34.989 -90.227 -25.418  0.00  0.00     0.241 C 
ATOM    124  O   CYS d   1     -35.179 -90.394 -26.643  0.00  0.00    -0.271 OA
ATOM    125  N   GLU d   1     -35.831 -89.517 -24.673  0.00  0.00    -0.346 N 
ATOM    126  H79 GLU d   1     -35.933 -89.716 -23.698  0.00  0.00     0.163 HD
BRANCH 125 127
ATOM    127  CA  GLU d   1     -36.600 -88.451 -25.286  0.00  0.00     0.086 C 
ATOM    128  H80 GLU d   1     -35.865 -87.757 -25.719  0.00  0.00     0.086 H 
BRANCH 127 129
ATOM    129  C   GLU d   1     -37.392 -87.644 -24.274  0.00  0.00     0.240 C 
ATOM    130  O   GLU d   1     -36.860 -86.697 -23.702  0.00  0.00    -0.271 OA
ATOM    131  N   GLU d   1     -38.652 -87.974 -24.051  0.00  0.00    -0.346 N 
ATOM    132  H84 GLU d   1     -39.039 -88.795 -24.471  0.00  0.00     0.163 HD
BRANCH 131 133
ATOM    133  CA  GLU d   1     -39.482 -87.125 -23.180  0.00  0.00     0.086 C 
ATOM    134  H85 GLU d   1     -39.515 -86.124 -23.634  0.00  0.00     0.086 H 
BRANCH 133 135
ATOM    135  C   GLU d   1     -38.847 -86.951 -21.761  0.00  0.00     0.240 C 
ATOM    136  O   GLU d   1     -37.857 -87.636 -21.453  0.00  0.00    -0.271 OA
ATOM    137  N   VAL d   1     -39.383 -86.052 -20.926  0.00  0.00    -0.346 N 
ATOM    138  H89 VAL d   1     -40.119 -85.454 -21.243  0.00  0.00     0.163 HD
BRANCH 137 139
ATOM    139  CA  VAL d   1     -38.892 -85.942 -19.544  0.00  0.00     0.092 C 
ATOM    140  H90 VAL d   1     -38.672 -86.971 -19.223  0.00  0.00     0.088 H 
BRANCH 139 141
ATOM    141  C   VAL d   1     -39.927 -85.378 -18.509  0.00  0.00     0.241 C 
ATOM    142  O   VAL d   1     -40.803 -84.605 -18.896  0.00  0.00    -0.271 OA
ATOM    143  N   GLY d   1     -39.802 -85.714 -17.211  0.00  0.00    -0.349 N 
ATOM    144  H98 GLY d   1     -39.034 -86.295 -16.942  0.00  0.00     0.163 HD
BRANCH 143 145
ATOM    145  CA  GLY d   1     -40.749 -85.264 -16.159  0.00  0.00     0.075 C 
ATOM    146  H99 GLY d   1     -40.357 -85.626 -15.197  0.00  0.00     0.080 H 
ATOM    147 0H10 GLY d   1     -41.715 -85.747 -16.367  0.00  0.00     0.080 H 
BRANCH 145 148
ATOM    148  C   GLY d   1     -41.022 -83.772 -15.997  0.00  0.00     0.191 C 
ATOM    149  O   GLY d   1     -41.222 -83.248 -14.879  0.00  0.00    -0.647 OA
ATOM    150  OXT GLY d   1     -41.061 -82.991 -16.973  0.00  0.00    -0.647 OA
ENDBRANCH 145 148
ENDBRANCH 143 145
ENDBRANCH 139 141
BRANCH 139 151
ATOM    151  CB  VAL d   1     -37.526 -85.136 -19.459  0.00  0.00    -0.033 C 
ATOM    152  H91 VAL d   1     -37.228 -85.138 -18.400  0.00  0.00     0.042 H 
BRANCH 151 153
ATOM    153  CG1 VAL d   1     -36.365 -85.811 -20.244  0.00  0.00    -0.071 C 
ATOM    154  H92 VAL d   1     -35.453 -85.204 -20.144  0.00  0.00     0.028 H 
ATOM    155  H93 VAL d   1     -36.638 -85.890 -21.307  0.00  0.00     0.028 H 
ATOM    156  H94 VAL d   1     -36.183 -86.816 -19.837  0.00  0.00     0.028 H 
ENDBRANCH 151 153
BRANCH 151 157
ATOM    157  CG2 VAL d   1     -37.708 -83.673 -19.863  0.00  0.00    -0.071 C 
ATOM    158  H95 VAL d   1     -38.536 -83.234 -19.287  0.00  0.00     0.028 H 
ATOM    159  H96 VAL d   1     -37.938 -83.615 -20.937  0.00  0.00     0.028 H 
ATOM    160  H97 VAL d   1     -36.782 -83.117 -19.655  0.00  0.00     0.028 H 
ENDBRANCH 151 157
ENDBRANCH 139 151
ENDBRANCH 137 139
ENDBRANCH 133 135
BRANCH 133 161
ATOM    161  CB  GLU d   1     -40.941 -87.657 -23.150  0.00  0.00    -0.049 C 
ATOM    162  H86 GLU d   1     -41.552 -87.016 -22.497  0.00  0.00     0.030 H 
ATOM    163  H87 GLU d   1     -40.948 -88.687 -22.763  0.00  0.00     0.030 H 
ATOM    164  H88 GLU d   1     -41.357 -87.645 -24.168  0.00  0.00     0.030 H 
ENDBRANCH 133 161
ENDBRANCH 131 133
ENDBRANCH 127 129
BRANCH 127 165
ATOM    165  CB  GLU d   1     -37.455 -88.938 -26.449  0.00  0.00    -0.049 C 
ATOM    166  H81 GLU d   1     -38.014 -88.091 -26.873  0.00  0.00     0.030 H 
ATOM    167  H82 GLU d   1     -38.162 -89.701 -26.090  0.00  0.00     0.030 H 
ATOM    168  H83 GLU d   1     -36.807 -89.374 -27.223  0.00  0.00     0.030 H 
ENDBRANCH 127 165
ENDBRANCH 125 127
ENDBRANCH   7 123
BRANCH  24 169
ATOM    169  CB  LYS d   1     -39.639 -92.629 -24.092  0.00  0.00    -0.049 C 
ATOM    170  H39 LYS d   1     -39.227 -92.975 -25.052  0.00  0.00     0.030 H 
ATOM    171  H40 LYS d   1     -39.521 -91.538 -24.014  0.00  0.00     0.030 H 
ATOM    172  H41 LYS d   1     -40.707 -92.887 -24.037  0.00  0.00     0.030 H 
ENDBRANCH  24 169
BRANCH  40 173
ATOM    173  CB  TRP d   1     -30.182 -92.265 -26.463  0.00  0.00    -0.012 C 
ATOM    174  H67 TRP d   1     -30.212 -91.207 -26.163  0.00  0.00     0.044 H 
ATOM    175  H68 TRP d   1     -30.817 -92.413 -27.349  0.00  0.00     0.044 H 
BRANCH 173 176
ATOM    176  CG  TRP d   1     -28.766 -92.635 -26.809  0.00  0.00    -0.028 A 
ATOM    177  CD1 TRP d   1     -28.356 -93.692 -27.566  0.00  0.00    -0.015 A 
ATOM    178  NE1 TRP d   1     -26.976 -93.688 -27.696  0.00  0.00    -0.365 N 
ATOM    179  H69 TRP d   1     -29.019 -94.435 -28.007  0.00  0.00     0.112 H 
ATOM    180  CE2 TRP d   1     -26.461 -92.637 -26.976  0.00  0.00     0.042 A 
ATOM    181  H70 TRP d   1     -26.425 -94.364 -28.244  0.00  0.00     0.165 HD
ATOM    182  CD2 TRP d   1     -27.569 -91.942 -26.408  0.00  0.00    -0.002 A 
ATOM    183  CZ2 TRP d   1     -25.133 -92.214 -26.822  0.00  0.00    -0.056 A 
ATOM    184  CE3 TRP d   1     -27.328 -90.777 -25.660  0.00  0.00    -0.070 A 
ATOM    185  CZ3 TRP d   1     -25.999 -90.369 -25.490  0.00  0.00    -0.082 A 
ATOM    186  H71 TRP d   1     -28.146 -90.212 -25.228  0.00  0.00     0.084 H 
ATOM    187  CH2 TRP d   1     -24.920 -91.093 -26.104  0.00  0.00    -0.081 A 
ATOM    188  H73 TRP d   1     -25.781 -89.495 -24.887  0.00  0.00     0.083 H 
ATOM    189  H74 TRP d   1     -23.906 -90.727 -25.986  0.00  0.00     0.083 H 
ATOM    190  H72 TRP d   1     -24.311 -92.766 -27.262  0.00  0.00     0.086 H 
ENDBRANCH 173 176
ENDBRANCH  40 173
BRANCH  36 191
ATOM    191  CB  TRP d   1     -35.193 -95.499 -22.733  0.00  0.00    -0.012 C 
ATOM    192  H44 TRP d   1     -34.423 -96.238 -23.002  0.00  0.00     0.044 H 
ATOM    193  H45 TRP d   1     -36.134 -96.018 -22.499  0.00  0.00     0.044 H 
BRANCH 191 194
ATOM    194  CG  TRP d   1     -34.731 -94.783 -21.473  0.00  0.00    -0.028 A 
ATOM    195  CD1 TRP d   1     -35.505 -94.334 -20.435  0.00  0.00    -0.015 A 
ATOM    196  NE1 TRP d   1     -34.726 -93.731 -19.464  0.00  0.00    -0.365 N 
ATOM    197  H46 TRP d   1     -36.588 -94.438 -20.382  0.00  0.00     0.112 H 
ATOM    198  CE2 TRP d   1     -33.424 -93.765 -19.878  0.00  0.00     0.042 A 
ATOM    199  H47 TRP d   1     -35.068 -93.326 -18.581  0.00  0.00     0.165 HD
ATOM    200  CD2 TRP d   1     -33.384 -94.428 -21.130  0.00  0.00    -0.002 A 
ATOM    201  CZ2 TRP d   1     -32.273 -93.288 -19.255  0.00  0.00    -0.056 A 
ATOM    202  CE3 TRP d   1     -32.136 -94.599 -21.768  0.00  0.00    -0.070 A 
ATOM    203  CZ3 TRP d   1     -30.992 -94.122 -21.142  0.00  0.00    -0.082 A 
ATOM    204  H48 TRP d   1     -32.072 -95.094 -22.730  0.00  0.00     0.084 H 
ATOM    205  CH2 TRP d   1     -31.068 -93.486 -19.892  0.00  0.00    -0.081 A 
ATOM    206  H50 TRP d   1     -30.029 -94.242 -21.624  0.00  0.00     0.083 H 
ATOM    207  H51 TRP d   1     -30.156 -93.143 -19.417  0.00  0.00     0.083 H 
ATOM    208  H49 TRP d   1     -32.324 -92.778 -18.300  0.00  0.00     0.086 H 
ENDBRANCH 191 194
ENDBRANCH  36 191
BRANCH  28 209
ATOM    209  CB  LYS d   1     -35.573 -95.514 -28.519  0.00  0.00    -0.049 C 
ATOM    210  H54 LYS d   1     -35.571 -96.174 -29.399  0.00  0.00     0.030 H 
ATOM    211  H55 LYS d   1     -35.195 -94.521 -28.804  0.00  0.00     0.030 H 
ATOM    212  H56 LYS d   1     -36.599 -95.419 -28.134  0.00  0.00     0.030 H 
ENDBRANCH  28 209
BRANCH  48 213
ATOM    213  CB  HIS d   1     -31.543 -98.119 -30.613  0.00  0.00    -0.049 C 
ATOM    214  H59 HIS d   1     -30.573 -98.611 -30.778  0.00  0.00     0.030 H 
ATOM    215  H60 HIS d   1     -31.525 -97.113 -31.058  0.00  0.00     0.030 H 
ATOM    216  H61 HIS d   1     -32.340 -98.713 -31.083  0.00  0.00     0.030 H 
ENDBRANCH  48 213
TORSDOF 37
