REMARK  7 active torsions:
REMARK  status: ('A' for Active; 'I' for Inactive)
REMARK    1  A    between atoms: C1_1  and  S2_2 
REMARK    2  A    between atoms: S2_2  and  N5_5 
REMARK    3  A    between atoms: N5_5  and  C6_6 
REMARK    4  A    between atoms: C10_10  and  C12_12 
REMARK    5  A    between atoms: C12_12  and  C13_13 
REMARK       I    between atoms: C13_13  and  N15_15 
REMARK    6  A    between atoms: N15_15  and  C16_16 
REMARK    7  A    between atoms: C18_18  and  C21_21 
ROOT
ATOM      1  C12 4TW d   1      52.535 104.303  33.610  0.00  0.00     0.033 C 
ATOM      2  H9  4TW d   1      52.938 103.298  33.803  0.00  0.00     0.054 H 
ATOM      3  H10 4TW d   1      53.289 105.058  33.876  0.00  0.00     0.054 H 
ENDROOT
BRANCH   1   4
ATOM      4  C10 4TW d   1      51.286 104.518  34.422  0.00  0.00    -0.047 A 
ATOM      5  C9  4TW d   1      50.396 103.472  34.716  0.00  0.00    -0.076 A 
ATOM      6  C8  4TW d   1      49.223 103.699  35.444  0.00  0.00    -0.080 A 
ATOM      7  H7  4TW d   1      50.622 102.469  34.372  0.00  0.00     0.084 H 
ATOM      8  C7  4TW d   1      48.944 104.984  35.897  0.00  0.00    -0.057 A 
ATOM      9  H6  4TW d   1      48.540 102.883  35.652  0.00  0.00     0.083 H 
ATOM     10  C6  4TW d   1      49.828 106.036  35.579  0.00  0.00     0.042 A 
ATOM     11  H5  4TW d   1      48.056 105.175  36.489  0.00  0.00     0.086 H 
ATOM     12  C11 4TW d   1      50.994 105.800  34.842  0.00  0.00    -0.050 A 
ATOM     13  H8  4TW d   1      51.663 106.618  34.603  0.00  0.00     0.087 H 
BRANCH  10  14
ATOM     14  N5  4TW d   1      49.584 107.346  35.984  0.00  0.00    -0.285 N 
ATOM     15  H4  4TW d   1      49.170 107.990  35.340  0.00  0.00     0.178 HD
BRANCH  14  16
ATOM     16  S2  4TW d   1      49.967 107.857  37.513  0.00  0.00     0.227 S 
ATOM     17  O3  4TW d   1      49.262 106.942  38.360  0.00  0.00    -0.206 OA
ATOM     18  O4  4TW d   1      49.677 109.252  37.418  0.00  0.00    -0.206 OA
BRANCH  16  19
ATOM     19  C1  4TW d   1      51.752 107.662  37.785  0.00  0.00     0.033 C 
ATOM     20  H1  4TW d   1      51.997 106.592  37.861  0.00  0.00     0.051 H 
ATOM     21  H2  4TW d   1      52.039 108.171  38.717  0.00  0.00     0.051 H 
ATOM     22  H3  4TW d   1      52.302 108.105  36.941  0.00  0.00     0.051 H 
ENDBRANCH  16  19
ENDBRANCH  14  16
ENDBRANCH  10  14
ENDBRANCH   1   4
BRANCH   1  23
ATOM     23  C13 4TW d   1      52.169 104.436  32.158  0.00  0.00     0.226 C 
ATOM     24  O14 4TW d   1      52.040 105.559  31.707  0.00  0.00    -0.273 OA
ATOM     25  N15 4TW d   1      51.959 103.320  31.401  0.00  0.00    -0.321 N 
ATOM     26  H11 4TW d   1      52.068 102.427  31.838  0.00  0.00     0.169 HD
BRANCH  25  27
ATOM     27  C16 4TW d   1      51.594 103.353  30.028  0.00  0.00     0.077 A 
ATOM     28  C17 4TW d   1      51.427 102.271  29.258  0.00  0.00    -0.039 A 
ATOM     29  C18 4TW d   1      51.010 102.522  27.955  0.00  0.00    -0.017 A 
ATOM     30  H12 4TW d   1      51.606 101.262  29.627  0.00  0.00     0.089 H 
ATOM     31  C19 4TW d   1      50.844 103.833  27.681  0.00  0.00    -0.032 A 
ATOM     32  S20 4TW d   1      51.250 104.801  29.074  0.00  0.00    -0.083 SA
ATOM     33  H13 4TW d   1      50.505 104.230  26.726  0.00  0.00     0.096 H 
BRANCH  29  34
ATOM     34  C21 4TW d   1      50.837 101.475  26.900  0.00  0.00    -0.020 A 
ATOM     35  C22 4TW d   1      50.507 101.834  25.574  0.00  0.00    -0.055 A 
ATOM     36  C23 4TW d   1      50.368 100.869  24.596  0.00  0.00     0.006 A 
ATOM     37  H14 4TW d   1      50.361 102.878  25.322  0.00  0.00     0.087 H 
ATOM     38  N24 4TW d   1      50.575  99.599  24.894  0.00  0.00    -0.233 NA
ATOM     39  H15 4TW d   1      50.090 101.153  23.587  0.00  0.00     0.114 H 
ATOM     40  C25 4TW d   1      50.909  99.217  26.126  0.00  0.00     0.210 A 
ATOM     41  C26 4TW d   1      51.074 100.127  27.156  0.00  0.00    -0.016 A 
ATOM     42  F27 4TW d   1      51.072  97.903  26.392  0.00  0.00    -0.184 F 
ATOM     43  H16 4TW d   1      51.381  99.797  28.142  0.00  0.00     0.092 H 
ENDBRANCH  29  34
ENDBRANCH  25  27
ENDBRANCH   1  23
TORSDOF 7
