REMARK  8 active torsions:
REMARK  status: ('A' for Active; 'I' for Inactive)
REMARK    1  A    between atoms: CA_8  and  CB_11 
REMARK    2  A    between atoms: CB_11  and  CG_12 
REMARK    3  A    between atoms: CA_19  and  CB_22 
REMARK    4  A    between atoms: CB_22  and  CG_23 
REMARK    5  A    between atoms: CA_31  and  CB_34 
REMARK    6  A    between atoms: CB_34  and  CG_35 
REMARK    7  A    between atoms: CZ_40  and  N1_41 
REMARK    8  A    between atoms: CA_45  and  C_50 
ROOT
ATOM      1  C2  FUM d   1     -17.822  -2.715  -2.584  0.00  0.00     0.242 C 
ATOM      2  O3  FUM d   1     -18.500  -1.880  -3.091  0.00  0.00    -0.269 OA
ATOM      3  C4  FUM d   1     -18.474  -3.930  -1.973  0.00  0.00    -0.013 C 
ATOM      4  C5  FUM d   1     -19.876  -3.952  -1.774  0.00  0.00    -0.013 C 
ATOM      5  C6  FUM d   1     -20.557  -5.236  -1.213  0.00  0.00     0.242 C 
ATOM      6  O7  FUM d   1     -20.310  -5.610  -0.086  0.00  0.00    -0.269 OA
ATOM      7  H1  FUM d   1     -17.868  -4.788  -1.686  0.00  0.00     0.092 H 
ATOM      8  H2  FUM d   1     -20.476  -3.075  -2.012  0.00  0.00     0.092 H 
ATOM      9  N   ALC d   1     -21.495  -5.992  -2.046  0.00  0.00    -0.344 N 
ATOM     10  CA  ALC d   1     -22.108  -7.162  -1.537  0.00  0.00     0.090 C 
ATOM     11  C   ALC d   1     -21.387  -8.380  -2.115  0.00  0.00     0.241 C 
ATOM     12  O   ALC d   1     -20.849  -9.179  -1.373  0.00  0.00    -0.271 OA
ATOM     13  H3  ALC d   1     -21.702  -5.682  -2.974  0.00  0.00     0.163 HD
ATOM     14  H4  ALC d   1     -22.027  -7.174  -0.440  0.00  0.00     0.087 H 
ATOM     15  N   PFF d   1     -21.340  -8.578  -3.555  0.00  0.00    -0.346 N 
ATOM     16  CA  PFF d   1     -20.657  -9.719  -4.105  0.00  0.00     0.093 C 
ATOM     17  C   PFF d   1     -19.637  -9.221  -5.155  0.00  0.00     0.241 C 
ATOM     18  O   PFF d   1     -18.691  -9.929  -5.496  0.00  0.00    -0.271 OA
ATOM     19  H18 PFF d   1     -21.783  -7.920  -4.164  0.00  0.00     0.163 HD
ATOM     20  H19 PFF d   1     -20.126 -10.250  -3.301  0.00  0.00     0.088 H 
ATOM     21  N   PPN d   1     -19.818  -7.869  -5.741  0.00  0.00    -0.346 N 
ATOM     22  CA  PPN d   1     -18.906  -7.362  -6.696  0.00  0.00     0.093 C 
ATOM     23  C   PPN d   1     -18.131  -6.224  -6.021  0.00  0.00     0.240 C 
ATOM     24  O   PPN d   1     -18.741  -5.339  -5.424  0.00  0.00    -0.271 OA
ATOM     25  H26 PPN d   1     -20.596  -7.309  -5.457  0.00  0.00     0.163 HD
ATOM     26  H27 PPN d   1     -18.218  -8.156  -7.022  0.00  0.00     0.088 H 
ATOM     27  N   ORN d   1     -16.406  -2.663  -2.732  0.00  0.00    -0.343 N 
ATOM     28  CA  ORN d   1     -15.583  -3.654  -2.134  0.00  0.00     0.096 C 
ATOM     29  CB  ORN d   1     -14.852  -4.409  -3.217  0.00  0.00    -0.035 C 
ATOM     30  CG  ORN d   1     -15.753  -5.427  -3.936  0.00  0.00    -0.048 C 
ATOM     31  CD  ORN d   1     -15.962  -5.100  -5.427  0.00  0.00    -0.005 C 
ATOM     32  NE  ORN d   1     -16.673  -6.187  -6.077  0.00  0.00    -0.359 N 
ATOM     33  H34 ORN d   1     -15.989  -1.924  -3.260  0.00  0.00     0.163 HD
ATOM     34  H35 ORN d   1     -16.208  -4.350  -1.555  0.00  0.00     0.089 H 
ATOM     35  H36 ORN d   1     -14.006  -4.946  -2.763  0.00  0.00     0.036 H 
ATOM     36  H37 ORN d   1     -14.475  -3.688  -3.957  0.00  0.00     0.036 H 
ATOM     37  H38 ORN d   1     -16.734  -5.439  -3.439  0.00  0.00     0.035 H 
ATOM     38  H39 ORN d   1     -15.290  -6.422  -3.857  0.00  0.00     0.035 H 
ATOM     39  H40 ORN d   1     -14.984  -4.963  -5.911  0.00  0.00     0.064 H 
ATOM     40  H41 ORN d   1     -16.549  -4.174  -5.519  0.00  0.00     0.064 H 
ATOM     41  H42 ORN d   1     -16.168  -6.904  -6.559  0.00  0.00     0.162 HD
ENDROOT
BRANCH  10  42
ATOM     42  CB  ALC d   1     -23.580  -7.185  -1.934  0.00  0.00    -0.035 C 
ATOM     43  H5  ALC d   1     -23.681  -7.737  -2.880  0.00  0.00     0.037 H 
ATOM     44  H6  ALC d   1     -23.923  -6.149  -2.075  0.00  0.00     0.037 H 
BRANCH  42  45
ATOM     45  CG  ALC d   1     -24.484  -7.870  -0.854  0.00  0.00    -0.052 C 
ATOM     46  CD2 ALC d   1     -25.954  -7.638  -1.202  0.00  0.00    -0.062 C 
ATOM     47  CE2 ALC d   1     -26.390  -6.197  -0.971  0.00  0.00    -0.065 C 
ATOM     48  H8  ALC d   1     -26.573  -8.298  -0.576  0.00  0.00     0.033 H 
ATOM     49  H9  ALC d   1     -26.109  -7.887  -2.262  0.00  0.00     0.033 H 
ATOM     50  CZ  ALC d   1     -26.078  -5.734   0.443  0.00  0.00    -0.065 C 
ATOM     51  H10 ALC d   1     -27.474  -6.121  -1.139  0.00  0.00     0.033 H 
ATOM     52  H11 ALC d   1     -25.862  -5.546  -1.684  0.00  0.00     0.033 H 
ATOM     53  CE1 ALC d   1     -24.599  -5.918   0.779  0.00  0.00    -0.065 C 
ATOM     54  H12 ALC d   1     -26.681  -6.320   1.152  0.00  0.00     0.033 H 
ATOM     55  H13 ALC d   1     -26.336  -4.669   0.535  0.00  0.00     0.033 H 
ATOM     56  CD1 ALC d   1     -24.124  -7.343   0.533  0.00  0.00    -0.062 C 
ATOM     57  H14 ALC d   1     -24.444  -5.671   1.840  0.00  0.00     0.033 H 
ATOM     58  H15 ALC d   1     -24.006  -5.235   0.153  0.00  0.00     0.033 H 
ATOM     59  H16 ALC d   1     -23.030  -7.370   0.643  0.00  0.00     0.033 H 
ATOM     60  H17 ALC d   1     -24.585  -7.999   1.286  0.00  0.00     0.033 H 
ATOM     61  H7  ALC d   1     -24.294  -8.953  -0.869  0.00  0.00     0.040 H 
ENDBRANCH  42  45
ENDBRANCH  10  42
BRANCH  16  62
ATOM     62  CB  PFF d   1     -21.633 -10.647  -4.739  0.00  0.00    -0.014 C 
ATOM     63  H20 PFF d   1     -21.089 -11.511  -5.149  0.00  0.00     0.043 H 
ATOM     64  H21 PFF d   1     -22.150 -10.119  -5.554  0.00  0.00     0.043 H 
BRANCH  62  65
ATOM     65  CG  PFF d   1     -22.676 -11.148  -3.730  0.00  0.00    -0.056 A 
ATOM     66  CD1 PFF d   1     -22.401 -12.263  -2.955  0.00  0.00    -0.074 A 
ATOM     67  CE1 PFF d   1     -23.348 -12.723  -2.035  0.00  0.00    -0.045 A 
ATOM     68  H22 PFF d   1     -21.453 -12.778  -3.062  0.00  0.00     0.084 H 
ATOM     69  CZ  PFF d   1     -24.564 -12.062  -1.899  0.00  0.00     0.116 A 
ATOM     70  H24 PFF d   1     -23.134 -13.595  -1.428  0.00  0.00     0.088 H 
ATOM     71  CE2 PFF d   1     -24.842 -10.937  -2.680  0.00  0.00    -0.045 A 
ATOM     72  F   PFF d   1     -25.475 -12.506  -1.012  0.00  0.00    -0.206 F 
ATOM     73  CD2 PFF d   1     -23.902 -10.479  -3.594  0.00  0.00    -0.074 A 
ATOM     74  H25 PFF d   1     -25.790 -10.422  -2.573  0.00  0.00     0.088 H 
ATOM     75  H23 PFF d   1     -24.115  -9.607  -4.201  0.00  0.00     0.084 H 
ENDBRANCH  62  65
ENDBRANCH  16  62
BRANCH  22  76
ATOM     76  CB  PPN d   1     -19.645  -6.805  -7.888  0.00  0.00    -0.014 C 
ATOM     77  H28 PPN d   1     -18.928  -6.244  -8.506  0.00  0.00     0.043 H 
ATOM     78  H29 PPN d   1     -20.425  -6.122  -7.520  0.00  0.00     0.043 H 
BRANCH  76  79
ATOM     79  CG  PPN d   1     -20.323  -7.879  -8.785  0.00  0.00    -0.056 A 
ATOM     80  CD1 PPN d   1     -21.603  -8.352  -8.472  0.00  0.00    -0.074 A 
ATOM     81  CE1 PPN d   1     -22.209  -9.307  -9.280  0.00  0.00    -0.051 A 
ATOM     82  H30 PPN d   1     -22.122  -7.973  -7.599  0.00  0.00     0.084 H 
ATOM     83  CZ  PPN d   1     -21.549  -9.790 -10.395  0.00  0.00     0.102 A 
ATOM     84  H32 PPN d   1     -23.200  -9.673  -9.036  0.00  0.00     0.087 H 
ATOM     85  CE2 PPN d   1     -20.271  -9.319 -10.710  0.00  0.00    -0.051 A 
ATOM     86  CD2 PPN d   1     -19.663  -8.362  -9.901  0.00  0.00    -0.074 A 
ATOM     87  H33 PPN d   1     -19.753  -9.698 -11.584  0.00  0.00     0.087 H 
ATOM     88  H31 PPN d   1     -18.673  -7.996 -10.146  0.00  0.00     0.084 H 
BRANCH  83  89
ATOM     89  N1  PPN d   1     -22.171 -10.775 -11.228  0.00  0.00    -0.116 N 
ATOM     90  O1  PPN d   1     -21.688 -11.046 -12.330  0.00  0.00    -0.532 OA
ATOM     91  O2  PPN d   1     -23.174 -11.339 -10.852  0.00  0.00    -0.532 OA
ENDBRANCH  83  89
ENDBRANCH  76  79
ENDBRANCH  22  76
BRANCH  28  92
ATOM     92  C   ORN d   1     -14.566  -2.999  -1.213  0.00  0.00     0.196 C 
ATOM     93  O   ORN d   1     -13.367  -2.883  -1.580  0.00  0.00    -0.646 OA
ATOM     94  OXT ORN d   1     -14.922  -2.573  -0.076  0.00  0.00    -0.646 OA
ENDBRANCH  28  92
TORSDOF 8
