REMARK  6 active torsions:
REMARK  status: ('A' for Active; 'I' for Inactive)
REMARK    1  A    between atoms: C7_4  and  C6_3 
REMARK    2  A    between atoms: N8_12  and  C7_4 
REMARK    3  A    between atoms: N15_18  and  C13_5 
REMARK    4  A    between atoms: C18_20  and  C22_7 
REMARK    5  A    between atoms: C9_13  and  N8_12 
REMARK    6  A    between atoms: N15_18  and  C16_19 
ROOT
ATOM      1  C13 4T6 d   1     -37.059  11.477 -15.201  0.00  0.00     0.149 A 
ATOM      2  C9  4T6 d   1     -37.003  13.530 -14.122  0.00  0.00     0.724 A 
ATOM      3  N10 4T6 d   1     -38.287  13.435 -13.797  0.00  0.00    -0.075 NA
ATOM      4  C11 4T6 d   1     -39.008  12.378 -14.150  0.00  0.00     0.025 A 
ATOM      5  C12 4T6 d   1     -38.412  11.360 -14.867  0.00  0.00    -0.020 A 
ATOM      6  N14 4T6 d   1     -36.399  12.568 -14.811  0.00  0.00    -0.045 NA
ATOM      7  H10 4T6 d   1     -40.055  12.315 -13.878  0.00  0.00     0.115 H 
ATOM      8  H11 4T6 d   1     -38.981  10.487 -15.165  0.00  0.00     0.091 H 
ENDROOT
BRANCH   2   9
ATOM      9  N8  4T6 d   1     -36.285  14.655 -13.728  0.00  0.00    -0.218 N 
ATOM     10  H9  4T6 d   1     -36.746  15.376 -13.155  0.00  0.00     0.178 HD
BRANCH   9  11
ATOM     11  C7  4T6 d   1     -34.878  14.830 -14.117  0.00  0.00     0.035 C 
ATOM     12  H1  4T6 d   1     -34.620  14.074 -14.873  0.00  0.00     0.072 H 
ATOM     13  H2  4T6 d   1     -34.747  15.835 -14.543  0.00  0.00     0.072 H 
BRANCH  11  14
ATOM     14  C6  4T6 d   1     -33.954  14.675 -12.932  0.00  0.00    -0.016 A 
ATOM     15  C5  4T6 d   1     -33.317  15.774 -12.380  0.00  0.00     0.073 A 
ATOM     16  C4  4T6 d   1     -32.463  15.605 -11.279  0.00  0.00     0.107 A 
ATOM     17 CL1  4T6 d   1     -33.561  17.369 -13.025  0.00  0.00    -0.081 Cl
ATOM     18  C3  4T6 d   1     -32.259  14.319 -10.748  0.00  0.00     0.064 A 
ATOM     19  N26 4T6 d   1     -31.716  16.463 -10.531  0.00  0.00    -0.240 NA
ATOM     20  C2  4T6 d   1     -32.906  13.229 -11.320  0.00  0.00    -0.054 A 
ATOM     21  N28 4T6 d   1     -31.384  14.478  -9.689  0.00  0.00    -0.349 N 
ATOM     22  C1  4T6 d   1     -33.744  13.409 -12.402  0.00  0.00    -0.071 A 
ATOM     23  H8  4T6 d   1     -32.752  12.235 -10.915  0.00  0.00     0.087 H 
ATOM     24  H7  4T6 d   1     -34.243  12.553 -12.842  0.00  0.00     0.084 H 
ATOM     25  C27 4T6 d   1     -31.086  15.804  -9.603  0.00  0.00     0.065 A 
ATOM     26  H17 4T6 d   1     -31.024  13.731  -9.078  0.00  0.00     0.167 HD
ATOM     27  H16 4T6 d   1     -30.418  16.247  -8.866  0.00  0.00     0.143 H 
ENDBRANCH  11  14
ENDBRANCH   9  11
ENDBRANCH   2   9
BRANCH   1  28
ATOM     28  N15 4T6 d   1     -36.450  10.448 -15.923  0.00  0.00    -0.324 N 
ATOM     29  H12 4T6 d   1     -36.971   9.563 -15.999  0.00  0.00     0.169 HD
BRANCH  28  30
ATOM     30  C16 4T6 d   1     -35.189  10.503 -16.559  0.00  0.00     0.151 A 
ATOM     31  C17 4T6 d   1     -34.072  11.305 -16.249  0.00  0.00    -0.013 A 
ATOM     32  C18 4T6 d   1     -33.082  11.006 -17.129  0.00  0.00     0.035 A 
ATOM     33  H3  4T6 d   1     -34.013  12.037 -15.444  0.00  0.00     0.092 H 
ATOM     34  N19 4T6 d   1     -33.538  10.052 -17.960  0.00  0.00    -0.280 N 
ATOM     35  N21 4T6 d   1     -34.850   9.754 -17.581  0.00  0.00    -0.156 NA
ATOM     36  H13 4T6 d   1     -33.015   9.620 -18.735  0.00  0.00     0.189 HD
BRANCH  32  37
ATOM     37  C22 4T6 d   1     -31.705  11.617 -17.193  0.00  0.00    -0.012 A 
ATOM     38  C24 4T6 d   1     -31.611  13.142 -17.264  0.00  0.00    -0.056 A 
ATOM     39  C23 4T6 d   1     -31.217  12.410 -15.978  0.00  0.00    -0.056 A 
ATOM     40  H5  4T6 d   1     -32.528  13.749 -17.293  0.00  0.00     0.034 H 
ATOM     41  H6  4T6 d   1     -30.838  13.617 -17.885  0.00  0.00     0.034 H 
ATOM     42  H14 4T6 d   1     -30.161  12.359 -15.676  0.00  0.00     0.034 H 
ATOM     43  H15 4T6 d   1     -31.851  12.491 -15.083  0.00  0.00     0.034 H 
ATOM     44  H4  4T6 d   1     -31.018  10.977 -17.766  0.00  0.00     0.049 H 
ENDBRANCH  32  37
ENDBRANCH  28  30
ENDBRANCH   1  28
TORSDOF 6
