REMARK  4 active torsions:
REMARK  status: ('A' for Active; 'I' for Inactive)
REMARK    1  A    between atoms: N2_18  and  C1_1 
REMARK    2  A    between atoms: C7_5  and  C4_3 
REMARK    3  A    between atoms: C19_11  and  N20_26 
REMARK    4  A    between atoms: C10_21  and  C13_22 
ROOT
ATOM      1  C16 4TV d   1      43.531  61.268  54.736  0.00  0.00     0.025 A 
ATOM      2  C17 4TV d   1      42.371  60.631  55.128  0.00  0.00     0.079 A 
ATOM      3  C19 4TV d   1      41.659  59.861  54.194  0.00  0.00     0.066 A 
ATOM      4  C13 4TV d   1      42.182  59.788  52.867  0.00  0.00     0.020 A 
ATOM      5  C14 4TV d   1      43.371  60.468  52.571  0.00  0.00     0.015 A 
ATOM      6  N15 4TV d   1      43.996  61.176  53.496  0.00  0.00    -0.270 NA
ATOM      7 CL1  4TV d   1      41.837  60.811  56.776  0.00  0.00    -0.080 Cl
ATOM      8  H9  4TV d   1      44.078  61.860  55.461  0.00  0.00     0.117 H 
ATOM      9  H17 4TV d   1      43.784  60.413  51.570  0.00  0.00     0.116 H 
ENDROOT
BRANCH   3  10
ATOM     10  N20 4TV d   1      40.483  59.230  54.612  0.00  0.00    -0.379 N 
ATOM     11  C21 4TV d   1      40.566  58.003  55.417  0.00  0.00    -0.004 C 
ATOM     12  C22 4TV d   1      39.345  57.886  56.341  0.00  0.00    -0.035 C 
ATOM     13  H10 4TV d   1      41.481  58.031  56.027  0.00  0.00     0.064 H 
ATOM     14  H11 4TV d   1      40.598  57.131  54.747  0.00  0.00     0.064 H 
ATOM     15  C23 4TV d   1      38.021  58.131  55.609  0.00  0.00     0.045 C 
ATOM     16  H18 4TV d   1      39.443  58.627  57.148  0.00  0.00     0.037 H 
ATOM     17  H19 4TV d   1      39.326  56.874  56.772  0.00  0.00     0.037 H 
ATOM     18  C24 4TV d   1      37.633  56.959  54.678  0.00  0.00    -0.035 C 
ATOM     19  C27 4TV d   1      36.907  58.159  56.625  0.00  0.00     0.226 C 
ATOM     20  C29 4TV d   1      38.066  59.447  54.831  0.00  0.00    -0.035 C 
ATOM     21  C25 4TV d   1      36.852  56.053  55.650  0.00  0.00    -0.004 C 
ATOM     22  H12 4TV d   1      38.522  56.450  54.278  0.00  0.00     0.037 H 
ATOM     23  H13 4TV d   1      36.999  57.298  53.845  0.00  0.00     0.037 H 
ATOM     24  N26 4TV d   1      36.268  56.974  56.632  0.00  0.00    -0.360 N 
ATOM     25  H20 4TV d   1      37.528  55.339  56.143  0.00  0.00     0.064 H 
ATOM     26  H21 4TV d   1      36.062  55.503  55.117  0.00  0.00     0.064 H 
ATOM     27  H22 4TV d   1      35.497  56.751  57.228  0.00  0.00     0.162 HD
ATOM     28  O28 4TV d   1      36.629  59.102  57.335  0.00  0.00    -0.273 OA
ATOM     29  C30 4TV d   1      39.242  59.432  53.852  0.00  0.00    -0.004 C 
ATOM     30  H23 4TV d   1      38.188  60.283  55.535  0.00  0.00     0.037 H 
ATOM     31  H24 4TV d   1      37.127  59.573  54.272  0.00  0.00     0.037 H 
ATOM     32  H14 4TV d   1      39.112  58.612  53.130  0.00  0.00     0.064 H 
ATOM     33  H15 4TV d   1      39.289  60.391  53.314  0.00  0.00     0.064 H 
ENDBRANCH   3  10
BRANCH   4  34
ATOM     34  C10 4TV d   1      41.547  58.996  51.786  0.00  0.00    -0.022 A 
ATOM     35  C11 4TV d   1      41.469  57.606  51.935  0.00  0.00    -0.071 A 
ATOM     36  C12 4TV d   1      40.887  56.825  50.958  0.00  0.00    -0.071 A 
ATOM     37  H7  4TV d   1      41.870  57.139  52.827  0.00  0.00     0.084 H 
ATOM     38  C7  4TV d   1      40.365  57.417  49.801  0.00  0.00    -0.023 A 
ATOM     39  H8  4TV d   1      40.834  55.750  51.086  0.00  0.00     0.084 H 
ATOM     40  C8  4TV d   1      40.450  58.813  49.650  0.00  0.00    -0.071 A 
ATOM     41  C9  4TV d   1      41.035  59.597  50.633  0.00  0.00    -0.071 A 
ATOM     42  H6  4TV d   1      40.054  59.281  48.756  0.00  0.00     0.084 H 
ATOM     43  H16 4TV d   1      41.095  60.672  50.507  0.00  0.00     0.084 H 
BRANCH  38  44
ATOM     44  C4  4TV d   1      39.742  56.568  48.742  0.00  0.00     0.010 A 
ATOM     45  C3  4TV d   1      38.803  56.958  47.832  0.00  0.00     0.010 A 
ATOM     46  N2  4TV d   1      38.506  55.901  47.050  0.00  0.00    -0.285 N 
ATOM     47  H4  4TV d   1      38.368  57.953  47.751  0.00  0.00     0.115 H 
ATOM     48  N6  4TV d   1      39.278  54.821  47.480  0.00  0.00    -0.185 NA
ATOM     49  C5  4TV d   1      40.014  55.209  48.487  0.00  0.00     0.034 A 
ATOM     50  H5  4TV d   1      40.719  54.587  49.037  0.00  0.00     0.118 H 
BRANCH  46  51
ATOM     51  C1  4TV d   1      37.545  55.882  45.943  0.00  0.00     0.002 C 
ATOM     52  H1  4TV d   1      37.088  56.877  45.837  0.00  0.00     0.059 H 
ATOM     53  H2  4TV d   1      36.761  55.139  46.151  0.00  0.00     0.059 H 
ATOM     54  H3  4TV d   1      38.065  55.617  45.011  0.00  0.00     0.059 H 
ENDBRANCH  46  51
ENDBRANCH  38  44
ENDBRANCH   4  34
TORSDOF 4
