REMARK  5 active torsions:
REMARK  status: ('A' for Active; 'I' for Inactive)
REMARK    1  A    between atoms: C7_11  and  C10_1 
REMARK    2  A    between atoms: C10_1  and  O12_14 
REMARK    3  A    between atoms: C8_12  and  C11_2 
REMARK       I    between atoms: C11_2  and  N14_16 
REMARK    4  A    between atoms: C16_3  and  C17_4 
REMARK    5  A    between atoms: O12_14  and  C16_3 
ROOT
ATOM      1  C1  4UM d   1      -9.140  27.381  49.249  0.00  0.00    -0.006 A 
ATOM      2  C2  4UM d   1      -8.035  28.182  48.890  0.00  0.00     0.043 A 
ATOM      3  C3  4UM d   1      -8.943  26.971  50.605  0.00  0.00    -0.039 A 
ATOM      4  C4  4UM d   1     -10.140  27.155  48.297  0.00  0.00    -0.056 A 
ATOM      5  N5  4UM d   1      -7.216  28.259  49.982  0.00  0.00    -0.351 N 
ATOM      6  C6  4UM d   1      -7.950  28.737  47.616  0.00  0.00    -0.055 A 
ATOM      7  C7  4UM d   1      -7.755  27.514  51.017  0.00  0.00     0.109 A 
ATOM      8  C8  4UM d   1     -10.028  27.706  47.022  0.00  0.00     0.032 A 
ATOM      9  C9  4UM d   1      -8.931  28.511  46.698  0.00  0.00    -0.066 A 
ATOM     10  H6  4UM d   1      -9.610  26.346  51.197  0.00  0.00     0.088 H 
ATOM     11  H7  4UM d   1     -11.003  26.550  48.552  0.00  0.00     0.086 H 
ATOM     12  H8  4UM d   1      -6.334  28.789  50.028  0.00  0.00     0.166 HD
ATOM     13  H9  4UM d   1      -7.098  29.353  47.353  0.00  0.00     0.087 H 
ATOM     14  H10 4UM d   1      -8.861  28.957  45.712  0.00  0.00     0.085 H 
ENDROOT
BRANCH   7  15
ATOM     15  C10 4UM d   1      -7.107  27.426  52.336  0.00  0.00     0.310 C 
ATOM     16  O13 4UM d   1      -5.964  27.822  52.444  0.00  0.00    -0.258 OA
BRANCH  15  17
ATOM     17  O12 4UM d   1      -7.746  27.006  53.452  0.00  0.00    -0.317 OA
BRANCH  17  18
ATOM     18  C16 4UM d   1      -7.270  27.580  54.709  0.00  0.00     0.026 C 
ATOM     19  H1  4UM d   1      -6.488  28.324  54.496  0.00  0.00     0.074 H 
ATOM     20  H2  4UM d   1      -8.109  28.068  55.227  0.00  0.00     0.074 H 
BRANCH  18  21
ATOM     21  C17 4UM d   1      -6.692  26.480  55.605  0.00  0.00    -0.056 C 
ATOM     22  H3  4UM d   1      -6.337  26.923  56.547  0.00  0.00     0.030 H 
ATOM     23  H4  4UM d   1      -5.851  25.992  55.090  0.00  0.00     0.030 H 
ATOM     24  H5  4UM d   1      -7.472  25.735  55.821  0.00  0.00     0.030 H 
ENDBRANCH  18  21
ENDBRANCH  17  18
ENDBRANCH  15  17
ENDBRANCH   7  15
BRANCH   8  25
ATOM     25  C11 4UM d   1     -11.083  27.488  46.010  0.00  0.00     0.249 C 
ATOM     26  N14 4UM d   1     -12.283  28.081  46.171  0.00  0.00    -0.366 N 
ATOM     27  H11 4UM d   1     -13.005  27.941  45.493  0.00  0.00     0.159 HD
ATOM     28  H12 4UM d   1     -12.451  28.661  46.968  0.00  0.00     0.159 HD
ATOM     29  O15 4UM d   1     -10.887  26.769  45.051  0.00  0.00    -0.268 OA
ENDBRANCH   8  25
TORSDOF 5
