REMARK  6 active torsions:
REMARK  status: ('A' for Active; 'I' for Inactive)
REMARK    1  A    between atoms: C1_1  and  C16_10 
REMARK    2  A    between atoms: O12_14  and  C10_7 
REMARK    3  A    between atoms: C10_7  and  C8_16 
REMARK    4  A    between atoms: C13_15  and  C14_8 
REMARK    5  A    between atoms: N17_19  and  C20_12 
REMARK    6  A    between atoms: O12_14  and  C13_15 
ROOT
ATOM      1  C1  4UE d   1     -10.319  26.850  46.344  0.00  0.00    -0.007 A 
ATOM      2  C2  4UE d   1      -9.179  27.645  46.132  0.00  0.00    -0.069 A 
ATOM      3  C3  4UE d   1      -8.250  27.793  47.122  0.00  0.00    -0.056 A 
ATOM      4  C5  4UE d   1      -9.579  26.355  48.576  0.00  0.00    -0.006 A 
ATOM      5  N7  4UE d   1      -7.697  27.116  49.502  0.00  0.00    -0.351 N 
ATOM      6  C9  4UE d   1      -9.489  25.838  49.894  0.00  0.00    -0.039 A 
ATOM      7  C8  4UE d   1      -8.337  26.320  50.428  0.00  0.00     0.109 A 
ATOM      8  C6  4UE d   1      -8.438  27.154  48.350  0.00  0.00     0.043 A 
ATOM      9  C4  4UE d   1     -10.514  26.200  47.557  0.00  0.00    -0.059 A 
ATOM     10  H1  4UE d   1      -9.037  28.142  45.179  0.00  0.00     0.085 H 
ATOM     11  H2  4UE d   1      -7.370  28.404  46.956  0.00  0.00     0.087 H 
ATOM     12  H3  4UE d   1      -6.803  27.605  49.652  0.00  0.00     0.166 HD
ATOM     13  H4  4UE d   1     -10.206  25.181  50.384  0.00  0.00     0.088 H 
ATOM     14  H15 4UE d   1     -11.388  25.577  47.708  0.00  0.00     0.086 H 
ENDROOT
BRANCH   1  15
ATOM     15  C16 4UE d   1     -11.323  26.670  45.272  0.00  0.00     0.063 A 
ATOM     16  C15 4UE d   1     -12.675  26.732  45.420  0.00  0.00     0.030 A 
ATOM     17  N19 4UE d   1     -13.228  26.501  44.223  0.00  0.00    -0.254 NA
ATOM     18  H8  4UE d   1     -13.211  26.933  46.346  0.00  0.00     0.118 H 
ATOM     19  C18 4UE d   1     -12.292  26.294  43.336  0.00  0.00     0.066 A 
ATOM     20  N17 4UE d   1     -11.088  26.374  43.944  0.00  0.00    -0.344 N 
ATOM     21  H9  4UE d   1     -12.455  26.090  42.279  0.00  0.00     0.143 H 
BRANCH  20  22
ATOM     22  C20 4UE d   1      -9.784  26.212  43.294  0.00  0.00    -0.013 C 
ATOM     23  H10 4UE d   1      -8.985  26.330  44.041  0.00  0.00     0.057 H 
ATOM     24  H11 4UE d   1      -9.668  26.974  42.509  0.00  0.00     0.057 H 
ATOM     25  H12 4UE d   1      -9.720  25.210  42.844  0.00  0.00     0.057 H 
ENDBRANCH  20  22
ENDBRANCH   1  15
BRANCH   7  26
ATOM     26  C10 4UE d   1      -7.845  26.074  51.785  0.00  0.00     0.310 C 
ATOM     27  O11 4UE d   1      -8.410  25.285  52.517  0.00  0.00    -0.258 OA
BRANCH  26  28
ATOM     28  O12 4UE d   1      -6.794  26.766  52.255  0.00  0.00    -0.317 OA
BRANCH  28  29
ATOM     29  C13 4UE d   1      -7.098  27.631  53.383  0.00  0.00     0.026 C 
ATOM     30  H13 4UE d   1      -6.713  28.642  53.182  0.00  0.00     0.074 H 
ATOM     31  H14 4UE d   1      -8.188  27.676  53.526  0.00  0.00     0.074 H 
BRANCH  29  32
ATOM     32  C14 4UE d   1      -6.443  27.080  54.649  0.00  0.00    -0.056 C 
ATOM     33  H5  4UE d   1      -6.676  27.738  55.499  0.00  0.00     0.030 H 
ATOM     34  H6  4UE d   1      -5.353  27.035  54.508  0.00  0.00     0.030 H 
ATOM     35  H7  4UE d   1      -6.828  26.070  54.851  0.00  0.00     0.030 H 
ENDBRANCH  29  32
ENDBRANCH  28  29
ENDBRANCH  26  28
ENDBRANCH   7  26
TORSDOF 6
