REMARK  10 active torsions:
REMARK  status: ('A' for Active; 'I' for Inactive)
REMARK    1  A    between atoms: C15_12  and  C2_2 
REMARK    2  A    between atoms: C8_7  and  C10_9 
REMARK    3  A    between atoms: C10_9  and  O11_33 
REMARK    4  A    between atoms: C13_10  and  C14_11 
REMARK    5  A    between atoms: O11_33  and  C13_10 
REMARK    6  A    between atoms: C21_16  and  C18_13 
REMARK    7  A    between atoms: N16_30  and  C20_15 
REMARK       I    between atoms: N22_28  and  C21_16 
REMARK    8  A    between atoms: C28_21  and  C31_19 
REMARK    9  A    between atoms: C24_27  and  C25_26 
REMARK   10  A    between atoms: C24_27  and  N22_28 
ROOT
ATOM      1  C15 4UF d   1     -11.785  23.838  45.437  0.00  0.00     0.065 A 
ATOM      2  C18 4UF d   1     -13.740  23.511  44.498  0.00  0.00     0.146 A 
ATOM      3  C19 4UF d   1     -13.125  23.907  45.696  0.00  0.00    -0.020 A 
ATOM      4  N17 4UF d   1     -12.791  23.220  43.624  0.00  0.00    -0.167 NA
ATOM      5  N16 4UF d   1     -11.645  23.400  44.153  0.00  0.00    -0.273 N 
ATOM      6  H10 4UF d   1     -13.608  24.203  46.626  0.00  0.00     0.091 H 
ENDROOT
BRANCH   1   7
ATOM      7  C2  4UF d   1     -10.693  24.129  46.382  0.00  0.00    -0.007 A 
ATOM      8  C1  4UF d   1     -10.777  23.622  47.671  0.00  0.00    -0.059 A 
ATOM      9  C5  4UF d   1      -9.747  23.865  48.576  0.00  0.00    -0.006 A 
ATOM     10  H1  4UF d   1     -11.640  23.040  47.972  0.00  0.00     0.086 H 
ATOM     11  C6  4UF d   1      -8.631  24.611  48.160  0.00  0.00     0.043 A 
ATOM     12  C9  4UF d   1      -9.527  23.502  49.931  0.00  0.00    -0.039 A 
ATOM     13  C4  4UF d   1      -8.563  25.104  46.856  0.00  0.00    -0.056 A 
ATOM     14  N7  4UF d   1      -7.784  24.702  49.218  0.00  0.00    -0.351 N 
ATOM     15  C3  4UF d   1      -9.569  24.860  45.982  0.00  0.00    -0.069 A 
ATOM     16  H3  4UF d   1      -7.703  25.684  46.542  0.00  0.00     0.087 H 
ATOM     17  H2  4UF d   1      -9.503  25.233  44.967  0.00  0.00     0.085 H 
ATOM     18  C8  4UF d   1      -8.323  24.013  50.281  0.00  0.00     0.109 A 
ATOM     19  H21 4UF d   1      -6.885  25.205  49.224  0.00  0.00     0.166 HD
ATOM     20  H4  4UF d   1     -10.197  22.924  50.566  0.00  0.00     0.088 H 
BRANCH  18  21
ATOM     21  C10 4UF d   1      -7.704  23.920  51.591  0.00  0.00     0.310 C 
ATOM     22  O12 4UF d   1      -6.592  24.371  51.782  0.00  0.00    -0.258 OA
BRANCH  21  23
ATOM     23  O11 4UF d   1      -8.370  23.371  52.617  0.00  0.00    -0.317 OA
BRANCH  23  24
ATOM     24  C13 4UF d   1      -7.493  22.932  53.684  0.00  0.00     0.026 C 
ATOM     25  H5  4UF d   1      -7.582  21.843  53.812  0.00  0.00     0.074 H 
ATOM     26  H6  4UF d   1      -6.452  23.188  53.437  0.00  0.00     0.074 H 
BRANCH  24  27
ATOM     27  C14 4UF d   1      -7.903  23.637  54.974  0.00  0.00    -0.056 C 
ATOM     28  H7  4UF d   1      -7.245  23.313  55.794  0.00  0.00     0.030 H 
ATOM     29  H8  4UF d   1      -8.945  23.381  55.217  0.00  0.00     0.030 H 
ATOM     30  H9  4UF d   1      -7.815  24.725  54.841  0.00  0.00     0.030 H 
ENDBRANCH  24  27
ENDBRANCH  23  24
ENDBRANCH  21  23
ENDBRANCH  18  21
ENDBRANCH   1   7
BRANCH   5  31
ATOM     31  C20 4UF d   1     -10.370  23.178  43.469  0.00  0.00     0.003 C 
ATOM     32  H11 4UF d   1     -10.560  22.826  42.444  0.00  0.00     0.059 H 
ATOM     33  H12 4UF d   1      -9.788  22.421  44.015  0.00  0.00     0.059 H 
ATOM     34  H13 4UF d   1      -9.804  24.120  43.434  0.00  0.00     0.059 H 
ENDBRANCH   5  31
BRANCH   2  35
ATOM     35  C21 4UF d   1     -15.189  23.392  44.272  0.00  0.00     0.272 C 
ATOM     36  O23 4UF d   1     -15.968  23.996  44.981  0.00  0.00    -0.266 OA
ATOM     37  N22 4UF d   1     -15.619  22.550  43.308  0.00  0.00    -0.351 N 
ATOM     38  H20 4UF d   1     -14.953  22.044  42.760  0.00  0.00     0.163 HD
BRANCH  37  39
ATOM     39  C24 4UF d   1     -17.051  22.369  43.055  0.00  0.00     0.019 C 
ATOM     40  H18 4UF d   1     -17.603  23.255  43.402  0.00  0.00     0.071 H 
ATOM     41  H19 4UF d   1     -17.222  22.229  41.977  0.00  0.00     0.071 H 
BRANCH  39  42
ATOM     42  C25 4UF d   1     -17.525  21.143  43.811  0.00  0.00    -0.040 A 
ATOM     43  C26 4UF d   1     -17.553  21.181  45.197  0.00  0.00    -0.074 A 
ATOM     44  C27 4UF d   1     -17.982  20.089  45.925  0.00  0.00    -0.066 A 
ATOM     45  H15 4UF d   1     -17.234  22.078  45.715  0.00  0.00     0.084 H 
ATOM     46  C28 4UF d   1     -18.389  18.932  45.257  0.00  0.00     0.040 A 
ATOM     47  H14 4UF d   1     -18.003  20.130  47.008  0.00  0.00     0.085 H 
ATOM     48  C29 4UF d   1     -18.357  18.897  43.859  0.00  0.00    -0.066 A 
ATOM     49  C30 4UF d   1     -17.928  20.001  43.144  0.00  0.00    -0.074 A 
ATOM     50  H16 4UF d   1     -18.669  18.002  43.334  0.00  0.00     0.085 H 
ATOM     51  H17 4UF d   1     -17.908  19.971  42.061  0.00  0.00     0.084 H 
BRANCH  46  52
ATOM     52  C31 4UF d   1     -18.853  17.755  46.024  0.00  0.00     0.209 C 
ATOM     53  O33 4UF d   1     -18.987  16.571  45.403  0.00  0.00    -0.644 OA
ATOM     54  O32 4UF d   1     -19.122  17.845  47.207  0.00  0.00    -0.644 OA
ENDBRANCH  46  52
ENDBRANCH  39  42
ENDBRANCH  37  39
ENDBRANCH   2  35
TORSDOF 10
