REMARK  13 active torsions:
REMARK  status: ('A' for Active; 'I' for Inactive)
REMARK    1  A    between atoms: C5_1  and  C9_3 
REMARK       I    between atoms: N1_11  and  C5_1 
REMARK    2  A    between atoms: C9_3  and  C16_4 
REMARK    3  A    between atoms: C16_4  and  C21_5 
REMARK    4  A    between atoms: C1_12  and  N1_11 
REMARK    5  A    between atoms: C3_13  and  C1_12 
REMARK    6  A    between atoms: C1_12  and  C2_15 
REMARK       I    between atoms: N3_32  and  C3_13 
REMARK    7  A    between atoms: C2_15  and  C7_16 
REMARK    8  A    between atoms: C17_26  and  C11_23 
REMARK    9  A    between atoms: C11_23  and  C24_28 
REMARK   10  A    between atoms: C11_23  and  N3_32 
REMARK   11  A    between atoms: C15_25  and  O4_35 
REMARK   12  A    between atoms: C17_26  and  C25_29 
REMARK   13  A    between atoms: C24_28  and  O3_34 
ROOT
ATOM      1  C19 E22 d   1      18.119   9.653  18.905  0.00  0.00     0.093 C 
ATOM      2  C24 E22 d   1      16.905   9.944  19.652  0.00  0.00     0.137 C 
ATOM      3  N2  E22 d   1      18.996   9.479  18.353  0.00  0.00    -0.194 NA
ATOM      4  H27 E22 d   1      16.201   9.112  19.500  0.00  0.00     0.109 H 
ENDROOT
BRANCH   2   5
ATOM      5  C11 E22 d   1      17.218  10.036  21.107  0.00  0.00     0.050 C 
ATOM      6  H21 E22 d   1      17.570  11.065  21.270  0.00  0.00     0.078 H 
BRANCH   5   7
ATOM      7  C17 E22 d   1      18.217   9.061  21.984  0.00  0.00    -0.036 C 
ATOM      8  H25 E22 d   1      19.184   9.009  21.462  0.00  0.00     0.036 H 
ATOM      9  H26 E22 d   1      17.766   8.059  22.021  0.00  0.00     0.036 H 
BRANCH   7  10
ATOM     10  C25 E22 d   1      18.487   9.526  23.459  0.00  0.00    -0.002 C 
ATOM     11  C13 E22 d   1      18.754  10.808  23.623  0.00  0.00    -0.056 C 
ATOM     12  C6  E22 d   1      19.174  11.220  25.025  0.00  0.00    -0.042 C 
ATOM     13  H22 E22 d   1      19.569  11.074  22.934  0.00  0.00     0.033 H 
ATOM     14  H23 E22 d   1      17.851  11.378  23.360  0.00  0.00     0.033 H 
ATOM     15  C27 E22 d   1      20.391  10.408  25.483  0.00  0.00     0.085 C 
ATOM     16  H19 E22 d   1      18.339  11.043  25.719  0.00  0.00     0.035 H 
ATOM     17  H20 E22 d   1      19.432  12.289  25.026  0.00  0.00     0.035 H 
ATOM     18  N4  E22 d   1      20.121   8.968  25.312  0.00  0.00    -0.049 N 
ATOM     19  H29 E22 d   1      20.593  10.619  26.544  0.00  0.00     0.075 H 
ATOM     20  H30 E22 d   1      21.267  10.690  24.880  0.00  0.00     0.075 H 
ATOM     21  C15 E22 d   1      19.414   8.489  24.139  0.00  0.00     0.193 C 
ATOM     22  H32 E22 d   1      21.015   8.503  25.321  0.00  0.00     0.280 HD
ATOM     23  H33 E22 d   1      19.583   8.677  26.113  0.00  0.00     0.280 HD
ATOM     24  H24 E22 d   1      18.590   8.117  24.766  0.00  0.00     0.129 H 
ATOM     25  H28 E22 d   1      17.522   9.408  23.973  0.00  0.00     0.046 H 
BRANCH  21  26
ATOM     26  O4  E22 d   1      19.564   7.278  23.623  0.00  0.00    -0.369 OA
ATOM     27  H35 E22 d   1      19.003   7.188  22.861  0.00  0.00     0.212 HD
ENDBRANCH  21  26
ENDBRANCH   7  10
ENDBRANCH   5   7
BRANCH   5  28
ATOM     28  N3  E22 d   1      16.025   9.818  21.733  0.00  0.00    -0.351 N 
ATOM     29  C3  E22 d   1      15.304  10.952  22.133  0.00  0.00     0.241 C 
ATOM     30  O1  E22 d   1      15.778  12.030  21.864  0.00  0.00    -0.271 OA
ATOM     31  H31 E22 d   1      15.681   8.893  21.898  0.00  0.00     0.163 HD
BRANCH  29  32
ATOM     32  C1  E22 d   1      13.990  10.808  22.863  0.00  0.00     0.093 C 
ATOM     33  H11 E22 d   1      13.793   9.744  23.063  0.00  0.00     0.088 H 
BRANCH  32  34
ATOM     34  N1  E22 d   1      13.996  11.511  24.112  0.00  0.00    -0.347 N 
ATOM     35  C5  E22 d   1      14.736  11.047  25.244  0.00  0.00     0.218 C 
ATOM     36  O2  E22 d   1      15.398  10.027  25.155  0.00  0.00    -0.274 OA
ATOM     37  H10 E22 d   1      13.465  12.354  24.195  0.00  0.00     0.163 HD
BRANCH  35  38
ATOM     38  C9  E22 d   1      14.718  11.826  26.556  0.00  0.00     0.013 C 
ATOM     39  H1  E22 d   1      14.593  12.893  26.322  0.00  0.00     0.047 H 
ATOM     40  H2  E22 d   1      15.682  11.672  27.062  0.00  0.00     0.047 H 
BRANCH  38  41
ATOM     41  C16 E22 d   1      13.605  11.412  27.511  0.00  0.00    -0.033 C 
ATOM     42  H3  E22 d   1      13.504  10.319  27.445  0.00  0.00     0.040 H 
ATOM     43  H4  E22 d   1      12.677  11.887  27.161  0.00  0.00     0.040 H 
BRANCH  41  44
ATOM     44  C21 E22 d   1      13.771  11.767  28.988  0.00  0.00    -0.058 A 
ATOM     45  C14 E22 d   1      13.066  11.033  29.952  0.00  0.00    -0.077 A 
ATOM     46  C8  E22 d   1      13.174  11.325  31.315  0.00  0.00    -0.082 A 
ATOM     47  H5  E22 d   1      12.423  10.221  29.634  0.00  0.00     0.084 H 
ATOM     48  C4  E22 d   1      14.004  12.370  31.721  0.00  0.00    -0.083 A 
ATOM     49  H6  E22 d   1      12.620  10.747  32.046  0.00  0.00     0.083 H 
ATOM     50  C10 E22 d   1      14.712  13.109  30.768  0.00  0.00    -0.082 A 
ATOM     51  H7  E22 d   1      14.100  12.609  32.774  0.00  0.00     0.083 H 
ATOM     52  C26 E22 d   1      14.598  12.810  29.411  0.00  0.00    -0.077 A 
ATOM     53  H8  E22 d   1      15.355  13.921  31.087  0.00  0.00     0.083 H 
ATOM     54  H9  E22 d   1      15.153  13.389  28.682  0.00  0.00     0.084 H 
ENDBRANCH  41  44
ENDBRANCH  38  41
ENDBRANCH  35  38
ENDBRANCH  32  34
BRANCH  32  55
ATOM     55  C2  E22 d   1      12.934  11.353  21.919  0.00  0.00    -0.014 C 
ATOM     56  H12 E22 d   1      13.024  10.834  20.953  0.00  0.00     0.043 H 
ATOM     57  H13 E22 d   1      13.112  12.429  21.775  0.00  0.00     0.043 H 
BRANCH  55  58
ATOM     58  C7  E22 d   1      11.535  11.161  22.441  0.00  0.00    -0.056 A 
ATOM     59  C12 E22 d   1      10.691  12.260  22.574  0.00  0.00    -0.077 A 
ATOM     60  C22 E22 d   1       9.403  12.085  23.076  0.00  0.00    -0.082 A 
ATOM     61  H14 E22 d   1      11.034  13.248  22.288  0.00  0.00     0.084 H 
ATOM     62  C20 E22 d   1       8.976  10.797  23.428  0.00  0.00    -0.083 A 
ATOM     63  H16 E22 d   1       8.739  12.934  23.193  0.00  0.00     0.083 H 
ATOM     64  C23 E22 d   1       9.821   9.698  23.290  0.00  0.00    -0.082 A 
ATOM     65  H18 E22 d   1       7.973  10.654  23.814  0.00  0.00     0.083 H 
ATOM     66  C18 E22 d   1      11.110   9.885  22.800  0.00  0.00    -0.077 A 
ATOM     67  H17 E22 d   1       9.478   8.706  23.562  0.00  0.00     0.083 H 
ATOM     68  H15 E22 d   1      11.781   9.040  22.698  0.00  0.00     0.084 H 
ENDBRANCH  55  58
ENDBRANCH  32  55
ENDBRANCH  29  32
ENDBRANCH   5  28
ENDBRANCH   2   5
BRANCH   2  69
ATOM     69  O3  E22 d   1      16.296  11.104  19.213  0.00  0.00    -0.379 OA
ATOM     70  H34 E22 d   1      15.510  11.260  19.723  0.00  0.00     0.211 HD
ENDBRANCH   2  69
TORSDOF 13
