REMARK  8 active torsions:
REMARK  status: ('A' for Active; 'I' for Inactive)
REMARK    1  A    between atoms: C1_1  and  C2_2 
REMARK    2  A    between atoms: C1_1  and  C8_8 
REMARK    3  A    between atoms: C5_5  and  O12_12 
REMARK       I    between atoms: C8_8  and  N10_10 
REMARK    4  A    between atoms: N10_10  and  O11_11 
REMARK    5  A    between atoms: O12_12  and  C13_13 
REMARK    6  A    between atoms: C13_13  and  C14_14 
REMARK    7  A    between atoms: C14_14  and  C15_15 
REMARK    8  A    between atoms: C15_15  and  C16_16 
ROOT
ATOM      1  C2  A4Z d   1      33.795  90.792   0.134  0.00  0.00    -0.049 A 
ATOM      2  C3  A4Z d   1      32.476  91.038   0.366  0.00  0.00    -0.074 A 
ATOM      3  C4  A4Z d   1      31.469  90.201  -0.110  0.00  0.00    -0.050 A 
ATOM      4  C5  A4Z d   1      31.724  89.095  -0.889  0.00  0.00     0.068 A 
ATOM      5  C6  A4Z d   1      33.073  88.855  -1.165  0.00  0.00    -0.050 A 
ATOM      6  C7  A4Z d   1      34.092  89.688  -0.653  0.00  0.00    -0.074 A 
ATOM      7  H3  A4Z d   1      32.200  91.915   0.941  0.00  0.00     0.084 H 
ATOM      8  H4  A4Z d   1      30.441  90.431   0.144  0.00  0.00     0.087 H 
ATOM      9  H5  A4Z d   1      33.343  88.009  -1.787  0.00  0.00     0.087 H 
ATOM     10  H6  A4Z d   1      35.127  89.460  -0.879  0.00  0.00     0.084 H 
ENDROOT
BRANCH   4  11
ATOM     11  O12 A4Z d   1      30.695  88.290  -1.377  0.00  0.00    -0.351 OA
BRANCH  11  12
ATOM     12  C13 A4Z d   1      29.318  88.743  -1.580  0.00  0.00     0.026 C 
ATOM     13  H9  A4Z d   1      29.207  88.946  -2.655  0.00  0.00     0.075 H 
ATOM     14  H10 A4Z d   1      29.207  89.681  -1.016  0.00  0.00     0.075 H 
BRANCH  12  15
ATOM     15  C14 A4Z d   1      28.140  87.842  -1.176  0.00  0.00    -0.045 C 
ATOM     16  H11 A4Z d   1      28.285  86.872  -1.674  0.00  0.00     0.036 H 
ATOM     17  H12 A4Z d   1      27.222  88.315  -1.555  0.00  0.00     0.036 H 
BRANCH  15  18
ATOM     18  C15 A4Z d   1      27.922  87.557   0.329  0.00  0.00    -0.067 C 
ATOM     19  H13 A4Z d   1      28.185  88.462   0.896  0.00  0.00     0.032 H 
ATOM     20  H14 A4Z d   1      28.586  86.732   0.626  0.00  0.00     0.032 H 
BRANCH  18  21
ATOM     21  C16 A4Z d   1      26.487  87.170   0.676  0.00  0.00    -0.076 C 
ATOM     22  H15 A4Z d   1      26.409  86.983   1.757  0.00  0.00     0.027 H 
ATOM     23  H16 A4Z d   1      26.210  86.259   0.126  0.00  0.00     0.027 H 
ATOM     24  H17 A4Z d   1      25.808  87.989   0.395  0.00  0.00     0.027 H 
ENDBRANCH  18  21
ENDBRANCH  15  18
ENDBRANCH  12  15
ENDBRANCH  11  12
ENDBRANCH   4  11
BRANCH   1  25
ATOM     25  C1  A4Z d   1      34.857  91.688   0.722  0.00  0.00     0.035 C 
ATOM     26  H1  A4Z d   1      34.492  92.726   0.705  0.00  0.00     0.054 H 
ATOM     27  H2  A4Z d   1      35.766  91.608   0.107  0.00  0.00     0.054 H 
BRANCH  25  28
ATOM     28  C8  A4Z d   1      35.205  91.315   2.162  0.00  0.00     0.245 C 
ATOM     29  O9  A4Z d   1      36.304  90.845   2.554  0.00  0.00    -0.271 OA
ATOM     30  N10 A4Z d   1      34.156  91.247   2.908  0.00  0.00    -0.237 N 
ATOM     31  H7  A4Z d   1      34.084  91.715   3.789  0.00  0.00     0.197 HD
BRANCH  30  32
ATOM     32  O11 A4Z d   1      33.137  90.469   2.384  0.00  0.00    -0.287 OA
ATOM     33  H8  A4Z d   1      32.401  90.466   2.985  0.00  0.00     0.244 HD
ENDBRANCH  30  32
ENDBRANCH  25  28
ENDBRANCH   1  25
TORSDOF 8
