REMARK  7 active torsions:
REMARK  status: ('A' for Active; 'I' for Inactive)
REMARK    1  A    between atoms: C19_6  and  C18_2 
REMARK    2  A    between atoms: C16_4  and  C17_3 
REMARK    3  A    between atoms: N3_28  and  C16_4 
REMARK    4  A    between atoms: C3_15  and  C15_5 
REMARK    5  A    between atoms: N3_28  and  C19_6 
REMARK    6  A    between atoms: C14_26  and  C11_11 
REMARK    7  A    between atoms: C6_18  and  C7_19 
REMARK       I    between atoms: C7_19  and  N1_21 
REMARK       I    between atoms: C14_26  and  N3_28 
ROOT
ATOM      1  C13 4US d   1     -23.689   6.691   2.031  0.00  0.00    -0.069 C 
ATOM      2  C11 4US d   1     -22.849   5.787   4.122  0.00  0.00     0.034 C 
ATOM      3  C12 4US d   1     -23.852   6.425   3.387  0.00  0.00    -0.067 C 
ATOM      4  C1  4US d   1     -20.717   5.764   0.062  0.00  0.00     0.060 A 
ATOM      5  C2  4US d   1     -22.021   6.316   0.030  0.00  0.00     0.015 A 
ATOM      6  C3  4US d   1     -22.572   6.728  -1.201  0.00  0.00    -0.011 A 
ATOM      7  C4  4US d   1     -21.803   6.583  -2.359  0.00  0.00    -0.070 A 
ATOM      8  C5  4US d   1     -20.514   6.054  -2.306  0.00  0.00    -0.065 A 
ATOM      9  C6  4US d   1     -19.937   5.646  -1.093  0.00  0.00     0.059 A 
ATOM     10  N2  4US d   1     -20.394   5.458   1.368  0.00  0.00    -0.354 N 
ATOM     11  C8  4US d   1     -21.455   5.786   2.183  0.00  0.00     0.044 A 
ATOM     12  C9  4US d   1     -22.493   6.337   1.400  0.00  0.00     0.004 A 
ATOM     13  C10 4US d   1     -21.610   5.541   3.536  0.00  0.00    -0.041 C 
ATOM     14  H1  4US d   1     -24.483   7.169   1.469  0.00  0.00     0.085 H 
ATOM     15  H16 4US d   1     -24.771   6.717   3.881  0.00  0.00     0.085 H 
ATOM     16  H17 4US d   1     -22.215   6.887  -3.314  0.00  0.00     0.084 H 
ATOM     17  H18 4US d   1     -19.944   5.955  -3.223  0.00  0.00     0.085 H 
ATOM     18  H21 4US d   1     -19.502   5.050   1.683  0.00  0.00     0.166 HD
ATOM     19  H22 4US d   1     -20.783   5.165   4.128  0.00  0.00     0.088 H 
ENDROOT
BRANCH   2  20
ATOM     20  C14 4US d   1     -23.083   5.361   5.534  0.00  0.00     0.253 C 
ATOM     21  O2  4US d   1     -23.328   4.184   5.737  0.00  0.00    -0.267 OA
ATOM     22  N3  4US d   1     -23.064   6.259   6.539  0.00  0.00    -0.349 N 
BRANCH  22  23
ATOM     23  C16 4US d   1     -22.760   7.697   6.418  0.00  0.00    -0.005 C 
ATOM     24  H8  4US d   1     -21.853   7.918   7.000  0.00  0.00     0.063 H 
ATOM     25  H9  4US d   1     -22.582   7.934   5.359  0.00  0.00     0.063 H 
BRANCH  23  26
ATOM     26  C17 4US d   1     -23.903   8.572   6.934  0.00  0.00    -0.061 C 
ATOM     27  H5  4US d   1     -23.632   9.632   6.824  0.00  0.00     0.029 H 
ATOM     28  H6  4US d   1     -24.085   8.349   7.995  0.00  0.00     0.029 H 
ATOM     29  H7  4US d   1     -24.814   8.365   6.354  0.00  0.00     0.029 H 
ENDBRANCH  23  26
ENDBRANCH  22  23
BRANCH  22  30
ATOM     30  C19 4US d   1     -23.366   5.851   7.930  0.00  0.00    -0.005 C 
ATOM     31  H10 4US d   1     -23.957   4.923   7.910  0.00  0.00     0.063 H 
ATOM     32  H11 4US d   1     -22.421   5.672   8.463  0.00  0.00     0.063 H 
BRANCH  30  33
ATOM     33  C18 4US d   1     -24.156   6.926   8.669  0.00  0.00    -0.061 C 
ATOM     34  H2  4US d   1     -24.362   6.589   9.696  0.00  0.00     0.029 H 
ATOM     35  H3  4US d   1     -25.106   7.108   8.146  0.00  0.00     0.029 H 
ATOM     36  H4  4US d   1     -23.570   7.856   8.699  0.00  0.00     0.029 H 
ENDBRANCH  30  33
ENDBRANCH  22  30
ENDBRANCH   2  20
BRANCH   6  37
ATOM     37  C15 4US d   1     -23.935   7.333  -1.315  0.00  0.00    -0.003 A 
ATOM     38  C21 4US d   1     -24.940   6.626  -1.979  0.00  0.00    -0.070 A 
ATOM     39  C22 4US d   1     -26.182   7.194  -2.191  0.00  0.00    -0.082 A 
ATOM     40  H12 4US d   1     -24.744   5.620  -2.332  0.00  0.00     0.084 H 
ATOM     41  C23 4US d   1     -26.468   8.455  -1.708  0.00  0.00    -0.081 A 
ATOM     42  H13 4US d   1     -26.938   6.645  -2.741  0.00  0.00     0.083 H 
ATOM     43  C24 4US d   1     -25.503   9.163  -1.011  0.00  0.00    -0.061 A 
ATOM     44  H14 4US d   1     -27.447   8.891  -1.874  0.00  0.00     0.083 H 
ATOM     45  C25 4US d   1     -24.246   8.600  -0.825  0.00  0.00     0.045 A 
ATOM     46  H15 4US d   1     -25.726  10.147  -0.614  0.00  0.00     0.086 H 
ATOM     47 CL1  4US d   1     -23.072   9.497   0.063  0.00  0.00    -0.083 Cl
ENDBRANCH   6  37
BRANCH   9  48
ATOM     48  C7  4US d   1     -18.598   4.969  -1.014  0.00  0.00     0.251 C 
ATOM     49  O1  4US d   1     -18.329   4.254  -0.013  0.00  0.00    -0.268 OA
ATOM     50  N1  4US d   1     -17.779   5.011  -2.052  0.00  0.00    -0.366 N 
ATOM     51  H19 4US d   1     -16.887   4.562  -2.003  0.00  0.00     0.159 HD
ATOM     52  H20 4US d   1     -18.052   5.492  -2.885  0.00  0.00     0.159 HD
ENDBRANCH   9  48
TORSDOF 7
