REMARK  3 active torsions:
REMARK  status: ('A' for Active; 'I' for Inactive)
REMARK       I    between atoms: N1_4  and  C3_7 
REMARK    1  A    between atoms: C2_8  and  N1_4 
REMARK    2  A    between atoms: C3_7  and  C4_6 
REMARK    3  A    between atoms: C_15  and  C10_16 
ROOT
ATOM      1  C1  4UJ d   1      17.099  17.523  30.731  0.00  0.00    -0.013 A 
ATOM      2  C2  4UJ d   1      15.088  16.313  31.260  0.00  0.00     0.173 A 
ATOM      3  S   4UJ d   1      16.353  17.039  32.198  0.00  0.00    -0.061 SA
ATOM      4  N   4UJ d   1      15.212  16.425  29.959  0.00  0.00    -0.223 NA
ATOM      5  C   4UJ d   1      16.381  17.128  29.649  0.00  0.00     0.076 A 
ATOM      6  H3  4UJ d   1      18.034  18.079  30.675  0.00  0.00     0.098 H 
ENDROOT
BRANCH   2   7
ATOM      7  N1  4UJ d   1      14.011  15.660  31.822  0.00  0.00    -0.301 N 
ATOM      8  C3  4UJ d   1      13.928  15.333  33.157  0.00  0.00     0.259 C 
ATOM      9  O   4UJ d   1      14.784  15.653  33.976  0.00  0.00    -0.267 OA
ATOM     10  H4  4UJ d   1      13.248  15.410  31.227  0.00  0.00     0.171 HD
BRANCH   8  11
ATOM     11  C4  4UJ d   1      12.721  14.545  33.564  0.00  0.00     0.054 A 
ATOM     12  C5  4UJ d   1      12.816  13.319  34.221  0.00  0.00     0.049 A 
ATOM     13  C6  4UJ d   1      11.684  12.610  34.593  0.00  0.00    -0.061 A 
ATOM     14 CL   4UJ d   1      14.368  12.637  34.591  0.00  0.00    -0.083 Cl
ATOM     15  C7  4UJ d   1      10.432  13.131  34.314  0.00  0.00    -0.081 A 
ATOM     16  H2  4UJ d   1      11.778  11.656  35.098  0.00  0.00     0.086 H 
ATOM     17  C8  4UJ d   1      10.314  14.344  33.666  0.00  0.00    -0.082 A 
ATOM     18  H1  4UJ d   1       9.542  12.585  34.605  0.00  0.00     0.083 H 
ATOM     19  C9  4UJ d   1      11.446  15.051  33.296  0.00  0.00    -0.066 A 
ATOM     20  H5  4UJ d   1       9.331  14.745  33.446  0.00  0.00     0.083 H 
ATOM     21  H6  4UJ d   1      11.342  16.006  32.794  0.00  0.00     0.085 H 
ENDBRANCH   8  11
ENDBRANCH   2   7
BRANCH   5  22
ATOM     22  C10 4UJ d   1      16.733  17.379  28.239  0.00  0.00    -0.007 A 
ATOM     23  C15 4UJ d   1      17.685  18.342  27.905  0.00  0.00    -0.071 A 
ATOM     24  C14 4UJ d   1      18.015  18.575  26.580  0.00  0.00    -0.082 A 
ATOM     25  H7  4UJ d   1      18.171  18.913  28.688  0.00  0.00     0.084 H 
ATOM     26  C13 4UJ d   1      17.405  17.854  25.573  0.00  0.00    -0.083 A 
ATOM     27  H8  4UJ d   1      18.756  19.327  26.333  0.00  0.00     0.083 H 
ATOM     28  C12 4UJ d   1      16.461  16.897  25.890  0.00  0.00    -0.082 A 
ATOM     29  H9  4UJ d   1      17.666  18.038  24.537  0.00  0.00     0.083 H 
ATOM     30  C11 4UJ d   1      16.125  16.658  27.212  0.00  0.00    -0.071 A 
ATOM     31  H10 4UJ d   1      15.981  16.330  25.100  0.00  0.00     0.083 H 
ATOM     32  H11 4UJ d   1      15.383  15.904  27.450  0.00  0.00     0.084 H 
ENDBRANCH   5  22
TORSDOF 3
