REMARK  9 active torsions:
REMARK  status: ('A' for Active; 'I' for Inactive)
REMARK    1  A    between atoms: C2_9  and  C3_8 
REMARK    2  A    between atoms: C11_13  and  C21_11 
REMARK    3  A    between atoms: C14_16  and  C16_17 
REMARK    4  A    between atoms: C16_17  and  N3_18 
REMARK       I    between atoms: N3_18  and  C17_19 
REMARK    5  A    between atoms: C17_19  and  C18_20 
REMARK    6  A    between atoms: C18_20  and  C20_21 
REMARK    7  A    between atoms: C18_20  and  C19_22 
REMARK    8  A    between atoms: C9_25  and  C10_24 
REMARK       I    between atoms: N2_27  and  C9_25 
REMARK    9  A    between atoms: N2_27  and  C_28 
ROOT
ATOM      1  C11 4UK d   1      13.486  13.963  34.033  0.00  0.00     0.021 A 
ATOM      2  C12 4UK d   1      12.418  13.168  34.442  0.00  0.00    -0.070 A 
ATOM      3  C13 4UK d   1      11.138  13.398  33.965  0.00  0.00    -0.074 A 
ATOM      4  C14 4UK d   1      10.883  14.424  33.065  0.00  0.00    -0.040 A 
ATOM      5  C15 4UK d   1      11.945  15.218  32.646  0.00  0.00    -0.059 A 
ATOM      6  C10 4UK d   1      13.237  14.997  33.122  0.00  0.00     0.045 A 
ATOM      7  H7  4UK d   1      12.591  12.359  35.142  0.00  0.00     0.084 H 
ATOM      8  H8  4UK d   1      10.323  12.767  34.300  0.00  0.00     0.084 H 
ATOM      9  H19 4UK d   1      11.766  16.020  31.939  0.00  0.00     0.086 H 
ENDROOT
BRANCH   6  10
ATOM     10  C9  4UK d   1      14.340  15.892  32.645  0.00  0.00     0.270 C 
ATOM     11  O   4UK d   1      15.019  16.549  33.430  0.00  0.00    -0.267 OA
ATOM     12  N2  4UK d   1      14.524  15.935  31.284  0.00  0.00    -0.153 N 
ATOM     13  H20 4UK d   1      13.908  15.362  30.744  0.00  0.00     0.187 HD
BRANCH  12  14
ATOM     14  C   4UK d   1      15.443  16.661  30.570  0.00  0.00     0.707 A 
ATOM     15  N1  4UK d   1      16.332  17.471  31.123  0.00  0.00    -0.198 N 
ATOM     16  C1  4UK d   1      17.021  17.967  30.047  0.00  0.00     0.024 A 
ATOM     17  H3  4UK d   1      16.472  17.679  32.122  0.00  0.00     0.183 HD
ATOM     18  C2  4UK d   1      16.537  17.452  28.870  0.00  0.00     0.102 A 
ATOM     19  H2  4UK d   1      17.844  18.677  30.117  0.00  0.00     0.115 H 
ATOM     20  N   4UK d   1      15.519  16.606  29.221  0.00  0.00    -0.062 NA
BRANCH  18  21
ATOM     21  C3  4UK d   1      16.952  17.682  27.474  0.00  0.00    -0.005 A 
ATOM     22  C4  4UK d   1      17.940  18.615  27.168  0.00  0.00    -0.069 A 
ATOM     23  C5  4UK d   1      18.330  18.829  25.858  0.00  0.00    -0.061 A 
ATOM     24  H5  4UK d   1      18.409  19.180  27.966  0.00  0.00     0.085 H 
ATOM     25  C6  4UK d   1      17.730  18.104  24.850  0.00  0.00     0.034 A 
ATOM     26  H4  4UK d   1      19.098  19.558  25.627  0.00  0.00     0.086 H 
ATOM     27  C7  4UK d   1      16.750  17.174  25.122  0.00  0.00    -0.061 A 
ATOM     28 CL   4UK d   1      18.219  18.370  23.199  0.00  0.00    -0.084 Cl
ATOM     29  C8  4UK d   1      16.363  16.966  26.434  0.00  0.00    -0.069 A 
ATOM     30  H1  4UK d   1      16.288  16.612  24.318  0.00  0.00     0.086 H 
ATOM     31  H21 4UK d   1      15.592  16.237  26.655  0.00  0.00     0.085 H 
ENDBRANCH  18  21
ENDBRANCH  12  14
ENDBRANCH   6  10
BRANCH   1  32
ATOM     32  C21 4UK d   1      14.905  13.707  34.560  0.00  0.00     0.234 C 
ATOM     33  F1  4UK d   1      15.535  12.834  33.730  0.00  0.00    -0.209 F 
ATOM     34  F   4UK d   1      14.894  13.148  35.798  0.00  0.00    -0.209 F 
ATOM     35  H6  4UK d   1      15.454  14.660  34.593  0.00  0.00     0.153 H 
ENDBRANCH   1  32
BRANCH   4  36
ATOM     36  C16 4UK d   1       9.493  14.667  32.530  0.00  0.00     0.019 C 
ATOM     37  H9  4UK d   1       9.265  15.740  32.609  0.00  0.00     0.071 H 
ATOM     38  H10 4UK d   1       8.775  14.094  33.136  0.00  0.00     0.071 H 
BRANCH  36  39
ATOM     39  N3  4UK d   1       9.361  14.261  31.137  0.00  0.00    -0.357 N 
ATOM     40  C17 4UK d   1       9.057  15.116  30.157  0.00  0.00     0.221 C 
ATOM     41  O1  4UK d   1       8.701  16.270  30.383  0.00  0.00    -0.273 OA
ATOM     42  H11 4UK d   1       9.504  13.299  30.904  0.00  0.00     0.162 HD
BRANCH  40  43
ATOM     43  C18 4UK d   1       9.167  14.573  28.746  0.00  0.00     0.017 C 
ATOM     44  H12 4UK d   1       9.488  13.523  28.805  0.00  0.00     0.053 H 
BRANCH  43  45
ATOM     45  C20 4UK d   1      10.219  15.344  27.962  0.00  0.00    -0.065 C 
ATOM     46  H13 4UK d   1      10.286  14.938  26.942  0.00  0.00     0.028 H 
ATOM     47  H14 4UK d   1      11.194  15.245  28.461  0.00  0.00     0.028 H 
ATOM     48  H15 4UK d   1       9.937  16.406  27.916  0.00  0.00     0.028 H 
ENDBRANCH  43  45
BRANCH  43  49
ATOM     49  C19 4UK d   1       7.808  14.613  28.052  0.00  0.00    -0.065 C 
ATOM     50  H16 4UK d   1       7.076  14.047  28.646  0.00  0.00     0.028 H 
ATOM     51  H17 4UK d   1       7.894  14.164  27.052  0.00  0.00     0.028 H 
ATOM     52  H18 4UK d   1       7.475  15.657  27.958  0.00  0.00     0.028 H 
ENDBRANCH  43  49
ENDBRANCH  40  43
ENDBRANCH  36  39
ENDBRANCH   4  36
TORSDOF 9
