REMARK  11 active torsions:
REMARK  status: ('A' for Active; 'I' for Inactive)
REMARK    1  A    between atoms: C7_2  and  C10_32 
REMARK    2  A    between atoms: C1_4  and  C2_9 
REMARK    3  A    between atoms: C3_8  and  C4_7 
REMARK    4  A    between atoms: C13_13  and  C22_11 
REMARK    5  A    between atoms: C15_16  and  C17_17 
REMARK    6  A    between atoms: C17_17  and  N4_18 
REMARK       I    between atoms: N4_18  and  C18_19 
REMARK    7  A    between atoms: C18_19  and  C19_20 
REMARK    8  A    between atoms: C19_20  and  C21_21 
REMARK    9  A    between atoms: C19_20  and  C20_22 
REMARK   10  A    between atoms: C11_25  and  C12_24 
REMARK       I    between atoms: N2_27  and  C11_25 
REMARK   11  A    between atoms: N2_27  and  C_28 
ROOT
ATOM      1  C13 4UL d   1      13.389  13.667  34.139  0.00  0.00     0.114 A 
ATOM      2  N3  4UL d   1      12.349  12.902  34.497  0.00  0.00    -0.258 NA
ATOM      3  C14 4UL d   1      11.131  13.223  34.037  0.00  0.00     0.010 A 
ATOM      4  C15 4UL d   1      10.868  14.303  33.215  0.00  0.00    -0.022 A 
ATOM      5  C16 4UL d   1      11.951  15.085  32.832  0.00  0.00    -0.056 A 
ATOM      6  C12 4UL d   1      13.233  14.787  33.290  0.00  0.00     0.063 A 
ATOM      7  H8  4UL d   1      10.298  12.594  34.329  0.00  0.00     0.115 H 
ATOM      8  H19 4UL d   1      11.798  15.932  32.173  0.00  0.00     0.086 H 
ENDROOT
BRANCH   6   9
ATOM      9  C11 4UL d   1      14.339  15.696  32.846  0.00  0.00     0.272 C 
ATOM     10  O   4UL d   1      15.022  16.318  33.657  0.00  0.00    -0.267 OA
ATOM     11  N2  4UL d   1      14.517  15.798  31.486  0.00  0.00    -0.153 N 
ATOM     12  H20 4UL d   1      13.896  15.253  30.923  0.00  0.00     0.187 HD
BRANCH  11  13
ATOM     13  C   4UL d   1      15.438  16.552  30.801  0.00  0.00     0.708 A 
ATOM     14  N1  4UL d   1      16.314  17.329  31.417  0.00  0.00    -0.192 N 
ATOM     15  C1  4UL d   1      17.027  17.886  30.376  0.00  0.00     0.053 A 
ATOM     16  H2  4UL d   1      16.434  17.481  32.429  0.00  0.00     0.184 HD
ATOM     17  C3  4UL d   1      16.560  17.448  29.158  0.00  0.00     0.108 A 
ATOM     18  N   4UL d   1      15.540  16.575  29.454  0.00  0.00    -0.062 NA
BRANCH  15  19
ATOM     19  C2  4UL d   1      18.133  18.842  30.681  0.00  0.00    -0.035 C 
ATOM     20  H4  4UL d   1      18.590  19.186  29.741  0.00  0.00     0.035 H 
ATOM     21  H5  4UL d   1      18.894  18.339  31.296  0.00  0.00     0.035 H 
ATOM     22  H6  4UL d   1      17.730  19.706  31.230  0.00  0.00     0.035 H 
ENDBRANCH  15  19
BRANCH  17  23
ATOM     23  C4  4UL d   1      16.956  17.686  27.756  0.00  0.00    -0.005 A 
ATOM     24  C5  4UL d   1      16.124  17.299  26.708  0.00  0.00    -0.070 A 
ATOM     25  C6  4UL d   1      16.508  17.494  25.393  0.00  0.00    -0.067 A 
ATOM     26  H3  4UL d   1      15.166  16.840  26.925  0.00  0.00     0.084 H 
ATOM     27  C7  4UL d   1      17.736  18.065  25.087  0.00  0.00     0.048 A 
ATOM     28  H1  4UL d   1      15.841  17.197  24.591  0.00  0.00     0.084 H 
ATOM     29  C8  4UL d   1      18.574  18.437  26.131  0.00  0.00    -0.067 A 
ATOM     30  C9  4UL d   1      18.196  18.242  27.448  0.00  0.00    -0.070 A 
ATOM     31  H22 4UL d   1      19.536  18.886  25.911  0.00  0.00     0.084 H 
ATOM     32  H21 4UL d   1      18.871  18.524  28.248  0.00  0.00     0.084 H 
BRANCH  27  33
ATOM     33  C10 4UL d   1      18.149  18.271  23.666  0.00  0.00     0.417 C 
ATOM     34  F2  4UL d   1      17.659  17.342  22.848  0.00  0.00    -0.166 F 
ATOM     35  F1  4UL d   1      17.746  19.440  23.177  0.00  0.00    -0.166 F 
ATOM     36  F   4UL d   1      19.469  18.233  23.504  0.00  0.00    -0.166 F 
ENDBRANCH  27  33
ENDBRANCH  17  23
ENDBRANCH  11  13
ENDBRANCH   6   9
BRANCH   1  37
ATOM     37  C22 4UL d   1      14.761  13.231  34.694  0.00  0.00     0.250 C 
ATOM     38  F4  4UL d   1      15.330  14.207  35.448  0.00  0.00    -0.207 F 
ATOM     39  F3  4UL d   1      15.601  13.058  33.638  0.00  0.00    -0.207 F 
ATOM     40  H7  4UL d   1      14.655  12.305  35.277  0.00  0.00     0.155 H 
ENDBRANCH   1  37
BRANCH   4  41
ATOM     41  C17 4UL d   1       9.475  14.587  32.713  0.00  0.00     0.020 C 
ATOM     42  H9  4UL d   1       9.288  15.669  32.780  0.00  0.00     0.071 H 
ATOM     43  H10 4UL d   1       8.754  14.050  33.346  0.00  0.00     0.071 H 
BRANCH  41  44
ATOM     44  N4  4UL d   1       9.293  14.163  31.330  0.00  0.00    -0.356 N 
ATOM     45  C18 4UL d   1       9.088  15.026  30.329  0.00  0.00     0.221 C 
ATOM     46  O1  4UL d   1       8.821  16.207  30.532  0.00  0.00    -0.273 OA
ATOM     47  H11 4UL d   1       9.323  13.185  31.121  0.00  0.00     0.162 HD
BRANCH  45  48
ATOM     48  C19 4UL d   1       9.193  14.456  28.927  0.00  0.00     0.017 C 
ATOM     49  H12 4UL d   1       9.448  13.389  29.010  0.00  0.00     0.053 H 
BRANCH  48  50
ATOM     50  C21 4UL d   1       7.849  14.563  28.204  0.00  0.00    -0.065 C 
ATOM     51  H13 4UL d   1       7.944  14.146  27.191  0.00  0.00     0.028 H 
ATOM     52  H14 4UL d   1       7.551  15.620  28.139  0.00  0.00     0.028 H 
ATOM     53  H15 4UL d   1       7.086  14.001  28.762  0.00  0.00     0.028 H 
ENDBRANCH  48  50
BRANCH  48  54
ATOM     54  C20 4UL d   1      10.314  15.146  28.146  0.00  0.00    -0.065 C 
ATOM     55  H16 4UL d   1      11.260  15.046  28.698  0.00  0.00     0.028 H 
ATOM     56  H17 4UL d   1      10.072  16.212  28.022  0.00  0.00     0.028 H 
ATOM     57  H18 4UL d   1      10.415  14.675  27.157  0.00  0.00     0.028 H 
ENDBRANCH  48  54
ENDBRANCH  45  48
ENDBRANCH  41  44
ENDBRANCH   4  41
TORSDOF 11
