REMARK  5 active torsions:
REMARK  status: ('A' for Active; 'I' for Inactive)
REMARK    1  A    between atoms: C7_4  and  C3_3 
REMARK    2  A    between atoms: N1_21  and  C10_7 
REMARK    3  A    between atoms: C14_11  and  C17_22 
REMARK    4  A    between atoms: C5_16  and  C6_17 
REMARK    5  A    between atoms: C6_17  and  O_18 
ROOT
ATOM      1  C7  4VN d   1       2.231 -19.980   0.097  0.00  0.00    -0.006 A 
ATOM      2  C8  4VN d   1       2.029 -21.319  -0.232  0.00  0.00    -0.067 A 
ATOM      3  C9  4VN d   1       0.872 -21.978   0.145  0.00  0.00    -0.038 A 
ATOM      4  C10 4VN d   1      -0.096 -21.246   0.870  0.00  0.00     0.125 A 
ATOM      5  C11 4VN d   1       1.224 -19.357   0.826  0.00  0.00     0.015 A 
ATOM      6  N   4VN d   1       0.081 -19.952   1.207  0.00  0.00    -0.243 NA
ATOM      7  H2  4VN d   1       2.789 -21.852  -0.791  0.00  0.00     0.085 H 
ATOM      8  H3  4VN d   1       0.713 -23.020  -0.107  0.00  0.00     0.089 H 
ATOM      9  H4  4VN d   1       1.371 -18.320   1.106  0.00  0.00     0.116 H 
ENDROOT
BRANCH   4  10
ATOM     10  N1  4VN d   1      -1.297 -21.832   1.278  0.00  0.00    -0.366 N 
ATOM     11  C12 4VN d   1      -1.653 -23.216   0.941  0.00  0.00    -0.003 C 
ATOM     12  C13 4VN d   1      -2.453 -23.885   2.066  0.00  0.00    -0.037 C 
ATOM     13  H5  4VN d   1      -2.260 -23.215   0.024  0.00  0.00     0.064 H 
ATOM     14  H6  4VN d   1      -0.730 -23.790   0.769  0.00  0.00     0.064 H 
ATOM     15  C14 4VN d   1      -3.709 -23.055   2.373  0.00  0.00     0.033 C 
ATOM     16  H7  4VN d   1      -1.829 -23.951   2.969  0.00  0.00     0.036 H 
ATOM     17  H8  4VN d   1      -2.751 -24.896   1.751  0.00  0.00     0.036 H 
ATOM     18  C15 4VN d   1      -3.301 -21.620   2.739  0.00  0.00    -0.037 C 
ATOM     19  H9  4VN d   1      -4.296 -22.999   1.444  0.00  0.00     0.056 H 
ATOM     20  C16 4VN d   1      -2.475 -21.014   1.596  0.00  0.00    -0.003 C 
ATOM     21  H10 4VN d   1      -2.698 -21.634   3.659  0.00  0.00     0.036 H 
ATOM     22  H11 4VN d   1      -4.204 -21.012   2.901  0.00  0.00     0.036 H 
ATOM     23  H12 4VN d   1      -2.140 -20.009   1.893  0.00  0.00     0.064 H 
ATOM     24  H13 4VN d   1      -3.109 -20.940   0.700  0.00  0.00     0.064 H 
BRANCH  15  25
ATOM     25  C17 4VN d   1      -4.608 -23.695   3.412  0.00  0.00     0.177 C 
ATOM     26  O2  4VN d   1      -4.019 -23.953   4.552  0.00  0.00    -0.648 OA
ATOM     27  O1  4VN d   1      -5.780 -23.939   3.193  0.00  0.00    -0.648 OA
ENDBRANCH  15  25
ENDBRANCH   4  10
BRANCH   1  28
ATOM     28  C3  4VN d   1       3.424 -19.227  -0.396  0.00  0.00    -0.002 A 
ATOM     29  C2  4VN d   1       4.753 -19.463   0.017  0.00  0.00     0.045 A 
ATOM     30  C1  4VN d   1       5.818 -18.757  -0.523  0.00  0.00    -0.060 A 
ATOM     31 CL   4VN d   1       5.110 -20.709   1.160  0.00  0.00    -0.083 Cl
ATOM     32  C   4VN d   1       5.588 -17.810  -1.501  0.00  0.00    -0.073 A 
ATOM     33  H1  4VN d   1       6.828 -18.948  -0.178  0.00  0.00     0.086 H 
ATOM     34  C5  4VN d   1       4.301 -17.529  -1.932  0.00  0.00    -0.034 A 
ATOM     35  H18 4VN d   1       6.426 -17.279  -1.938  0.00  0.00     0.084 H 
ATOM     36  C4  4VN d   1       3.240 -18.245  -1.375  0.00  0.00    -0.062 A 
ATOM     37  H14 4VN d   1       2.233 -18.031  -1.715  0.00  0.00     0.085 H 
BRANCH  34  38
ATOM     38  C6  4VN d   1       4.044 -16.407  -2.894  0.00  0.00     0.040 C 
ATOM     39  H15 4VN d   1       2.981 -16.408  -3.177  0.00  0.00     0.081 H 
ATOM     40  H16 4VN d   1       4.662 -16.551  -3.792  0.00  0.00     0.081 H 
BRANCH  38  41
ATOM     41  O   4VN d   1       4.367 -15.164  -2.300  0.00  0.00    -0.396 OA
ATOM     42  H17 4VN d   1       5.285 -15.160  -2.057  0.00  0.00     0.209 HD
ENDBRANCH  38  41
ENDBRANCH  34  38
ENDBRANCH   1  28
TORSDOF 5
