REMARK  8 active torsions:
REMARK  status: ('A' for Active; 'I' for Inactive)
REMARK    1  A    between atoms: C11_16  and  N12_1 
REMARK    2  A    between atoms: C05_10  and  P02_7 
REMARK    3  A    between atoms: C06_11  and  C05_10 
REMARK    4  A    between atoms: O07_12  and  C06_11 
REMARK    5  A    between atoms: C08_13  and  O07_12 
REMARK    6  A    between atoms: C08_13  and  C09_14 
REMARK    7  A    between atoms: C08_13  and  C11_16 
REMARK    8  A    between atoms: C09_14  and  O10_15 
ROOT
ATOM      1  C08 4X2 d   1     -16.493  15.033 -21.300  0.00  0.00     0.074 C 
ATOM      2  H7  4X2 d   1     -16.548  15.001 -22.398  0.00  0.00     0.089 H 
ENDROOT
BRANCH   1   3
ATOM      3  O07 4X2 d   1     -17.114  16.198 -20.857  0.00  0.00    -0.381 OA
BRANCH   3   4
ATOM      4  C06 4X2 d   1     -17.348  17.158 -21.870  0.00  0.00     0.032 C 
ATOM      5  H5  4X2 d   1     -16.390  17.574 -22.216  0.00  0.00     0.075 H 
ATOM      6  H6  4X2 d   1     -17.870  16.686 -22.716  0.00  0.00     0.075 H 
BRANCH   4   7
ATOM      7  C05 4X2 d   1     -18.222  18.282 -21.280  0.00  0.00     0.059 C 
ATOM      8  H3  4X2 d   1     -19.274  17.962 -21.317  0.00  0.00     0.057 H 
ATOM      9  H4  4X2 d   1     -17.924  18.442 -20.233  0.00  0.00     0.057 H 
BRANCH   7  10
ATOM     10  P02 4X2 d   1     -18.065  19.882 -22.185  0.00  0.00     0.261 P 
ATOM     11  O01 4X2 d   1     -19.000  20.897 -21.562  0.00  0.00    -0.640 OA
ATOM     12  O03 4X2 d   1     -16.654  20.392 -22.093  0.00  0.00    -0.640 OA
ATOM     13  O04 4X2 d   1     -18.446  19.693 -23.640  0.00  0.00    -0.640 OA
ENDBRANCH   7  10
ENDBRANCH   4   7
ENDBRANCH   3   4
ENDBRANCH   1   3
BRANCH   1  14
ATOM     14  C09 4X2 d   1     -17.192  13.802 -20.737  0.00  0.00     0.042 C 
ATOM     15  H8  4X2 d   1     -17.812  14.087 -19.875  0.00  0.00     0.077 H 
ATOM     16  H9  4X2 d   1     -16.444  13.060 -20.421  0.00  0.00     0.077 H 
BRANCH  14  17
ATOM     17  O10 4X2 d   1     -18.019  13.249 -21.768  0.00  0.00    -0.398 OA
ATOM     18  H10 4X2 d   1     -18.465  12.479 -21.436  0.00  0.00     0.209 HD
ENDBRANCH  14  17
ENDBRANCH   1  14
BRANCH   1  19
ATOM     19  C11 4X2 d   1     -15.023  15.021 -20.878  0.00  0.00     0.028 C 
ATOM     20  H11 4X2 d   1     -14.620  14.010 -21.036  0.00  0.00     0.069 H 
ATOM     21  H12 4X2 d   1     -14.472  15.737 -21.505  0.00  0.00     0.069 H 
BRANCH  19  22
ATOM     22  N12 4X2 d   1     -14.833  15.386 -19.473  0.00  0.00    -0.322 N 
ATOM     23  C13 4X2 d   1     -14.686  14.503 -18.421  0.00  0.00     0.165 A 
ATOM     24  N14 4X2 d   1     -14.680  13.153 -18.309  0.00  0.00    -0.224 NA
ATOM     25  C19 4X2 d   1     -14.519  15.280 -17.266  0.00  0.00     0.158 A 
ATOM     26  C15 4X2 d   1     -14.518  12.575 -17.135  0.00  0.00     0.068 A 
ATOM     27  N16 4X2 d   1     -14.353  13.258 -15.999  0.00  0.00    -0.327 N 
ATOM     28  H1  4X2 d   1     -14.519  11.487 -17.089  0.00  0.00     0.143 H 
ATOM     29  C17 4X2 d   1     -14.348  14.587 -16.022  0.00  0.00     0.212 A 
ATOM     30  H13 4X2 d   1     -14.234  12.771 -15.134  0.00  0.00     0.168 HD
ATOM     31  O18 4X2 d   1     -14.171  15.318 -14.812  0.00  0.00    -0.169 OA
ATOM     32  N20 4X2 d   1     -14.565  16.584 -17.657  0.00  0.00    -0.235 NA
ATOM     33  C21 4X2 d   1     -14.752  16.618 -18.993  0.00  0.00     0.068 A 
ATOM     34  H2  4X2 d   1     -14.826  17.526 -19.590  0.00  0.00     0.143 H 
ENDBRANCH  19  22
ENDBRANCH   1  19
TORSDOF 8
