REMARK  9 active torsions:
REMARK  status: ('A' for Active; 'I' for Inactive)
REMARK    1  A    between atoms: C2_20  and  N2_6 
REMARK    2  A    between atoms: CAJ_12  and  PAV_9 
REMARK    3  A    between atoms: CAI_13  and  CAJ_12 
REMARK    4  A    between atoms: OAO_14  and  CAI_13 
REMARK    5  A    between atoms: CAT_15  and  OAO_14 
REMARK    6  A    between atoms: CAT_15  and  CAH_16 
REMARK    7  A    between atoms: CAK_18  and  CAT_15 
REMARK    8  A    between atoms: CAH_16  and  OAD_17 
REMARK    9  A    between atoms: CAK_18  and  N9_19 
ROOT
ATOM      1  CAT 4X7 d   1       1.596 -28.701  -4.301  0.00  0.00     0.074 C 
ATOM      2  H9  4X7 d   1       0.695 -28.595  -3.679  0.00  0.00     0.089 H 
ENDROOT
BRANCH   1   3
ATOM      3  OAO 4X7 d   1       2.096 -29.966  -4.156  0.00  0.00    -0.381 OA
BRANCH   3   4
ATOM      4  CAI 4X7 d   1       2.515 -30.438  -2.875  0.00  0.00     0.032 C 
ATOM      5  H7  4X7 d   1       3.487 -29.995  -2.615  0.00  0.00     0.075 H 
ATOM      6  H8  4X7 d   1       1.770 -30.161  -2.114  0.00  0.00     0.075 H 
BRANCH   4   7
ATOM      7  CAJ 4X7 d   1       2.640 -31.937  -2.945  0.00  0.00     0.059 C 
ATOM      8  H5  4X7 d   1       1.674 -32.366  -3.249  0.00  0.00     0.057 H 
ATOM      9  H6  4X7 d   1       3.408 -32.201  -3.687  0.00  0.00     0.057 H 
BRANCH   7  10
ATOM     10  PAV 4X7 d   1       3.118 -32.628  -1.311  0.00  0.00     0.261 P 
ATOM     11  OAE 4X7 d   1       4.177 -31.799  -0.699  0.00  0.00    -0.640 OA
ATOM     12  OAF 4X7 d   1       1.895 -32.647  -0.374  0.00  0.00    -0.640 OA
ATOM     13  OAC 4X7 d   1       3.620 -34.019  -1.504  0.00  0.00    -0.640 OA
ENDBRANCH   7  10
ENDBRANCH   4   7
ENDBRANCH   3   4
ENDBRANCH   1   3
BRANCH   1  14
ATOM     14  CAH 4X7 d   1       1.210 -28.511  -5.746  0.00  0.00     0.042 C 
ATOM     15  H10 4X7 d   1       2.139 -28.460  -6.333  0.00  0.00     0.077 H 
ATOM     16  H11 4X7 d   1       0.675 -27.553  -5.822  0.00  0.00     0.077 H 
BRANCH  14  17
ATOM     17  OAD 4X7 d   1       0.405 -29.485  -6.322  0.00  0.00    -0.398 OA
ATOM     18  H12 4X7 d   1       0.850 -30.324  -6.286  0.00  0.00     0.209 HD
ENDBRANCH  14  17
ENDBRANCH   1  14
BRANCH   1  19
ATOM     19  CAK 4X7 d   1       2.611 -27.692  -3.837  0.00  0.00     0.028 C 
ATOM     20  H13 4X7 d   1       2.735 -27.828  -2.752  0.00  0.00     0.069 H 
ATOM     21  H14 4X7 d   1       2.195 -26.694  -4.036  0.00  0.00     0.069 H 
BRANCH  19  22
ATOM     22  N9  4X7 d   1       3.920 -27.735  -4.426  0.00  0.00    -0.321 N 
ATOM     23  C4  4X7 d   1       4.306 -27.092  -5.609  0.00  0.00     0.183 A 
ATOM     24  C5  4X7 d   1       5.659 -27.394  -5.817  0.00  0.00     0.159 A 
ATOM     25  N3  4X7 d   1       3.632 -26.273  -6.541  0.00  0.00    -0.044 NA
ATOM     26  C6  4X7 d   1       6.301 -26.882  -6.928  0.00  0.00     0.226 A 
ATOM     27  N7  4X7 d   1       6.049 -28.200  -4.769  0.00  0.00    -0.235 NA
ATOM     28  N1  4X7 d   1       5.583 -26.100  -7.780  0.00  0.00    -0.164 N 
ATOM     29  O6  4X7 d   1       7.619 -27.150  -7.171  0.00  0.00    -0.169 OA
ATOM     30  C2  4X7 d   1       4.242 -25.809  -7.563  0.00  0.00     0.702 A 
ATOM     31  H2  4X7 d   1       6.035 -25.723  -8.588  0.00  0.00     0.186 HD
ATOM     32  C8  4X7 d   1       4.974 -28.398  -3.930  0.00  0.00     0.068 A 
ATOM     33  H1  4X7 d   1       4.980 -28.993  -3.018  0.00  0.00     0.143 H 
BRANCH  30  34
ATOM     34  N2  4X7 d   1       3.552 -24.987  -8.487  0.00  0.00    -0.233 N 
ATOM     35  H3  4X7 d   1       2.558 -24.765  -8.336  0.00  0.00     0.174 HD
ATOM     36  H4  4X7 d   1       4.045 -24.611  -9.310  0.00  0.00     0.174 HD
ENDBRANCH  30  34
ENDBRANCH  19  22
ENDBRANCH   1  19
TORSDOF 9
