REMARK  27 active torsions:
REMARK  status: ('A' for Active; 'I' for Inactive)
REMARK    1  A    between atoms: CA_2  and  N_1 
REMARK    2  A    between atoms: C_3  and  CA_2 
REMARK    3  A    between atoms: CA_2  and  CB_5 
REMARK       I    between atoms: N_12  and  C_3 
REMARK    4  A    between atoms: CB_5  and  CG_6 
REMARK    5  A    between atoms: CG_6  and  CD_7 
REMARK    6  A    between atoms: CD_7  and  NE_8 
REMARK       I    between atoms: NE_8  and  CZ_9 
REMARK       I    between atoms: CZ_9  and  NH1_10 
REMARK    7  A    between atoms: CA_13  and  N_12 
REMARK    8  A    between atoms: C_14  and  CA_13 
REMARK    9  A    between atoms: CA_13  and  CB_16 
REMARK       I    between atoms: N_22  and  C_14 
REMARK   10  A    between atoms: CB_16  and  CG_17 
REMARK   11  A    between atoms: CA_23  and  N_22 
REMARK   12  A    between atoms: C_24  and  CA_23 
REMARK   13  A    between atoms: CA_23  and  CB_26 
REMARK       I    between atoms: N_47  and  C_24 
REMARK   14  A    between atoms: CB_26  and  CG_27 
REMARK   15  A    between atoms: CG_27  and  CD_28 
REMARK   16  A    between atoms: CD_28  and  CE_29 
REMARK   17  A    between atoms: CE_29  and  NZ_30 
REMARK   18  A    between atoms: CAD_32  and  CAL_31 
REMARK   19  A    between atoms: NAM_43  and  CAJ_42 
REMARK       I    between atoms: C_44  and  NAM_43 
REMARK   20  A    between atoms: CA_46  and  C_44 
REMARK   21  A    between atoms: CA_46  and  N_47 
REMARK   22  A    between atoms: CA_46  and  CB_48 
REMARK   23  A    between atoms: CB_48  and  CAS_49 
REMARK   24  A    between atoms: CAS_49  and  CAT_50 
REMARK   25  A    between atoms: CAT_50  and  CAU_51 
REMARK   26  A    between atoms: CAU_51  and  NAV_52 
REMARK       I    between atoms: NAV_52  and  CAW_53 
REMARK   27  A    between atoms: CAW_53  and  CAX_55 
ROOT
ATOM      1  CA  LYS d   1     -17.173  67.970  16.812  0.00  0.00     0.089 C 
ATOM      2  H24 LYS d   1     -16.108  68.097  17.058  0.00  0.00     0.087 H 
ENDROOT
BRANCH   1   3
ATOM      3  N   LYS d   1     -17.844  69.250  16.990  0.00  0.00    -0.346 N 
ATOM      4  C   HIS d   1     -17.198  70.392  16.778  0.00  0.00     0.241 C 
ATOM      5  O   HIS d   1     -15.999  70.438  16.509  0.00  0.00    -0.271 OA
ATOM      6  H23 LYS d   1     -18.802  69.270  17.275  0.00  0.00     0.163 HD
BRANCH   4   7
ATOM      7  CA  HIS d   1     -18.008  71.676  16.895  0.00  0.00     0.094 C 
ATOM      8  H17 HIS d   1     -18.904  71.578  16.265  0.00  0.00     0.088 H 
BRANCH   7   9
ATOM      9  N   HIS d   1     -18.447  71.922  18.269  0.00  0.00    -0.346 N 
ATOM     10  C   ARG d   1     -19.672  71.590  18.673  0.00  0.00     0.249 C 
ATOM     11  O   ARG d   1     -20.509  71.084  17.923  0.00  0.00    -0.271 OA
ATOM     12  H16 HIS d   1     -17.815  72.347  18.917  0.00  0.00     0.163 HD
BRANCH  10  13
ATOM     13  CA  ARG d   1     -20.015  71.857  20.136  0.00  0.00     0.176 C 
ATOM     14  H4  ARG d   1     -20.575  70.990  20.517  0.00  0.00     0.099 H 
BRANCH  13  15
ATOM     15  N   ARG d   1     -18.816  72.005  20.945  0.00  0.00    -0.067 N 
ATOM     16  H1  ARG d   1     -19.076  72.180  21.903  0.00  0.00     0.275 HD
ATOM     17  H2  ARG d   1     -18.270  72.779  20.599  0.00  0.00     0.275 HD
ATOM     18  H3  ARG d   1     -18.270  71.159  20.894  0.00  0.00     0.275 HD
ENDBRANCH  13  15
BRANCH  13  19
ATOM     19  CB  ARG d   1     -20.911  73.092  20.255  0.00  0.00    -0.029 C 
ATOM     20  H5  ARG d   1     -20.876  73.440  21.298  0.00  0.00     0.036 H 
ATOM     21  H6  ARG d   1     -21.939  72.794  20.002  0.00  0.00     0.036 H 
BRANCH  19  22
ATOM     22  CG  ARG d   1     -20.522  74.254  19.356  0.00  0.00    -0.047 C 
ATOM     23  H7  ARG d   1     -20.078  73.857  18.431  0.00  0.00     0.035 H 
ATOM     24  H8  ARG d   1     -19.783  74.878  19.879  0.00  0.00     0.035 H 
BRANCH  22  25
ATOM     25  CD  ARG d   1     -21.734  75.117  18.994  0.00  0.00     0.009 C 
ATOM     26  H9  ARG d   1     -22.483  74.482  18.498  0.00  0.00     0.064 H 
ATOM     27  H10 ARG d   1     -21.409  75.909  18.303  0.00  0.00     0.064 H 
BRANCH  25  28
ATOM     28  NE  ARG d   1     -22.350  75.741  20.164  0.00  0.00    -0.227 N 
ATOM     29  CZ  ARG d   1     -23.462  75.308  20.750  0.00  0.00     0.665 C 
ATOM     30  NH1 ARG d   1     -24.096  74.241  20.278  0.00  0.00    -0.235 N 
ATOM     31  NH2 ARG d   1     -23.942  75.944  21.810  0.00  0.00    -0.235 N 
ATOM     32  H12 ARG d   1     -24.957  73.909  20.735  0.00  0.00     0.174 HD
ATOM     33  H13 ARG d   1     -23.727  73.745  19.454  0.00  0.00     0.174 HD
ATOM     34  H14 ARG d   1     -23.453  76.772  22.179  0.00  0.00     0.174 HD
ATOM     35  H15 ARG d   1     -24.804  75.610  22.264  0.00  0.00     0.174 HD
ATOM     36  H11 ARG d   1     -21.891  76.573  20.561  0.00  0.00     0.177 HD
ENDBRANCH  25  28
ENDBRANCH  22  25
ENDBRANCH  19  22
ENDBRANCH  13  19
ENDBRANCH  10  13
ENDBRANCH   7   9
BRANCH   7  37
ATOM     37  CB  HIS d   1     -17.173  72.842  16.374  0.00  0.00     0.004 C 
ATOM     38  H18 HIS d   1     -17.051  72.723  15.287  0.00  0.00     0.046 H 
ATOM     39  H19 HIS d   1     -16.187  72.806  16.860  0.00  0.00     0.046 H 
BRANCH  37  40
ATOM     40  CG  HIS d   1     -17.779  74.182  16.636  0.00  0.00     0.053 A 
ATOM     41  ND1 HIS d   1     -18.871  74.650  15.940  0.00  0.00    -0.247 NA
ATOM     42  CE1 HIS d   1     -19.183  75.858  16.377  0.00  0.00     0.064 A 
ATOM     43  NE2 HIS d   1     -18.332  76.188  17.331  0.00  0.00    -0.359 N 
ATOM     44  H21 HIS d   1     -20.002  76.476  16.012  0.00  0.00     0.143 H 
ATOM     45  CD2 HIS d   1     -17.444  75.156  17.514  0.00  0.00     0.002 A 
ATOM     46  H22 HIS d   1     -18.334  77.076  17.854  0.00  0.00     0.166 HD
ATOM     47  H20 HIS d   1     -16.625  75.127  18.231  0.00  0.00     0.114 H 
ENDBRANCH  37  40
ENDBRANCH   7  37
ENDBRANCH   4   7
ENDBRANCH   1   3
BRANCH   1  48
ATOM     48  C   LYS d   1     -17.290  67.532  15.369  0.00  0.00     0.241 C 
ATOM     49  O   LYS d   1     -18.263  67.839  14.694  0.00  0.00    -0.271 OA
ATOM     50  N   FDL d   1     -16.290  66.807  14.897  0.00  0.00    -0.346 N 
ATOM     51  H45 FDL d   1     -15.529  66.568  15.500  0.00  0.00     0.163 HD
BRANCH  50  52
ATOM     52  CA  FDL d   1     -16.278  66.355  13.527  0.00  0.00     0.089 C 
ATOM     53  H44 FDL d   1     -16.375  67.228  12.865  0.00  0.00     0.087 H 
BRANCH  52  54
ATOM     54  C   FDL d   1     -17.413  65.388  13.258  0.00  0.00     0.245 C 
ATOM     55  NAM FDL d   1     -18.302  65.687  12.113  0.00  0.00    -0.325 N 
ATOM     56  H43 FDL d   1     -18.121  66.532  11.609  0.00  0.00     0.169 HD
ATOM     57  O   FDL d   1     -17.564  64.429  13.934  0.00  0.00    -0.271 OA
BRANCH  55  58
ATOM     58  CAJ FDL d   1     -19.424  64.864  11.645  0.00  0.00     0.037 A 
ATOM     59  CAG FDL d   1     -20.180  65.366  10.546  0.00  0.00    -0.024 A 
ATOM     60  CAF FDL d   1     -21.295  64.605   9.998  0.00  0.00     0.091 A 
ATOM     61  H40 FDL d   1     -19.922  66.326  10.113  0.00  0.00     0.091 H 
ATOM     62  OAA FDL d   1     -21.980  65.153   8.962  0.00  0.00    -0.285 OA
ATOM     63  CAE FDL d   1     -21.613  63.379  10.532  0.00  0.00     0.004 A 
ATOM     64  CAB FDL d   1     -23.018  64.513   8.397  0.00  0.00     0.221 A 
ATOM     65  CAC FDL d   1     -23.442  63.255   8.848  0.00  0.00    -0.017 A 
ATOM     66  OAK FDL d   1     -23.670  65.132   7.336  0.00  0.00    -0.164 OA
ATOM     67  CAD FDL d   1     -22.735  62.645   9.949  0.00  0.00    -0.044 A 
ATOM     68  H39 FDL d   1     -24.285  62.750   8.379  0.00  0.00     0.091 H 
ATOM     69  CAH FDL d   1     -20.799  62.826  11.698  0.00  0.00    -0.068 A 
ATOM     70  CAI FDL d   1     -19.754  63.542  12.214  0.00  0.00    -0.056 A 
ATOM     71  H41 FDL d   1     -21.050  61.860  12.120  0.00  0.00     0.085 H 
ATOM     72  H42 FDL d   1     -19.172  63.141  13.036  0.00  0.00     0.086 H 
BRANCH  67  73
ATOM     73  CAL FDL d   1     -23.144  61.280  10.490  0.00  0.00    -0.050 C 
ATOM     74  H36 FDL d   1     -24.003  60.901   9.917  0.00  0.00     0.033 H 
ATOM     75  H37 FDL d   1     -23.422  61.374  11.550  0.00  0.00     0.033 H 
ATOM     76  H38 FDL d   1     -22.301  60.580  10.393  0.00  0.00     0.033 H 
ENDBRANCH  67  73
ENDBRANCH  55  58
ENDBRANCH  52  54
BRANCH  52  77
ATOM     77  CB  FDL d   1     -14.984  65.622  13.216  0.00  0.00    -0.038 C 
ATOM     78  H46 FDL d   1     -14.879  64.773  13.908  0.00  0.00     0.036 H 
ATOM     79  H47 FDL d   1     -14.140  66.314  13.354  0.00  0.00     0.036 H 
BRANCH  77  80
ATOM     80  CAS FDL d   1     -14.966  65.077  11.724  0.00  0.00    -0.061 C 
ATOM     81  H48 FDL d   1     -14.544  65.858  11.074  0.00  0.00     0.033 H 
ATOM     82  H49 FDL d   1     -16.002  64.866  11.419  0.00  0.00     0.033 H 
BRANCH  80  83
ATOM     83  CAT FDL d   1     -14.147  63.812  11.547  0.00  0.00    -0.050 C 
ATOM     84  H50 FDL d   1     -14.824  62.945  11.554  0.00  0.00     0.035 H 
ATOM     85  H51 FDL d   1     -13.436  63.728  12.382  0.00  0.00     0.035 H 
BRANCH  83  86
ATOM     86  CAU FDL d   1     -13.353  63.822  10.206  0.00  0.00    -0.005 C 
ATOM     87  H52 FDL d   1     -13.049  64.853   9.975  0.00  0.00     0.064 H 
ATOM     88  H53 FDL d   1     -13.999  63.441   9.402  0.00  0.00     0.064 H 
BRANCH  86  89
ATOM     89  NAV FDL d   1     -12.189  63.001  10.299  0.00  0.00    -0.361 N 
ATOM     90  CAW FDL d   1     -11.930  62.028   9.267  0.00  0.00     0.213 C 
ATOM     91  OAY FDL d   1     -12.664  61.925   8.371  0.00  0.00    -0.274 OA
ATOM     92  H54 FDL d   1     -11.561  63.099  11.071  0.00  0.00     0.162 HD
BRANCH  90  93
ATOM     93  CAX FDL d   1     -10.721  61.152   9.336  0.00  0.00    -0.003 C 
ATOM     94  H55 FDL d   1     -10.703  60.483   8.463  0.00  0.00     0.040 H 
ATOM     95  H56 FDL d   1     -10.755  60.552  10.257  0.00  0.00     0.040 H 
ATOM     96  H57 FDL d   1      -9.815  61.776   9.338  0.00  0.00     0.040 H 
ENDBRANCH  90  93
ENDBRANCH  86  89
ENDBRANCH  83  86
ENDBRANCH  80  83
ENDBRANCH  77  80
ENDBRANCH  52  77
ENDBRANCH  50  52
ENDBRANCH   1  48
BRANCH   1  97
ATOM     97  CB  LYS d   1     -17.757  66.899  17.732  0.00  0.00    -0.038 C 
ATOM     98  H25 LYS d   1     -17.233  65.952  17.535  0.00  0.00     0.036 H 
ATOM     99  H26 LYS d   1     -18.825  66.784  17.493  0.00  0.00     0.036 H 
BRANCH  97 100
ATOM    100  CG  LYS d   1     -17.632  67.213  19.210  0.00  0.00    -0.061 C 
ATOM    101  H27 LYS d   1     -18.266  68.080  19.446  0.00  0.00     0.033 H 
ATOM    102  H28 LYS d   1     -16.583  67.453  19.437  0.00  0.00     0.033 H 
BRANCH 100 103
ATOM    103  CD  LYS d   1     -18.066  66.036  20.069  0.00  0.00    -0.043 C 
ATOM    104  H29 LYS d   1     -17.438  65.166  19.826  0.00  0.00     0.035 H 
ATOM    105  H30 LYS d   1     -19.118  65.802  19.849  0.00  0.00     0.035 H 
BRANCH 103 106
ATOM    106  CE  LYS d   1     -17.930  66.343  21.548  0.00  0.00     0.080 C 
ATOM    107  H31 LYS d   1     -18.573  67.198  21.801  0.00  0.00     0.075 H 
ATOM    108  H32 LYS d   1     -16.882  66.593  21.771  0.00  0.00     0.075 H 
BRANCH 106 109
ATOM    109  NZ  LYS d   1     -18.338  65.163  22.363  0.00  0.00    -0.079 N 
ATOM    110  H33 LYS d   1     -18.242  65.382  23.342  0.00  0.00     0.274 HD
ATOM    111  H34 LYS d   1     -17.749  64.377  22.135  0.00  0.00     0.274 HD
ATOM    112  H35 LYS d   1     -19.299  64.932  22.163  0.00  0.00     0.274 HD
ENDBRANCH 106 109
ENDBRANCH 103 106
ENDBRANCH 100 103
ENDBRANCH  97 100
ENDBRANCH   1  97
TORSDOF 27
