REMARK  4 active torsions:
REMARK  status: ('A' for Active; 'I' for Inactive)
REMARK    1  A    between atoms: C2_1  and  C10_26 
REMARK    2  A    between atoms: N7_23  and  C16_7 
REMARK    3  A    between atoms: C23_12  and  C24_13 
REMARK    4  A    between atoms: N19_28  and  C23_12 
ROOT
ATOM      1  C2  4V8 d   1      17.820  -0.738  14.551  0.00  0.00     0.097 A 
ATOM      2  C3  4V8 d   1      16.461  -0.851  14.024  0.00  0.00     0.015 A 
ATOM      3  N1  4V8 d   1      18.392   0.127  13.824  0.00  0.00    -0.173 NA
ATOM      4  C4  4V8 d   1      16.405   0.027  13.004  0.00  0.00     0.039 A 
ATOM      5  N5  4V8 d   1      17.554   0.609  12.884  0.00  0.00    -0.281 N 
ATOM      6  C6  4V8 d   1      15.319  -1.732  14.449  0.00  0.00     0.023 C 
ATOM      7  N7  4V8 d   1      14.097  -1.522  13.657  0.00  0.00    -0.376 N 
ATOM      8  C8  4V8 d   1      14.258  -0.968  12.289  0.00  0.00     0.001 C 
ATOM      9  C9  4V8 d   1      15.183   0.273  12.159  0.00  0.00    -0.010 C 
ATOM     10  H15 4V8 d   1      17.791   1.325  12.183  0.00  0.00     0.189 HD
ATOM     11  H16 4V8 d   1      15.091  -1.524  15.505  0.00  0.00     0.071 H 
ATOM     12  H17 4V8 d   1      15.629  -2.782  14.341  0.00  0.00     0.071 H 
ATOM     13  H18 4V8 d   1      13.261  -0.684  11.922  0.00  0.00     0.064 H 
ATOM     14  H19 4V8 d   1      14.671  -1.763  11.651  0.00  0.00     0.064 H 
ATOM     15  H20 4V8 d   1      15.477   0.412  11.108  0.00  0.00     0.044 H 
ATOM     16  H21 4V8 d   1      14.657   1.171  12.515  0.00  0.00     0.044 H 
ENDROOT
BRANCH   7  17
ATOM     17  C16 4V8 d   1      12.911  -1.848  14.168  0.00  0.00     0.037 A 
ATOM     18  C17 4V8 d   1      12.806  -2.578  15.470  0.00  0.00    -0.042 A 
ATOM     19  C18 4V8 d   1      11.633  -2.984  15.966  0.00  0.00    -0.015 A 
ATOM     20  H5  4V8 d   1      13.715  -2.785  16.032  0.00  0.00     0.089 H 
ATOM     21  N19 4V8 d   1      10.460  -2.752  15.319  0.00  0.00    -0.320 N 
ATOM     22  H6  4V8 d   1      11.617  -3.516  16.916  0.00  0.00     0.111 H 
ATOM     23  C20 4V8 d   1      10.433  -2.002  14.170  0.00  0.00     0.249 A 
ATOM     24  C21 4V8 d   1      11.713  -1.545  13.590  0.00  0.00     0.008 A 
ATOM     25  O22 4V8 d   1       9.428  -1.741  13.527  0.00  0.00    -0.268 OA
ATOM     26  H7  4V8 d   1      11.700  -0.951  12.677  0.00  0.00     0.095 H 
BRANCH  21  27
ATOM     27  C23 4V8 d   1       9.248  -3.334  15.923  0.00  0.00     0.026 C 
ATOM     28  H8  4V8 d   1       9.438  -3.578  16.979  0.00  0.00     0.072 H 
ATOM     29  H9  4V8 d   1       8.417  -2.616  15.857  0.00  0.00     0.072 H 
BRANCH  27  30
ATOM     30  C24 4V8 d   1       8.894  -4.615  15.147  0.00  0.00    -0.040 A 
ATOM     31  C25 4V8 d   1       7.557  -4.860  14.762  0.00  0.00    -0.075 A 
ATOM     32  C26 4V8 d   1       7.213  -6.017  14.035  0.00  0.00    -0.082 A 
ATOM     33  H10 4V8 d   1       6.785  -4.148  15.030  0.00  0.00     0.084 H 
ATOM     34  C27 4V8 d   1       8.205  -6.950  13.674  0.00  0.00    -0.083 A 
ATOM     35  H11 4V8 d   1       6.181  -6.190  13.752  0.00  0.00     0.083 H 
ATOM     36  C28 4V8 d   1       9.546  -6.723  14.045  0.00  0.00    -0.082 A 
ATOM     37  H12 4V8 d   1       7.938  -7.839  13.113  0.00  0.00     0.083 H 
ATOM     38  C29 4V8 d   1       9.877  -5.560  14.776  0.00  0.00    -0.075 A 
ATOM     39  H13 4V8 d   1      10.317  -7.435  13.772  0.00  0.00     0.083 H 
ATOM     40  H14 4V8 d   1      10.909  -5.389  15.059  0.00  0.00     0.084 H 
ENDBRANCH  27  30
ENDBRANCH  21  27
ENDBRANCH   7  17
BRANCH   1  41
ATOM     41  C10 4V8 d   1      18.504  -1.477  15.684  0.00  0.00    -0.002 A 
ATOM     42  C11 4V8 d   1      19.908  -1.550  15.675  0.00  0.00    -0.054 A 
ATOM     43  C12 4V8 d   1      20.570  -2.249  16.689  0.00  0.00     0.003 A 
ATOM     44  H1  4V8 d   1      20.474  -1.067  14.887  0.00  0.00     0.087 H 
ATOM     45  N13 4V8 d   1      19.854  -2.831  17.676  0.00  0.00    -0.273 NA
ATOM     46  H2  4V8 d   1      21.651  -2.324  16.683  0.00  0.00     0.114 H 
ATOM     47  C14 4V8 d   1      18.502  -2.768  17.735  0.00  0.00     0.003 A 
ATOM     48  C15 4V8 d   1      17.794  -2.097  16.728  0.00  0.00    -0.054 A 
ATOM     49  H3  4V8 d   1      17.970  -3.234  18.557  0.00  0.00     0.114 H 
ATOM     50  H4  4V8 d   1      16.711  -2.056  16.754  0.00  0.00     0.087 H 
ENDBRANCH   1  41
TORSDOF 4
