REMARK  2 active torsions:
REMARK  status: ('A' for Active; 'I' for Inactive)
REMARK    1  A    between atoms: N1_19  and  C1_1 
REMARK    2  A    between atoms: C11_4  and  C12_5 
ROOT
ATOM      1  C11 4V9 d   1     -17.750   0.837  14.595  0.00  0.00     0.070 A 
ATOM      2  C7  4V9 d   1     -16.366   1.043  14.273  0.00  0.00     0.015 A 
ATOM      3  C6  4V9 d   1     -15.333   1.906  14.931  0.00  0.00     0.024 C 
ATOM      4  N4  4V9 d   1     -18.261  -0.037  13.721  0.00  0.00    -0.277 N 
ATOM      5  N3  4V9 d   1     -17.263  -0.392  12.854  0.00  0.00    -0.178 NA
ATOM      6  C8  4V9 d   1     -16.090   0.260  13.161  0.00  0.00     0.066 A 
ATOM      7  C9  4V9 d   1     -14.768   0.208  12.465  0.00  0.00    -0.008 C 
ATOM      8  C10 4V9 d   1     -14.003   1.483  12.820  0.00  0.00     0.002 C 
ATOM      9  N1  4V9 d   1     -14.000   1.807  14.254  0.00  0.00    -0.361 N 
ATOM     10  H7  4V9 d   1     -15.223   1.590  15.979  0.00  0.00     0.071 H 
ATOM     11  H8  4V9 d   1     -15.671   2.952  14.897  0.00  0.00     0.071 H 
ATOM     12  H9  4V9 d   1     -19.232  -0.381  13.704  0.00  0.00     0.189 HD
ATOM     13  H10 4V9 d   1     -14.920   0.153  11.377  0.00  0.00     0.044 H 
ATOM     14  H11 4V9 d   1     -14.203  -0.674  12.801  0.00  0.00     0.044 H 
ATOM     15  H12 4V9 d   1     -14.463   2.323  12.278  0.00  0.00     0.064 H 
ATOM     16  H13 4V9 d   1     -12.960   1.362  12.492  0.00  0.00     0.064 H 
ENDROOT
BRANCH   1  17
ATOM     17  C12 4V9 d   1     -18.545   1.443  15.692  0.00  0.00    -0.007 A 
ATOM     18  C13 4V9 d   1     -17.936   1.986  16.825  0.00  0.00    -0.068 A 
ATOM     19  C14 4V9 d   1     -18.691   2.556  17.836  0.00  0.00    -0.045 A 
ATOM     20  H3  4V9 d   1     -16.856   1.961  16.915  0.00  0.00     0.085 H 
ATOM     21  C15 4V9 d   1     -20.052   2.583  17.691  0.00  0.00     0.116 A 
ATOM     22  H4  4V9 d   1     -18.217   2.970  18.719  0.00  0.00     0.088 H 
ATOM     23  C16 4V9 d   1     -20.693   2.065  16.600  0.00  0.00    -0.045 A 
ATOM     24  F   4V9 d   1     -20.814   3.122  18.699  0.00  0.00    -0.206 F 
ATOM     25  C17 4V9 d   1     -19.931   1.483  15.602  0.00  0.00    -0.068 A 
ATOM     26  H5  4V9 d   1     -21.773   2.109  16.519  0.00  0.00     0.088 H 
ATOM     27  H6  4V9 d   1     -20.423   1.052  14.737  0.00  0.00     0.085 H 
ENDBRANCH   1  17
BRANCH   9  28
ATOM     28  C1  4V9 d   1     -12.826   2.093  14.940  0.00  0.00     0.125 A 
ATOM     29  C5  4V9 d   1     -12.853   2.545  16.269  0.00  0.00    -0.039 A 
ATOM     30  C4  4V9 d   1     -11.639   2.833  16.877  0.00  0.00    -0.078 A 
ATOM     31  H14 4V9 d   1     -13.789   2.665  16.802  0.00  0.00     0.089 H 
ATOM     32  C3  4V9 d   1     -10.459   2.672  16.180  0.00  0.00    -0.066 A 
ATOM     33  H15 4V9 d   1     -11.618   3.185  17.902  0.00  0.00     0.083 H 
ATOM     34  C2  4V9 d   1     -10.529   2.236  14.870  0.00  0.00     0.004 A 
ATOM     35  H2  4V9 d   1      -9.503   2.882  16.647  0.00  0.00     0.085 H 
ATOM     36  N2  4V9 d   1     -11.682   1.941  14.242  0.00  0.00    -0.244 NA
ATOM     37  H1  4V9 d   1      -9.603   2.126  14.318  0.00  0.00     0.114 H 
ENDBRANCH   9  28
TORSDOF 2
