REMARK  2 active torsions:
REMARK  status: ('A' for Active; 'I' for Inactive)
REMARK    1  A    between atoms: C2_1  and  C10_19 
REMARK    2  A    between atoms: N7_16  and  C16_7 
ROOT
ATOM      1  C2  4VB d   1     -17.720   1.142  14.669  0.00  0.00     0.070 A 
ATOM      2  C3  4VB d   1     -16.373   1.304  14.199  0.00  0.00     0.015 A 
ATOM      3  N1  4VB d   1     -18.331   0.240  13.900  0.00  0.00    -0.277 N 
ATOM      4  C4  4VB d   1     -16.240   0.466  13.105  0.00  0.00     0.066 A 
ATOM      5  N5  4VB d   1     -17.445  -0.177  12.963  0.00  0.00    -0.178 NA
ATOM      6  C6  4VB d   1     -15.230   2.106  14.735  0.00  0.00     0.023 C 
ATOM      7  N7  4VB d   1     -14.058   1.987  13.865  0.00  0.00    -0.379 N 
ATOM      8  C8  4VB d   1     -14.331   1.743  12.441  0.00  0.00     0.000 C 
ATOM      9  C9  4VB d   1     -15.009   0.398  12.264  0.00  0.00    -0.008 C 
ATOM     10  H9  4VB d   1     -19.304  -0.083  14.000  0.00  0.00     0.189 HD
ATOM     11  H10 4VB d   1     -14.972   1.740  15.740  0.00  0.00     0.071 H 
ATOM     12  H11 4VB d   1     -15.528   3.163  14.796  0.00  0.00     0.071 H 
ATOM     13  H12 4VB d   1     -13.383   1.749  11.883  0.00  0.00     0.064 H 
ATOM     14  H13 4VB d   1     -14.989   2.536  12.056  0.00  0.00     0.064 H 
ATOM     15  H14 4VB d   1     -15.272   0.234  11.208  0.00  0.00     0.044 H 
ATOM     16  H15 4VB d   1     -14.351  -0.414  12.608  0.00  0.00     0.044 H 
ENDROOT
BRANCH   7  17
ATOM     17  C16 4VB d   1     -12.759   2.079  14.428  0.00  0.00     0.017 A 
ATOM     18  C17 4VB d   1     -12.525   2.703  15.691  0.00  0.00    -0.044 A 
ATOM     19  C18 4VB d   1     -11.261   2.824  16.147  0.00  0.00     0.008 A 
ATOM     20  H5  4VB d   1     -13.360   3.078  16.281  0.00  0.00     0.088 H 
ATOM     21  N19 4VB d   1     -10.204   2.389  15.419  0.00  0.00    -0.226 NA
ATOM     22  H6  4VB d   1     -11.087   3.281  17.120  0.00  0.00     0.115 H 
ATOM     23  C20 4VB d   1     -10.319   1.770  14.203  0.00  0.00     0.248 A 
ATOM     24  C21 4VB d   1     -11.653   1.604  13.724  0.00  0.00     0.049 A 
ATOM     25  O22 4VB d   1      -9.291   1.426  13.600  0.00  0.00    -0.271 OA
ATOM     26  H7  4VB d   1     -11.687   2.087  12.736  0.00  0.00     0.056 H 
ATOM     27  H8  4VB d   1     -11.805   0.521  13.608  0.00  0.00     0.056 H 
ENDBRANCH   7  17
BRANCH   1  28
ATOM     28  C10 4VB d   1     -18.402   1.812  15.798  0.00  0.00    -0.005 A 
ATOM     29  C11 4VB d   1     -17.706   2.343  16.878  0.00  0.00    -0.054 A 
ATOM     30  C12 4VB d   1     -18.416   2.950  17.894  0.00  0.00     0.003 A 
ATOM     31  H1  4VB d   1     -16.625   2.281  16.921  0.00  0.00     0.087 H 
ATOM     32  N13 4VB d   1     -19.749   3.061  17.908  0.00  0.00    -0.273 NA
ATOM     33  H2  4VB d   1     -17.861   3.361  18.730  0.00  0.00     0.114 H 
ATOM     34  C14 4VB d   1     -20.406   2.544  16.868  0.00  0.00     0.003 A 
ATOM     35  C15 4VB d   1     -19.789   1.910  15.807  0.00  0.00    -0.054 A 
ATOM     36  H3  4VB d   1     -21.487   2.626  16.855  0.00  0.00     0.114 H 
ATOM     37  H4  4VB d   1     -20.376   1.496  14.995  0.00  0.00     0.087 H 
ENDBRANCH   1  28
TORSDOF 2
