REMARK  7 active torsions:
REMARK  status: ('A' for Active; 'I' for Inactive)
REMARK    1  A    between atoms: C12_3  and  N14_27 
REMARK    2  A    between atoms: C8_24  and  C16_5 
REMARK    3  A    between atoms: C18_7  and  C19_8 
REMARK    4  A    between atoms: N5_22  and  C18_7 
REMARK    5  A    between atoms: C18_7  and  C31_23 
REMARK    6  A    between atoms: N14_27  and  C25_14 
REMARK    7  A    between atoms: C31_23  and  O32_21 
ROOT
ATOM      1  C2  4VF d   1      12.294  -2.720  14.912  0.00  0.00     0.103 A 
ATOM      2  C3  4VF d   1      12.417  -3.685  17.122  0.00  0.00     0.015 C 
ATOM      3  C15 4VF d   1      13.075  -2.084  14.011  0.00  0.00    -0.038 A 
ATOM      4  C16 4VF d   1      14.405  -2.109  14.647  0.00  0.00     0.011 A 
ATOM      5  C17 4VF d   1      14.271  -2.742  15.821  0.00  0.00    -0.008 A 
ATOM      6  N5  4VF d   1      10.385  -3.982  15.718  0.00  0.00    -0.334 N 
ATOM      7  C6  4VF d   1      10.866  -3.045  14.857  0.00  0.00     0.271 C 
ATOM      8  C4  4VF d   1      11.307  -4.649  16.651  0.00  0.00     0.014 C 
ATOM      9  O7  4VF d   1      10.176  -2.472  14.018  0.00  0.00    -0.266 OA
ATOM     10  N1  4VF d   1      13.010  -3.064  15.939  0.00  0.00    -0.350 N 
ATOM     11  H1  4VF d   1      13.186  -4.244  17.675  0.00  0.00     0.067 H 
ATOM     12  H2  4VF d   1      11.987  -2.910  17.774  0.00  0.00     0.067 H 
ATOM     13  H3  4VF d   1      12.791  -1.657  13.050  0.00  0.00     0.088 H 
ATOM     14  H4  4VF d   1      15.062  -2.949  16.540  0.00  0.00     0.113 H 
ATOM     15  H23 4VF d   1      10.741  -4.999  17.526  0.00  0.00     0.067 H 
ATOM     16  H24 4VF d   1      11.770  -5.509  16.145  0.00  0.00     0.067 H 
ENDROOT
BRANCH   4  17
ATOM     17  C8  4VF d   1      15.700  -1.478  14.187  0.00  0.00     0.089 A 
ATOM     18  N13 4VF d   1      16.851  -1.827  14.820  0.00  0.00    -0.062 NA
ATOM     19  C12 4VF d   1      18.038  -1.276  14.479  0.00  0.00     0.723 A 
ATOM     20  N11 4VF d   1      18.092  -0.366  13.497  0.00  0.00    -0.075 NA
ATOM     21  C10 4VF d   1      16.987  -0.003  12.817  0.00  0.00     0.023 A 
ATOM     22  C9  4VF d   1      15.742  -0.556  13.141  0.00  0.00    -0.036 A 
ATOM     23  H25 4VF d   1      17.062   0.722  12.014  0.00  0.00     0.115 H 
ATOM     24  H26 4VF d   1      14.845  -0.278  12.600  0.00  0.00     0.089 H 
BRANCH  19  25
ATOM     25  N14 4VF d   1      19.173  -1.609  15.138  0.00  0.00    -0.218 N 
ATOM     26  H22 4VF d   1      20.038  -1.100  14.907  0.00  0.00     0.178 HD
BRANCH  25  27
ATOM     27  C25 4VF d   1      19.237  -2.655  16.162  0.00  0.00     0.030 C 
ATOM     28  C26 4VF d   1      20.691  -3.173  16.350  0.00  0.00    -0.026 C 
ATOM     29  C27 4VF d   1      20.764  -4.173  17.528  0.00  0.00     0.021 C 
ATOM     30  H11 4VF d   1      21.355  -2.321  16.558  0.00  0.00     0.039 H 
ATOM     31  H12 4VF d   1      21.018  -3.676  15.428  0.00  0.00     0.039 H 
ATOM     32  O28 4VF d   1      20.248  -3.600  18.743  0.00  0.00    -0.391 OA
ATOM     33  H13 4VF d   1      21.814  -4.461  17.687  0.00  0.00     0.074 H 
ATOM     34  H14 4VF d   1      20.173  -5.066  17.275  0.00  0.00     0.074 H 
ATOM     35  C29 4VF d   1      18.862  -3.217  18.589  0.00  0.00     0.021 C 
ATOM     36  C30 4VF d   1      18.776  -2.094  17.533  0.00  0.00    -0.026 C 
ATOM     37  H15 4VF d   1      18.273  -4.084  18.257  0.00  0.00     0.074 H 
ATOM     38  H16 4VF d   1      18.469  -2.853  19.550  0.00  0.00     0.074 H 
ATOM     39  H17 4VF d   1      17.738  -1.739  17.456  0.00  0.00     0.039 H 
ATOM     40  H18 4VF d   1      19.428  -1.259  17.828  0.00  0.00     0.039 H 
ATOM     41  H10 4VF d   1      18.585  -3.488  15.862  0.00  0.00     0.073 H 
ENDBRANCH  25  27
ENDBRANCH  19  25
ENDBRANCH   4  17
BRANCH   6  42
ATOM     42  C18 4VF d   1       8.959  -4.312  15.661  0.00  0.00     0.060 C 
ATOM     43  H5  4VF d   1       8.417  -3.393  15.394  0.00  0.00     0.083 H 
BRANCH  42  44
ATOM     44  C19 4VF d   1       8.714  -5.383  14.587  0.00  0.00    -0.032 A 
ATOM     45  C20 4VF d   1       7.395  -5.725  14.261  0.00  0.00    -0.054 A 
ATOM     46  C21 4VF d   1       7.135  -6.709  13.306  0.00  0.00     0.034 A 
ATOM     47  H6  4VF d   1       6.571  -5.222  14.754  0.00  0.00     0.087 H 
ATOM     48  C22 4VF d   1       8.192  -7.339  12.645  0.00  0.00    -0.062 A 
ATOM     49 CL1  4VF d   1       5.472  -7.165  12.987  0.00  0.00    -0.084 Cl
ATOM     50  C23 4VF d   1       9.519  -6.995  12.948  0.00  0.00    -0.081 A 
ATOM     51  H7  4VF d   1       7.987  -8.095  11.896  0.00  0.00     0.086 H 
ATOM     52  C24 4VF d   1       9.772  -6.019  13.924  0.00  0.00    -0.075 A 
ATOM     53  H8  4VF d   1      10.341  -7.479  12.433  0.00  0.00     0.083 H 
ATOM     54  H9  4VF d   1      10.795  -5.755  14.167  0.00  0.00     0.084 H 
ENDBRANCH  42  44
BRANCH  42  55
ATOM     55  C31 4VF d   1       8.342  -4.880  16.972  0.00  0.00     0.040 C 
ATOM     56  H20 4VF d   1       8.842  -5.822  17.242  0.00  0.00     0.077 H 
ATOM     57  H21 4VF d   1       7.267  -5.063  16.830  0.00  0.00     0.077 H 
BRANCH  55  58
ATOM     58  O32 4VF d   1       8.537  -3.913  18.008  0.00  0.00    -0.398 OA
ATOM     59  H19 4VF d   1       8.106  -3.101  17.767  0.00  0.00     0.209 HD
ENDBRANCH  55  58
ENDBRANCH  42  55
ENDBRANCH   6  42
TORSDOF 7
