REMARK  7 active torsions:
REMARK  status: ('A' for Active; 'I' for Inactive)
REMARK    1  A    between atoms: C12_3  and  N14_23 
REMARK    2  A    between atoms: C19_7  and  C20_8 
REMARK    3  A    between atoms: C19_7  and  C26_14 
REMARK    4  A    between atoms: N18_30  and  C19_7 
REMARK    5  A    between atoms: C26_14  and  O27_34 
REMARK    6  A    between atoms: N14_23  and  C28_15 
REMARK    7  A    between atoms: C5_21  and  C8_19 
ROOT
ATOM      1  C1  4VG d   1      12.247  -2.998  15.101  0.00  0.00     0.103 A 
ATOM      2  C3  4VG d   1      10.835  -3.375  14.963  0.00  0.00     0.271 C 
ATOM      3  C15 4VG d   1      12.174  -3.221  17.530  0.00  0.00     0.001 C 
ATOM      4  C16 4VG d   1      11.810  -4.717  17.682  0.00  0.00    -0.035 C 
ATOM      5  C17 4VG d   1      11.394  -5.320  16.308  0.00  0.00     0.000 C 
ATOM      6  N2  4VG d   1      12.855  -2.968  16.252  0.00  0.00    -0.351 N 
ATOM      7  C6  4VG d   1      14.120  -2.639  16.146  0.00  0.00    -0.008 A 
ATOM      8  C5  4VG d   1      14.367  -2.369  14.857  0.00  0.00     0.011 A 
ATOM      9  C4  4VG d   1      13.100  -2.606  14.136  0.00  0.00    -0.038 A 
ATOM     10  O7  4VG d   1      10.148  -2.679  14.233  0.00  0.00    -0.266 OA
ATOM     11  N18 4VG d   1      10.398  -4.499  15.587  0.00  0.00    -0.336 N 
ATOM     12  H1  4VG d   1      12.839  -2.928  18.355  0.00  0.00     0.065 H 
ATOM     13  H2  4VG d   1      11.253  -2.621  17.571  0.00  0.00     0.065 H 
ATOM     14  H3  4VG d   1      10.973  -4.816  18.389  0.00  0.00     0.037 H 
ATOM     15  H4  4VG d   1      12.682  -5.264  18.068  0.00  0.00     0.037 H 
ATOM     16  H5  4VG d   1      10.965  -6.318  16.480  0.00  0.00     0.064 H 
ATOM     17  H6  4VG d   1      12.293  -5.410  15.680  0.00  0.00     0.064 H 
ATOM     18  H19 4VG d   1      14.841  -2.593  16.961  0.00  0.00     0.113 H 
ATOM     19  H21 4VG d   1      12.902  -2.490  13.071  0.00  0.00     0.088 H 
ENDROOT
BRANCH   8  20
ATOM     20  C8  4VG d   1      15.665  -1.790  14.359  0.00  0.00     0.089 A 
ATOM     21  N13 4VG d   1      16.820  -2.115  14.989  0.00  0.00    -0.062 NA
ATOM     22  C12 4VG d   1      18.007  -1.596  14.593  0.00  0.00     0.723 A 
ATOM     23  N11 4VG d   1      18.072  -0.728  13.562  0.00  0.00    -0.075 NA
ATOM     24  C10 4VG d   1      16.946  -0.367  12.906  0.00  0.00     0.023 A 
ATOM     25  C9  4VG d   1      15.705  -0.888  13.291  0.00  0.00    -0.036 A 
ATOM     26  H24 4VG d   1      17.005   0.330  12.078  0.00  0.00     0.115 H 
ATOM     27  H25 4VG d   1      14.797  -0.599  12.774  0.00  0.00     0.089 H 
BRANCH  22  28
ATOM     28  N14 4VG d   1      19.139  -1.937  15.239  0.00  0.00    -0.218 N 
ATOM     29  H20 4VG d   1      20.009  -1.436  15.011  0.00  0.00     0.178 HD
BRANCH  28  30
ATOM     30  C28 4VG d   1      19.180  -2.984  16.245  0.00  0.00     0.030 C 
ATOM     31  C29 4VG d   1      20.642  -3.480  16.436  0.00  0.00    -0.026 C 
ATOM     32  C30 4VG d   1      20.690  -4.488  17.606  0.00  0.00     0.021 C 
ATOM     33  H15 4VG d   1      21.294  -2.623  16.662  0.00  0.00     0.039 H 
ATOM     34  H16 4VG d   1      20.987  -3.971  15.514  0.00  0.00     0.039 H 
ATOM     35  O31 4VG d   1      20.171  -3.894  18.814  0.00  0.00    -0.391 OA
ATOM     36  H17 4VG d   1      21.733  -4.796  17.774  0.00  0.00     0.074 H 
ATOM     37  H18 4VG d   1      20.084  -5.369  17.348  0.00  0.00     0.074 H 
ATOM     38  C32 4VG d   1      18.795  -3.477  18.688  0.00  0.00     0.021 C 
ATOM     39  C33 4VG d   1      18.722  -2.385  17.603  0.00  0.00    -0.026 C 
ATOM     40  H22 4VG d   1      18.439  -3.074  19.647  0.00  0.00     0.074 H 
ATOM     41  H23 4VG d   1      18.171  -4.335  18.396  0.00  0.00     0.074 H 
ATOM     42  H26 4VG d   1      17.687  -2.022  17.515  0.00  0.00     0.039 H 
ATOM     43  H27 4VG d   1      19.382  -1.549  17.878  0.00  0.00     0.039 H 
ATOM     44  H14 4VG d   1      18.527  -3.818  15.949  0.00  0.00     0.073 H 
ENDBRANCH  28  30
ENDBRANCH  22  28
ENDBRANCH   8  20
BRANCH  11  45
ATOM     45  C19 4VG d   1       8.960  -4.789  15.553  0.00  0.00     0.060 C 
ATOM     46  H7  4VG d   1       8.457  -3.855  15.263  0.00  0.00     0.083 H 
BRANCH  45  47
ATOM     47  C20 4VG d   1       8.654  -5.852  14.493  0.00  0.00    -0.032 A 
ATOM     48  C21 4VG d   1       7.328  -6.263  14.315  0.00  0.00    -0.054 A 
ATOM     49  C22 4VG d   1       7.029  -7.229  13.360  0.00  0.00     0.034 A 
ATOM     50  H8  4VG d   1       6.538  -5.831  14.918  0.00  0.00     0.087 H 
ATOM     51  C23 4VG d   1       8.027  -7.799  12.575  0.00  0.00    -0.062 A 
ATOM     52 CL1  4VG d   1       5.363  -7.680  13.129  0.00  0.00    -0.084 Cl
ATOM     53  C24 4VG d   1       9.350  -7.385  12.734  0.00  0.00    -0.081 A 
ATOM     54  H9  4VG d   1       7.778  -8.560  11.844  0.00  0.00     0.086 H 
ATOM     55  C25 4VG d   1       9.658  -6.413  13.686  0.00  0.00    -0.075 A 
ATOM     56  H10 4VG d   1      10.134  -7.816  12.121  0.00  0.00     0.083 H 
ATOM     57  H11 4VG d   1      10.685  -6.086  13.805  0.00  0.00     0.084 H 
ENDBRANCH  45  47
BRANCH  45  58
ATOM     58  C26 4VG d   1       8.320  -5.261  16.890  0.00  0.00     0.040 C 
ATOM     59  H12 4VG d   1       8.844  -6.158  17.253  0.00  0.00     0.077 H 
ATOM     60  H13 4VG d   1       7.258  -5.497  16.727  0.00  0.00     0.077 H 
BRANCH  58  61
ATOM     61  O27 4VG d   1       8.435  -4.217  17.856  0.00  0.00    -0.398 OA
ATOM     62  H28 4VG d   1       7.983  -3.443  17.540  0.00  0.00     0.209 HD
ENDBRANCH  58  61
ENDBRANCH  45  58
ENDBRANCH  11  45
TORSDOF 7
