REMARK  8 active torsions:
REMARK  status: ('A' for Active; 'I' for Inactive)
REMARK    1  A    between atoms: C11_2  and  C13_4 
REMARK    2  A    between atoms: C16_7  and  N7_32 
REMARK    3  A    between atoms: C20_11  and  C21_12 
REMARK    4  A    between atoms: C20_11  and  C27_18 
REMARK    5  A    between atoms: N5_24  and  C20_11 
REMARK    6  A    between atoms: C27_18  and  O6_33 
REMARK    7  A    between atoms: N7_32  and  C28_19 
REMARK    8  A    between atoms: C30_21  and  O34_27 
ROOT
ATOM      1  O2  4VJ d   1      10.137  -2.892  14.320  0.00  0.00    -0.266 OA
ATOM      2  C11 4VJ d   1      14.322  -2.517  14.930  0.00  0.00     0.011 A 
ATOM      3  C12 4VJ d   1      14.103  -2.735  16.235  0.00  0.00    -0.008 A 
ATOM      4  C17 4VJ d   1      12.254  -3.320  17.698  0.00  0.00     0.001 C 
ATOM      5  C18 4VJ d   1      11.829  -4.791  17.900  0.00  0.00    -0.035 C 
ATOM      6  C19 4VJ d   1      11.384  -5.423  16.560  0.00  0.00     0.000 C 
ATOM      7  N5  4VJ d   1      10.393  -4.640  15.799  0.00  0.00    -0.336 N 
ATOM      8  C8  4VJ d   1      12.230  -3.133  15.220  0.00  0.00     0.103 A 
ATOM      9  C10 4VJ d   1      13.070  -2.787  14.225  0.00  0.00    -0.038 A 
ATOM     10  C9  4VJ d   1      10.824  -3.544  15.095  0.00  0.00     0.271 C 
ATOM     11  N1  4VJ d   1      12.855  -3.066  16.375  0.00  0.00    -0.351 N 
ATOM     12  H1  4VJ d   1      14.839  -2.650  17.033  0.00  0.00     0.113 H 
ATOM     13  H4  4VJ d   1      12.990  -3.059  18.473  0.00  0.00     0.065 H 
ATOM     14  H5  4VJ d   1      11.365  -2.681  17.807  0.00  0.00     0.065 H 
ATOM     15  H6  4VJ d   1      10.992  -4.830  18.613  0.00  0.00     0.037 H 
ATOM     16  H7  4VJ d   1      12.680  -5.360  18.302  0.00  0.00     0.037 H 
ATOM     17  H8  4VJ d   1      10.946  -6.409  16.777  0.00  0.00     0.064 H 
ATOM     18  H9  4VJ d   1      12.276  -5.549  15.929  0.00  0.00     0.064 H 
ATOM     19  H26 4VJ d   1      12.866  -2.724  13.157  0.00  0.00     0.088 H 
ENDROOT
BRANCH   2  20
ATOM     20  C13 4VJ d   1      15.619  -1.948  14.422  0.00  0.00     0.089 A 
ATOM     21  C14 4VJ d   1      15.686  -1.121  13.301  0.00  0.00    -0.036 A 
ATOM     22  C15 4VJ d   1      16.934  -0.616  12.955  0.00  0.00     0.023 A 
ATOM     23  H2  4VJ d   1      14.801  -0.882  12.723  0.00  0.00     0.089 H 
ATOM     24  N3  4VJ d   1      18.022  -0.951  13.679  0.00  0.00    -0.075 NA
ATOM     25  H3  4VJ d   1      17.033   0.047  12.103  0.00  0.00     0.115 H 
ATOM     26  C16 4VJ d   1      17.943  -1.774  14.726  0.00  0.00     0.723 A 
ATOM     27  N4  4VJ d   1      16.745  -2.264  15.095  0.00  0.00    -0.062 NA
BRANCH  26  28
ATOM     28  N7  4VJ d   1      19.050  -2.114  15.423  0.00  0.00    -0.218 N 
ATOM     29  H27 4VJ d   1      19.929  -1.602  15.260  0.00  0.00     0.178 HD
BRANCH  28  30
ATOM     30  C28 4VJ d   1      19.020  -3.202  16.410  0.00  0.00     0.029 C 
ATOM     31  C29 4VJ d   1      18.823  -2.669  17.851  0.00  0.00    -0.022 C 
ATOM     32  C30 4VJ d   1      19.218  -3.911  18.690  0.00  0.00     0.037 C 
ATOM     33  H18 4VJ d   1      17.779  -2.376  18.033  0.00  0.00     0.039 H 
ATOM     34  H19 4VJ d   1      19.485  -1.815  18.059  0.00  0.00     0.039 H 
ATOM     35  C31 4VJ d   1      20.482  -4.456  17.951  0.00  0.00    -0.039 C 
ATOM     36  H20 4VJ d   1      18.414  -4.662  18.687  0.00  0.00     0.083 H 
ATOM     37  C32 4VJ d   1      20.419  -3.866  16.520  0.00  0.00    -0.043 C 
ATOM     38  H21 4VJ d   1      20.460  -5.555  17.914  0.00  0.00     0.036 H 
ATOM     39  H22 4VJ d   1      21.398  -4.125  18.462  0.00  0.00     0.036 H 
ATOM     40  H24 4VJ d   1      21.213  -3.118  16.377  0.00  0.00     0.036 H 
ATOM     41  H25 4VJ d   1      20.527  -4.663  15.770  0.00  0.00     0.036 H 
ATOM     42  H17 4VJ d   1      18.241  -3.930  16.139  0.00  0.00     0.073 H 
BRANCH  32  43
ATOM     43  O34 4VJ d   1      19.502  -3.523  20.052  0.00  0.00    -0.396 OA
ATOM     44  H23 4VJ d   1      18.707  -3.199  20.460  0.00  0.00     0.210 HD
ENDBRANCH  32  43
ENDBRANCH  28  30
ENDBRANCH  26  28
ENDBRANCH   2  20
BRANCH   7  45
ATOM     45  C20 4VJ d   1       8.964  -4.966  15.813  0.00  0.00     0.060 C 
ATOM     46  H10 4VJ d   1       8.417  -4.047  15.556  0.00  0.00     0.083 H 
BRANCH  45  47
ATOM     47  C21 4VJ d   1       8.674  -6.034  14.750  0.00  0.00    -0.032 A 
ATOM     48  C22 4VJ d   1       7.356  -6.436  14.556  0.00  0.00    -0.054 A 
ATOM     49  C23 4VJ d   1       7.070  -7.401  13.595  0.00  0.00     0.034 A 
ATOM     50  H11 4VJ d   1       6.559  -6.001  15.148  0.00  0.00     0.087 H 
ATOM     51  C24 4VJ d   1       8.072  -7.987  12.815  0.00  0.00    -0.062 A 
ATOM     52 CL1  4VJ d   1       5.408  -7.869  13.387  0.00  0.00    -0.084 Cl
ATOM     53  C25 4VJ d   1       9.401  -7.596  13.013  0.00  0.00    -0.081 A 
ATOM     54  H12 4VJ d   1       7.823  -8.733  12.069  0.00  0.00     0.086 H 
ATOM     55  C26 4VJ d   1       9.693  -6.628  13.985  0.00  0.00    -0.075 A 
ATOM     56  H13 4VJ d   1      10.196  -8.036  12.422  0.00  0.00     0.083 H 
ATOM     57  H14 4VJ d   1      10.723  -6.332  14.149  0.00  0.00     0.084 H 
ENDBRANCH  45  47
BRANCH  45  58
ATOM     58  C27 4VJ d   1       8.395  -5.492  17.162  0.00  0.00     0.040 C 
ATOM     59  H15 4VJ d   1       8.814  -6.486  17.377  0.00  0.00     0.077 H 
ATOM     60  H16 4VJ d   1       7.299  -5.562  17.098  0.00  0.00     0.077 H 
BRANCH  58  61
ATOM     61  O6  4VJ d   1       8.759  -4.580  18.208  0.00  0.00    -0.398 OA
ATOM     62  H28 4VJ d   1       8.397  -3.722  18.019  0.00  0.00     0.209 HD
ENDBRANCH  58  61
ENDBRANCH  45  58
ENDBRANCH   7  45
TORSDOF 8
