REMARK  3 active torsions:
REMARK  status: ('A' for Active; 'I' for Inactive)
REMARK    1  A    between atoms: N8_13  and  C7_5 
REMARK    2  A    between atoms: C12_6  and  C13_7 
REMARK    3  A    between atoms: N11_16  and  C12_6 
REMARK       I    between atoms: C9_14  and  N8_13 
REMARK       I    between atoms: C9_14  and  N11_16 
ROOT
ATOM      1  N8  4VC d   1      26.366  31.535  36.436  0.00  0.00    -0.307 N 
ATOM      2  C9  4VC d   1      25.191  32.226  36.635  0.00  0.00     0.321 C 
ATOM      3  O10 4VC d   1      24.244  32.179  35.848  0.00  0.00    -0.247 OA
ATOM      4  N11 4VC d   1      25.167  32.961  37.769  0.00  0.00    -0.339 N 
ATOM      5  H10 4VC d   1      27.102  31.746  37.080  0.00  0.00     0.170 HD
ATOM      6  H11 4VC d   1      26.012  33.048  38.296  0.00  0.00     0.164 HD
ENDROOT
BRANCH   1   7
ATOM      7  C7  4VC d   1      26.680  30.568  35.449  0.00  0.00     0.058 A 
ATOM      8  C2  4VC d   1      27.613  29.584  35.771  0.00  0.00     0.060 A 
ATOM      9  C3  4VC d   1      27.963  28.612  34.851  0.00  0.00    -0.060 A 
ATOM     10 CL1  4VC d   1      28.363  29.552  37.336  0.00  0.00    -0.082 Cl
ATOM     11  C4  4VC d   1      27.382  28.613  33.597  0.00  0.00    -0.081 A 
ATOM     12  H1  4VC d   1      28.691  27.852  35.113  0.00  0.00     0.086 H 
ATOM     13  C5  4VC d   1      26.457  29.580  33.263  0.00  0.00    -0.081 A 
ATOM     14  H9  4VC d   1      27.654  27.852  32.874  0.00  0.00     0.083 H 
ATOM     15  C6  4VC d   1      26.105  30.554  34.182  0.00  0.00    -0.055 A 
ATOM     16  H2  4VC d   1      26.004  29.578  32.278  0.00  0.00     0.083 H 
ATOM     17  H3  4VC d   1      25.377  31.311  33.913  0.00  0.00     0.087 H 
ENDBRANCH   1   7
BRANCH   4  18
ATOM     18  C12 4VC d   1      23.973  33.633  38.262  0.00  0.00     0.022 C 
ATOM     19  H4  4VC d   1      23.109  33.281  37.679  0.00  0.00     0.071 H 
ATOM     20  H5  4VC d   1      23.835  33.366  39.320  0.00  0.00     0.071 H 
BRANCH  18  21
ATOM     21  C13 4VC d   1      24.041  35.137  38.154  0.00  0.00    -0.023 A 
ATOM     22  C14 4VC d   1      25.247  35.794  37.964  0.00  0.00    -0.072 A 
ATOM     23  C15 4VC d   1      25.252  37.166  37.872  0.00  0.00    -0.065 A 
ATOM     24  H6  4VC d   1      26.172  35.234  37.889  0.00  0.00     0.084 H 
ATOM     25  C16 4VC d   1      24.068  37.856  37.969  0.00  0.00     0.002 A 
ATOM     26  H7  4VC d   1      26.184  37.700  37.724  0.00  0.00     0.085 H 
ATOM     27  N17 4VC d   1      22.895  37.242  38.152  0.00  0.00    -0.273 NA
ATOM     28  H8  4VC d   1      24.086  38.937  37.894  0.00  0.00     0.114 H 
ATOM     29  C18 4VC d   1      22.891  35.906  38.241  0.00  0.00     0.009 A 
ATOM     30  H12 4VC d   1      21.943  35.401  38.388  0.00  0.00     0.115 H 
ENDBRANCH  18  21
ENDBRANCH   4  18
TORSDOF 3
