REMARK  6 active torsions:
REMARK  status: ('A' for Active; 'I' for Inactive)
REMARK    1  A    between atoms: C2_2  and  C1_1 
REMARK    2  A    between atoms: C5_4  and  C6_5 
REMARK    3  A    between atoms: C6_5  and  N7_21 
REMARK       I    between atoms: N7_21  and  C8_6 
REMARK       I    between atoms: C8_6  and  N10_22 
REMARK    4  A    between atoms: N10_22  and  C11_8 
REMARK    5  A    between atoms: N20_26  and  C19_13 
REMARK    6  A    between atoms: C23_15  and  C21_14 
REMARK       I    between atoms: C21_14  and  N20_26 
ROOT
ATOM      1  C2  4VD d   1      22.704  39.689  38.185  0.00  0.00    -0.035 A 
ATOM      2  C3  4VD d   1      23.793  38.959  38.657  0.00  0.00    -0.074 A 
ATOM      3  C5  4VD d   1      22.749  36.887  38.021  0.00  0.00    -0.038 A 
ATOM      4  C19 4VD d   1      21.629  39.000  37.620  0.00  0.00     0.041 A 
ATOM      5  C4  4VD d   1      23.810  37.577  38.583  0.00  0.00    -0.075 A 
ATOM      6  C18 4VD d   1      21.665  37.613  37.545  0.00  0.00    -0.049 A 
ATOM      7  H4  4VD d   1      24.639  39.481  39.089  0.00  0.00     0.084 H 
ATOM      8  H13 4VD d   1      24.662  37.029  38.969  0.00  0.00     0.084 H 
ATOM      9  H17 4VD d   1      20.827  37.085  37.105  0.00  0.00     0.087 H 
ENDROOT
BRANCH   3  10
ATOM     10  C6  4VD d   1      22.756  35.379  37.941  0.00  0.00     0.021 C 
ATOM     11  H5  4VD d   1      21.901  35.059  37.328  0.00  0.00     0.071 H 
ATOM     12  H6  4VD d   1      22.649  34.976  38.959  0.00  0.00     0.071 H 
BRANCH  10  13
ATOM     13  N7  4VD d   1      23.970  34.836  37.357  0.00  0.00    -0.339 N 
ATOM     14  C8  4VD d   1      23.964  34.083  36.239  0.00  0.00     0.320 C 
ATOM     15  O9  4VD d   1      22.987  34.010  35.502  0.00  0.00    -0.247 OA
ATOM     16  N10 4VD d   1      25.137  33.413  35.988  0.00  0.00    -0.309 N 
ATOM     17  H15 4VD d   1      25.922  33.649  36.561  0.00  0.00     0.170 HD
ATOM     18  H14 4VD d   1      24.845  35.028  37.802  0.00  0.00     0.164 HD
BRANCH  16  19
ATOM     19  C11 4VD d   1      25.343  32.425  35.002  0.00  0.00     0.039 A 
ATOM     20  C12 4VD d   1      26.294  31.438  35.232  0.00  0.00    -0.057 A 
ATOM     21  C13 4VD d   1      26.518  30.454  34.283  0.00  0.00    -0.078 A 
ATOM     22  H7  4VD d   1      26.861  31.438  36.156  0.00  0.00     0.086 H 
ATOM     23  C14 4VD d   1      25.780  30.440  33.114  0.00  0.00    -0.046 A 
ATOM     24  H8  4VD d   1      27.272  29.695  34.457  0.00  0.00     0.083 H 
ATOM     25  C15 4VD d   1      24.837  31.405  32.919  0.00  0.00     0.118 A 
ATOM     26  H9  4VD d   1      25.948  29.675  32.365  0.00  0.00     0.088 H 
ATOM     27  F16 4VD d   1      24.115  31.391  31.764  0.00  0.00    -0.206 F 
ATOM     28  C17 4VD d   1      24.603  32.398  33.824  0.00  0.00    -0.020 A 
ATOM     29  H16 4VD d   1      23.852  33.155  33.629  0.00  0.00     0.091 H 
ENDBRANCH  16  19
ENDBRANCH  10  13
ENDBRANCH   3  10
BRANCH   4  30
ATOM     30  N20 4VD d   1      20.500  39.700  37.139  0.00  0.00    -0.321 N 
ATOM     31  C21 4VD d   1      19.218  39.483  37.542  0.00  0.00     0.274 C 
ATOM     32  O22 4VD d   1      18.956  38.774  38.514  0.00  0.00    -0.266 OA
ATOM     33  H18 4VD d   1      20.654  40.408  36.450  0.00  0.00     0.169 HD
BRANCH  31  34
ATOM     34  C23 4VD d   1      18.143  40.133  36.764  0.00  0.00     0.126 A 
ATOM     35  C24 4VD d   1      18.197  40.796  35.565  0.00  0.00     0.036 A 
ATOM     36  N25 4VD d   1      16.947  41.214  35.179  0.00  0.00    -0.240 NA
ATOM     37  H10 4VD d   1      19.109  40.968  34.995  0.00  0.00     0.118 H 
ATOM     38  C26 4VD d   1      16.106  40.796  36.129  0.00  0.00     0.134 A 
ATOM     39  C27 4VD d   1      14.713  40.945  36.277  0.00  0.00    -0.038 A 
ATOM     40  N31 4VD d   1      16.796  40.122  37.137  0.00  0.00    -0.301 N 
ATOM     41  C28 4VD d   1      14.062  40.381  37.364  0.00  0.00    -0.078 A 
ATOM     42  H11 4VD d   1      14.145  41.505  35.535  0.00  0.00     0.089 H 
ATOM     43  C29 4VD d   1      14.782  39.711  38.336  0.00  0.00    -0.067 A 
ATOM     44  H12 4VD d   1      12.980  40.466  37.452  0.00  0.00     0.083 H 
ATOM     45  C30 4VD d   1      16.131  39.586  38.220  0.00  0.00    -0.013 A 
ATOM     46  H19 4VD d   1      14.268  39.283  39.195  0.00  0.00     0.085 H 
ATOM     47  H20 4VD d   1      16.692  39.058  38.990  0.00  0.00     0.112 H 
ENDBRANCH  31  34
ENDBRANCH   4  30
BRANCH   1  48
ATOM     48  C1  4VD d   1      22.722  41.192  38.299  0.00  0.00    -0.049 C 
ATOM     49  H1  4VD d   1      23.662  41.513  38.773  0.00  0.00     0.033 H 
ATOM     50  H2  4VD d   1      21.871  41.523  38.911  0.00  0.00     0.033 H 
ATOM     51  H3  4VD d   1      22.647  41.637  37.296  0.00  0.00     0.033 H 
ENDBRANCH   1  48
TORSDOF 6
