REMARK  7 active torsions:
REMARK  status: ('A' for Active; 'I' for Inactive)
REMARK    1  A    between atoms: C2_2  and  C1_1 
REMARK    2  A    between atoms: C2_2  and  N4_3 
REMARK    3  A    between atoms: C15_10  and  C2_2 
REMARK    4  A    between atoms: N4_3  and  C5_4 
REMARK    5  A    between atoms: C18_25  and  C19_12 
REMARK    6  A    between atoms: C22_13  and  C24_14 
REMARK       I    between atoms: N21_27  and  C22_13 
REMARK    7  A    between atoms: C20_26  and  N21_27 
ROOT
ATOM      1  C15 4VE d   1      23.255  37.090  37.811  0.00  0.00    -0.034 A 
ATOM      2  C16 4VE d   1      24.315  37.751  38.417  0.00  0.00    -0.074 A 
ATOM      3  C17 4VE d   1      24.249  39.114  38.659  0.00  0.00    -0.074 A 
ATOM      4  C18 4VE d   1      23.120  39.851  38.302  0.00  0.00    -0.035 A 
ATOM      5  C20 4VE d   1      22.053  39.188  37.692  0.00  0.00     0.041 A 
ATOM      6  C33 4VE d   1      22.136  37.826  37.457  0.00  0.00    -0.049 A 
ATOM      7  H9  4VE d   1      25.201  37.197  38.703  0.00  0.00     0.084 H 
ATOM      8  H16 4VE d   1      25.086  39.614  39.132  0.00  0.00     0.084 H 
ATOM      9  H20 4VE d   1      21.302  37.322  36.983  0.00  0.00     0.087 H 
ENDROOT
BRANCH   1  10
ATOM     10  C2  4VE d   1      23.259  35.601  37.515  0.00  0.00     0.035 C 
ATOM     11  H4  4VE d   1      22.945  35.482  36.468  0.00  0.00     0.079 H 
BRANCH  10  12
ATOM     12  C1  4VE d   1      22.263  34.862  38.399  0.00  0.00    -0.053 C 
ATOM     13  H1  4VE d   1      21.273  35.332  38.308  0.00  0.00     0.030 H 
ATOM     14  H2  4VE d   1      22.596  34.909  39.446  0.00  0.00     0.030 H 
ATOM     15  H3  4VE d   1      22.200  33.811  38.081  0.00  0.00     0.030 H 
ENDBRANCH  10  12
BRANCH  10  16
ATOM     16  N4  4VE d   1      24.561  34.950  37.661  0.00  0.00    -0.346 N 
ATOM     17  H5  4VE d   1      25.157  35.209  38.460  0.00  0.00     0.163 HD
BRANCH  16  18
ATOM     18  C5  4VE d   1      25.015  34.014  36.781  0.00  0.00     0.248 A 
ATOM     19  N6  4VE d   1      24.466  33.627  35.640  0.00  0.00    -0.206 NA
ATOM     20  C7  4VE d   1      25.311  32.664  35.133  0.00  0.00     0.098 A 
ATOM     21  C8  4VE d   1      25.284  31.874  33.958  0.00  0.00    -0.015 A 
ATOM     22  C13 4VE d   1      26.342  32.521  36.012  0.00  0.00     0.108 A 
ATOM     23  C9  4VE d   1      26.318  30.990  33.764  0.00  0.00     0.118 A 
ATOM     24  H6  4VE d   1      24.478  31.963  33.239  0.00  0.00     0.091 H 
ATOM     25  C11 4VE d   1      27.358  30.848  34.654  0.00  0.00    -0.043 A 
ATOM     26  F10 4VE d   1      26.312  30.220  32.641  0.00  0.00    -0.206 F 
ATOM     27  C12 4VE d   1      27.380  31.626  35.806  0.00  0.00    -0.045 A 
ATOM     28  H7  4VE d   1      28.152  30.137  34.459  0.00  0.00     0.088 H 
ATOM     29  H8  4VE d   1      28.187  31.535  36.524  0.00  0.00     0.088 H 
ATOM     30  O14 4VE d   1      26.186  33.363  37.068  0.00  0.00    -0.276 OA
ENDBRANCH  16  18
ENDBRANCH  10  16
ENDBRANCH   1  10
BRANCH   5  31
ATOM     31  N21 4VE d   1      20.881  39.877  37.306  0.00  0.00    -0.321 N 
ATOM     32  C22 4VE d   1      19.624  39.504  37.665  0.00  0.00     0.274 C 
ATOM     33  O23 4VE d   1      19.426  38.620  38.498  0.00  0.00    -0.266 OA
ATOM     34  H17 4VE d   1      20.983  40.690  36.733  0.00  0.00     0.169 HD
BRANCH  32  35
ATOM     35  C24 4VE d   1      18.497  40.203  37.015  0.00  0.00     0.126 A 
ATOM     36  C25 4VE d   1      18.476  40.974  35.886  0.00  0.00     0.036 A 
ATOM     37  N26 4VE d   1      17.203  41.435  35.635  0.00  0.00    -0.240 NA
ATOM     38  H13 4VE d   1      19.347  41.193  35.270  0.00  0.00     0.118 H 
ATOM     39  C27 4VE d   1      16.432  40.950  36.609  0.00  0.00     0.134 A 
ATOM     40  C28 4VE d   1      15.054  41.089  36.867  0.00  0.00    -0.038 A 
ATOM     41  N32 4VE d   1      17.184  40.180  37.490  0.00  0.00    -0.301 N 
ATOM     42  C29 4VE d   1      14.484  40.470  37.970  0.00  0.00    -0.078 A 
ATOM     43  H14 4VE d   1      14.434  41.684  36.198  0.00  0.00     0.089 H 
ATOM     44  C30 4VE d   1      15.262  39.715  38.821  0.00  0.00    -0.067 A 
ATOM     45  H18 4VE d   1      13.418  40.581  38.164  0.00  0.00     0.083 H 
ATOM     46  C31 4VE d   1      16.600  39.572  38.582  0.00  0.00    -0.013 A 
ATOM     47  H19 4VE d   1      14.810  39.231  39.686  0.00  0.00     0.085 H 
ATOM     48  H15 4VE d   1      17.209  38.974  39.258  0.00  0.00     0.112 H 
ENDBRANCH  32  35
ENDBRANCH   5  31
BRANCH   4  49
ATOM     49  C19 4VE d   1      23.086  41.330  38.582  0.00  0.00    -0.049 C 
ATOM     50  H10 4VE d   1      24.027  41.634  39.064  0.00  0.00     0.033 H 
ATOM     51  H11 4VE d   1      22.242  41.557  39.250  0.00  0.00     0.033 H 
ATOM     52  H12 4VE d   1      22.964  41.879  37.637  0.00  0.00     0.033 H 
ENDBRANCH   4  49
TORSDOF 7
