REMARK  10 active torsions:
REMARK  status: ('A' for Active; 'I' for Inactive)
REMARK    1  A    between atoms: C3_3  and  C2_2 
REMARK       I    between atoms: N2_22  and  C3_3 
REMARK    2  A    between atoms: N6_4  and  C20_16 
REMARK    3  A    between atoms: C9_7  and  C10_8 
REMARK    4  A    between atoms: N_18  and  C11_9 
REMARK    5  A    between atoms: C13_11  and  N5_30 
REMARK    6  A    between atoms: C14_12  and  C15_13 
REMARK    7  A    between atoms: C20_16  and  C21_17 
REMARK    8  A    between atoms: C21_17  and  O1_33 
REMARK    9  A    between atoms: C_19  and  N_18 
REMARK   10  A    between atoms: N2_22  and  C4_23 
ROOT
ATOM      1  C11 1N1 d   1      14.780  38.712  36.871  0.00  0.00     0.135 A 
ATOM      2  C12 1N1 d   1      13.491  39.264  36.840  0.00  0.00     0.006 A 
ATOM      3  C13 1N1 d   1      12.589  38.781  37.802  0.00  0.00     0.131 A 
ATOM      4  C14 1N1 d   1      14.182  37.361  38.640  0.00  0.00     0.126 A 
ATOM      5  N3  1N1 d   1      12.931  37.825  38.688  0.00  0.00    -0.216 NA
ATOM      6  N4  1N1 d   1      15.103  37.764  37.770  0.00  0.00    -0.216 NA
ATOM      7  H8  1N1 d   1      13.208  40.019  36.116  0.00  0.00     0.095 H 
ENDROOT
BRANCH   1   8
ATOM      8  N   1N1 d   1      15.761  39.100  35.967  0.00  0.00    -0.320 N 
ATOM      9  H20 1N1 d   1      15.435  39.671  35.174  0.00  0.00     0.169 HD
BRANCH   8  10
ATOM     10  C   1N1 d   1      17.092  38.829  35.986  0.00  0.00     0.172 A 
ATOM     11  N1  1N1 d   1      17.910  39.278  35.076  0.00  0.00    -0.235 NA
ATOM     12  C1  1N1 d   1      19.196  38.868  35.332  0.00  0.00     0.027 A 
ATOM     13  C2  1N1 d   1      19.336  38.113  36.443  0.00  0.00     0.094 A 
ATOM     14  H1  1N1 d   1      20.036  39.131  34.690  0.00  0.00     0.117 H 
ATOM     15  S   1N1 d   1      17.831  37.869  37.223  0.00  0.00    -0.045 SA
BRANCH  13  16
ATOM     16  C3  1N1 d   1      20.526  37.482  37.047  0.00  0.00     0.264 C 
ATOM     17  N2  1N1 d   1      21.733  37.862  36.565  0.00  0.00    -0.320 N 
ATOM     18  H21 1N1 d   1      21.739  38.581  35.870  0.00  0.00     0.169 HD
ATOM     19  O   1N1 d   1      20.415  36.653  37.945  0.00  0.00    -0.267 OA
BRANCH  17  20
ATOM     20  C4  1N1 d   1      23.001  37.329  36.959  0.00  0.00     0.062 A 
ATOM     21  C9  1N1 d   1      23.916  38.130  37.646  0.00  0.00    -0.034 A 
ATOM     22  C8  1N1 d   1      25.154  37.586  37.991  0.00  0.00    -0.075 A 
ATOM     23  C7  1N1 d   1      25.453  36.264  37.695  0.00  0.00    -0.081 A 
ATOM     24  H4  1N1 d   1      25.889  38.203  38.495  0.00  0.00     0.084 H 
ATOM     25  C6  1N1 d   1      24.533  35.468  37.040  0.00  0.00    -0.060 A 
ATOM     26  H3  1N1 d   1      26.415  35.853  37.980  0.00  0.00     0.083 H 
ATOM     27  C5  1N1 d   1      23.310  36.002  36.683  0.00  0.00     0.061 A 
ATOM     28  H22 1N1 d   1      24.768  34.435  36.809  0.00  0.00     0.086 H 
ATOM     29 CL   1N1 d   1      22.170  35.002  35.843  0.00  0.00    -0.082 Cl
BRANCH  21  30
ATOM     30  C10 1N1 d   1      23.604  39.566  37.989  0.00  0.00    -0.049 C 
ATOM     31  H5  1N1 d   1      24.456  40.008  38.526  0.00  0.00     0.033 H 
ATOM     32  H6  1N1 d   1      22.709  39.605  38.627  0.00  0.00     0.033 H 
ATOM     33  H7  1N1 d   1      23.420  40.132  37.064  0.00  0.00     0.033 H 
ENDBRANCH  21  30
ENDBRANCH  17  20
ENDBRANCH  13  16
ENDBRANCH   8  10
ENDBRANCH   1   8
BRANCH   3  34
ATOM     34  N5  1N1 d   1      11.271  39.260  37.877  0.00  0.00    -0.362 N 
ATOM     35  C16 1N1 d   1      10.367  38.446  38.710  0.00  0.00     0.019 C 
ATOM     36  C17 1N1 d   1       8.933  38.944  38.699  0.00  0.00     0.098 C 
ATOM     37  H12 1N1 d   1      10.735  38.464  39.746  0.00  0.00     0.066 H 
ATOM     38  H13 1N1 d   1      10.381  37.412  38.334  0.00  0.00     0.066 H 
ATOM     39  N6  1N1 d   1       8.483  39.130  37.322  0.00  0.00    -0.066 N 
ATOM     40  H23 1N1 d   1       8.287  38.207  39.198  0.00  0.00     0.078 H 
ATOM     41  H24 1N1 d   1       8.876  39.903  39.234  0.00  0.00     0.078 H 
ATOM     42  C18 1N1 d   1       9.262  40.223  36.746  0.00  0.00     0.098 C 
ATOM     43  H2  1N1 d   1       8.678  38.288  36.803  0.00  0.00     0.280 HD
ATOM     44  C19 1N1 d   1      10.718  39.808  36.626  0.00  0.00     0.019 C 
ATOM     45  H25 1N1 d   1       9.187  41.107  37.396  0.00  0.00     0.078 H 
ATOM     46  H26 1N1 d   1       8.868  40.466  35.748  0.00  0.00     0.078 H 
ATOM     47  H14 1N1 d   1      10.799  39.041  35.842  0.00  0.00     0.066 H 
ATOM     48  H15 1N1 d   1      11.310  40.689  36.339  0.00  0.00     0.066 H 
BRANCH  39  49
ATOM     49  C20 1N1 d   1       7.040  39.377  37.246  0.00  0.00     0.103 C 
ATOM     50  H16 1N1 d   1       6.796  39.726  36.232  0.00  0.00     0.079 H 
ATOM     51  H17 1N1 d   1       6.778  40.157  37.975  0.00  0.00     0.079 H 
BRANCH  49  52
ATOM     52  C21 1N1 d   1       6.219  38.142  37.543  0.00  0.00     0.039 C 
ATOM     53  H18 1N1 d   1       6.580  37.680  38.474  0.00  0.00     0.076 H 
ATOM     54  H19 1N1 d   1       6.325  37.427  36.714  0.00  0.00     0.076 H 
BRANCH  52  55
ATOM     55  O1  1N1 d   1       4.850  38.488  37.692  0.00  0.00    -0.399 OA
ATOM     56  H27 1N1 d   1       4.345  37.705  37.878  0.00  0.00     0.209 HD
ENDBRANCH  52  55
ENDBRANCH  49  52
ENDBRANCH  39  49
ENDBRANCH   3  34
BRANCH   4  57
ATOM     57  C15 1N1 d   1      14.581  36.313  39.625  0.00  0.00    -0.019 C 
ATOM     58  H9  1N1 d   1      13.727  36.078  40.277  0.00  0.00     0.037 H 
ATOM     59  H10 1N1 d   1      15.418  36.683  40.236  0.00  0.00     0.037 H 
ATOM     60  H11 1N1 d   1      14.893  35.405  39.088  0.00  0.00     0.037 H 
ENDBRANCH   4  57
TORSDOF 10
