REMARK  13 active torsions:
REMARK  status: ('A' for Active; 'I' for Inactive)
REMARK    1  A    between atoms: C2_2  and  C1_1 
REMARK    2  A    between atoms: C1_1  and  N1_17 
REMARK    3  A    between atoms: C3_3  and  C2_2 
REMARK    4  A    between atoms: C4_11  and  C3_3 
REMARK    5  A    between atoms: N6_4  and  O2_13 
REMARK    6  A    between atoms: C7_5  and  C6_18 
REMARK    7  A    between atoms: N2_19  and  C7_5 
REMARK    8  A    between atoms: C8_21  and  C9_6 
REMARK    9  A    between atoms: C9_6  and  N3_22 
REMARK   10  A    between atoms: C14_10  and  C13_14 
REMARK   11  A    between atoms: C5_12  and  C4_11 
REMARK   12  A    between atoms: C6_18  and  C5_12 
REMARK   13  A    between atoms: N3_22  and  O1_23 
ROOT
ATOM      1  C4  4VV d   1     -54.140  34.978  22.252  0.00  0.00    -0.065 C 
ATOM      2  H13 4VV d   1     -54.025  36.036  22.530  0.00  0.00     0.033 H 
ATOM      3  H14 4VV d   1     -54.722  34.457  23.026  0.00  0.00     0.033 H 
ENDROOT
BRANCH   1   4
ATOM      4  C3  4VV d   1     -52.760  34.329  22.126  0.00  0.00    -0.064 C 
ATOM      5  H5  4VV d   1     -52.479  34.266  21.064  0.00  0.00     0.033 H 
ATOM      6  H6  4VV d   1     -52.018  34.935  22.667  0.00  0.00     0.033 H 
BRANCH   4   7
ATOM      7  C2  4VV d   1     -52.808  32.928  22.724  0.00  0.00    -0.053 C 
ATOM      8  H3  4VV d   1     -52.439  32.966  23.760  0.00  0.00     0.034 H 
ATOM      9  H4  4VV d   1     -53.848  32.570  22.718  0.00  0.00     0.034 H 
BRANCH   7  10
ATOM     10  C1  4VV d   1     -51.943  31.961  21.922  0.00  0.00    -0.011 C 
ATOM     11  H1  4VV d   1     -51.162  32.532  21.400  0.00  0.00     0.057 H 
ATOM     12  H2  4VV d   1     -52.576  31.446  21.184  0.00  0.00     0.057 H 
BRANCH  10  13
ATOM     13  N1  4VV d   1     -51.295  30.945  22.791  0.00  0.00    -0.242 NA
ATOM     14  C12 4VV d   1     -50.523  31.497  23.749  0.00  0.00    -0.019 A 
ATOM     15  C15 4VV d   1     -50.839  30.965  24.937  0.00  0.00     0.014 A 
ATOM     16  H12 4VV d   1     -49.761  32.257  23.583  0.00  0.00     0.105 H 
ATOM     17  N5  4VV d   1     -51.831  30.101  24.743  0.00  0.00    -0.246 NA
ATOM     18  H19 4VV d   1     -50.368  31.198  25.891  0.00  0.00     0.116 H 
ATOM     19  C14 4VV d   1     -52.134  30.106  23.435  0.00  0.00     0.128 A 
BRANCH  19  20
ATOM     20  C13 4VV d   1     -53.089  29.319  22.919  0.00  0.00     0.067 C 
ATOM     21  N6  4VV d   1     -53.793  28.478  23.726  0.00  0.00    -0.145 NA
ATOM     22  H18 4VV d   1     -53.302  29.352  21.852  0.00  0.00     0.123 H 
BRANCH  21  23
ATOM     23  O2  4VV d   1     -54.919  27.560  23.063  0.00  0.00    -0.266 OA
ATOM     24  H17 4VV d   1     -55.328  27.027  23.735  0.00  0.00     0.247 HD
ENDBRANCH  21  23
ENDBRANCH  19  20
ENDBRANCH  10  13
ENDBRANCH   7  10
ENDBRANCH   4   7
ENDBRANCH   1   4
BRANCH   1  25
ATOM     25  C5  4VV d   1     -54.866  34.879  20.915  0.00  0.00    -0.064 C 
ATOM     26  H15 4VV d   1     -54.453  34.036  20.342  0.00  0.00     0.033 H 
ATOM     27  H16 4VV d   1     -54.715  35.813  20.353  0.00  0.00     0.033 H 
BRANCH  25  28
ATOM     28  C6  4VV d   1     -56.367  34.656  21.122  0.00  0.00    -0.053 C 
ATOM     29  H20 4VV d   1     -56.669  33.712  20.646  0.00  0.00     0.034 H 
ATOM     30  H21 4VV d   1     -56.589  34.611  22.198  0.00  0.00     0.034 H 
BRANCH  28  31
ATOM     31  C7  4VV d   1     -57.128  35.813  20.491  0.00  0.00    -0.011 C 
ATOM     32  H7  4VV d   1     -56.666  36.053  19.522  0.00  0.00     0.057 H 
ATOM     33  H8  4VV d   1     -57.060  36.686  21.157  0.00  0.00     0.057 H 
BRANCH  31  34
ATOM     34  N2  4VV d   1     -58.545  35.495  20.273  0.00  0.00    -0.242 NA
ATOM     35  C11 4VV d   1     -58.932  35.976  19.074  0.00  0.00    -0.019 A 
ATOM     36  C10 4VV d   1     -60.007  36.749  19.251  0.00  0.00     0.014 A 
ATOM     37  H11 4VV d   1     -58.449  35.769  18.120  0.00  0.00     0.105 H 
ATOM     38  N4  4VV d   1     -60.285  36.779  20.559  0.00  0.00    -0.246 NA
ATOM     39  H10 4VV d   1     -60.560  37.265  18.467  0.00  0.00     0.116 H 
ATOM     40  C8  4VV d   1     -59.375  36.030  21.201  0.00  0.00     0.128 A 
BRANCH  40  41
ATOM     41  C9  4VV d   1     -59.360  35.832  22.542  0.00  0.00     0.067 C 
ATOM     42  H9  4VV d   1     -58.562  35.218  22.957  0.00  0.00     0.123 H 
BRANCH  41  43
ATOM     43  N3  4VV d   1     -60.284  36.354  23.409  0.00  0.00    -0.145 NA
BRANCH  43  44
ATOM     44  O1  4VV d   1     -61.414  37.194  22.927  0.00  0.00    -0.266 OA
ATOM     45  H22 4VV d   1     -61.946  37.463  23.667  0.00  0.00     0.247 HD
ENDBRANCH  43  44
ENDBRANCH  41  43
ENDBRANCH  40  41
ENDBRANCH  31  34
ENDBRANCH  28  31
ENDBRANCH  25  28
ENDBRANCH   1  25
TORSDOF 13
