REMARK  9 active torsions:
REMARK  status: ('A' for Active; 'I' for Inactive)
REMARK    1  A    between atoms: O_30  and  C1_1 
REMARK    2  A    between atoms: C1_1  and  C_31 
REMARK    3  A    between atoms: C2_2  and  O_30 
REMARK    4  A    between atoms: N5_32  and  C4_4 
REMARK    5  A    between atoms: C7_7  and  N_29 
REMARK    6  A    between atoms: N_29  and  C8_8 
REMARK    7  A    between atoms: N4_20  and  C19_15 
REMARK    8  A    between atoms: C23_17  and  O2_34 
REMARK    9  A    between atoms: N3_26  and  C20_27 
ROOT
ATOM      1  C2  4WG d   1       4.235 -48.494  -9.711  0.00  0.00     0.098 A 
ATOM      2  C3  4WG d   1       4.308 -49.426  -8.688  0.00  0.00    -0.023 A 
ATOM      3  C4  4WG d   1       4.410 -49.010  -7.354  0.00  0.00     0.033 A 
ATOM      4  C5  4WG d   1       4.458 -47.645  -7.081  0.00  0.00    -0.055 A 
ATOM      5  C6  4WG d   1       4.409 -46.711  -8.095  0.00  0.00    -0.052 A 
ATOM      6  C7  4WG d   1       4.303 -47.111  -9.425  0.00  0.00     0.082 A 
ATOM      7  H3  4WG d   1       4.286 -50.484  -8.921  0.00  0.00     0.091 H 
ATOM      8  H4  4WG d   1       4.535 -47.310  -6.053  0.00  0.00     0.087 H 
ATOM      9  H5  4WG d   1       4.453 -45.655  -7.854  0.00  0.00     0.087 H 
ENDROOT
BRANCH   6  10
ATOM     10  N   4WG d   1       4.226 -46.168 -10.469  0.00  0.00    -0.185 N 
ATOM     11  H22 4WG d   1       4.589 -46.509 -11.371  0.00  0.00     0.184 HD
BRANCH  10  12
ATOM     12  C8  4WG d   1       3.759 -44.885 -10.506  0.00  0.00     0.729 A 
ATOM     13  N1  4WG d   1       3.806 -44.188 -11.652  0.00  0.00    -0.073 NA
ATOM     14  C9  4WG d   1       3.326 -42.937 -11.589  0.00  0.00     0.051 A 
ATOM     15  C10 4WG d   1       2.795 -42.328 -10.443  0.00  0.00     0.102 A 
ATOM     16  H16 4WG d   1       3.351 -42.348 -12.499  0.00  0.00     0.119 H 
ATOM     17  C11 4WG d   1       2.806 -43.180  -9.286  0.00  0.00     0.177 A 
ATOM     18  N4  4WG d   1       2.313 -40.988 -10.477  0.00  0.00    -0.314 N 
ATOM     19  N3  4WG d   1       2.280 -42.678  -8.037  0.00  0.00    -0.333 N 
ATOM     20  N2  4WG d   1       3.275 -44.433  -9.336  0.00  0.00    -0.042 NA
ATOM     21  C12 4WG d   1       3.101 -41.619  -7.451  0.00  0.00     0.051 A 
ATOM     22  C17 4WG d   1       3.178 -40.382  -8.124  0.00  0.00     0.059 A 
ATOM     23  C13 4WG d   1       3.797 -41.804  -6.256  0.00  0.00    -0.056 A 
ATOM     24  C16 4WG d   1       3.952 -39.360  -7.571  0.00  0.00    -0.065 A 
ATOM     25  C18 4WG d   1       2.479 -40.036  -9.407  0.00  0.00     0.260 C 
ATOM     26  C15 4WG d   1       4.635 -39.561  -6.382  0.00  0.00    -0.082 A 
ATOM     27  H7  4WG d   1       4.019 -38.403  -8.075  0.00  0.00     0.085 H 
ATOM     28  C14 4WG d   1       4.557 -40.772  -5.731  0.00  0.00    -0.081 A 
ATOM     29  H6  4WG d   1       5.234 -38.761  -5.962  0.00  0.00     0.083 H 
ATOM     30  H17 4WG d   1       5.094 -40.919  -4.801  0.00  0.00     0.083 H 
ATOM     31  O1  4WG d   1       2.017 -38.915  -9.559  0.00  0.00    -0.267 OA
ATOM     32  H18 4WG d   1       3.743 -42.755  -5.739  0.00  0.00     0.087 H 
BRANCH  19  33
ATOM     33  C20 4WG d   1       1.652 -43.649  -7.138  0.00  0.00    -0.012 C 
ATOM     34  H19 4WG d   1       1.073 -44.374  -7.729  0.00  0.00     0.057 H 
ATOM     35  H20 4WG d   1       0.981 -43.124  -6.442  0.00  0.00     0.057 H 
ATOM     36  H21 4WG d   1       2.430 -44.178  -6.568  0.00  0.00     0.057 H 
ENDBRANCH  19  33
BRANCH  18  37
ATOM     37  C19 4WG d   1       1.607 -40.532 -11.675  0.00  0.00    -0.011 C 
ATOM     38  H8  4WG d   1       1.302 -39.483 -11.544  0.00  0.00     0.057 H 
ATOM     39  H9  4WG d   1       0.715 -41.156 -11.835  0.00  0.00     0.057 H 
ATOM     40  H10 4WG d   1       2.273 -40.614 -12.547  0.00  0.00     0.057 H 
ENDBRANCH  18  37
ENDBRANCH  10  12
ENDBRANCH   6  10
BRANCH   1  41
ATOM     41  O   4WG d   1       4.152 -48.833 -11.035  0.00  0.00    -0.349 OA
BRANCH  41  42
ATOM     42  C1  4WG d   1       3.036 -49.594 -11.505  0.00  0.00     0.023 C 
ATOM     43  H1  4WG d   1       2.102 -49.039 -11.331  0.00  0.00     0.074 H 
ATOM     44  H2  4WG d   1       2.992 -50.560 -10.980  0.00  0.00     0.074 H 
BRANCH  42  45
ATOM     45  C   4WG d   1       3.230 -49.814 -12.950  0.00  0.00    -0.056 C 
ATOM     46  H23 4WG d   1       2.388 -50.398 -13.348  0.00  0.00     0.030 H 
ATOM     47  H24 4WG d   1       4.168 -50.364 -13.114  0.00  0.00     0.030 H 
ATOM     48  H25 4WG d   1       3.279 -48.843 -13.465  0.00  0.00     0.030 H 
ENDBRANCH  42  45
ENDBRANCH  41  42
ENDBRANCH   1  41
BRANCH   3  49
ATOM     49  N5  4WG d   1       4.478 -49.929  -6.313  0.00  0.00    -0.381 N 
ATOM     50  C21 4WG d   1       3.727 -51.189  -6.288  0.00  0.00    -0.003 C 
ATOM     51  C22 4WG d   1       3.139 -51.426  -4.894  0.00  0.00    -0.026 C 
ATOM     52  H11 4WG d   1       4.402 -52.019  -6.544  0.00  0.00     0.064 H 
ATOM     53  H12 4WG d   1       2.910 -51.140  -7.023  0.00  0.00     0.064 H 
ATOM     54  C23 4WG d   1       4.213 -51.358  -3.831  0.00  0.00     0.038 C 
ATOM     55  H29 4WG d   1       2.669 -52.420  -4.867  0.00  0.00     0.039 H 
ATOM     56  H30 4WG d   1       2.381 -50.656  -4.688  0.00  0.00     0.039 H 
ATOM     57  C24 4WG d   1       4.943 -50.037  -3.909  0.00  0.00    -0.026 C 
ATOM     58  H13 4WG d   1       4.933 -52.170  -4.009  0.00  0.00     0.083 H 
ATOM     59  C25 4WG d   1       5.535 -49.838  -5.300  0.00  0.00    -0.003 C 
ATOM     60  H14 4WG d   1       5.753 -50.026  -3.165  0.00  0.00     0.039 H 
ATOM     61  H15 4WG d   1       4.238 -49.220  -3.695  0.00  0.00     0.039 H 
ATOM     62  H26 4WG d   1       6.289 -50.616  -5.490  0.00  0.00     0.064 H 
ATOM     63  H27 4WG d   1       6.009 -48.847  -5.356  0.00  0.00     0.064 H 
BRANCH  54  64
ATOM     64  O2  4WG d   1       3.647 -51.527  -2.531  0.00  0.00    -0.395 OA
ATOM     65  H28 4WG d   1       3.191 -52.359  -2.491  0.00  0.00     0.210 HD
ENDBRANCH  54  64
ENDBRANCH   3  49
TORSDOF 9
