REMARK  11 active torsions:
REMARK  status: ('A' for Active; 'I' for Inactive)
REMARK    1  A    between atoms: C2_2  and  C1_1 
REMARK    2  A    between atoms: C2_2  and  C3_3 
REMARK    3  A    between atoms: N4_22  and  C2_2 
REMARK    4  A    between atoms: C5_4  and  C6_5 
REMARK    5  A    between atoms: N17_29  and  C12_7 
REMARK    6  A    between atoms: C18_10  and  N17_29 
REMARK    7  A    between atoms: C24_14  and  C21_12 
REMARK       I    between atoms: N26_32  and  C24_14 
REMARK    8  A    between atoms: C27_16  and  N26_32 
REMARK    9  A    between atoms: C28_33  and  C27_16 
REMARK   10  A    between atoms: C10_25  and  C9_24 
REMARK   11  A    between atoms: C28_33  and  N29_34 
ROOT
ATOM      1  C18 4WE d   1       2.514 -44.978 -12.033  0.00  0.00     0.049 A 
ATOM      2  C19 4WE d   1       3.327 -46.125 -11.966  0.00  0.00    -0.056 A 
ATOM      3  C21 4WE d   1       2.687 -46.504  -9.662  0.00  0.00     0.032 A 
ATOM      4  C23 4WE d   1       1.765 -44.626 -10.907  0.00  0.00    -0.056 A 
ATOM      5  C20 4WE d   1       3.411 -46.874 -10.814  0.00  0.00    -0.066 A 
ATOM      6  C22 4WE d   1       1.849 -45.376  -9.748  0.00  0.00    -0.066 A 
ATOM      7  H12 4WE d   1       3.898 -46.424 -12.838  0.00  0.00     0.087 H 
ATOM      8  H13 4WE d   1       1.114 -43.760 -10.942  0.00  0.00     0.087 H 
ATOM      9  H28 4WE d   1       4.040 -47.757 -10.792  0.00  0.00     0.085 H 
ATOM     10  H29 4WE d   1       1.256 -45.089  -8.887  0.00  0.00     0.085 H 
ENDROOT
BRANCH   1  11
ATOM     11  N17 4WE d   1       2.500 -44.321 -13.273  0.00  0.00    -0.188 N 
ATOM     12  H27 4WE d   1       2.904 -44.854 -14.056  0.00  0.00     0.184 HD
BRANCH  11  13
ATOM     13  C12 4WE d   1       2.025 -43.066 -13.599  0.00  0.00     0.727 A 
ATOM     14  N13 4WE d   1       2.054 -42.746 -14.889  0.00  0.00    -0.072 NA
ATOM     15  C14 4WE d   1       1.658 -41.549 -15.293  0.00  0.00     0.060 A 
ATOM     16  C15 4WE d   1       1.186 -40.621 -14.380  0.00  0.00     0.166 A 
ATOM     17  H26 4WE d   1       1.704 -41.294 -16.346  0.00  0.00     0.120 H 
ATOM     18  C10 4WE d   1       1.165 -40.968 -13.019  0.00  0.00     0.144 A 
ATOM     19  F16 4WE d   1       0.792 -39.414 -14.830  0.00  0.00    -0.202 F 
ATOM     20  N11 4WE d   1       1.603 -42.205 -12.691  0.00  0.00    -0.057 NA
BRANCH  18  21
ATOM     21  C9  4WE d   1       0.677 -40.051 -11.967  0.00  0.00     0.086 A 
ATOM     22  C8  4WE d   1      -0.243 -39.051 -12.138  0.00  0.00     0.032 A 
ATOM     23  N7  4WE d   1      -0.434 -38.442 -10.966  0.00  0.00    -0.245 NA
ATOM     24  H11 4WE d   1      -0.737 -38.795 -13.075  0.00  0.00     0.118 H 
ATOM     25  C5  4WE d   1       0.306 -39.017 -10.063  0.00  0.00     0.102 A 
ATOM     26  N4  4WE d   1       1.016 -40.034 -10.616  0.00  0.00    -0.328 N 
BRANCH  25  27
ATOM     27  C6  4WE d   1       0.324 -38.581  -8.620  0.00  0.00    -0.021 C 
ATOM     28  H8  4WE d   1      -0.359 -37.729  -8.486  0.00  0.00     0.037 H 
ATOM     29  H9  4WE d   1       1.345 -38.281  -8.340  0.00  0.00     0.037 H 
ATOM     30  H10 4WE d   1      -0.001 -39.415  -7.981  0.00  0.00     0.037 H 
ENDBRANCH  25  27
BRANCH  26  31
ATOM     31  C2  4WE d   1       2.009 -40.907  -9.934  0.00  0.00     0.011 C 
ATOM     32  H4  4WE d   1       2.409 -41.604 -10.685  0.00  0.00     0.072 H 
BRANCH  31  33
ATOM     33  C1  4WE d   1       3.182 -40.061  -9.414  0.00  0.00    -0.057 C 
ATOM     34  H1  4WE d   1       3.911 -40.714  -8.912  0.00  0.00     0.030 H 
ATOM     35  H2  4WE d   1       2.807 -39.313  -8.700  0.00  0.00     0.030 H 
ATOM     36  H3  4WE d   1       3.668 -39.550 -10.258  0.00  0.00     0.030 H 
ENDBRANCH  31  33
BRANCH  31  37
ATOM     37  C3  4WE d   1       1.372 -41.751  -8.830  0.00  0.00    -0.057 C 
ATOM     38  H5  4WE d   1       0.541 -42.337  -9.250  0.00  0.00     0.030 H 
ATOM     39  H6  4WE d   1       0.992 -41.091  -8.037  0.00  0.00     0.030 H 
ATOM     40  H7  4WE d   1       2.125 -42.433  -8.409  0.00  0.00     0.030 H 
ENDBRANCH  31  37
ENDBRANCH  26  31
ENDBRANCH  18  21
ENDBRANCH  11  13
ENDBRANCH   1  11
BRANCH   3  41
ATOM     41  C24 4WE d   1       2.708 -47.313  -8.408  0.00  0.00     0.251 C 
ATOM     42  O25 4WE d   1       1.884 -47.030  -7.539  0.00  0.00    -0.268 OA
ATOM     43  N26 4WE d   1       3.555 -48.372  -8.245  0.00  0.00    -0.355 N 
ATOM     44  H30 4WE d   1       4.219 -48.559  -8.969  0.00  0.00     0.162 HD
BRANCH  43  45
ATOM     45  C27 4WE d   1       3.549 -49.258  -7.064  0.00  0.00     0.018 C 
ATOM     46  H14 4WE d   1       3.582 -50.298  -7.421  0.00  0.00     0.066 H 
ATOM     47  H15 4WE d   1       2.610 -49.087  -6.518  0.00  0.00     0.066 H 
BRANCH  45  48
ATOM     48  C28 4WE d   1       4.706 -49.060  -6.084  0.00  0.00     0.098 C 
ATOM     49  H31 4WE d   1       5.651 -49.132  -6.642  0.00  0.00     0.078 H 
ATOM     50  H32 4WE d   1       4.664 -49.859  -5.329  0.00  0.00     0.078 H 
BRANCH  48  51
ATOM     51  N29 4WE d   1       4.673 -47.765  -5.392  0.00  0.00    -0.070 N 
ATOM     52  C30 4WE d   1       5.956 -47.621  -4.687  0.00  0.00     0.084 C 
ATOM     53  C31 4WE d   1       6.024 -46.259  -4.001  0.00  0.00    -0.042 C 
ATOM     54  H16 4WE d   1       6.047 -48.415  -3.931  0.00  0.00     0.076 H 
ATOM     55  H17 4WE d   1       6.781 -47.706  -5.410  0.00  0.00     0.076 H 
ATOM     56  C32 4WE d   1       4.859 -46.118  -3.026  0.00  0.00    -0.062 C 
ATOM     57  H18 4WE d   1       5.965 -45.464  -4.759  0.00  0.00     0.035 H 
ATOM     58  H19 4WE d   1       6.973 -46.173  -3.452  0.00  0.00     0.035 H 
ATOM     59  C33 4WE d   1       3.585 -46.210  -3.853  0.00  0.00    -0.042 C 
ATOM     60  H20 4WE d   1       4.909 -45.146  -2.513  0.00  0.00     0.033 H 
ATOM     61  H21 4WE d   1       4.887 -46.927  -2.282  0.00  0.00     0.033 H 
ATOM     62  C34 4WE d   1       3.532 -47.604  -4.470  0.00  0.00     0.084 C 
ATOM     63  H22 4WE d   1       3.598 -45.449  -4.647  0.00  0.00     0.035 H 
ATOM     64  H23 4WE d   1       2.708 -46.052  -3.208  0.00  0.00     0.035 H 
ATOM     65  H24 4WE d   1       2.590 -47.726  -5.024  0.00  0.00     0.076 H 
ATOM     66  H25 4WE d   1       3.591 -48.362  -3.675  0.00  0.00     0.076 H 
ATOM     67  H33 4WE d   1       4.602 -47.039  -6.087  0.00  0.00     0.279 HD
ENDBRANCH  48  51
ENDBRANCH  45  48
ENDBRANCH  43  45
ENDBRANCH   3  41
TORSDOF 11
