REMARK  8 active torsions:
REMARK  status: ('A' for Active; 'I' for Inactive)
REMARK    1  A    between atoms: C2_2  and  C1_1 
REMARK    2  A    between atoms: C2_2  and  C3_3 
REMARK    3  A    between atoms: C4_7  and  C2_2 
REMARK    4  A    between atoms: C6_4  and  C8_5 
REMARK       I    between atoms: N5_8  and  C6_4 
REMARK    5  A    between atoms: C8_5  and  C9_10 
REMARK    6  A    between atoms: C8_5  and  N10_11 
REMARK    7  A    between atoms: C4_7  and  C11_6 
REMARK       I    between atoms: C11_6  and  N13_13 
REMARK    8  A    between atoms: C4_7  and  N5_8 
ROOT
ATOM      1  C4  4WK d   1     -15.886 -18.336  -4.258  0.00  0.00     0.092 C 
ATOM      2  H9  4WK d   1     -16.981 -18.390  -4.344  0.00  0.00     0.088 H 
ENDROOT
BRANCH   1   3
ATOM      3  C2  4WK d   1     -15.486 -16.846  -4.228  0.00  0.00    -0.033 C 
ATOM      4  H4  4WK d   1     -15.777 -16.412  -5.196  0.00  0.00     0.042 H 
BRANCH   3   5
ATOM      5  C1  4WK d   1     -16.245 -16.097  -3.138  0.00  0.00    -0.071 C 
ATOM      6  H1  4WK d   1     -15.941 -15.040  -3.140  0.00  0.00     0.028 H 
ATOM      7  H2  4WK d   1     -16.016 -16.543  -2.159  0.00  0.00     0.028 H 
ATOM      8  H3  4WK d   1     -17.326 -16.168  -3.329  0.00  0.00     0.028 H 
ENDBRANCH   3   5
BRANCH   3   9
ATOM      9  C3  4WK d   1     -13.976 -16.639  -4.071  0.00  0.00    -0.071 C 
ATOM     10  H5  4WK d   1     -13.446 -17.186  -4.865  0.00  0.00     0.028 H 
ATOM     11  H6  4WK d   1     -13.654 -17.016  -3.089  0.00  0.00     0.028 H 
ATOM     12  H7  4WK d   1     -13.743 -15.567  -4.146  0.00  0.00     0.028 H 
ENDBRANCH   3   9
ENDBRANCH   1   3
BRANCH   1  13
ATOM     13  C11 4WK d   1     -15.275 -19.055  -5.451  0.00  0.00     0.238 C 
ATOM     14  O12 4WK d   1     -14.168 -19.594  -5.346  0.00  0.00    -0.271 OA
ATOM     15  N13 4WK d   1     -15.991 -19.055  -6.565  0.00  0.00    -0.368 N 
ATOM     16  H17 4WK d   1     -15.642 -19.512  -7.383  0.00  0.00     0.159 HD
ATOM     17  H18 4WK d   1     -16.880 -18.599  -6.588  0.00  0.00     0.159 HD
ENDBRANCH   1  13
BRANCH   1  18
ATOM     18  N5  4WK d   1     -15.487 -19.021  -3.040  0.00  0.00    -0.346 N 
ATOM     19  C6  4WK d   1     -16.340 -19.300  -2.054  0.00  0.00     0.248 C 
ATOM     20  O7  4WK d   1     -17.533 -18.990  -2.074  0.00  0.00    -0.271 OA
ATOM     21  H10 4WK d   1     -14.531 -19.295  -2.937  0.00  0.00     0.163 HD
BRANCH  19  22
ATOM     22  C8  4WK d   1     -15.734 -20.045  -0.868  0.00  0.00     0.172 C 
ATOM     23  H8  4WK d   1     -14.777 -19.571  -0.604  0.00  0.00     0.098 H 
BRANCH  22  24
ATOM     24  C9  4WK d   1     -15.476 -21.510  -1.187  0.00  0.00    -0.042 C 
ATOM     25  H11 4WK d   1     -15.041 -22.006  -0.307  0.00  0.00     0.030 H 
ATOM     26  H12 4WK d   1     -14.776 -21.584  -2.033  0.00  0.00     0.030 H 
ATOM     27  H13 4WK d   1     -16.424 -22.000  -1.452  0.00  0.00     0.030 H 
ENDBRANCH  22  24
BRANCH  22  28
ATOM     28  N10 4WK d   1     -16.668 -19.936   0.285  0.00  0.00    -0.067 N 
ATOM     29  H14 4WK d   1     -16.835 -18.964   0.491  0.00  0.00     0.275 HD
ATOM     30  H15 4WK d   1     -16.261 -20.385   1.091  0.00  0.00     0.275 HD
ATOM     31  H16 4WK d   1     -17.541 -20.385   0.054  0.00  0.00     0.275 HD
ENDBRANCH  22  28
ENDBRANCH  19  22
ENDBRANCH   1  18
TORSDOF 8
