REMARK  24 active torsions:
REMARK  status: ('A' for Active; 'I' for Inactive)
REMARK    1  A    between atoms: N_1  and  CA_2 
REMARK    2  A    between atoms: CA_2  and  C_3 
REMARK    3  A    between atoms: CA_2  and  CB_5 
REMARK       I    between atoms: C_3  and  N_6 
REMARK    4  A    between atoms: N_6  and  CA_7 
REMARK    5  A    between atoms: CA_7  and  C_8 
REMARK    6  A    between atoms: CA_7  and  CB_10 
REMARK       I    between atoms: C_8  and  N_17 
REMARK    7  A    between atoms: CB_10  and  CG_11 
REMARK    8  A    between atoms: CG_11  and  CD_12 
REMARK    9  A    between atoms: CD_12  and  NE_13 
REMARK       I    between atoms: NE_13  and  CZ_14 
REMARK       I    between atoms: CZ_14  and  NH1_15 
REMARK   10  A    between atoms: N_17  and  CA_18 
REMARK   11  A    between atoms: CA_18  and  C_19 
REMARK   12  A    between atoms: CA_18  and  CB_21 
REMARK       I    between atoms: C_19  and  N_24 
REMARK   13  A    between atoms: CB_21  and  OG1_22 
REMARK   14  A    between atoms: CB_21  and  CG2_23 
REMARK   15  A    between atoms: N_24  and  CA_25 
REMARK   16  A    between atoms: CA_25  and  CB_26 
REMARK   17  A    between atoms: CA_25  and  C_34 
REMARK   18  A    between atoms: CB_26  and  CG_27 
REMARK   19  A    between atoms: CG_27  and  CD_28 
REMARK   20  A    between atoms: CD_28  and  CE_29 
REMARK   21  A    between atoms: CE_29  and  CZ_30 
REMARK   22  A    between atoms: CZ_30  and  CM3_31 
REMARK   23  A    between atoms: CZ_30  and  CM2_32 
REMARK   24  A    between atoms: CZ_30  and  CM1_33 
REMARK       I    between atoms: C_34  and  N_36 
ROOT
ATOM      1  CA  THR d   1      23.148  17.708   4.833  0.00  0.00     0.113 C 
ATOM      2  H22 THR d   1      23.662  17.280   5.706  0.00  0.00     0.091 H 
ENDROOT
BRANCH   1   3
ATOM      3  N   THR d   1      21.996  16.858   4.516  0.00  0.00    -0.344 N 
ATOM      4  C   ARG d   1      21.412  16.079   5.427  0.00  0.00     0.241 C 
ATOM      5  O   ARG d   1      21.805  15.995   6.575  0.00  0.00    -0.271 OA
ATOM      6  H21 THR d   1      21.636  16.863   3.583  0.00  0.00     0.163 HD
BRANCH   4   7
ATOM      7  CA  ARG d   1      20.213  15.243   4.986  0.00  0.00     0.089 C 
ATOM      8  H9  ARG d   1      20.054  15.371   3.905  0.00  0.00     0.087 H 
BRANCH   7   9
ATOM      9  N   ARG d   1      20.534  13.849   5.268  0.00  0.00    -0.346 N 
ATOM     10  C   ALA d   1      20.760  12.969   4.301  0.00  0.00     0.248 C 
ATOM     11  O   ALA d   1      20.541  13.196   3.112  0.00  0.00    -0.271 OA
ATOM     12  H8  ARG d   1      20.585  13.547   6.220  0.00  0.00     0.163 HD
BRANCH  10  13
ATOM     13  CA  ALA d   1      21.282  11.606   4.737  0.00  0.00     0.172 C 
ATOM     14  H4  ALA d   1      20.739  11.286   5.638  0.00  0.00     0.098 H 
BRANCH  13  15
ATOM     15  N   ALA d   1      21.058  10.591   3.653  0.00  0.00    -0.067 N 
ATOM     16  H1  ALA d   1      21.408   9.695   3.954  0.00  0.00     0.275 HD
ATOM     17  H2  ALA d   1      21.545  10.878   2.818  0.00  0.00     0.275 HD
ATOM     18  H3  ALA d   1      20.072  10.519   3.459  0.00  0.00     0.275 HD
ENDBRANCH  13  15
BRANCH  13  19
ATOM     19  CB  ALA d   1      22.754  11.718   5.064  0.00  0.00    -0.042 C 
ATOM     20  H5  ALA d   1      22.897  12.465   5.859  0.00  0.00     0.030 H 
ATOM     21  H6  ALA d   1      23.307  12.028   4.165  0.00  0.00     0.030 H 
ATOM     22  H7  ALA d   1      23.129  10.742   5.406  0.00  0.00     0.030 H 
ENDBRANCH  13  19
ENDBRANCH  10  13
ENDBRANCH   7   9
BRANCH   7  23
ATOM     23  CB  ARG d   1      18.944  15.672   5.722  0.00  0.00    -0.036 C 
ATOM     24  H10 ARG d   1      19.163  15.717   6.799  0.00  0.00     0.036 H 
ATOM     25  H11 ARG d   1      18.163  14.920   5.538  0.00  0.00     0.036 H 
BRANCH  23  26
ATOM     26  CG  ARG d   1      18.419  17.034   5.277  0.00  0.00    -0.048 C 
ATOM     27  H12 ARG d   1      18.646  17.164   4.209  0.00  0.00     0.035 H 
ATOM     28  H13 ARG d   1      18.933  17.814   5.859  0.00  0.00     0.035 H 
BRANCH  26  29
ATOM     29  CD  ARG d   1      16.908  17.194   5.476  0.00  0.00     0.009 C 
ATOM     30  H14 ARG d   1      16.709  17.419   6.534  0.00  0.00     0.064 H 
ATOM     31  H15 ARG d   1      16.410  16.253   5.202  0.00  0.00     0.064 H 
BRANCH  29  32
ATOM     32  NE  ARG d   1      16.368  18.279   4.647  0.00  0.00    -0.227 N 
ATOM     33  CZ  ARG d   1      16.381  19.579   4.956  0.00  0.00     0.665 C 
ATOM     34  NH1 ARG d   1      16.903  20.024   6.105  0.00  0.00    -0.235 N 
ATOM     35  NH2 ARG d   1      15.859  20.455   4.102  0.00  0.00    -0.235 N 
ATOM     36  H17 ARG d   1      16.899  21.032   6.316  0.00  0.00     0.174 HD
ATOM     37  H18 ARG d   1      17.309  19.358   6.778  0.00  0.00     0.174 HD
ATOM     38  H19 ARG d   1      15.453  20.129   3.213  0.00  0.00     0.174 HD
ATOM     39  H20 ARG d   1      15.861  21.460   4.329  0.00  0.00     0.174 HD
ATOM     40  H16 ARG d   1      15.941  18.015   3.748  0.00  0.00     0.177 HD
ENDBRANCH  29  32
ENDBRANCH  26  29
ENDBRANCH  23  26
ENDBRANCH   7  23
ENDBRANCH   4   7
ENDBRANCH   1   3
BRANCH   1  41
ATOM     41  C   THR d   1      22.705  19.125   5.158  0.00  0.00     0.243 C 
ATOM     42  O   THR d   1      21.571  19.516   4.878  0.00  0.00    -0.271 OA
ATOM     43  N   4WQ d   1      23.652  19.890   5.711  0.00  0.00    -0.346 N 
ATOM     44  H28 4WQ d   1      24.514  19.474   6.003  0.00  0.00     0.163 HD
BRANCH  43  45
ATOM     45  CA  4WQ d   1      23.448  21.313   5.894  0.00  0.00     0.089 C 
ATOM     46  H29 4WQ d   1      22.520  21.476   6.462  0.00  0.00     0.087 H 
BRANCH  45  47
ATOM     47  CB  4WQ d   1      24.616  21.888   6.685  0.00  0.00    -0.038 C 
ATOM     48  H30 4WQ d   1      25.539  21.742   6.105  0.00  0.00     0.036 H 
ATOM     49  H31 4WQ d   1      24.694  21.348   7.640  0.00  0.00     0.036 H 
BRANCH  47  50
ATOM     50  CG  4WQ d   1      24.453  23.371   6.976  0.00  0.00    -0.063 C 
ATOM     51  H32 4WQ d   1      23.412  23.570   7.270  0.00  0.00     0.033 H 
ATOM     52  H33 4WQ d   1      24.695  23.947   6.070  0.00  0.00     0.033 H 
BRANCH  50  53
ATOM     53  CD  4WQ d   1      25.383  23.798   8.105  0.00  0.00    -0.064 C 
ATOM     54  H34 4WQ d   1      25.173  23.186   8.994  0.00  0.00     0.033 H 
ATOM     55  H35 4WQ d   1      25.201  24.858   8.338  0.00  0.00     0.033 H 
BRANCH  53  56
ATOM     56  CE  4WQ d   1      26.843  23.619   7.712  0.00  0.00    -0.059 C 
ATOM     57  H36 4WQ d   1      26.969  24.009   6.691  0.00  0.00     0.034 H 
ATOM     58  H37 4WQ d   1      27.067  22.542   7.723  0.00  0.00     0.034 H 
BRANCH  56  59
ATOM     59  CZ  4WQ d   1      27.858  24.318   8.610  0.00  0.00    -0.051 C 
BRANCH  59  60
ATOM     60  CM3 4WQ d   1      27.682  23.892  10.062  0.00  0.00    -0.070 C 
ATOM     61  H38 4WQ d   1      28.424  24.409  10.688  0.00  0.00     0.028 H 
ATOM     62  H39 4WQ d   1      27.826  22.805  10.145  0.00  0.00     0.028 H 
ATOM     63  H40 4WQ d   1      26.669  24.155  10.401  0.00  0.00     0.028 H 
ENDBRANCH  59  60
BRANCH  59  64
ATOM     64  CM2 4WQ d   1      29.253  23.924   8.103  0.00  0.00    -0.070 C 
ATOM     65  H41 4WQ d   1      29.364  24.238   7.055  0.00  0.00     0.028 H 
ATOM     66  H42 4WQ d   1      29.374  22.833   8.174  0.00  0.00     0.028 H 
ATOM     67  H43 4WQ d   1      30.020  24.419   8.717  0.00  0.00     0.028 H 
ENDBRANCH  59  64
BRANCH  59  68
ATOM     68  CM1 4WQ d   1      27.678  25.837   8.554  0.00  0.00    -0.070 C 
ATOM     69  H44 4WQ d   1      26.675  26.101   8.920  0.00  0.00     0.028 H 
ATOM     70  H45 4WQ d   1      27.792  26.182   7.516  0.00  0.00     0.028 H 
ATOM     71  H46 4WQ d   1      28.438  26.320   9.186  0.00  0.00     0.028 H 
ENDBRANCH  59  68
ENDBRANCH  56  59
ENDBRANCH  53  56
ENDBRANCH  50  53
ENDBRANCH  47  50
ENDBRANCH  45  47
BRANCH  45  72
ATOM     72  C   4WQ d   1      23.316  21.977   4.547  0.00  0.00     0.238 C 
ATOM     73  O   4WQ d   1      23.992  21.576   3.623  0.00  0.00    -0.271 OA
ATOM     74  N   GLN d   1      22.435  22.962   4.466  0.00  0.00    -0.368 N 
ATOM     75  H47 GLN d   1      22.301  23.443   3.599  0.00  0.00     0.159 HD
ATOM     76  H48 GLN d   1      21.904  23.225   5.271  0.00  0.00     0.159 HD
ENDBRANCH  45  72
ENDBRANCH  43  45
ENDBRANCH   1  41
BRANCH   1  77
ATOM     77  CB  THR d   1      24.133  17.795   3.670  0.00  0.00     0.060 C 
ATOM     78  H23 THR d   1      24.974  18.438   3.968  0.00  0.00     0.086 H 
BRANCH  77  79
ATOM     79  OG1 THR d   1      23.479  18.386   2.536  0.00  0.00    -0.393 OA
ATOM     80  H24 THR d   1      22.737  17.849   2.285  0.00  0.00     0.210 HD
ENDBRANCH  77  79
BRANCH  77  81
ATOM     81  CG2 THR d   1      24.684  16.408   3.315  0.00  0.00    -0.050 C 
ATOM     82  H25 THR d   1      25.390  16.498   2.476  0.00  0.00     0.031 H 
ATOM     83  H26 THR d   1      23.854  15.746   3.027  0.00  0.00     0.031 H 
ATOM     84  H27 THR d   1      25.203  15.986   4.188  0.00  0.00     0.031 H 
ENDBRANCH  77  81
ENDBRANCH   1  77
TORSDOF 24
