REMARK WARNING: 32 MAX_TORS EXCEEDED!!!
REMARK  34 active torsions:
REMARK  status: ('A' for Active; 'I' for Inactive)
REMARK    1  A    between atoms: N_1  and  CA_2 
REMARK    2  A    between atoms: CA_2  and  C_3 
REMARK    3  A    between atoms: CA_2  and  CB_5 
REMARK       I    between atoms: C_3  and  N_6 
REMARK    4  A    between atoms: N_6  and  CA_7 
REMARK    5  A    between atoms: CA_7  and  C_8 
REMARK    6  A    between atoms: CA_7  and  CB_10 
REMARK       I    between atoms: C_8  and  N_17 
REMARK    7  A    between atoms: CB_10  and  CG_11 
REMARK    8  A    between atoms: CG_11  and  CD_12 
REMARK    9  A    between atoms: CD_12  and  NE_13 
REMARK       I    between atoms: NE_13  and  CZ_14 
REMARK       I    between atoms: CZ_14  and  NH1_15 
REMARK   10  A    between atoms: N_17  and  CA_18 
REMARK   11  A    between atoms: CA_18  and  C_19 
REMARK   12  A    between atoms: CA_18  and  CB_21 
REMARK       I    between atoms: C_19  and  N_24 
REMARK   13  A    between atoms: CB_21  and  OG1_22 
REMARK   14  A    between atoms: CB_21  and  CG2_23 
REMARK   15  A    between atoms: N_24  and  CA_25 
REMARK   16  A    between atoms: CA_25  and  CB_26 
REMARK   17  A    between atoms: CA_25  and  C_34 
REMARK   18  A    between atoms: CB_26  and  CG_27 
REMARK   19  A    between atoms: CG_27  and  CD_28 
REMARK   20  A    between atoms: CD_28  and  CE_29 
REMARK   21  A    between atoms: CE_29  and  CZ_30 
REMARK   22  A    between atoms: CZ_30  and  CM3_31 
REMARK   23  A    between atoms: CZ_30  and  CM2_32 
REMARK   24  A    between atoms: CZ_30  and  CM1_33 
REMARK       I    between atoms: C_34  and  N_36 
REMARK   25  A    between atoms: N_36  and  CA_37 
REMARK   26  A    between atoms: CA_37  and  C_38 
REMARK   27  A    between atoms: CA_37  and  CB_40 
REMARK       I    between atoms: C_38  and  N_45 
REMARK   28  A    between atoms: CB_40  and  CG_41 
REMARK   29  A    between atoms: CG_41  and  CD_42 
REMARK       I    between atoms: CD_42  and  NE2_44 
REMARK   30  A    between atoms: N_45  and  CA_46 
REMARK   31  A    between atoms: CA_46  and  C_47 
REMARK   32  A    between atoms: CA_46  and  CB_49 
REMARK   33  A    between atoms: CB_49  and  OG1_50 
REMARK   34  A    between atoms: CB_49  and  CG2_51 
ROOT
ATOM      1  CA  4WQ d   1      12.562  -3.669  43.155  0.00  0.00     0.089 C 
ATOM      2  H29 4WQ d   1      13.626  -3.920  43.028  0.00  0.00     0.087 H 
ENDROOT
BRANCH   1   3
ATOM      3  N   4WQ d   1      12.090  -3.196  41.895  0.00  0.00    -0.346 N 
ATOM      4  C   THR d   1      12.902  -2.488  41.115  0.00  0.00     0.243 C 
ATOM      5  O   THR d   1      14.047  -2.140  41.484  0.00  0.00    -0.271 OA
ATOM      6  H28 4WQ d   1      11.155  -3.395  41.600  0.00  0.00     0.163 HD
BRANCH   4   7
ATOM      7  CA  THR d   1      12.362  -2.143  39.717  0.00  0.00     0.113 C 
ATOM      8  H22 THR d   1      11.322  -1.801  39.819  0.00  0.00     0.091 H 
BRANCH   7   9
ATOM      9  N   THR d   1      13.131  -1.072  39.092  0.00  0.00    -0.344 N 
ATOM     10  C   ARG d   1      12.570   0.011  38.552  0.00  0.00     0.241 C 
ATOM     11  O   ARG d   1      11.347   0.186  38.493  0.00  0.00    -0.271 OA
ATOM     12  H21 THR d   1      14.127  -1.154  39.067  0.00  0.00     0.163 HD
BRANCH  10  13
ATOM     13  CA  ARG d   1      13.522   1.048  37.978  0.00  0.00     0.089 C 
ATOM     14  H9  ARG d   1      14.546   0.652  38.053  0.00  0.00     0.087 H 
BRANCH  13  15
ATOM     15  N   ARG d   1      13.227   1.301  36.569  0.00  0.00    -0.346 N 
ATOM     16  C   ALA d   1      13.790   0.598  35.606  0.00  0.00     0.248 C 
ATOM     17  O   ALA d   1      14.701  -0.213  35.817  0.00  0.00    -0.271 OA
ATOM     18  H8  ARG d   1      12.581   2.026  36.329  0.00  0.00     0.163 HD
BRANCH  16  19
ATOM     19  CA  ALA d   1      13.291   0.880  34.195  0.00  0.00     0.172 C 
ATOM     20  H4  ALA d   1      13.715   1.839  33.862  0.00  0.00     0.098 H 
BRANCH  19  21
ATOM     21  N   ALA d   1      13.722  -0.178  33.254  0.00  0.00    -0.067 N 
ATOM     22  H1  ALA d   1      13.379   0.034  32.330  0.00  0.00     0.275 HD
ATOM     23  H2  ALA d   1      13.352  -1.066  33.554  0.00  0.00     0.275 HD
ATOM     24  H3  ALA d   1      14.729  -0.222  33.236  0.00  0.00     0.275 HD
ENDBRANCH  19  21
BRANCH  19  25
ATOM     25  CB  ALA d   1      11.805   0.984  34.180  0.00  0.00    -0.042 C 
ATOM     26  H5  ALA d   1      11.485   1.770  34.880  0.00  0.00     0.030 H 
ATOM     27  H6  ALA d   1      11.367   0.022  34.485  0.00  0.00     0.030 H 
ATOM     28  H7  ALA d   1      11.465   1.236  33.165  0.00  0.00     0.030 H 
ENDBRANCH  19  25
ENDBRANCH  16  19
ENDBRANCH  13  15
BRANCH  13  29
ATOM     29  CB  ARG d   1      13.453   2.353  38.763  0.00  0.00    -0.036 C 
ATOM     30  H10 ARG d   1      13.868   2.175  39.766  0.00  0.00     0.036 H 
ATOM     31  H11 ARG d   1      12.397   2.649  38.850  0.00  0.00     0.036 H 
BRANCH  29  32
ATOM     32  CG  ARG d   1      14.217   3.497  38.128  0.00  0.00    -0.048 C 
ATOM     33  H12 ARG d   1      13.940   3.570  37.066  0.00  0.00     0.035 H 
ATOM     34  H13 ARG d   1      15.296   3.301  38.212  0.00  0.00     0.035 H 
BRANCH  32  35
ATOM     35  CD  ARG d   1      13.894   4.811  38.819  0.00  0.00     0.009 C 
ATOM     36  H14 ARG d   1      14.604   5.583  38.489  0.00  0.00     0.064 H 
ATOM     37  H15 ARG d   1      13.973   4.682  39.908  0.00  0.00     0.064 H 
BRANCH  35  38
ATOM     38  NE  ARG d   1      12.545   5.216  38.476  0.00  0.00    -0.227 N 
ATOM     39  CZ  ARG d   1      11.611   5.599  39.346  0.00  0.00     0.665 C 
ATOM     40  NH1 ARG d   1      11.863   5.670  40.645  0.00  0.00    -0.235 N 
ATOM     41  NH2 ARG d   1      10.406   5.935  38.901  0.00  0.00    -0.235 N 
ATOM     42  H17 ARG d   1      11.124   5.969  41.297  0.00  0.00     0.174 HD
ATOM     43  H18 ARG d   1      12.798   5.426  41.002  0.00  0.00     0.174 HD
ATOM     44  H19 ARG d   1      10.196   5.885  37.894  0.00  0.00     0.174 HD
ATOM     45  H20 ARG d   1       9.681   6.246  39.563  0.00  0.00     0.174 HD
ATOM     46  H16 ARG d   1      12.287   5.207  37.479  0.00  0.00     0.177 HD
ENDBRANCH  35  38
ENDBRANCH  32  35
ENDBRANCH  29  32
ENDBRANCH  13  29
ENDBRANCH  10  13
ENDBRANCH   7   9
BRANCH   7  47
ATOM     47  CB  THR d   1      12.378  -3.423  38.851  0.00  0.00     0.060 C 
ATOM     48  H23 THR d   1      11.796  -4.205  39.360  0.00  0.00     0.086 H 
BRANCH  47  49
ATOM     49  OG1 THR d   1      13.726  -3.869  38.694  0.00  0.00    -0.393 OA
ATOM     50  H24 THR d   1      13.738  -4.656  38.162  0.00  0.00     0.210 HD
ENDBRANCH  47  49
BRANCH  47  51
ATOM     51  CG2 THR d   1      11.753  -3.160  37.462  0.00  0.00    -0.050 C 
ATOM     52  H25 THR d   1      11.777  -4.085  36.868  0.00  0.00     0.031 H 
ATOM     53  H26 THR d   1      12.326  -2.377  36.944  0.00  0.00     0.031 H 
ATOM     54  H27 THR d   1      10.711  -2.831  37.585  0.00  0.00     0.031 H 
ENDBRANCH  47  51
ENDBRANCH   7  47
ENDBRANCH   4   7
ENDBRANCH   1   3
BRANCH   1  55
ATOM     55  CB  4WQ d   1      12.473  -2.550  44.184  0.00  0.00    -0.038 C 
ATOM     56  H30 4WQ d   1      13.016  -1.679  43.789  0.00  0.00     0.036 H 
ATOM     57  H31 4WQ d   1      12.958  -2.896  45.109  0.00  0.00     0.036 H 
BRANCH  55  58
ATOM     58  CG  4WQ d   1      11.038  -2.103  44.533  0.00  0.00    -0.063 C 
ATOM     59  H32 4WQ d   1      10.465  -2.975  44.880  0.00  0.00     0.033 H 
ATOM     60  H33 4WQ d   1      10.563  -1.687  43.633  0.00  0.00     0.033 H 
BRANCH  58  61
ATOM     61  CD  4WQ d   1      11.043  -1.013  45.659  0.00  0.00    -0.064 C 
ATOM     62  H34 4WQ d   1      11.654  -0.162  45.324  0.00  0.00     0.033 H 
ATOM     63  H35 4WQ d   1      11.485  -1.446  46.569  0.00  0.00     0.033 H 
BRANCH  61  64
ATOM     64  CE  4WQ d   1       9.638  -0.510  45.987  0.00  0.00    -0.059 C 
ATOM     65  H36 4WQ d   1       9.056  -1.376  46.336  0.00  0.00     0.034 H 
ATOM     66  H37 4WQ d   1       9.203  -0.129  45.051  0.00  0.00     0.034 H 
BRANCH  64  67
ATOM     67  CZ  4WQ d   1       9.482   0.609  47.056  0.00  0.00    -0.051 C 
BRANCH  67  68
ATOM     68  CM3 4WQ d   1       9.934   0.153  48.382  0.00  0.00    -0.070 C 
ATOM     69  H38 4WQ d   1       9.810   0.967  49.111  0.00  0.00     0.028 H 
ATOM     70  H39 4WQ d   1      10.995  -0.134  48.329  0.00  0.00     0.028 H 
ATOM     71  H40 4WQ d   1       9.335  -0.715  48.695  0.00  0.00     0.028 H 
ENDBRANCH  67  68
BRANCH  67  72
ATOM     72  CM2 4WQ d   1      10.215   1.895  46.693  0.00  0.00    -0.070 C 
ATOM     73  H41 4WQ d   1       9.881   2.240  45.703  0.00  0.00     0.028 H 
ATOM     74  H42 4WQ d   1      11.298   1.705  46.669  0.00  0.00     0.028 H 
ATOM     75  H43 4WQ d   1       9.994   2.667  47.444  0.00  0.00     0.028 H 
ENDBRANCH  67  72
BRANCH  67  76
ATOM     76  CM1 4WQ d   1       8.009   0.930  47.214  0.00  0.00    -0.070 C 
ATOM     77  H44 4WQ d   1       7.460   0.014  47.477  0.00  0.00     0.028 H 
ATOM     78  H45 4WQ d   1       7.618   1.333  46.268  0.00  0.00     0.028 H 
ATOM     79  H46 4WQ d   1       7.880   1.676  48.012  0.00  0.00     0.028 H 
ENDBRANCH  67  76
ENDBRANCH  64  67
ENDBRANCH  61  64
ENDBRANCH  58  61
ENDBRANCH  55  58
ENDBRANCH   1  55
BRANCH   1  80
ATOM     80  C   4WQ d   1      11.862  -4.948  43.647  0.00  0.00     0.241 C 
ATOM     81  O   4WQ d   1      10.869  -5.409  43.125  0.00  0.00    -0.271 OA
ATOM     82  N   GLN d   1      12.570  -5.595  44.585  0.00  0.00    -0.346 N 
ATOM     83  H47 GLN d   1      13.465  -5.222  44.831  0.00  0.00     0.163 HD
BRANCH  82  84
ATOM     84  CA  GLN d   1      12.120  -6.822  45.281  0.00  0.00     0.090 C 
ATOM     85  H48 GLN d   1      11.021  -6.829  45.325  0.00  0.00     0.087 H 
BRANCH  84  86
ATOM     86  C   GLN d   1      12.697  -6.824  46.698  0.00  0.00     0.241 C 
ATOM     87  O   GLN d   1      13.695  -6.170  46.943  0.00  0.00    -0.271 OA
ATOM     88  N   THR d   1      12.114  -7.596  47.602  0.00  0.00    -0.343 N 
ATOM     89  H55 THR d   1      11.238  -8.031  47.394  0.00  0.00     0.163 HD
BRANCH  88  90
ATOM     90  CA  THR d   1      12.742  -7.814  48.896  0.00  0.00     0.120 C 
ATOM     91  H56 THR d   1      13.126  -6.850  49.260  0.00  0.00     0.093 H 
BRANCH  90  92
ATOM     92  C   THR d   1      13.925  -8.781  48.747  0.00  0.00     0.199 C 
ATOM     93  O   THR d   1      15.005  -8.534  49.315  0.00  0.00    -0.646 OA
ATOM     94  OXT THR d   1      13.803  -9.811  48.058  0.00  0.00    -0.646 OA
ENDBRANCH  90  92
BRANCH  90  95
ATOM     95  CB  THR d   1      11.727  -8.344  49.925  0.00  0.00     0.061 C 
ATOM     96  H57 THR d   1      11.087  -9.099  49.445  0.00  0.00     0.086 H 
BRANCH  95  97
ATOM     97  OG1 THR d   1      10.929  -7.249  50.384  0.00  0.00    -0.393 OA
ATOM     98  H58 THR d   1      10.298  -7.564  51.020  0.00  0.00     0.210 HD
ENDBRANCH  95  97
BRANCH  95  99
ATOM     99  CG2 THR d   1      12.410  -8.959  51.125  0.00  0.00    -0.050 C 
ATOM    100  H59 THR d   1      11.650  -9.323  51.832  0.00  0.00     0.031 H 
ATOM    101  H60 THR d   1      13.037  -8.202  51.618  0.00  0.00     0.031 H 
ATOM    102  H61 THR d   1      13.040  -9.800  50.798  0.00  0.00     0.031 H 
ENDBRANCH  95  99
ENDBRANCH  90  95
ENDBRANCH  88  90
ENDBRANCH  84  86
BRANCH  84 103
ATOM    103  CB  GLN d   1      12.600  -8.078  44.574  0.00  0.00    -0.030 C 
ATOM    104  H49 GLN d   1      11.786  -8.817  44.597  0.00  0.00     0.037 H 
ATOM    105  H50 GLN d   1      13.467  -8.471  45.124  0.00  0.00     0.037 H 
BRANCH 103 106
ATOM    106  CG  GLN d   1      13.003  -7.877  43.156  0.00  0.00     0.011 C 
ATOM    107  H51 GLN d   1      13.806  -7.127  43.119  0.00  0.00     0.047 H 
ATOM    108  H52 GLN d   1      12.134  -7.512  42.589  0.00  0.00     0.047 H 
BRANCH 106 109
ATOM    109  CD  GLN d   1      13.501  -9.158  42.516  0.00  0.00     0.215 C 
ATOM    110  OE1 GLN d   1      13.960 -10.078  43.210  0.00  0.00    -0.274 OA
ATOM    111  NE2 GLN d   1      13.405  -9.230  41.179  0.00  0.00    -0.370 N 
ATOM    112  H53 GLN d   1      13.717 -10.050  40.699  0.00  0.00     0.159 HD
ATOM    113  H54 GLN d   1      13.021  -8.464  40.663  0.00  0.00     0.159 HD
ENDBRANCH 106 109
ENDBRANCH 103 106
ENDBRANCH  84 103
ENDBRANCH  82  84
ENDBRANCH   1  80
TORSDOF 34
