REMARK  12 active torsions:
REMARK  status: ('A' for Active; 'I' for Inactive)
REMARK    1  A    between atoms: C30_6  and  C29_7 
REMARK    2  A    between atoms: C29_7  and  C26_8 
REMARK    3  A    between atoms: C26_8  and  C27_9 
REMARK    4  A    between atoms: C26_8  and  N24_11 
REMARK    5  A    between atoms: C27_9  and  O28_10 
REMARK       I    between atoms: N24_11  and  C23_12 
REMARK    6  A    between atoms: C23_12  and  C15_14 
REMARK    7  A    between atoms: C15_14  and  C16_15 
REMARK    8  A    between atoms: C15_14  and  N13_22 
REMARK    9  A    between atoms: C16_15  and  C17_16 
REMARK       I    between atoms: N13_22  and  C12_23 
REMARK   10  A    between atoms: C12_23  and  O11_25 
REMARK   11  A    between atoms: O11_25  and  C10_26 
REMARK   12  A    between atoms: C10_26  and  C1_27 
ROOT
ATOM      1  C15 GHX d   1      24.572  -8.736  37.239  0.00  0.00     0.095 C 
ATOM      2  H14 GHX d   1      23.509  -8.466  37.323  0.00  0.00     0.088 H 
ENDROOT
BRANCH   1   3
ATOM      3  C23 GHX d   1      24.749  -9.636  36.074  0.00  0.00     0.241 C 
ATOM      4  N24 GHX d   1      23.781  -9.574  35.130  0.00  0.00    -0.353 N 
ATOM      5  H13 GHX d   1      22.994  -8.972  35.261  0.00  0.00     0.163 HD
ATOM      6  O25 GHX d   1      25.717 -10.372  36.004  0.00  0.00    -0.271 OA
BRANCH   4   7
ATOM      7  C26 GHX d   1      23.886 -10.392  33.911  0.00  0.00     0.033 C 
ATOM      8  H9  GHX d   1      24.920 -10.757  33.826  0.00  0.00     0.075 H 
BRANCH   7   9
ATOM      9  C29 GHX d   1      22.984 -11.596  33.975  0.00  0.00    -0.033 C 
ATOM     10  H7  GHX d   1      21.945 -11.237  34.014  0.00  0.00     0.037 H 
ATOM     11  H8  GHX d   1      23.136 -12.180  33.056  0.00  0.00     0.037 H 
BRANCH   9  12
ATOM     12  C30 GHX d   1      23.204 -12.540  35.178  0.00  0.00     0.027 C 
ATOM     13  C34 GHX d   1      22.230 -13.657  35.068  0.00  0.00     0.221 C 
ATOM     14  O1  GHX d   1      21.061 -13.438  34.787  0.00  0.00    -0.273 OA
ATOM     15  N33 GHX d   1      22.764 -14.795  35.333  0.00  0.00    -0.361 N 
ATOM     16  C32 GHX d   1      24.193 -14.745  35.608  0.00  0.00    -0.004 C 
ATOM     17  H1  GHX d   1      22.240 -15.647  35.349  0.00  0.00     0.162 HD
ATOM     18  C31 GHX d   1      24.544 -13.280  35.222  0.00  0.00    -0.039 C 
ATOM     19  H2  GHX d   1      24.745 -15.466  34.987  0.00  0.00     0.064 H 
ATOM     20  H3  GHX d   1      24.403 -14.940  36.670  0.00  0.00     0.064 H 
ATOM     21  H4  GHX d   1      25.034 -13.248  34.238  0.00  0.00     0.036 H 
ATOM     22  H5  GHX d   1      25.207 -12.831  35.976  0.00  0.00     0.036 H 
ATOM     23  H6  GHX d   1      23.062 -11.969  36.107  0.00  0.00     0.054 H 
ENDBRANCH   9  12
ENDBRANCH   7   9
BRANCH   7  24
ATOM     24  C27 GHX d   1      23.592  -9.488  32.689  0.00  0.00     0.035 C 
ATOM     25  H10 GHX d   1      22.592  -9.032  32.740  0.00  0.00     0.077 H 
ATOM     26  H11 GHX d   1      23.701 -10.028  31.737  0.00  0.00     0.077 H 
BRANCH  24  27
ATOM     27  O28 GHX d   1      24.611  -8.550  32.884  0.00  0.00    -0.399 OA
ATOM     28  H12 GHX d   1      24.495  -8.129  33.728  0.00  0.00     0.209 HD
ENDBRANCH  24  27
ENDBRANCH   7  24
ENDBRANCH   4   7
ENDBRANCH   1   3
BRANCH   1  29
ATOM     29  C16 GHX d   1      25.413  -7.476  36.964  0.00  0.00    -0.014 C 
ATOM     30  H15 GHX d   1      25.187  -7.152  35.938  0.00  0.00     0.043 H 
ATOM     31  H16 GHX d   1      26.471  -7.770  37.032  0.00  0.00     0.043 H 
BRANCH  29  32
ATOM     32  C17 GHX d   1      25.223  -6.274  37.866  0.00  0.00    -0.056 A 
ATOM     33  C22 GHX d   1      26.340  -5.657  38.405  0.00  0.00    -0.077 A 
ATOM     34  C21 GHX d   1      26.217  -4.547  39.218  0.00  0.00    -0.082 A 
ATOM     35  H17 GHX d   1      27.326  -6.051  38.185  0.00  0.00     0.084 H 
ATOM     36  C20 GHX d   1      24.966  -4.027  39.519  0.00  0.00    -0.083 A 
ATOM     37  H18 GHX d   1      27.106  -4.078  39.624  0.00  0.00     0.083 H 
ATOM     38  C19 GHX d   1      23.842  -4.618  38.968  0.00  0.00    -0.082 A 
ATOM     39  H19 GHX d   1      24.870  -3.170  40.176  0.00  0.00     0.083 H 
ATOM     40  C18 GHX d   1      23.977  -5.739  38.116  0.00  0.00    -0.077 A 
ATOM     41  H20 GHX d   1      22.858  -4.221  39.190  0.00  0.00     0.083 H 
ATOM     42  H21 GHX d   1      23.098  -6.179  37.658  0.00  0.00     0.084 H 
ENDBRANCH  29  32
ENDBRANCH   1  29
BRANCH   1  43
ATOM     43  N13 GHX d   1      25.004  -9.324  38.503  0.00  0.00    -0.323 N 
ATOM     44  C12 GHX d   1      24.431 -10.429  38.940  0.00  0.00     0.361 C 
ATOM     45  O14 GHX d   1      23.554 -11.044  38.330  0.00  0.00    -0.238 OA
ATOM     46  H22 GHX d   1      25.731  -8.891  39.036  0.00  0.00     0.165 HD
BRANCH  44  47
ATOM     47  O11 GHX d   1      24.902 -10.976  40.228  0.00  0.00    -0.299 OA
BRANCH  47  48
ATOM     48  C10 GHX d   1      24.435 -12.288  40.615  0.00  0.00     0.054 C 
ATOM     49  H23 GHX d   1      25.258 -12.829  41.105  0.00  0.00     0.082 H 
ATOM     50  H24 GHX d   1      24.122 -12.835  39.713  0.00  0.00     0.082 H 
BRANCH  48  51
ATOM     51  C1  GHX d   1      23.246 -12.207  41.586  0.00  0.00    -0.034 A 
ATOM     52  C6  GHX d   1      22.038 -11.637  41.213  0.00  0.00    -0.075 A 
ATOM     53  C5  GHX d   1      20.949 -11.555  42.092  0.00  0.00    -0.082 A 
ATOM     54  H25 GHX d   1      21.932 -11.242  40.209  0.00  0.00     0.084 H 
ATOM     55  C4  GHX d   1      21.049 -12.045  43.389  0.00  0.00    -0.083 A 
ATOM     56  H26 GHX d   1      20.021 -11.106  41.757  0.00  0.00     0.083 H 
ATOM     57  C3  GHX d   1      22.249 -12.645  43.769  0.00  0.00    -0.082 A 
ATOM     58  H27 GHX d   1      20.220 -11.963  44.083  0.00  0.00     0.083 H 
ATOM     59  C2  GHX d   1      23.336 -12.719  42.885  0.00  0.00    -0.075 A 
ATOM     60  H28 GHX d   1      22.344 -13.062  44.765  0.00  0.00     0.083 H 
ATOM     61  H29 GHX d   1      24.260 -13.180  43.214  0.00  0.00     0.084 H 
ENDBRANCH  48  51
ENDBRANCH  47  48
ENDBRANCH  44  47
ENDBRANCH   1  43
TORSDOF 12
