REMARK  14 active torsions:
REMARK  status: ('A' for Active; 'I' for Inactive)
REMARK    1  A    between atoms: C23_2  and  C15_3 
REMARK       I    between atoms: C23_2  and  N24_18 
REMARK    2  A    between atoms: C15_3  and  C16_4 
REMARK    3  A    between atoms: C15_3  and  N13_11 
REMARK    4  A    between atoms: C16_4  and  C17_5 
REMARK       I    between atoms: N13_11  and  C12_12 
REMARK    5  A    between atoms: C12_12  and  O11_13 
REMARK    6  A    between atoms: O11_13  and  C10_14 
REMARK    7  A    between atoms: C10_14  and  C1_15 
REMARK    8  A    between atoms: C10_14  and  C5_16 
REMARK    9  A    between atoms: N24_18  and  C26_19 
REMARK   10  A    between atoms: C26_19  and  C27_20 
REMARK   11  A    between atoms: C26_19  and  C29_22 
REMARK   12  A    between atoms: C27_20  and  O28_21 
REMARK   13  A    between atoms: C29_22  and  C30_23 
REMARK   14  A    between atoms: C34_27  and  O1_28 
ROOT
ATOM      1  C15 GHY d   1       7.669   7.309  -1.183  0.00  0.00     0.095 C 
ATOM      2  H1  GHY d   1       8.084   8.325  -1.113  0.00  0.00     0.088 H 
ENDROOT
BRANCH   1   3
ATOM      3  C23 GHY d   1       7.086   7.061  -2.531  0.00  0.00     0.241 C 
ATOM      4  O25 GHY d   1       6.686   5.965  -2.851  0.00  0.00    -0.271 OA
ATOM      5  N24 GHY d   1       6.945   8.019  -3.331  0.00  0.00    -0.353 N 
ATOM      6  H17 GHY d   1       7.247   8.944  -3.100  0.00  0.00     0.163 HD
BRANCH   5   7
ATOM      7  C26 GHY d   1       6.318   7.716  -4.618  0.00  0.00     0.033 C 
ATOM      8  H18 GHY d   1       6.055   6.651  -4.692  0.00  0.00     0.075 H 
BRANCH   7   9
ATOM      9  C27 GHY d   1       7.360   8.060  -5.731  0.00  0.00     0.035 C 
ATOM     10  H19 GHY d   1       7.465   9.150  -5.840  0.00  0.00     0.077 H 
ATOM     11  H20 GHY d   1       7.056   7.623  -6.694  0.00  0.00     0.077 H 
BRANCH   9  12
ATOM     12  O28 GHY d   1       8.486   7.527  -5.317  0.00  0.00    -0.399 OA
ATOM     13  H21 GHY d   1       8.727   7.908  -4.481  0.00  0.00     0.209 HD
ENDBRANCH   9  12
ENDBRANCH   7   9
BRANCH   7  14
ATOM     14  C29 GHY d   1       5.018   8.574  -4.626  0.00  0.00    -0.037 C 
ATOM     15  H22 GHY d   1       4.454   8.270  -5.520  0.00  0.00     0.036 H 
ATOM     16  H23 GHY d   1       5.340   9.620  -4.734  0.00  0.00     0.036 H 
BRANCH  14  17
ATOM     17  C30 GHY d   1       4.009   8.550  -3.448  0.00  0.00    -0.001 C 
ATOM     18  C31 GHY d   1       3.066   7.346  -3.366  0.00  0.00    -0.035 C 
ATOM     19  C32 GHY d   1       1.672   7.850  -2.932  0.00  0.00     0.085 C 
ATOM     20  H25 GHY d   1       3.447   6.625  -2.628  0.00  0.00     0.036 H 
ATOM     21  H26 GHY d   1       2.996   6.861  -4.351  0.00  0.00     0.036 H 
ATOM     22  N33 GHY d   1       1.880   9.284  -2.987  0.00  0.00    -0.049 N 
ATOM     23  H27 GHY d   1       1.418   7.515  -1.915  0.00  0.00     0.075 H 
ATOM     24  H28 GHY d   1       0.887   7.527  -3.632  0.00  0.00     0.075 H 
ATOM     25  C34 GHY d   1       2.960   9.639  -3.555  0.00  0.00     0.193 C 
ATOM     26  H29 GHY d   1       1.890   9.637  -2.043  0.00  0.00     0.280 HD
ATOM     27  H30 GHY d   1       1.110   9.695  -3.491  0.00  0.00     0.280 HD
ATOM     28  H31 GHY d   1       3.339  10.145  -2.655  0.00  0.00     0.129 H 
ATOM     29  H24 GHY d   1       4.586   8.645  -2.516  0.00  0.00     0.046 H 
BRANCH  25  30
ATOM     30  O1  GHY d   1       3.047  10.791  -4.236  0.00  0.00    -0.369 OA
ATOM     31  H32 GHY d   1       2.859  11.517  -3.653  0.00  0.00     0.212 HD
ENDBRANCH  25  30
ENDBRANCH  14  17
ENDBRANCH   7  14
ENDBRANCH   5   7
ENDBRANCH   1   3
BRANCH   1  32
ATOM     32  C16 GHY d   1       8.823   6.303  -1.026  0.00  0.00    -0.014 C 
ATOM     33  H2  GHY d   1       9.116   5.979  -2.035  0.00  0.00     0.043 H 
ATOM     34  H3  GHY d   1       8.434   5.442  -0.462  0.00  0.00     0.043 H 
BRANCH  32  35
ATOM     35  C17 GHY d   1      10.090   6.781  -0.314  0.00  0.00    -0.056 A 
ATOM     36  C22 GHY d   1      11.094   5.831  -0.105  0.00  0.00    -0.077 A 
ATOM     37  C21 GHY d   1      12.279   6.175   0.558  0.00  0.00    -0.082 A 
ATOM     38  H4  GHY d   1      10.954   4.816  -0.460  0.00  0.00     0.084 H 
ATOM     39  C20 GHY d   1      12.473   7.483   1.021  0.00  0.00    -0.083 A 
ATOM     40  H5  GHY d   1      13.048   5.427   0.713  0.00  0.00     0.083 H 
ATOM     41  C19 GHY d   1      11.485   8.444   0.820  0.00  0.00    -0.082 A 
ATOM     42  H6  GHY d   1      13.390   7.747   1.535  0.00  0.00     0.083 H 
ATOM     43  C18 GHY d   1      10.311   8.096   0.153  0.00  0.00    -0.077 A 
ATOM     44  H7  GHY d   1      11.628   9.457   1.180  0.00  0.00     0.083 H 
ATOM     45  H8  GHY d   1       9.551   8.851  -0.011  0.00  0.00     0.084 H 
ENDBRANCH  32  35
ENDBRANCH   1  32
BRANCH   1  46
ATOM     46  N13 GHY d   1       6.516   7.201  -0.242  0.00  0.00    -0.323 N 
ATOM     47  C12 GHY d   1       5.859   6.119   0.200  0.00  0.00     0.361 C 
ATOM     48  O14 GHY d   1       6.146   4.973  -0.122  0.00  0.00    -0.238 OA
ATOM     49  H9  GHY d   1       6.181   8.073   0.115  0.00  0.00     0.165 HD
BRANCH  47  50
ATOM     50  O11 GHY d   1       4.724   6.356   1.108  0.00  0.00    -0.299 OA
BRANCH  50  51
ATOM     51  C10 GHY d   1       4.681   5.599   2.328  0.00  0.00     0.043 C 
ATOM     52  H10 GHY d   1       5.670   5.643   2.808  0.00  0.00     0.083 H 
BRANCH  51  53
ATOM     53  C1  GHY d   1       4.354   4.131   2.035  0.00  0.00    -0.052 C 
ATOM     54  H11 GHY d   1       4.325   3.566   2.979  0.00  0.00     0.030 H 
ATOM     55  H12 GHY d   1       5.128   3.707   1.378  0.00  0.00     0.030 H 
ATOM     56  H13 GHY d   1       3.375   4.066   1.538  0.00  0.00     0.030 H 
ENDBRANCH  51  53
BRANCH  51  57
ATOM     57  C5  GHY d   1       3.652   6.235   3.271  0.00  0.00    -0.052 C 
ATOM     58  H14 GHY d   1       3.611   5.662   4.209  0.00  0.00     0.030 H 
ATOM     59  H15 GHY d   1       2.662   6.226   2.793  0.00  0.00     0.030 H 
ATOM     60  H16 GHY d   1       3.945   7.273   3.487  0.00  0.00     0.030 H 
ENDBRANCH  51  57
ENDBRANCH  50  51
ENDBRANCH  47  50
ENDBRANCH   1  46
TORSDOF 14
