REMARK  14 active torsions:
REMARK  status: ('A' for Active; 'I' for Inactive)
REMARK    1  A    between atoms: C23_2  and  C15_3 
REMARK       I    between atoms: C23_2  and  N24_17 
REMARK    2  A    between atoms: C15_3  and  C16_4 
REMARK    3  A    between atoms: C15_3  and  N13_11 
REMARK    4  A    between atoms: C16_4  and  C17_5 
REMARK       I    between atoms: N13_11  and  C12_12 
REMARK    5  A    between atoms: C12_12  and  O11_13 
REMARK    6  A    between atoms: O11_13  and  C10_14 
REMARK    7  A    between atoms: C10_14  and  C1_15 
REMARK    8  A    between atoms: C1_15  and  C2_28 
REMARK    9  A    between atoms: C1_15  and  C3_29 
REMARK   10  A    between atoms: N24_17  and  C26_18 
REMARK   11  A    between atoms: C26_18  and  C27_19 
REMARK   12  A    between atoms: C26_18  and  C29_21 
REMARK   13  A    between atoms: C27_19  and  O28_20 
REMARK   14  A    between atoms: C29_21  and  C30_22 
ROOT
ATOM      1  C15 GHZ d   1      -8.002   7.125   0.712  0.00  0.00     0.095 C 
ATOM      2  H1  GHZ d   1      -8.252   8.195   0.672  0.00  0.00     0.088 H 
ENDROOT
BRANCH   1   3
ATOM      3  C23 GHZ d   1      -7.326   6.808   1.994  0.00  0.00     0.241 C 
ATOM      4  O25 GHZ d   1      -6.981   5.641   2.091  0.00  0.00    -0.271 OA
ATOM      5  N24 GHZ d   1      -7.174   7.735   2.874  0.00  0.00    -0.353 N 
ATOM      6  H13 GHZ d   1      -7.497   8.657   2.661  0.00  0.00     0.163 HD
BRANCH   5   7
ATOM      7  C26 GHZ d   1      -6.541   7.490   4.185  0.00  0.00     0.033 C 
ATOM      8  H14 GHZ d   1      -6.193   6.448   4.233  0.00  0.00     0.075 H 
BRANCH   7   9
ATOM      9  C27 GHZ d   1      -7.705   7.649   5.187  0.00  0.00     0.035 C 
ATOM     10  H15 GHZ d   1      -8.607   7.164   4.787  0.00  0.00     0.077 H 
ATOM     11  H16 GHZ d   1      -7.907   8.717   5.355  0.00  0.00     0.077 H 
BRANCH   9  12
ATOM     12  O28 GHZ d   1      -7.333   7.033   6.414  0.00  0.00    -0.399 OA
ATOM     13  H17 GHZ d   1      -8.041   7.124   7.040  0.00  0.00     0.209 HD
ENDBRANCH   9  12
ENDBRANCH   7   9
BRANCH   7  14
ATOM     14  C29 GHZ d   1      -5.289   8.381   4.377  0.00  0.00    -0.034 C 
ATOM     15  H18 GHZ d   1      -4.755   8.044   5.278  0.00  0.00     0.037 H 
ATOM     16  H19 GHZ d   1      -5.618   9.422   4.513  0.00  0.00     0.037 H 
BRANCH  14  17
ATOM     17  C30 GHZ d   1      -4.311   8.327   3.177  0.00  0.00     0.014 A 
ATOM     18  C31 GHZ d   1      -3.415   7.075   3.174  0.00  0.00    -0.040 A 
ATOM     19  C32 GHZ d   1      -1.969   7.535   3.226  0.00  0.00    -0.005 A 
ATOM     20  H21 GHZ d   1      -3.589   6.493   2.257  0.00  0.00     0.036 H 
ATOM     21  H22 GHZ d   1      -3.641   6.452   4.052  0.00  0.00     0.036 H 
ATOM     22  N33 GHZ d   1      -2.132   8.968   3.280  0.00  0.00    -0.372 N 
ATOM     23  H23 GHZ d   1      -1.415   7.226   2.327  0.00  0.00     0.064 H 
ATOM     24  H24 GHZ d   1      -1.457   7.154   4.122  0.00  0.00     0.064 H 
ATOM     25  C34 GHZ d   1      -3.300   9.427   3.279  0.00  0.00     0.155 A 
ATOM     26  H25 GHZ d   1      -1.339   9.576   3.317  0.00  0.00     0.161 HD
ATOM     27  O1  GHZ d   1      -3.578  10.729   3.353  0.00  0.00    -0.177 OA
ATOM     28  H20 GHZ d   1      -4.886   8.396   2.242  0.00  0.00     0.053 H 
ENDBRANCH  14  17
ENDBRANCH   7  14
ENDBRANCH   5   7
ENDBRANCH   1   3
BRANCH   1  29
ATOM     29  C16 GHZ d   1      -9.251   6.233   0.708  0.00  0.00    -0.014 C 
ATOM     30  H2  GHZ d   1      -9.534   6.019   1.749  0.00  0.00     0.043 H 
ATOM     31  H3  GHZ d   1      -9.010   5.292   0.192  0.00  0.00     0.043 H 
BRANCH  29  32
ATOM     32  C17 GHZ d   1     -10.421   6.878   0.013  0.00  0.00    -0.056 A 
ATOM     33  C22 GHZ d   1     -10.463   8.259  -0.193  0.00  0.00    -0.077 A 
ATOM     34  C21 GHZ d   1     -11.561   8.834  -0.843  0.00  0.00    -0.082 A 
ATOM     35  H4  GHZ d   1      -9.647   8.884   0.150  0.00  0.00     0.084 H 
ATOM     36  C20 GHZ d   1     -12.619   8.042  -1.289  0.00  0.00    -0.083 A 
ATOM     37  H5  GHZ d   1     -11.589   9.906  -1.002  0.00  0.00     0.083 H 
ATOM     38  C19 GHZ d   1     -12.579   6.662  -1.077  0.00  0.00    -0.082 A 
ATOM     39  H6  GHZ d   1     -13.464   8.493  -1.796  0.00  0.00     0.083 H 
ATOM     40  C18 GHZ d   1     -11.483   6.078  -0.426  0.00  0.00    -0.077 A 
ATOM     41  H7  GHZ d   1     -13.399   6.040  -1.417  0.00  0.00     0.083 H 
ATOM     42  H8  GHZ d   1     -11.458   5.007  -0.263  0.00  0.00     0.084 H 
ENDBRANCH  29  32
ENDBRANCH   1  29
BRANCH   1  43
ATOM     43  N13 GHZ d   1      -7.272   6.735  -0.495  0.00  0.00    -0.323 N 
ATOM     44  C12 GHZ d   1      -6.013   7.074  -0.851  0.00  0.00     0.361 C 
ATOM     45  O14 GHZ d   1      -5.267   7.794  -0.175  0.00  0.00    -0.239 OA
ATOM     46  H9  GHZ d   1      -7.765   6.146  -1.135  0.00  0.00     0.165 HD
BRANCH  44  47
ATOM     47  O11 GHZ d   1      -5.524   6.536  -2.140  0.00  0.00    -0.304 OA
BRANCH  47  48
ATOM     48  C10 GHZ d   1      -4.255   6.842  -2.757  0.00  0.00     0.033 C 
ATOM     49  H10 GHZ d   1      -3.774   5.906  -3.079  0.00  0.00     0.075 H 
ATOM     50  H11 GHZ d   1      -3.611   7.352  -2.026  0.00  0.00     0.075 H 
BRANCH  48  51
ATOM     51  C1  GHZ d   1      -4.454   7.758  -3.984  0.00  0.00    -0.040 C 
ATOM     52  H12 GHZ d   1      -5.539   7.839  -4.147  0.00  0.00     0.042 H 
BRANCH  51  53
ATOM     53  C2  GHZ d   1      -3.920   9.162  -3.711  0.00  0.00    -0.071 C 
ATOM     54  H26 GHZ d   1      -4.074   9.792  -4.599  0.00  0.00     0.028 H 
ATOM     55  H27 GHZ d   1      -2.845   9.108  -3.482  0.00  0.00     0.028 H 
ATOM     56  H28 GHZ d   1      -4.456   9.598  -2.855  0.00  0.00     0.028 H 
ENDBRANCH  51  53
BRANCH  51  57
ATOM     57  C3  GHZ d   1      -3.846   7.215  -5.282  0.00  0.00    -0.071 C 
ATOM     58  H29 GHZ d   1      -4.234   6.204  -5.474  0.00  0.00     0.028 H 
ATOM     59  H30 GHZ d   1      -2.751   7.175  -5.186  0.00  0.00     0.028 H 
ATOM     60  H31 GHZ d   1      -4.117   7.876  -6.118  0.00  0.00     0.028 H 
ENDBRANCH  51  57
ENDBRANCH  48  51
ENDBRANCH  47  48
ENDBRANCH  44  47
ENDBRANCH   1  43
TORSDOF 14
