REMARK  8 active torsions:
REMARK  status: ('A' for Active; 'I' for Inactive)
REMARK    1  A    between atoms: C11_16  and  C9_3 
REMARK       I    between atoms: C9_3  and  N21_25 
REMARK    2  A    between atoms: C18_6  and  O24_28 
REMARK    3  A    between atoms: C16_7  and  O23_29 
REMARK    4  A    between atoms: C5_19  and  C10_15 
REMARK    5  A    between atoms: N8_26  and  C17_17 
REMARK    6  A    between atoms: C1_20  and  N8_26 
REMARK    7  A    between atoms: O24_28  and  C29_21 
REMARK    8  A    between atoms: O23_29  and  C28_22 
ROOT
ATOM      1  N2  50H d   1      -1.876   0.266 -13.748  0.00  0.00    -0.225 NA
ATOM      2  C6  50H d   1      -4.007   1.343 -13.492  0.00  0.00     0.015 A 
ATOM      3  C12 50H d   1      -5.523  -0.443 -16.105  0.00  0.00     0.020 A 
ATOM      4  C14 50H d   1      -5.685   0.497 -15.112  0.00  0.00     0.003 A 
ATOM      5  C3  50H d   1      -3.633  -0.311 -15.145  0.00  0.00     0.180 A 
ATOM      6  C5  50H d   1      -2.727   1.175 -13.131  0.00  0.00     0.085 A 
ATOM      7  C1  50H d   1      -2.275  -0.471 -14.751  0.00  0.00     0.175 A 
ATOM      8  N7  50H d   1      -4.240  -0.942 -16.125  0.00  0.00    -0.238 NA
ATOM      9  N4  50H d   1      -4.464   0.561 -14.511  0.00  0.00    -0.311 N 
ATOM     10  H1  50H d   1      -4.650   2.068 -12.996  0.00  0.00     0.116 H 
ATOM     11  H9  50H d   1      -6.311  -0.753 -16.789  0.00  0.00     0.117 H 
ATOM     12  H10 50H d   1      -6.583   1.060 -14.864  0.00  0.00     0.114 H 
ENDROOT
BRANCH   7  13
ATOM     13  N8  50H d   1      -1.488  -1.399 -15.424  0.00  0.00    -0.338 N 
ATOM     14  H19 50H d   1      -1.979  -2.021 -16.082  0.00  0.00     0.167 HD
BRANCH  13  15
ATOM     15  C17 50H d   1      -0.091  -1.588 -15.310  0.00  0.00     0.036 A 
ATOM     16  C22 50H d   1       0.472  -2.622 -16.043  0.00  0.00    -0.054 A 
ATOM     17  C20 50H d   1       1.830  -2.883 -15.995  0.00  0.00    -0.046 A 
ATOM     18  H7  50H d   1      -0.165  -3.239 -16.667  0.00  0.00     0.087 H 
ATOM     19  C18 50H d   1       2.650  -2.088 -15.211  0.00  0.00     0.101 A 
ATOM     20  H3  50H d   1       2.249  -3.703 -16.567  0.00  0.00     0.087 H 
ATOM     21  C16 50H d   1       2.108  -1.052 -14.468  0.00  0.00     0.103 A 
ATOM     22  C15 50H d   1       0.744  -0.804 -14.526  0.00  0.00    -0.022 A 
ATOM     23  H8  50H d   1       0.325   0.014 -13.951  0.00  0.00     0.091 H 
BRANCH  19  24
ATOM     24  O24 50H d   1       4.031  -2.304 -15.095  0.00  0.00    -0.353 OA
BRANCH  24  25
ATOM     25  C29 50H d   1       4.603  -2.832 -16.293  0.00  0.00     0.010 C 
ATOM     26  H11 50H d   1       5.683  -2.982 -16.148  0.00  0.00     0.066 H 
ATOM     27  H12 50H d   1       4.438  -2.126 -17.120  0.00  0.00     0.066 H 
ATOM     28  H13 50H d   1       4.128  -3.795 -16.533  0.00  0.00     0.066 H 
ENDBRANCH  24  25
ENDBRANCH  19  24
BRANCH  21  29
ATOM     29  O23 50H d   1       2.997  -0.289 -13.700  0.00  0.00    -0.353 OA
BRANCH  29  30
ATOM     30  C28 50H d   1       2.305   0.584 -12.809  0.00  0.00     0.010 C 
ATOM     31  H14 50H d   1       3.034   1.165 -12.225  0.00  0.00     0.066 H 
ATOM     32  H15 50H d   1       1.678  -0.009 -12.127  0.00  0.00     0.066 H 
ATOM     33  H16 50H d   1       1.669   1.270 -13.388  0.00  0.00     0.066 H 
ENDBRANCH  29  30
ENDBRANCH  21  29
ENDBRANCH  13  15
ENDBRANCH   7  13
BRANCH   6  34
ATOM     34  C10 50H d   1      -2.172   2.029 -12.065  0.00  0.00    -0.005 A 
ATOM     35  C13 50H d   1      -2.838   3.144 -11.577  0.00  0.00    -0.056 A 
ATOM     36  C11 50H d   1      -2.250   3.909 -10.577  0.00  0.00     0.032 A 
ATOM     37  H2  50H d   1      -3.810   3.416 -11.973  0.00  0.00     0.086 H 
ATOM     38  C26 50H d   1      -1.006   3.597 -10.067  0.00  0.00    -0.068 A 
ATOM     39  C27 50H d   1      -0.345   2.490 -10.550  0.00  0.00    -0.081 A 
ATOM     40  H4  50H d   1      -0.556   4.214  -9.298  0.00  0.00     0.085 H 
ATOM     41  C25 50H d   1      -0.935   1.720 -11.536  0.00  0.00    -0.071 A 
ATOM     42  H5  50H d   1       0.631   2.224 -10.160  0.00  0.00     0.083 H 
ATOM     43  H6  50H d   1      -0.409   0.847 -11.905  0.00  0.00     0.084 H 
BRANCH  36  44
ATOM     44  C9  50H d   1      -2.926   5.104 -10.038  0.00  0.00     0.249 C 
ATOM     45  N21 50H d   1      -4.297   5.098 -10.137  0.00  0.00    -0.366 N 
ATOM     46  H17 50H d   1      -4.827   5.874  -9.793  0.00  0.00     0.159 HD
ATOM     47  H18 50H d   1      -4.765   4.318 -10.553  0.00  0.00     0.159 HD
ATOM     48  O19 50H d   1      -2.263   6.007  -9.545  0.00  0.00    -0.268 OA
ENDBRANCH  36  44
ENDBRANCH   6  34
TORSDOF 8
