REMARK  5 active torsions:
REMARK  status: ('A' for Active; 'I' for Inactive)
REMARK    1  A    between atoms: C1_9  and  C5_2 
REMARK    2  A    between atoms: C10_5  and  C9_4 
REMARK    3  A    between atoms: C11_6  and  C10_5 
REMARK    4  A    between atoms: N12_15  and  C11_6 
REMARK    5  A    between atoms: C4_11  and  C8_13 
ROOT
ATOM      1  C3  4XY d   1       4.862  12.583  43.411  0.00  0.00     0.134 A 
ATOM      2  C   4XY d   1       3.691  14.557  43.741  0.00  0.00     0.137 A 
ATOM      3  N   4XY d   1       3.747  14.919  42.454  0.00  0.00    -0.220 NA
ATOM      4  C1  4XY d   1       4.426  14.096  41.627  0.00  0.00     0.134 A 
ATOM      5  N2  4XY d   1       4.968  12.944  42.095  0.00  0.00    -0.215 NA
ATOM      6  C4  4XY d   1       4.196  13.403  44.342  0.00  0.00     0.024 A 
ATOM      7 CL   4XY d   1       2.811  15.703  44.672  0.00  0.00    -0.062 Cl
ATOM      8  N12 4XY d   1       5.414  11.447  43.898  0.00  0.00    -0.374 N 
ATOM      9  H16 4XY d   1       5.272  11.216  44.892  0.00  0.00     0.161 HD
ENDROOT
BRANCH   6  10
ATOM     10  C8  4XY d   1       4.038  13.076  45.821  0.00  0.00    -0.045 C 
ATOM     11  H13 4XY d   1       4.525  12.114  46.038  0.00  0.00     0.033 H 
ATOM     12  H14 4XY d   1       2.969  13.010  46.070  0.00  0.00     0.033 H 
ATOM     13  H15 4XY d   1       4.507  13.868  46.424  0.00  0.00     0.033 H 
ENDBRANCH   6  10
BRANCH   8  14
ATOM     14  C11 4XY d   1       6.209  10.529  43.067  0.00  0.00    -0.006 C 
ATOM     15  H9  4XY d   1       6.241   9.520  43.503  0.00  0.00     0.064 H 
ATOM     16  H10 4XY d   1       5.815  10.473  42.041  0.00  0.00     0.064 H 
BRANCH  14  17
ATOM     17  C10 4XY d   1       7.588  11.196  43.100  0.00  0.00    -0.054 C 
ATOM     18  H7  4XY d   1       7.478  12.257  42.830  0.00  0.00     0.034 H 
ATOM     19  H8  4XY d   1       7.998  11.118  44.117  0.00  0.00     0.034 H 
BRANCH  17  20
ATOM     20  C9  4XY d   1       8.556  10.532  42.122  0.00  0.00    -0.075 C 
ATOM     21  H4  4XY d   1       9.532  11.036  42.173  0.00  0.00     0.027 H 
ATOM     22  H5  4XY d   1       8.156  10.611  41.100  0.00  0.00     0.027 H 
ATOM     23  H6  4XY d   1       8.676   9.472  42.388  0.00  0.00     0.027 H 
ENDBRANCH  17  20
ENDBRANCH  14  17
ENDBRANCH   8  14
BRANCH   4  24
ATOM     24  C5  4XY d   1       4.579  14.413  40.159  0.00  0.00     0.006 A 
ATOM     25  C7  4XY d   1       4.920  15.848  39.737  0.00  0.00    -0.054 A 
ATOM     26  C6  4XY d   1       3.535  15.271  39.433  0.00  0.00    -0.054 A 
ATOM     27  H2  4XY d   1       5.633  16.026  38.919  0.00  0.00     0.034 H 
ATOM     28  H3  4XY d   1       5.033  16.633  40.499  0.00  0.00     0.034 H 
ATOM     29  H11 4XY d   1       2.654  15.642  39.977  0.00  0.00     0.034 H 
ATOM     30  H12 4XY d   1       3.253  15.034  38.396  0.00  0.00     0.034 H 
ATOM     31  H1  4XY d   1       5.040  13.558  39.643  0.00  0.00     0.052 H 
ENDBRANCH   4  24
TORSDOF 5
