REMARK  10 active torsions:
REMARK  status: ('A' for Active; 'I' for Inactive)
REMARK    1  A    between atoms: C3_1  and  N6_3 
REMARK    2  A    between atoms: C4_21  and  C5_2 
REMARK    3  A    between atoms: N6_3  and  C7_4 
REMARK    4  A    between atoms: C7_4  and  C8_22 
REMARK    5  A    between atoms: C9_5  and  C12_7 
REMARK    6  A    between atoms: C11_6  and  C13_8 
REMARK    7  A    between atoms: C14_24  and  C15_9 
REMARK    8  A    between atoms: C15_9  and  C16_25 
REMARK    9  A    between atoms: O_16  and  C1_19 
REMARK   10  A    between atoms: O_16  and  C14_24 
ROOT
ATOM      1  C3  NON d   1      -9.061  -2.436  18.330  0.00  0.00     0.137 A 
ATOM      2  C   NON d   1      -7.358  -3.722  17.350  0.00  0.00     0.140 A 
ATOM      3  N   NON d   1      -6.749  -3.929  18.521  0.00  0.00    -0.194 NA
ATOM      4 CL   NON d   1      -6.552  -4.464  16.020  0.00  0.00    -0.062 Cl
ATOM      5  C1  NON d   1      -7.362  -3.356  19.563  0.00  0.00     0.271 A 
ATOM      6  N2  NON d   1      -8.479  -2.623  19.526  0.00  0.00    -0.189 NA
ATOM      7  C4  NON d   1      -8.514  -2.987  17.185  0.00  0.00     0.024 A 
ENDROOT
BRANCH   1   8
ATOM      8  N6  NON d   1     -10.234  -1.661  18.196  0.00  0.00    -0.369 N 
ATOM      9  H4  NON d   1     -10.768  -1.606  17.317  0.00  0.00     0.161 HD
BRANCH   8  10
ATOM     10  C7  NON d   1     -10.627  -0.947  19.402  0.00  0.00     0.026 C 
ATOM     11  H5  NON d   1     -10.595  -1.672  20.229  0.00  0.00     0.072 H 
ATOM     12  H6  NON d   1     -11.662  -0.608  19.251  0.00  0.00     0.072 H 
BRANCH  10  13
ATOM     13  C8  NON d   1      -9.842   0.238  19.835  0.00  0.00     0.026 A 
ATOM     14  C11 NON d   1     -10.057   1.087  20.903  0.00  0.00     0.046 A 
ATOM     15  N10 NON d   1      -9.145   2.098  21.053  0.00  0.00    -0.250 NA
ATOM     16  C9  NON d   1      -8.228   2.030  20.115  0.00  0.00     0.072 A 
ATOM     17  S   NON d   1      -8.430   0.745  18.998  0.00  0.00    -0.076 SA
BRANCH  14  18
ATOM     18  C13 NON d   1     -11.153   1.022  21.881  0.00  0.00    -0.034 C 
ATOM     19  H10 NON d   1     -11.044   1.840  22.609  0.00  0.00     0.035 H 
ATOM     20  H11 NON d   1     -11.118   0.056  22.407  0.00  0.00     0.035 H 
ATOM     21  H12 NON d   1     -12.116   1.121  21.359  0.00  0.00     0.035 H 
ENDBRANCH  14  18
BRANCH  16  22
ATOM     22  C12 NON d   1      -7.095   2.962  19.972  0.00  0.00    -0.029 C 
ATOM     23  H7  NON d   1      -7.134   3.712  20.776  0.00  0.00     0.036 H 
ATOM     24  H8  NON d   1      -7.156   3.466  18.996  0.00  0.00     0.036 H 
ATOM     25  H9  NON d   1      -6.150   2.403  20.038  0.00  0.00     0.036 H 
ENDBRANCH  16  22
ENDBRANCH  10  13
ENDBRANCH   8  10
ENDBRANCH   1   8
BRANCH   7  26
ATOM     26  C5  NON d   1      -9.131  -2.796  15.836  0.00  0.00    -0.045 C 
ATOM     27  H1  NON d   1     -10.039  -2.183  15.932  0.00  0.00     0.033 H 
ATOM     28  H2  NON d   1      -9.394  -3.776  15.411  0.00  0.00     0.033 H 
ATOM     29  H3  NON d   1      -8.414  -2.289  15.173  0.00  0.00     0.033 H 
ENDBRANCH   7  26
BRANCH   5  30
ATOM     30  O   NON d   1      -6.838  -3.476  20.838  0.00  0.00    -0.319 OA
BRANCH  30  31
ATOM     31  C14 NON d   1      -5.779  -4.426  20.893  0.00  0.00     0.034 C 
ATOM     32  H18 NON d   1      -6.147  -5.420  20.599  0.00  0.00     0.075 H 
ATOM     33  H19 NON d   1      -4.964  -4.123  20.219  0.00  0.00     0.075 H 
BRANCH  31  34
ATOM     34  C15 NON d   1      -5.287  -4.456  22.324  0.00  0.00    -0.004 C 
ATOM     35  H13 NON d   1      -5.155  -3.423  22.680  0.00  0.00     0.045 H 
ATOM     36  H14 NON d   1      -4.322  -4.982  22.360  0.00  0.00     0.045 H 
BRANCH  34  37
ATOM     37  C16 NON d   1      -6.259  -5.159  23.217  0.00  0.00     0.036 A 
ATOM     38  N17 NON d   1      -5.960  -6.427  23.532  0.00  0.00    -0.266 NA
ATOM     39  C18 NON d   1      -6.832  -7.060  24.330  0.00  0.00     0.002 A 
ATOM     40  C19 NON d   1      -7.985  -6.496  24.833  0.00  0.00    -0.066 A 
ATOM     41  H15 NON d   1      -6.615  -8.088  24.599  0.00  0.00     0.114 H 
ATOM     42  C20 NON d   1      -8.267  -5.189  24.495  0.00  0.00    -0.080 A 
ATOM     43  H20 NON d   1      -8.650  -7.063  25.475  0.00  0.00     0.085 H 
ATOM     44  C21 NON d   1      -7.390  -4.508  23.677  0.00  0.00    -0.059 A 
ATOM     45  H16 NON d   1      -9.163  -4.705  24.866  0.00  0.00     0.083 H 
ATOM     46  H17 NON d   1      -7.584  -3.478  23.399  0.00  0.00     0.086 H 
ENDBRANCH  34  37
ENDBRANCH  31  34
ENDBRANCH  30  31
ENDBRANCH   5  30
TORSDOF 10
