REMARK  5 active torsions:
REMARK  status: ('A' for Active; 'I' for Inactive)
REMARK    1  A    between atoms: C2_2  and  C1_1 
REMARK    2  A    between atoms: C2_2  and  N4_3 
REMARK    3  A    between atoms: C8_4  and  C2_2 
REMARK       I    between atoms: N10_11  and  C8_4 
REMARK    4  A    between atoms: C11_6  and  N10_11 
REMARK    5  A    between atoms: C15_10  and  N16_12 
ROOT
ATOM      1  C8  4XF d   1     -16.278 -19.554  -2.378  0.00  0.00     0.253 C 
ATOM      2  O9  4XF d   1     -17.455 -19.280  -2.611  0.00  0.00    -0.271 OA
ATOM      3  N10 4XF d   1     -15.299 -19.520  -3.310  0.00  0.00    -0.310 N 
ATOM      4  H11 4XF d   1     -14.371 -19.622  -2.951  0.00  0.00     0.170 HD
ENDROOT
BRANCH   3   5
ATOM      5  C11 4XF d   1     -15.382 -19.364  -4.703  0.00  0.00     0.132 A 
ATOM      6  C12 4XF d   1     -16.552 -19.137  -5.425  0.00  0.00    -0.038 A 
ATOM      7  C13 4XF d   1     -16.472 -19.006  -6.792  0.00  0.00    -0.076 A 
ATOM      8  H8  4XF d   1     -17.508 -19.065  -4.919  0.00  0.00     0.089 H 
ATOM      9  C14 4XF d   1     -15.245 -19.102  -7.414  0.00  0.00    -0.039 A 
ATOM     10  H9  4XF d   1     -17.367 -18.828  -7.376  0.00  0.00     0.083 H 
ATOM     11  C15 4XF d   1     -14.083 -19.334  -6.638  0.00  0.00     0.123 A 
ATOM     12  H10 4XF d   1     -15.170 -19.000  -8.491  0.00  0.00     0.089 H 
ATOM     13  N17 4XF d   1     -14.181 -19.461  -5.285  0.00  0.00    -0.214 NA
BRANCH  11  14
ATOM     14  N16 4XF d   1     -12.876 -19.435  -7.184  0.00  0.00    -0.384 N 
ATOM     15  H12 4XF d   1     -12.053 -19.604  -6.588  0.00  0.00     0.157 HD
ATOM     16  H13 4XF d   1     -12.763 -19.344  -8.204  0.00  0.00     0.157 HD
ENDBRANCH  11  14
ENDBRANCH   3   5
BRANCH   1  17
ATOM     17  C2  4XF d   1     -15.830 -19.966  -0.977  0.00  0.00     0.173 C 
ATOM     18  H4  4XF d   1     -14.882 -19.457  -0.749  0.00  0.00     0.098 H 
BRANCH  17  19
ATOM     19  C1  4XF d   1     -15.604 -21.470  -0.885  0.00  0.00    -0.042 C 
ATOM     20  H1  4XF d   1     -14.846 -21.773  -1.623  0.00  0.00     0.030 H 
ATOM     21  H2  4XF d   1     -16.548 -21.996  -1.092  0.00  0.00     0.030 H 
ATOM     22  H3  4XF d   1     -15.255 -21.727   0.126  0.00  0.00     0.030 H 
ENDBRANCH  17  19
BRANCH  17  23
ATOM     23  N4  4XF d   1     -16.857 -19.542   0.020  0.00  0.00    -0.067 N 
ATOM     24  H5  4XF d   1     -17.000 -18.547  -0.048  0.00  0.00     0.275 HD
ATOM     25  H6  4XF d   1     -16.540 -19.773   0.948  0.00  0.00     0.275 HD
ATOM     26  H7  4XF d   1     -17.725 -20.020  -0.167  0.00  0.00     0.275 HD
ENDBRANCH  17  23
ENDBRANCH   1  17
TORSDOF 5
