REMARK  6 active torsions:
REMARK  status: ('A' for Active; 'I' for Inactive)
REMARK    1  A    between atoms: O0A_11  and  C04_9 
REMARK    2  A    between atoms: C05_10  and  O0B_19 
REMARK    3  A    between atoms: C0C_12  and  O0A_11 
REMARK    4  A    between atoms: O0B_19  and  C0D_20 
REMARK    5  A    between atoms: C0D_20  and  C0E_21 
REMARK    6  A    between atoms: C0E_21  and  N0H_22 
ROOT
ATOM      1  C10 29T d   1     497.025 -24.473  26.014  0.00  0.00    -0.033 A 
ATOM      2  C11 29T d   1     496.382 -22.803  27.404  0.00  0.00     0.005 A 
ATOM      3  C14 29T d   1     497.066 -23.986  27.350  0.00  0.00     0.062 A 
ATOM      4  C16 29T d   1     497.759 -24.700  28.404  0.00  0.00     0.101 C 
ATOM      5  C0C 29T d   1     495.858 -23.388  23.908  0.00  0.00     0.103 A 
ATOM      6  C0V 29T d   1     496.281 -23.531  25.264  0.00  0.00     0.074 A 
ATOM      7  N0W 29T d   1     495.896 -22.513  26.135  0.00  0.00    -0.329 N 
ATOM      8  C0X 29T d   1     495.154 -21.400  25.796  0.00  0.00    -0.015 A 
ATOM      9  C0Y 29T d   1     494.735 -21.225  24.526  0.00  0.00    -0.065 A 
ATOM     10  C0Z 29T d   1     495.088 -22.233  23.547  0.00  0.00    -0.047 A 
ATOM     11  N19 29T d   1     498.306 -25.276  29.243  0.00  0.00    -0.191 NA
ATOM     12  H1  29T d   1     497.477 -25.391  25.641  0.00  0.00     0.089 H 
ATOM     13  H2  29T d   1     496.242 -22.190  28.293  0.00  0.00     0.114 H 
ATOM     14  H7  29T d   1     494.906 -20.661  26.556  0.00  0.00     0.112 H 
ATOM     15  H8  29T d   1     494.149 -20.352  24.245  0.00  0.00     0.085 H 
ATOM     16  H9  29T d   1     494.762 -22.111  22.515  0.00  0.00     0.087 H 
ENDROOT
BRANCH   5  17
ATOM     17  O0A 29T d   1     496.242 -24.396  23.051  0.00  0.00    -0.306 OA
BRANCH  17  18
ATOM     18  C04 29T d   1     496.011 -24.292  21.698  0.00  0.00     0.109 A 
ATOM     19  C03 29T d   1     496.999 -23.706  20.865  0.00  0.00    -0.048 A 
ATOM     20  C02 29T d   1     496.779 -23.591  19.479  0.00  0.00    -0.080 A 
ATOM     21  H6  29T d   1     497.926 -23.346  21.297  0.00  0.00     0.087 H 
ATOM     22  C01 29T d   1     495.574 -24.059  18.914  0.00  0.00    -0.080 A 
ATOM     23  H5  29T d   1     497.536 -23.143  18.846  0.00  0.00     0.083 H 
ATOM     24  C00 29T d   1     494.586 -24.643  19.738  0.00  0.00    -0.048 A 
ATOM     25  H4  29T d   1     495.406 -23.971  17.847  0.00  0.00     0.083 H 
ATOM     26  C05 29T d   1     494.789 -24.768  21.146  0.00  0.00     0.102 A 
ATOM     27  H3  29T d   1     493.663 -25.000  19.296  0.00  0.00     0.087 H 
BRANCH  26  28
ATOM     28  O0B 29T d   1     493.885 -25.325  22.032  0.00  0.00    -0.347 OA
BRANCH  28  29
ATOM     29  C0D 29T d   1     492.551 -25.612  21.670  0.00  0.00     0.041 C 
ATOM     30  H10 29T d   1     492.535 -26.139  20.704  0.00  0.00     0.077 H 
ATOM     31  H11 29T d   1     491.981 -24.675  21.586  0.00  0.00     0.077 H 
BRANCH  29  32
ATOM     32  C0E 29T d   1     491.936 -26.488  22.737  0.00  0.00     0.024 C 
ATOM     33  H12 29T d   1     490.918 -26.750  22.413  0.00  0.00     0.068 H 
ATOM     34  H13 29T d   1     491.885 -25.902  23.666  0.00  0.00     0.068 H 
BRANCH  32  35
ATOM     35  N0H 29T d   1     492.658 -27.752  23.035  0.00  0.00    -0.308 N 
ATOM     36  C0K 29T d   1     492.693 -28.870  22.220  0.00  0.00     0.329 A 
ATOM     37  N0M 29T d   1     493.418 -29.925  22.677  0.00  0.00    -0.275 N 
ATOM     38  O0Q 29T d   1     492.120 -28.963  21.138  0.00  0.00    -0.246 OA
ATOM     39  C0N 29T d   1     494.118 -30.025  23.835  0.00  0.00     0.250 A 
ATOM     40  H14 29T d   1     493.438 -30.730  22.084  0.00  0.00     0.173 HD
ATOM     41  C0O 29T d   1     494.071 -28.832  24.681  0.00  0.00    -0.002 A 
ATOM     42  O0S 29T d   1     494.735 -31.047  24.122  0.00  0.00    -0.268 OA
ATOM     43  C0P 29T d   1     493.360 -27.748  24.274  0.00  0.00    -0.011 A 
ATOM     44  H15 29T d   1     494.603 -28.813  25.631  0.00  0.00     0.094 H 
ATOM     45  H16 29T d   1     493.326 -26.862  24.906  0.00  0.00     0.112 H 
ENDBRANCH  32  35
ENDBRANCH  29  32
ENDBRANCH  28  29
ENDBRANCH  26  28
ENDBRANCH  17  18
ENDBRANCH   5  17
TORSDOF 6
