REMARK  18 active torsions:
REMARK  status: ('A' for Active; 'I' for Inactive)
REMARK    1  A    between atoms: O11_2  and  C11_1 
REMARK    2  A    between atoms: C42_19  and  O11_2 
REMARK    3  A    between atoms: C21_3  and  N21_4 
REMARK    4  A    between atoms: C31_5  and  O31_6 
REMARK    5  A    between atoms: C41_7  and  O41_8 
REMARK    6  A    between atoms: C51_9  and  C61_11 
REMARK    7  A    between atoms: C61_11  and  O61_12 
REMARK    8  A    between atoms: C61_11  and  C71_13 
REMARK    9  A    between atoms: C12_14  and  N12_15 
REMARK   10  A    between atoms: C32_17  and  N32_18 
REMARK   11  A    between atoms: C52_20  and  O52_21 
REMARK   12  A    between atoms: C62_22  and  O62_23 
REMARK   13  A    between atoms: O62_23  and  C13_24 
REMARK   14  A    between atoms: C23_25  and  O23_26 
REMARK   15  A    between atoms: C33_27  and  N33_28 
REMARK   16  A    between atoms: N33_28  and  C93_29 
REMARK   17  A    between atoms: C43_30  and  O43_31 
REMARK   18  A    between atoms: C43_30  and  C83_32 
ROOT
ATOM      1  C12 GET d   1       1.738   6.301  34.058  0.00  0.00     0.129 C 
ATOM      2  C22 GET d   1       2.623   7.506  33.736  0.00  0.00    -0.007 C 
ATOM      3  C32 GET d   1       2.893   7.625  32.243  0.00  0.00     0.129 C 
ATOM      4  C42 GET d   1       1.580   7.535  31.428  0.00  0.00     0.096 C 
ATOM      5  C52 GET d   1       0.515   6.511  31.861  0.00  0.00     0.089 C 
ATOM      6  C62 GET d   1       0.342   6.371  33.373  0.00  0.00     0.096 C 
ATOM      7  H16 GET d   1       2.230   5.386  33.696  0.00  0.00     0.088 H 
ATOM      8  H20 GET d   1       3.582   7.395  34.264  0.00  0.00     0.039 H 
ATOM      9  H21 GET d   1       2.119   8.421  34.081  0.00  0.00     0.039 H 
ATOM     10  H22 GET d   1       3.534   6.786  31.934  0.00  0.00     0.088 H 
ATOM     11  H26 GET d   1       1.120   8.534  31.423  0.00  0.00     0.090 H 
ATOM     12  H27 GET d   1       0.815   5.530  31.463  0.00  0.00     0.091 H 
ATOM     13  H29 GET d   1      -0.166   7.267  33.760  0.00  0.00     0.090 H 
ENDROOT
BRANCH   4  14
ATOM     14  O11 GET d   1       1.924   7.131  30.100  0.00  0.00    -0.349 OA
BRANCH  14  15
ATOM     15  C11 GET d   1       0.903   7.381  29.135  0.00  0.00     0.162 C 
ATOM     16  C21 GET d   1       1.518   7.312  27.734  0.00  0.00     0.173 C 
ATOM     17  C31 GET d   1       2.233   8.611  27.352  0.00  0.00     0.094 C 
ATOM     18  H2  GET d   1       0.703   7.151  27.013  0.00  0.00     0.096 H 
ATOM     19  C41 GET d   1       1.438   9.892  27.675  0.00  0.00     0.089 C 
ATOM     20  H6  GET d   1       3.166   8.657  27.934  0.00  0.00     0.090 H 
ATOM     21  C51 GET d   1       0.888   9.883  29.111  0.00  0.00     0.093 C 
ATOM     22  H8  GET d   1       0.590   9.954  26.977  0.00  0.00     0.091 H 
ATOM     23  O51 GET d   1       0.232   8.637  29.419  0.00  0.00    -0.349 OA
ATOM     24  H10 GET d   1       1.732  10.017  29.804  0.00  0.00     0.091 H 
ATOM     25  H1  GET d   1       0.151   6.582  29.210  0.00  0.00     0.132 H 
BRANCH  16  26
ATOM     26  N21 GET d   1       2.439   6.178  27.649  0.00  0.00    -0.068 N 
ATOM     27  H3  GET d   1       2.840   6.139  26.725  0.00  0.00     0.275 HD
ATOM     28  H4  GET d   1       1.938   5.323  27.834  0.00  0.00     0.275 HD
ATOM     29  H5  GET d   1       3.174   6.290  28.329  0.00  0.00     0.275 HD
ENDBRANCH  16  26
BRANCH  17  30
ATOM     30  O31 GET d   1       2.579   8.552  25.960  0.00  0.00    -0.391 OA
ATOM     31  H7  GET d   1       3.024   9.354  25.711  0.00  0.00     0.210 HD
ENDBRANCH  17  30
BRANCH  19  32
ATOM     32  O41 GET d   1       2.272  11.065  27.500  0.00  0.00    -0.390 OA
ATOM     33  H9  GET d   1       1.768  11.844  27.703  0.00  0.00     0.210 HD
ENDBRANCH  19  32
BRANCH  21  34
ATOM     34  C61 GET d   1      -0.113  11.036  29.319  0.00  0.00     0.059 C 
ATOM     35  H11 GET d   1      -0.857  10.988  28.510  0.00  0.00     0.086 H 
BRANCH  34  36
ATOM     36  O61 GET d   1       0.591  12.284  29.225  0.00  0.00    -0.393 OA
ATOM     37  H12 GET d   1       0.992  12.356  28.367  0.00  0.00     0.210 HD
ENDBRANCH  34  36
BRANCH  34  38
ATOM     38  C71 GET d   1      -0.868  10.968  30.652  0.00  0.00    -0.050 C 
ATOM     39  H13 GET d   1      -1.560  11.820  30.726  0.00  0.00     0.031 H 
ATOM     40  H14 GET d   1      -0.149  11.007  31.483  0.00  0.00     0.031 H 
ATOM     41  H15 GET d   1      -1.438  10.028  30.703  0.00  0.00     0.031 H 
ENDBRANCH  34  38
ENDBRANCH  21  34
ENDBRANCH  14  15
ENDBRANCH   4  14
BRANCH   3  42
ATOM     42  N32 GET d   1       3.630   8.874  32.015  0.00  0.00    -0.072 N 
ATOM     43  H23 GET d   1       3.821   8.976  31.031  0.00  0.00     0.274 HD
ATOM     44  H24 GET d   1       4.499   8.850  32.526  0.00  0.00     0.274 HD
ATOM     45  H25 GET d   1       3.076   9.654  32.332  0.00  0.00     0.274 HD
ENDBRANCH   3  42
BRANCH   5  46
ATOM     46  O52 GET d   1      -0.756   6.872  31.299  0.00  0.00    -0.390 OA
ATOM     47  H28 GET d   1      -1.411   6.239  31.568  0.00  0.00     0.210 HD
ENDBRANCH   5  46
BRANCH   6  48
ATOM     48  O62 GET d   1      -0.539   5.227  33.598  0.00  0.00    -0.349 OA
BRANCH  48  49
ATOM     49  C13 GET d   1      -1.971   5.482  33.695  0.00  0.00     0.158 C 
ATOM     50  C23 GET d   1      -2.699   4.577  34.722  0.00  0.00     0.113 C 
ATOM     51  C33 GET d   1      -3.156   3.170  34.302  0.00  0.00     0.161 C 
ATOM     52  H31 GET d   1      -3.594   5.127  35.050  0.00  0.00     0.094 H 
ATOM     53  C43 GET d   1      -3.598   3.115  32.847  0.00  0.00     0.106 C 
ATOM     54  H33 GET d   1      -2.303   2.486  34.425  0.00  0.00     0.093 H 
ATOM     55  C53 GET d   1      -2.704   4.005  31.960  0.00  0.00     0.053 C 
ATOM     56  O53 GET d   1      -2.611   5.361  32.421  0.00  0.00    -0.356 OA
ATOM     57  H43 GET d   1      -3.119   4.011  30.942  0.00  0.00     0.079 H 
ATOM     58  H44 GET d   1      -1.692   3.573  31.941  0.00  0.00     0.079 H 
ATOM     59  H30 GET d   1      -2.089   6.522  34.033  0.00  0.00     0.133 H 
BRANCH  50  60
ATOM     60  O23 GET d   1      -1.831   4.373  35.832  0.00  0.00    -0.388 OA
ATOM     61  H32 GET d   1      -1.032   3.953  35.535  0.00  0.00     0.210 HD
ENDBRANCH  50  60
BRANCH  51  62
ATOM     62  N33 GET d   1      -4.250   2.710  35.168  0.00  0.00    -0.069 N 
ATOM     63  H34 GET d   1      -5.099   3.021  34.723  0.00  0.00     0.277 HD
ATOM     64  H35 GET d   1      -4.130   3.198  36.042  0.00  0.00     0.277 HD
BRANCH  62  65
ATOM     65  C93 GET d   1      -4.480   1.308  35.525  0.00  0.00     0.065 C 
ATOM     66  H36 GET d   1      -5.360   1.236  36.181  0.00  0.00     0.067 H 
ATOM     67  H37 GET d   1      -3.598   0.914  36.050  0.00  0.00     0.067 H 
ATOM     68  H38 GET d   1      -4.655   0.721  34.611  0.00  0.00     0.067 H 
ENDBRANCH  62  65
ENDBRANCH  51  62
BRANCH  53  69
ATOM     69  O43 GET d   1      -4.969   3.567  32.848  0.00  0.00    -0.386 OA
ATOM     70  H39 GET d   1      -5.306   3.555  31.960  0.00  0.00     0.210 HD
ENDBRANCH  53  69
BRANCH  53  71
ATOM     71  C83 GET d   1      -3.470   1.685  32.298  0.00  0.00    -0.044 C 
ATOM     72  H40 GET d   1      -3.794   1.665  31.247  0.00  0.00     0.031 H 
ATOM     73  H41 GET d   1      -4.103   1.007  32.889  0.00  0.00     0.031 H 
ATOM     74  H42 GET d   1      -2.422   1.359  32.365  0.00  0.00     0.031 H 
ENDBRANCH  53  71
ENDBRANCH  48  49
ENDBRANCH   6  48
BRANCH   1  75
ATOM     75  N12 GET d   1       1.694   6.266  35.512  0.00  0.00    -0.072 N 
ATOM     76  H17 GET d   1       2.633   6.221  35.876  0.00  0.00     0.274 HD
ATOM     77  H18 GET d   1       1.178   5.454  35.813  0.00  0.00     0.274 HD
ATOM     78  H19 GET d   1       1.240   7.098  35.855  0.00  0.00     0.274 HD
ENDBRANCH   1  75
TORSDOF 18
