REMARK  15 active torsions:
REMARK  status: ('A' for Active; 'I' for Inactive)
REMARK    1  A    between atoms: O11_25  and  C11_1 
REMARK    2  A    between atoms: C12_2  and  N12_20 
REMARK    3  A    between atoms: O62_31  and  C13_3 
REMARK    4  A    between atoms: C21_4  and  N21_21 
REMARK    5  A    between atoms: C23_6  and  O23_26 
REMARK    6  A    between atoms: C32_8  and  N32_22 
REMARK    7  A    between atoms: C33_9  and  N33_23 
REMARK    8  A    between atoms: C42_11  and  O11_25 
REMARK    9  A    between atoms: C43_12  and  C83_18 
REMARK   10  A    between atoms: C43_12  and  O43_27 
REMARK   11  A    between atoms: C51_13  and  C61_16 
REMARK   12  A    between atoms: C52_14  and  O52_29 
REMARK   13  A    between atoms: C61_16  and  N61_24 
REMARK   14  A    between atoms: C62_17  and  O62_31 
REMARK   15  A    between atoms: N33_23  and  C93_19 
ROOT
ATOM      1  C12 SIS d   1       0.957  -5.732 112.671  0.00  0.00     0.129 C 
ATOM      2  C22 SIS d   1       2.204  -5.836 111.825  0.00  0.00    -0.007 C 
ATOM      3  C32 SIS d   1       2.351  -7.302 111.314  0.00  0.00     0.129 C 
ATOM      4  C42 SIS d   1       1.153  -7.685 110.398  0.00  0.00     0.096 C 
ATOM      5  C52 SIS d   1      -0.209  -7.416 111.140  0.00  0.00     0.089 C 
ATOM      6  C62 SIS d   1      -0.265  -5.972 111.770  0.00  0.00     0.096 C 
ATOM      7  H2  SIS d   1       0.989  -6.541 113.415  0.00  0.00     0.088 H 
ATOM      8  H5  SIS d   1       3.083  -5.566 112.429  0.00  0.00     0.039 H 
ATOM      9  H6  SIS d   1       2.125  -5.153 110.967  0.00  0.00     0.039 H 
ATOM     10  H9  SIS d   1       2.334  -7.967 112.190  0.00  0.00     0.088 H 
ATOM     11  H12 SIS d   1       1.189  -7.066 109.490  0.00  0.00     0.090 H 
ATOM     12  H14 SIS d   1      -0.107  -8.015 112.057  0.00  0.00     0.091 H 
ATOM     13  H19 SIS d   1      -0.277  -5.227 110.961  0.00  0.00     0.090 H 
ENDROOT
BRANCH   6  14
ATOM     14  O62 SIS d   1      -1.431  -5.830 112.563  0.00  0.00    -0.349 OA
BRANCH  14  15
ATOM     15  C13 SIS d   1      -2.447  -4.961 112.050  0.00  0.00     0.158 C 
ATOM     16  C23 SIS d   1      -3.110  -4.206 113.213  0.00  0.00     0.113 C 
ATOM     17  C33 SIS d   1      -3.870  -5.151 114.185  0.00  0.00     0.161 C 
ATOM     18  H7  SIS d   1      -3.818  -3.471 112.804  0.00  0.00     0.094 H 
ATOM     19  C43 SIS d   1      -4.764  -6.207 113.389  0.00  0.00     0.106 C 
ATOM     20  H10 SIS d   1      -3.118  -5.719 114.751  0.00  0.00     0.093 H 
ATOM     21  C53 SIS d   1      -3.946  -6.846 112.240  0.00  0.00     0.053 C 
ATOM     22  O53 SIS d   1      -3.356  -5.846 111.397  0.00  0.00    -0.356 OA
ATOM     23  H15 SIS d   1      -4.613  -7.477 111.634  0.00  0.00     0.079 H 
ATOM     24  H16 SIS d   1      -3.147  -7.466 112.672  0.00  0.00     0.079 H 
ATOM     25  H3  SIS d   1      -2.028  -4.239 111.334  0.00  0.00     0.133 H 
BRANCH  16  26
ATOM     26  O23 SIS d   1      -2.083  -3.533 113.950  0.00  0.00    -0.388 OA
ATOM     27  H40 SIS d   1      -1.485  -4.174 114.315  0.00  0.00     0.210 HD
ENDBRANCH  16  26
BRANCH  17  28
ATOM     28  N33 SIS d   1      -4.670  -4.370 115.166  0.00  0.00    -0.069 N 
ATOM     29  H35 SIS d   1      -5.647  -4.457 114.934  0.00  0.00     0.277 HD
ATOM     30  H36 SIS d   1      -4.397  -3.401 115.114  0.00  0.00     0.277 HD
BRANCH  28  31
ATOM     31  C93 SIS d   1      -4.462  -4.849 116.534  0.00  0.00     0.065 C 
ATOM     32  H23 SIS d   1      -5.068  -4.249 117.229  0.00  0.00     0.067 H 
ATOM     33  H24 SIS d   1      -3.399  -4.753 116.798  0.00  0.00     0.067 H 
ATOM     34  H25 SIS d   1      -4.763  -5.905 116.603  0.00  0.00     0.067 H 
ENDBRANCH  28  31
ENDBRANCH  17  28
BRANCH  19  35
ATOM     35  C83 SIS d   1      -5.195  -7.357 114.326  0.00  0.00    -0.044 C 
ATOM     36  H20 SIS d   1      -5.782  -6.949 115.162  0.00  0.00     0.031 H 
ATOM     37  H21 SIS d   1      -4.301  -7.864 114.719  0.00  0.00     0.031 H 
ATOM     38  H22 SIS d   1      -5.808  -8.077 113.765  0.00  0.00     0.031 H 
ENDBRANCH  19  35
BRANCH  19  39
ATOM     39  O43 SIS d   1      -5.976  -5.589 112.794  0.00  0.00    -0.386 OA
ATOM     40  H41 SIS d   1      -6.496  -5.189 113.481  0.00  0.00     0.210 HD
ENDBRANCH  19  39
ENDBRANCH  14  15
ENDBRANCH   6  14
BRANCH   1  41
ATOM     41  N12 SIS d   1       0.873  -4.460 113.422  0.00  0.00    -0.072 N 
ATOM     42  H26 SIS d   1       1.696  -4.353 113.994  0.00  0.00     0.274 HD
ATOM     43  H27 SIS d   1       0.054  -4.470 114.010  0.00  0.00     0.274 HD
ATOM     44  H28 SIS d   1       0.812  -3.691 112.774  0.00  0.00     0.274 HD
ENDBRANCH   1  41
BRANCH   5  45
ATOM     45  O52 SIS d   1      -1.381  -8.168 110.460  0.00  0.00    -0.390 OA
ATOM     46  H42 SIS d   1      -1.081  -9.020 110.166  0.00  0.00     0.210 HD
ENDBRANCH   5  45
BRANCH   4  47
ATOM     47  O11 SIS d   1       1.248  -9.077 110.018  0.00  0.00    -0.349 OA
BRANCH  47  48
ATOM     48  C11 SIS d   1       0.860  -9.387 108.676  0.00  0.00     0.163 C 
ATOM     49  C21 SIS d   1       1.238 -10.858 108.314  0.00  0.00     0.163 C 
ATOM     50  C31 SIS d   1       1.386 -11.096 106.825  0.00  0.00    -0.070 C 
ATOM     51  H4  SIS d   1       0.404 -11.487 108.657  0.00  0.00     0.098 H 
ATOM     52  C41 SIS d   1       1.056  -9.983 106.024  0.00  0.00    -0.075 C 
ATOM     53  H8  SIS d   1       1.719 -12.046 106.409  0.00  0.00     0.080 H 
ATOM     54  C51 SIS d   1       1.154  -8.697 106.557  0.00  0.00     0.080 C 
ATOM     55  H11 SIS d   1       0.727 -10.126 104.996  0.00  0.00     0.080 H 
ATOM     56  O51 SIS d   1       1.550  -8.495 107.859  0.00  0.00    -0.348 OA
ATOM     57  H13 SIS d   1       0.092  -8.722 106.843  0.00  0.00     0.092 H 
ATOM     58  H1  SIS d   1      -0.225  -9.251 108.555  0.00  0.00     0.132 H 
BRANCH  49  59
ATOM     59  N21 SIS d   1       2.467 -11.326 109.030  0.00  0.00    -0.067 N 
ATOM     60  H29 SIS d   1       2.669 -12.277 108.764  0.00  0.00     0.275 HD
ATOM     61  H30 SIS d   1       2.314 -11.281 110.025  0.00  0.00     0.275 HD
ATOM     62  H31 SIS d   1       3.245 -10.735 108.782  0.00  0.00     0.275 HD
ENDBRANCH  49  59
BRANCH  54  63
ATOM     63  C61 SIS d   1       0.967  -7.565 105.807  0.00  0.00     0.106 C 
ATOM     64  H17 SIS d   1       0.370  -6.824 106.358  0.00  0.00     0.079 H 
ATOM     65  H18 SIS d   1       0.469  -7.803 104.856  0.00  0.00     0.079 H 
BRANCH  63  66
ATOM     66  N61 SIS d   1       2.355  -7.061 105.570  0.00  0.00    -0.077 N 
ATOM     67  H37 SIS d   1       2.317  -6.218 105.018  0.00  0.00     0.274 HD
ATOM     68  H38 SIS d   1       2.887  -7.761 105.078  0.00  0.00     0.274 HD
ATOM     69  H39 SIS d   1       2.796  -6.864 106.454  0.00  0.00     0.274 HD
ENDBRANCH  63  66
ENDBRANCH  54  63
ENDBRANCH  47  48
ENDBRANCH   4  47
BRANCH   3  70
ATOM     70  N32 SIS d   1       3.641  -7.511 110.613  0.00  0.00    -0.072 N 
ATOM     71  H32 SIS d   1       4.401  -7.257 111.225  0.00  0.00     0.274 HD
ATOM     72  H33 SIS d   1       3.670  -6.937 109.785  0.00  0.00     0.274 HD
ATOM     73  H34 SIS d   1       3.729  -8.481 110.353  0.00  0.00     0.274 HD
ENDBRANCH   3  70
TORSDOF 15
