REMARK  4 active torsions:
REMARK  status: ('A' for Active; 'I' for Inactive)
REMARK       I    between atoms: C8_6  and  N1_1 
REMARK    1  A    between atoms: C7_5  and  C6_4 
REMARK    2  A    between atoms: C9_14  and  C8_6 
REMARK    3  A    between atoms: C14_15  and  C15_9 
REMARK    4  A    between atoms: C1_28  and  C_29 
ROOT
ATOM      1  N1  4F1 d   1     -37.913  23.341  30.720  0.00  0.00    -0.196 N 
ATOM      2  C7  4F1 d   1     -36.823  24.811  31.912  0.00  0.00     0.100 A 
ATOM      3  C8  4F1 d   1     -38.378  22.056  30.404  0.00  0.00     0.281 C 
ATOM      4  C17 4F1 d   1     -38.746  24.858  28.841  0.00  0.00    -0.054 A 
ATOM      5  C20 4F1 d   1     -37.396  26.837  30.302  0.00  0.00    -0.068 A 
ATOM      6  C21 4F1 d   1     -37.397  25.516  30.760  0.00  0.00     0.024 A 
ATOM      7  O2  4F1 d   1     -39.039  21.850  29.402  0.00  0.00    -0.265 OA
ATOM      8  N   4F1 d   1     -37.139  23.526  31.878  0.00  0.00    -0.163 NA
ATOM      9  C16 4F1 d   1     -38.081  24.537  30.024  0.00  0.00     0.074 A 
ATOM     10  C19 4F1 d   1     -38.060  27.157  29.126  0.00  0.00    -0.082 A 
ATOM     11  C18 4F1 d   1     -38.730  26.175  28.400  0.00  0.00    -0.081 A 
ATOM     12  H4  4F1 d   1     -39.266  24.093  28.276  0.00  0.00     0.087 H 
ATOM     13  H5  4F1 d   1     -36.879  27.608  30.863  0.00  0.00     0.085 H 
ATOM     14  H8  4F1 d   1     -38.057  28.181  28.769  0.00  0.00     0.083 H 
ATOM     15  H9  4F1 d   1     -39.243  26.441  27.483  0.00  0.00     0.083 H 
ENDROOT
BRANCH   3  16
ATOM     16  C9  4F1 d   1     -37.986  20.891  31.280  0.00  0.00     0.071 A 
ATOM     17  C10 4F1 d   1     -36.700  20.361  31.196  0.00  0.00     0.050 A 
ATOM     18  C11 4F1 d   1     -36.334  19.233  31.917  0.00  0.00    -0.061 A 
ATOM     19 CL   4F1 d   1     -35.520  21.138  30.196  0.00  0.00    -0.083 Cl
ATOM     20  C12 4F1 d   1     -37.263  18.633  32.753  0.00  0.00    -0.081 A 
ATOM     21  H7  4F1 d   1     -35.333  18.826  31.828  0.00  0.00     0.086 H 
ATOM     22  C13 4F1 d   1     -38.544  19.156  32.871  0.00  0.00    -0.067 A 
ATOM     23  H6  4F1 d   1     -36.988  17.750  33.318  0.00  0.00     0.083 H 
ATOM     24  C14 4F1 d   1     -38.921  20.282  32.143  0.00  0.00     0.065 A 
ATOM     25  H3  4F1 d   1     -39.258  18.683  33.536  0.00  0.00     0.084 H 
BRANCH  24  26
ATOM     26  C15 4F1 d   1     -40.336  20.780  32.244  0.00  0.00     0.418 C 
ATOM     27  F2  4F1 d   1     -40.934  20.424  33.360  0.00  0.00    -0.166 F 
ATOM     28  F1  4F1 d   1     -41.078  20.351  31.234  0.00  0.00    -0.166 F 
ATOM     29  F   4F1 d   1     -40.416  22.113  32.271  0.00  0.00    -0.166 F 
ENDBRANCH  24  26
ENDBRANCH   3  16
BRANCH   2  30
ATOM     30  C6  4F1 d   1     -35.967  25.369  32.998  0.00  0.00    -0.005 A 
ATOM     31  C5  4F1 d   1     -36.243  26.622  33.543  0.00  0.00    -0.070 A 
ATOM     32  C4  4F1 d   1     -35.397  27.185  34.486  0.00  0.00    -0.066 A 
ATOM     33  H2  4F1 d   1     -37.128  27.162  33.226  0.00  0.00     0.084 H 
ATOM     34  C1  4F1 d   1     -34.252  26.507  34.915  0.00  0.00     0.040 A 
ATOM     35  H1  4F1 d   1     -35.626  28.162  34.895  0.00  0.00     0.085 H 
ATOM     36  C2  4F1 d   1     -33.986  25.242  34.382  0.00  0.00    -0.066 A 
ATOM     37  C3  4F1 d   1     -34.832  24.681  33.439  0.00  0.00    -0.070 A 
ATOM     38  H11 4F1 d   1     -33.109  24.695  34.710  0.00  0.00     0.085 H 
ATOM     39  H10 4F1 d   1     -34.612  23.698  33.039  0.00  0.00     0.084 H 
BRANCH  34  40
ATOM     40  C   4F1 d   1     -33.348  27.129  35.958  0.00  0.00     0.209 C 
ATOM     41  O   4F1 d   1     -33.695  28.238  36.440  0.00  0.00    -0.644 OA
ATOM     42  O1  4F1 d   1     -32.290  26.521  36.277  0.00  0.00    -0.644 OA
ENDBRANCH  34  40
ENDBRANCH   2  30
TORSDOF 4
