REMARK  4 active torsions:
REMARK  status: ('A' for Active; 'I' for Inactive)
REMARK    1  A    between atoms: C6_6  and  C15_19 
REMARK       I    between atoms: C7_7  and  N1_23 
REMARK    2  A    between atoms: C8_25  and  C7_7 
REMARK    3  A    between atoms: C18_13  and  C21_14 
REMARK    4  A    between atoms: C9_29  and  C14_30 
ROOT
ATOM      1  C1  4Y5 d   1     -38.917  25.735  28.760  0.00  0.00    -0.078 A 
ATOM      2  C2  4Y5 d   1     -38.924  24.449  29.281  0.00  0.00    -0.054 A 
ATOM      3  C3  4Y5 d   1     -38.284  24.200  30.494  0.00  0.00     0.078 A 
ATOM      4  C4  4Y5 d   1     -37.610  25.219  31.204  0.00  0.00     0.063 A 
ATOM      5  C5  4Y5 d   1     -37.643  26.485  30.625  0.00  0.00     0.131 A 
ATOM      6  C6  4Y5 d   1     -37.084  24.568  32.388  0.00  0.00     0.106 A 
ATOM      7  C7  4Y5 d   1     -38.616  21.751  30.979  0.00  0.00     0.281 C 
ATOM      8  F   4Y5 d   1     -37.023  27.496  31.270  0.00  0.00    -0.205 F 
ATOM      9  C   4Y5 d   1     -38.276  26.766  29.433  0.00  0.00    -0.045 A 
ATOM     10  N   4Y5 d   1     -37.407  23.285  32.415  0.00  0.00    -0.163 NA
ATOM     11  N1  4Y5 d   1     -38.148  23.047  31.252  0.00  0.00    -0.195 N 
ATOM     12  O   4Y5 d   1     -39.312  21.523  29.998  0.00  0.00    -0.265 OA
ATOM     13  H1  4Y5 d   1     -39.416  25.936  27.819  0.00  0.00     0.083 H 
ATOM     14  H2  4Y5 d   1     -39.422  23.646  28.750  0.00  0.00     0.087 H 
ATOM     15  H8  4Y5 d   1     -38.273  27.772  29.029  0.00  0.00     0.088 H 
ENDROOT
BRANCH   7  16
ATOM     16  C8  4Y5 d   1     -38.184  20.622  31.889  0.00  0.00     0.071 A 
ATOM     17  C13 4Y5 d   1     -36.889  20.114  31.804  0.00  0.00     0.050 A 
ATOM     18  C12 4Y5 d   1     -36.483  19.032  32.578  0.00  0.00    -0.061 A 
ATOM     19 CL   4Y5 d   1     -35.745  20.865  30.739  0.00  0.00    -0.083 Cl
ATOM     20  C11 4Y5 d   1     -37.378  18.464  33.473  0.00  0.00    -0.081 A 
ATOM     21  H4  4Y5 d   1     -35.478  18.637  32.483  0.00  0.00     0.086 H 
ATOM     22  C10 4Y5 d   1     -38.666  18.967  33.592  0.00  0.00    -0.067 A 
ATOM     23  H3  4Y5 d   1     -37.070  17.622  34.083  0.00  0.00     0.083 H 
ATOM     24  C9  4Y5 d   1     -39.084  20.041  32.806  0.00  0.00     0.065 A 
ATOM     25  H9  4Y5 d   1     -39.353  18.521  34.302  0.00  0.00     0.084 H 
BRANCH  24  26
ATOM     26  C14 4Y5 d   1     -40.500  20.533  32.930  0.00  0.00     0.418 C 
ATOM     27  F1  4Y5 d   1     -41.257  20.130  31.923  0.00  0.00    -0.166 F 
ATOM     28  F2  4Y5 d   1     -40.585  21.877  32.933  0.00  0.00    -0.166 F 
ATOM     29  F3  4Y5 d   1     -41.085  20.131  34.043  0.00  0.00    -0.166 F 
ENDBRANCH  24  26
ENDBRANCH   7  16
BRANCH   6  30
ATOM     30  C15 4Y5 d   1     -36.264  25.119  33.505  0.00  0.00     0.034 A 
ATOM     31  C16 4Y5 d   1     -36.576  26.326  34.123  0.00  0.00     0.130 A 
ATOM     32  F4  4Y5 d   1     -37.740  26.938  33.805  0.00  0.00    -0.205 F 
ATOM     33  C17 4Y5 d   1     -35.763  26.940  35.044  0.00  0.00    -0.028 A 
ATOM     34  C18 4Y5 d   1     -34.564  26.325  35.404  0.00  0.00     0.043 A 
ATOM     35  H5  4Y5 d   1     -36.049  27.888  35.484  0.00  0.00     0.089 H 
ATOM     36  C19 4Y5 d   1     -34.229  25.093  34.828  0.00  0.00    -0.065 A 
ATOM     37  C20 4Y5 d   1     -35.069  24.495  33.900  0.00  0.00    -0.067 A 
ATOM     38  H6  4Y5 d   1     -33.305  24.602  35.110  0.00  0.00     0.085 H 
ATOM     39  H7  4Y5 d   1     -34.800  23.535  33.475  0.00  0.00     0.085 H 
BRANCH  34  40
ATOM     40  C21 4Y5 d   1     -33.668  26.992  36.420  0.00  0.00     0.209 C 
ATOM     41  O2  4Y5 d   1     -34.050  28.094  36.880  0.00  0.00    -0.644 OA
ATOM     42  O1  4Y5 d   1     -32.594  26.423  36.749  0.00  0.00    -0.644 OA
ENDBRANCH  34  40
ENDBRANCH   6  30
TORSDOF 4
