REMARK  5 active torsions:
REMARK  status: ('A' for Active; 'I' for Inactive)
REMARK    1  A    between atoms: C6_4  and  C15_5 
REMARK    2  A    between atoms: C18_8  and  C22_9 
REMARK    3  A    between atoms: C18_8  and  C21_10 
REMARK       I    between atoms: N1_16  and  C7_21 
REMARK    4  A    between atoms: C7_21  and  C8_23 
REMARK    5  A    between atoms: C13_24  and  C14_25 
ROOT
ATOM      1  F3  4Y6 d   1     -38.581  25.313  31.093  0.00  0.00    -0.205 F 
ATOM      2  C   4Y6 d   1     -39.108  24.326  30.337  0.00  0.00     0.131 A 
ATOM      3  C5  4Y6 d   1     -38.983  23.013  30.786  0.00  0.00     0.062 A 
ATOM      4  C6  4Y6 d   1     -38.454  22.281  31.912  0.00  0.00     0.099 A 
ATOM      5  N   4Y6 d   1     -38.677  20.980  31.769  0.00  0.00    -0.163 NA
ATOM      6  N1  4Y6 d   1     -39.330  20.813  30.567  0.00  0.00    -0.195 N 
ATOM      7  C4  4Y6 d   1     -39.543  22.025  29.939  0.00  0.00     0.077 A 
ATOM      8  C3  4Y6 d   1     -40.169  22.345  28.736  0.00  0.00    -0.054 A 
ATOM      9  C2  4Y6 d   1     -40.256  23.675  28.358  0.00  0.00    -0.078 A 
ATOM     10  C1  4Y6 d   1     -39.733  24.677  29.162  0.00  0.00    -0.045 A 
ATOM     11  C7  4Y6 d   1     -39.659  19.516  30.151  0.00  0.00     0.281 C 
ATOM     12  O   4Y6 d   1     -40.230  19.314  29.090  0.00  0.00    -0.265 OA
ATOM     13  H11 4Y6 d   1     -40.581  21.566  28.106  0.00  0.00     0.087 H 
ATOM     14  H12 4Y6 d   1     -40.739  23.936  27.423  0.00  0.00     0.083 H 
ATOM     15  H13 4Y6 d   1     -39.815  25.718  28.870  0.00  0.00     0.088 H 
ENDROOT
BRANCH   4  16
ATOM     16  C15 4Y6 d   1     -37.756  22.782  33.097  0.00  0.00    -0.030 C 
ATOM     17  C20 4Y6 d   1     -38.207  23.849  33.748  0.00  0.00    -0.093 C 
ATOM     18  C19 4Y6 d   1     -37.593  24.393  35.004  0.00  0.00    -0.033 C 
ATOM     19  H1  4Y6 d   1     -39.079  24.362  33.344  0.00  0.00     0.077 H 
ATOM     20  C18 4Y6 d   1     -36.086  24.074  35.087  0.00  0.00     0.048 C 
ATOM     21  H2  4Y6 d   1     -38.100  23.946  35.871  0.00  0.00     0.040 H 
ATOM     22  H3  4Y6 d   1     -37.728  25.485  35.023  0.00  0.00     0.040 H 
ATOM     23  C17 4Y6 d   1     -35.857  22.562  34.849  0.00  0.00    -0.045 C 
ATOM     24  C16 4Y6 d   1     -36.534  22.010  33.570  0.00  0.00    -0.038 C 
ATOM     25  H7  4Y6 d   1     -36.255  22.012  35.715  0.00  0.00     0.035 H 
ATOM     26  H8  4Y6 d   1     -34.774  22.386  34.770  0.00  0.00     0.035 H 
ATOM     27  H9  4Y6 d   1     -35.790  22.021  32.760  0.00  0.00     0.040 H 
ATOM     28  H10 4Y6 d   1     -36.843  20.973  33.770  0.00  0.00     0.040 H 
BRANCH  20  29
ATOM     29  C22 4Y6 d   1     -35.310  24.908  34.052  0.00  0.00    -0.059 C 
ATOM     30  H4  4Y6 d   1     -34.238  24.672  34.121  0.00  0.00     0.029 H 
ATOM     31  H5  4Y6 d   1     -35.464  25.978  34.254  0.00  0.00     0.029 H 
ATOM     32  H6  4Y6 d   1     -35.674  24.669  33.042  0.00  0.00     0.029 H 
ENDBRANCH  20  29
BRANCH  20  33
ATOM     33  C21 4Y6 d   1     -35.547  24.526  36.461  0.00  0.00     0.181 C 
ATOM     34  O2  4Y6 d   1     -34.344  24.286  36.667  0.00  0.00    -0.647 OA
ATOM     35  O1  4Y6 d   1     -36.328  25.104  37.243  0.00  0.00    -0.647 OA
ENDBRANCH  20  33
ENDBRANCH   4  16
BRANCH  11  36
ATOM     36  C8  4Y6 d   1     -39.284  18.359  31.045  0.00  0.00     0.071 A 
ATOM     37  C13 4Y6 d   1     -40.261  17.625  31.753  0.00  0.00     0.065 A 
ATOM     38  C12 4Y6 d   1     -39.875  16.504  32.480  0.00  0.00    -0.067 A 
ATOM     39  C11 4Y6 d   1     -38.543  16.117  32.531  0.00  0.00    -0.081 A 
ATOM     40  H14 4Y6 d   1     -40.622  15.927  33.012  0.00  0.00     0.084 H 
ATOM     41  C10 4Y6 d   1     -37.572  16.854  31.871  0.00  0.00    -0.061 A 
ATOM     42  H15 4Y6 d   1     -38.260  15.233  33.091  0.00  0.00     0.083 H 
ATOM     43  C9  4Y6 d   1     -37.948  17.974  31.150  0.00  0.00     0.050 A 
ATOM     44  H16 4Y6 d   1     -36.531  16.557  31.919  0.00  0.00     0.086 H 
ATOM     45 CL   4Y6 d   1     -36.707  18.965  30.458  0.00  0.00    -0.083 Cl
BRANCH  37  46
ATOM     46  C14 4Y6 d   1     -41.709  18.036  31.769  0.00  0.00     0.418 C 
ATOM     47  F2  4Y6 d   1     -42.380  17.513  32.794  0.00  0.00    -0.166 F 
ATOM     48  F1  4Y6 d   1     -42.351  17.671  30.674  0.00  0.00    -0.166 F 
ATOM     49  F   4Y6 d   1     -41.876  19.368  31.842  0.00  0.00    -0.166 F 
ENDBRANCH  37  46
ENDBRANCH  11  36
TORSDOF 5
