REMARK  5 active torsions:
REMARK  status: ('A' for Active; 'I' for Inactive)
REMARK    1  A    between atoms: C12_27  and  C13_3 
REMARK    2  A    between atoms: C5_15  and  C14_4 
REMARK    3  A    between atoms: C17_5  and  C20_9 
REMARK    4  A    between atoms: C18_12  and  O1_13 
REMARK       I    between atoms: C6_24  and  N2_20 
REMARK    5  A    between atoms: C7_26  and  C6_24 
ROOT
ATOM      1  C5  4Y7 d   1     -36.803  24.320  32.331  0.00  0.00     0.122 A 
ATOM      2  C4  4Y7 d   1     -37.604  25.015  31.357  0.00  0.00     0.116 A 
ATOM      3  N   4Y7 d   1     -37.644  26.298  30.949  0.00  0.00    -0.256 NA
ATOM      4  C   4Y7 d   1     -38.348  26.570  29.837  0.00  0.00     0.003 A 
ATOM      5  N1  4Y7 d   1     -37.016  23.011  32.329  0.00  0.00    -0.161 NA
ATOM      6  N2  4Y7 d   1     -37.957  22.793  31.326  0.00  0.00    -0.194 N 
ATOM      7  C3  4Y7 d   1     -38.293  23.977  30.689  0.00  0.00     0.093 A 
ATOM      8  C2  4Y7 d   1     -39.004  24.290  29.534  0.00  0.00    -0.051 A 
ATOM      9  C1  4Y7 d   1     -39.028  25.609  29.101  0.00  0.00    -0.064 A 
ATOM     10  C6  4Y7 d   1     -38.486  21.515  31.052  0.00  0.00     0.281 C 
ATOM     11  O   4Y7 d   1     -39.229  21.353  30.096  0.00  0.00    -0.265 OA
ATOM     12  H6  4Y7 d   1     -38.387  27.598  29.495  0.00  0.00     0.114 H 
ATOM     13  H7  4Y7 d   1     -39.529  23.518  28.983  0.00  0.00     0.087 H 
ATOM     14  H8  4Y7 d   1     -39.569  25.884  28.203  0.00  0.00     0.085 H 
ENDROOT
BRANCH  10  15
ATOM     15  C7  4Y7 d   1     -38.081  20.335  31.911  0.00  0.00     0.071 A 
ATOM     16  C12 4Y7 d   1     -38.983  19.719  32.808  0.00  0.00     0.065 A 
ATOM     17  C11 4Y7 d   1     -38.576  18.607  33.546  0.00  0.00    -0.067 A 
ATOM     18  C10 4Y7 d   1     -37.296  18.095  33.405  0.00  0.00    -0.081 A 
ATOM     19  H2  4Y7 d   1     -39.268  18.139  34.237  0.00  0.00     0.084 H 
ATOM     20  C9  4Y7 d   1     -36.399  18.691  32.533  0.00  0.00    -0.061 A 
ATOM     21  H1  4Y7 d   1     -36.995  17.226  33.979  0.00  0.00     0.083 H 
ATOM     22  C8  4Y7 d   1     -36.792  19.808  31.810  0.00  0.00     0.050 A 
ATOM     23  H9  4Y7 d   1     -35.399  18.288  32.417  0.00  0.00     0.086 H 
ATOM     24 CL   4Y7 d   1     -35.621  20.595  30.809  0.00  0.00    -0.083 Cl
BRANCH  16  25
ATOM     25  C13 4Y7 d   1     -40.386  20.227  33.007  0.00  0.00     0.418 C 
ATOM     26  F2  4Y7 d   1     -40.450  21.558  33.079  0.00  0.00    -0.166 F 
ATOM     27  F1  4Y7 d   1     -40.945  19.755  34.120  0.00  0.00    -0.166 F 
ATOM     28  F   4Y7 d   1     -41.192  19.890  32.016  0.00  0.00    -0.166 F 
ENDBRANCH  16  25
ENDBRANCH  10  15
BRANCH   1  29
ATOM     29  C14 4Y7 d   1     -35.995  24.906  33.426  0.00  0.00     0.038 A 
ATOM     30  C15 4Y7 d   1     -34.967  24.233  34.059  0.00  0.00     0.130 A 
ATOM     31  F3  4Y7 d   1     -34.569  23.051  33.552  0.00  0.00    -0.205 F 
ATOM     32  C16 4Y7 d   1     -34.201  24.789  35.048  0.00  0.00    -0.025 A 
ATOM     33  C17 4Y7 d   1     -34.480  26.080  35.481  0.00  0.00     0.076 A 
ATOM     34  H3  4Y7 d   1     -33.385  24.228  35.489  0.00  0.00     0.090 H 
ATOM     35  C18 4Y7 d   1     -35.599  26.743  34.939  0.00  0.00     0.083 A 
ATOM     36  C19 4Y7 d   1     -36.331  26.171  33.913  0.00  0.00    -0.035 A 
ATOM     37  H5  4Y7 d   1     -37.170  26.708  33.485  0.00  0.00     0.089 H 
BRANCH  33  38
ATOM     38  C20 4Y7 d   1     -33.559  26.771  36.454  0.00  0.00     0.212 C 
ATOM     39  O3  4Y7 d   1     -32.469  26.215  36.753  0.00  0.00    -0.644 OA
ATOM     40  O2  4Y7 d   1     -33.884  27.913  36.839  0.00  0.00    -0.644 OA
ENDBRANCH  33  38
BRANCH  35  41
ATOM     41  O1  4Y7 d   1     -36.037  27.931  35.412  0.00  0.00    -0.360 OA
ATOM     42  H4  4Y7 d   1     -35.348  28.579  35.325  0.00  0.00     0.217 HD
ENDBRANCH  35  41
ENDBRANCH   1  29
TORSDOF 5
