REMARK  20 active torsions:
REMARK  status: ('A' for Active; 'I' for Inactive)
REMARK    1  A    between atoms: C30_1  and  O19_2 
REMARK    2  A    between atoms: O19_2  and  C6_3 
REMARK    3  A    between atoms: C9_5  and  O23_6 
REMARK    4  A    between atoms: O23_6  and  C32_7 
REMARK    5  A    between atoms: C2_10  and  C1_11 
REMARK    6  A    between atoms: C1_11  and  C15_12 
REMARK    7  A    between atoms: C1_11  and  C22_17 
REMARK    8  A    between atoms: C15_12  and  C29_13 
REMARK    9  A    between atoms: C15_12  and  C28_14 
REMARK   10  A    between atoms: C22_17  and  C26_18 
REMARK   11  A    between atoms: C26_18  and  C25_19 
REMARK   12  A    between atoms: C25_19  and  N8_20 
REMARK   13  A    between atoms: N8_20  and  C27_21 
REMARK   14  A    between atoms: N8_20  and  C16_22 
REMARK   15  A    between atoms: C16_22  and  C21_23 
REMARK   16  A    between atoms: C21_23  and  C17_24 
REMARK   17  A    between atoms: C10_28  and  O24_29 
REMARK   18  A    between atoms: O24_29  and  C33_30 
REMARK   19  A    between atoms: C7_31  and  O20_32 
REMARK   20  A    between atoms: O20_32  and  C31_33 
ROOT
ATOM      1  C1  4YH d   1       9.341 -14.694 -24.777  0.00  0.00     0.079 C 
ATOM      2  C3  4YH d   1       8.315 -14.982 -25.766  0.00  0.00     0.074 C 
ATOM      3  N4  4YH d   1       7.455 -15.194 -26.572  0.00  0.00    -0.196 NA
ENDROOT
BRANCH   1   4
ATOM      4  C2  4YH d   1       9.697 -15.977 -24.223  0.00  0.00    -0.032 A 
ATOM      5  C5  4YH d   1       9.151 -17.140 -24.787  0.00  0.00    -0.040 A 
ATOM      6  C6  4YH d   1       9.453 -18.416 -24.296  0.00  0.00     0.102 A 
ATOM      7  H4  4YH d   1       8.474 -17.048 -25.629  0.00  0.00     0.088 H 
ATOM      8  C9  4YH d   1      10.309 -18.567 -23.196  0.00  0.00     0.101 A 
ATOM      9  C13 4YH d   1      10.870 -17.430 -22.614  0.00  0.00    -0.047 A 
ATOM     10  C11 4YH d   1      10.555 -16.164 -23.124  0.00  0.00    -0.072 A 
ATOM     11  H8  4YH d   1      11.546 -17.526 -21.772  0.00  0.00     0.087 H 
ATOM     12  H9  4YH d   1      10.991 -15.291 -22.652  0.00  0.00     0.084 H 
BRANCH   6  13
ATOM     13  O19 4YH d   1       8.916 -19.543 -24.856  0.00  0.00    -0.353 OA
BRANCH  13  14
ATOM     14  C30 4YH d   1       9.639 -19.958 -26.083  0.00  0.00     0.010 C 
ATOM     15  H1  4YH d   1       9.172 -20.865 -26.495  0.00  0.00     0.066 H 
ATOM     16  H2  4YH d   1      10.690 -20.167 -25.836  0.00  0.00     0.066 H 
ATOM     17  H3  4YH d   1       9.591 -19.150 -26.828  0.00  0.00     0.066 H 
ENDBRANCH  13  14
ENDBRANCH   6  13
BRANCH   8  18
ATOM     18  O23 4YH d   1      10.611 -19.824 -22.721  0.00  0.00    -0.353 OA
BRANCH  18  19
ATOM     19  C32 4YH d   1       9.378 -20.654 -22.139  0.00  0.00     0.010 C 
ATOM     20  H5  4YH d   1       9.729 -21.636 -21.790  0.00  0.00     0.066 H 
ATOM     21  H6  4YH d   1       8.625 -20.794 -22.928  0.00  0.00     0.066 H 
ATOM     22  H7  4YH d   1       8.930 -20.104 -21.298  0.00  0.00     0.066 H 
ENDBRANCH  18  19
ENDBRANCH   8  18
ENDBRANCH   1   4
BRANCH   1  23
ATOM     23  C15 4YH d   1       8.651 -13.757 -23.712  0.00  0.00    -0.037 C 
ATOM     24  H10 4YH d   1       7.643 -14.174 -23.574  0.00  0.00     0.042 H 
BRANCH  23  25
ATOM     25  C29 4YH d   1       8.439 -12.300 -24.176  0.00  0.00    -0.071 C 
ATOM     26  H11 4YH d   1       7.955 -11.726 -23.372  0.00  0.00     0.028 H 
ATOM     27  H12 4YH d   1       7.799 -12.290 -25.071  0.00  0.00     0.028 H 
ATOM     28  H13 4YH d   1       9.412 -11.846 -24.416  0.00  0.00     0.028 H 
ENDBRANCH  23  25
BRANCH  23  29
ATOM     29  C28 4YH d   1       9.319 -13.800 -22.319  0.00  0.00    -0.071 C 
ATOM     30  H14 4YH d   1       9.459 -14.847 -22.012  0.00  0.00     0.028 H 
ATOM     31  H15 4YH d   1       8.677 -13.286 -21.588  0.00  0.00     0.028 H 
ATOM     32  H16 4YH d   1      10.297 -13.298 -22.365  0.00  0.00     0.028 H 
ENDBRANCH  23  29
ENDBRANCH   1  23
BRANCH   1  33
ATOM     33  C22 4YH d   1      10.504 -14.113 -25.657  0.00  0.00    -0.040 C 
ATOM     34  H17 4YH d   1      10.069 -13.851 -26.633  0.00  0.00     0.036 H 
ATOM     35  H18 4YH d   1      11.241 -14.919 -25.789  0.00  0.00     0.036 H 
BRANCH  33  36
ATOM     36  C26 4YH d   1      11.276 -12.871 -25.158  0.00  0.00    -0.040 C 
ATOM     37  H19 4YH d   1      12.351 -13.102 -25.139  0.00  0.00     0.035 H 
ATOM     38  H20 4YH d   1      10.936 -12.623 -24.142  0.00  0.00     0.035 H 
BRANCH  36  39
ATOM     39  C25 4YH d   1      11.043 -11.657 -26.072  0.00  0.00     0.083 C 
ATOM     40  H21 4YH d   1      11.175 -10.749 -25.465  0.00  0.00     0.075 H 
ATOM     41  H22 4YH d   1      10.007 -11.706 -26.438  0.00  0.00     0.075 H 
BRANCH  39  42
ATOM     42  N8  4YH d   1      11.933 -11.548 -27.248  0.00  0.00    -0.075 N 
ATOM     43  H23 4YH d   1      12.370 -10.641 -27.209  0.00  0.00     0.279 HD
BRANCH  42  44
ATOM     44  C27 4YH d   1      13.027 -12.539 -27.304  0.00  0.00     0.066 C 
ATOM     45  H24 4YH d   1      13.627 -12.373 -28.211  0.00  0.00     0.068 H 
ATOM     46  H25 4YH d   1      12.602 -13.553 -27.326  0.00  0.00     0.068 H 
ATOM     47  H26 4YH d   1      13.667 -12.429 -26.416  0.00  0.00     0.068 H 
ENDBRANCH  42  44
BRANCH  42  48
ATOM     48  C16 4YH d   1      11.093 -11.595 -28.456  0.00  0.00     0.087 C 
ATOM     49  H27 4YH d   1      10.274 -12.311 -28.293  0.00  0.00     0.076 H 
ATOM     50  H28 4YH d   1      11.708 -11.928 -29.305  0.00  0.00     0.076 H 
BRANCH  48  51
ATOM     51  C21 4YH d   1      10.491 -10.215 -28.786  0.00  0.00    -0.018 C 
ATOM     52  H29 4YH d   1      10.982  -9.817 -29.686  0.00  0.00     0.042 H 
ATOM     53  H30 4YH d   1      10.670  -9.536 -27.940  0.00  0.00     0.042 H 
BRANCH  51  54
ATOM     54  C17 4YH d   1       9.126 -10.298 -29.017  0.00  0.00    -0.054 A 
ATOM     55  C12 4YH d   1       8.637 -10.928 -30.168  0.00  0.00    -0.042 A 
ATOM     56  C7  4YH d   1       7.262 -11.007 -30.397  0.00  0.00     0.102 A 
ATOM     57  H31 4YH d   1       9.329 -11.356 -30.884  0.00  0.00     0.088 H 
ATOM     58  C10 4YH d   1       6.393 -10.437 -29.449  0.00  0.00     0.101 A 
ATOM     59  C14 4YH d   1       6.888  -9.805 -28.306  0.00  0.00    -0.048 A 
ATOM     60  C18 4YH d   1       8.257  -9.733 -28.086  0.00  0.00    -0.074 A 
ATOM     61  H33 4YH d   1       6.202  -9.370 -27.589  0.00  0.00     0.087 H 
ATOM     62  H32 4YH d   1       8.645  -9.243 -27.200  0.00  0.00     0.084 H 
BRANCH  56  63
ATOM     63  O20 4YH d   1       6.729 -11.621 -31.510  0.00  0.00    -0.353 OA
BRANCH  63  64
ATOM     64  C31 4YH d   1       7.630 -11.737 -32.648  0.00  0.00     0.010 C 
ATOM     65  H37 4YH d   1       7.110 -12.238 -33.478  0.00  0.00     0.066 H 
ATOM     66  H38 4YH d   1       8.512 -12.327 -32.359  0.00  0.00     0.066 H 
ATOM     67  H39 4YH d   1       7.948 -10.734 -32.967  0.00  0.00     0.066 H 
ENDBRANCH  63  64
ENDBRANCH  56  63
BRANCH  58  68
ATOM     68  O24 4YH d   1       5.052 -10.512 -29.651  0.00  0.00    -0.353 OA
BRANCH  68  69
ATOM     69  C33 4YH d   1       4.416 -11.004 -28.453  0.00  0.00     0.010 C 
ATOM     70  H34 4YH d   1       3.329 -11.066 -28.614  0.00  0.00     0.066 H 
ATOM     71  H35 4YH d   1       4.625 -10.318 -27.619  0.00  0.00     0.066 H 
ATOM     72  H36 4YH d   1       4.809 -12.003 -28.213  0.00  0.00     0.066 H 
ENDBRANCH  68  69
ENDBRANCH  58  68
ENDBRANCH  51  54
ENDBRANCH  48  51
ENDBRANCH  42  48
ENDBRANCH  39  42
ENDBRANCH  36  39
ENDBRANCH  33  36
ENDBRANCH   1  33
TORSDOF 20
