REMARK  21 active torsions:
REMARK  status: ('A' for Active; 'I' for Inactive)
REMARK    1  A    between atoms: C30_1  and  O19_2 
REMARK    2  A    between atoms: O19_2  and  C6_3 
REMARK    3  A    between atoms: C9_5  and  O23_6 
REMARK    4  A    between atoms: O23_6  and  C32_7 
REMARK    5  A    between atoms: C2_10  and  C1_11 
REMARK    6  A    between atoms: C1_11  and  C15_12 
REMARK    7  A    between atoms: C1_11  and  C3_15 
REMARK    8  A    between atoms: C1_11  and  C22_17 
REMARK    9  A    between atoms: C15_12  and  C29_13 
REMARK   10  A    between atoms: C15_12  and  C28_14 
REMARK   11  A    between atoms: C22_17  and  C26_18 
REMARK   12  A    between atoms: C26_18  and  C25_19 
REMARK   13  A    between atoms: C25_19  and  N8_20 
REMARK   14  A    between atoms: N8_20  and  C27_21 
REMARK   15  A    between atoms: N8_20  and  C16_22 
REMARK   16  A    between atoms: C16_22  and  C21_23 
REMARK   17  A    between atoms: C21_23  and  C17_24 
REMARK   18  A    between atoms: C10_28  and  O24_29 
REMARK   19  A    between atoms: O24_29  and  C33_30 
REMARK   20  A    between atoms: C7_31  and  O20_32 
REMARK   21  A    between atoms: O20_32  and  C31_33 
ROOT
ATOM      1  C26 4YH d   1      23.394 -41.554  33.403  0.00  0.00    -0.040 C 
ATOM      2  H19 4YH d   1      23.544 -40.718  32.705  0.00  0.00     0.035 H 
ATOM      3  H20 4YH d   1      24.000 -41.390  34.306  0.00  0.00     0.035 H 
ENDROOT
BRANCH   1   4
ATOM      4  C22 4YH d   1      23.860 -42.857  32.723  0.00  0.00    -0.040 C 
ATOM      5  H17 4YH d   1      22.977 -43.343  32.282  0.00  0.00     0.036 H 
ATOM      6  H18 4YH d   1      24.567 -42.588  31.925  0.00  0.00     0.036 H 
BRANCH   4   7
ATOM      7  C1  4YH d   1      24.560 -43.890  33.655  0.00  0.00     0.079 C 
BRANCH   7   8
ATOM      8  C2  4YH d   1      24.326 -45.170  33.144  0.00  0.00    -0.032 A 
ATOM      9  C5  4YH d   1      24.483 -46.290  33.976  0.00  0.00    -0.040 A 
ATOM     10  C6  4YH d   1      24.250 -47.570  33.479  0.00  0.00     0.102 A 
ATOM     11  H4  4YH d   1      24.787 -46.158  35.008  0.00  0.00     0.088 H 
ATOM     12  C9  4YH d   1      23.852 -47.736  32.149  0.00  0.00     0.101 A 
ATOM     13  C13 4YH d   1      23.687 -46.622  31.321  0.00  0.00    -0.047 A 
ATOM     14  C11 4YH d   1      23.922 -45.343  31.816  0.00  0.00    -0.072 A 
ATOM     15  H8  4YH d   1      23.375 -46.755  30.291  0.00  0.00     0.087 H 
ATOM     16  H9  4YH d   1      23.792 -44.480  31.172  0.00  0.00     0.084 H 
BRANCH  10  17
ATOM     17  O19 4YH d   1      24.402 -48.695  34.244  0.00  0.00    -0.353 OA
BRANCH  17  18
ATOM     18  C30 4YH d   1      23.219 -49.018  34.993  0.00  0.00     0.010 C 
ATOM     19  H1  4YH d   1      23.398 -49.927  35.587  0.00  0.00     0.066 H 
ATOM     20  H2  4YH d   1      22.382 -49.191  34.300  0.00  0.00     0.066 H 
ATOM     21  H3  4YH d   1      22.971 -48.183  35.665  0.00  0.00     0.066 H 
ENDBRANCH  17  18
ENDBRANCH  10  17
BRANCH  12  22
ATOM     22  O23 4YH d   1      23.648 -49.021  31.718  0.00  0.00    -0.353 OA
BRANCH  22  23
ATOM     23  C32 4YH d   1      22.296 -49.301  31.315  0.00  0.00     0.010 C 
ATOM     24  H5  4YH d   1      22.221 -50.348  30.985  0.00  0.00     0.066 H 
ATOM     25  H6  4YH d   1      22.015 -48.635  30.486  0.00  0.00     0.066 H 
ATOM     26  H7  4YH d   1      21.618 -49.135  32.165  0.00  0.00     0.066 H 
ENDBRANCH  22  23
ENDBRANCH  12  22
ENDBRANCH   7   8
BRANCH   7  27
ATOM     27  C15 4YH d   1      26.090 -43.534  33.695  0.00  0.00    -0.037 C 
ATOM     28  H10 4YH d   1      26.232 -42.648  33.059  0.00  0.00     0.042 H 
BRANCH  27  29
ATOM     29  C29 4YH d   1      27.042 -44.662  33.153  0.00  0.00    -0.071 C 
ATOM     30  H11 4YH d   1      28.087 -44.324  33.220  0.00  0.00     0.028 H 
ATOM     31  H12 4YH d   1      26.794 -44.879  32.103  0.00  0.00     0.028 H 
ATOM     32  H13 4YH d   1      26.912 -45.573  33.756  0.00  0.00     0.028 H 
ENDBRANCH  27  29
BRANCH  27  33
ATOM     33  C28 4YH d   1      26.534 -43.174  35.141  0.00  0.00    -0.071 C 
ATOM     34  H14 4YH d   1      25.880 -42.385  35.540  0.00  0.00     0.028 H 
ATOM     35  H15 4YH d   1      27.574 -42.816  35.127  0.00  0.00     0.028 H 
ATOM     36  H16 4YH d   1      26.463 -44.067  35.779  0.00  0.00     0.028 H 
ENDBRANCH  27  33
ENDBRANCH   7  27
BRANCH   7  37
ATOM     37  C3  4YH d   1      23.931 -43.860  35.029  0.00  0.00     0.074 C 
ATOM     38  N4  4YH d   1      23.187 -43.852  35.969  0.00  0.00    -0.196 NA
ENDBRANCH   7  37
ENDBRANCH   4   7
ENDBRANCH   1   4
BRANCH   1  39
ATOM     39  C25 4YH d   1      21.906 -41.603  33.806  0.00  0.00     0.083 C 
ATOM     40  H21 4YH d   1      21.719 -40.770  34.500  0.00  0.00     0.075 H 
ATOM     41  H22 4YH d   1      21.730 -42.558  34.323  0.00  0.00     0.075 H 
BRANCH  39  42
ATOM     42  N8  4YH d   1      20.923 -41.500  32.702  0.00  0.00    -0.075 N 
ATOM     43  H23 4YH d   1      20.042 -41.323  33.158  0.00  0.00     0.279 HD
BRANCH  42  44
ATOM     44  C27 4YH d   1      21.123 -40.354  31.797  0.00  0.00     0.066 C 
ATOM     45  H24 4YH d   1      20.349 -40.364  31.016  0.00  0.00     0.068 H 
ATOM     46  H25 4YH d   1      22.116 -40.425  31.330  0.00  0.00     0.068 H 
ATOM     47  H26 4YH d   1      21.053 -39.418  32.370  0.00  0.00     0.068 H 
ENDBRANCH  42  44
BRANCH  42  48
ATOM     48  C16 4YH d   1      20.732 -42.766  31.959  0.00  0.00     0.087 C 
ATOM     49  H27 4YH d   1      21.205 -43.582  32.526  0.00  0.00     0.076 H 
ATOM     50  H28 4YH d   1      21.216 -42.674  30.976  0.00  0.00     0.076 H 
BRANCH  48  51
ATOM     51  C21 4YH d   1      19.243 -43.111  31.746  0.00  0.00    -0.018 C 
ATOM     52  H29 4YH d   1      18.925 -42.722  30.767  0.00  0.00     0.042 H 
ATOM     53  H30 4YH d   1      18.651 -42.633  32.540  0.00  0.00     0.042 H 
BRANCH  51  54
ATOM     54  C17 4YH d   1      19.011 -44.498  31.780  0.00  0.00    -0.054 A 
ATOM     55  C12 4YH d   1      19.102 -45.201  32.981  0.00  0.00    -0.042 A 
ATOM     56  C7  4YH d   1      18.866 -46.582  33.021  0.00  0.00     0.102 A 
ATOM     57  H31 4YH d   1      19.358 -44.674  33.893  0.00  0.00     0.088 H 
ATOM     58  C10 4YH d   1      18.512 -47.296  31.861  0.00  0.00     0.101 A 
ATOM     59  C14 4YH d   1      18.426 -46.585  30.652  0.00  0.00    -0.048 A 
ATOM     60  C18 4YH d   1      18.665 -45.199  30.618  0.00  0.00    -0.074 A 
ATOM     61  H33 4YH d   1      18.173 -47.109  29.737  0.00  0.00     0.087 H 
ATOM     62  H32 4YH d   1      18.580 -44.666  29.678  0.00  0.00     0.084 H 
BRANCH  56  63
ATOM     63  O20 4YH d   1      18.968 -47.259  34.196  0.00  0.00    -0.353 OA
BRANCH  63  64
ATOM     64  C31 4YH d   1      19.883 -46.568  35.068  0.00  0.00     0.010 C 
ATOM     65  H37 4YH d   1      19.967 -47.114  36.019  0.00  0.00     0.066 H 
ATOM     66  H38 4YH d   1      19.509 -45.552  35.261  0.00  0.00     0.066 H 
ATOM     67  H39 4YH d   1      20.872 -46.510  34.590  0.00  0.00     0.066 H 
ENDBRANCH  63  64
ENDBRANCH  56  63
BRANCH  58  68
ATOM     68  O24 4YH d   1      18.307 -48.667  31.963  0.00  0.00    -0.353 OA
BRANCH  68  69
ATOM     69  C33 4YH d   1      16.951 -49.141  31.952  0.00  0.00     0.010 C 
ATOM     70  H34 4YH d   1      16.945 -50.237  32.039  0.00  0.00     0.066 H 
ATOM     71  H35 4YH d   1      16.467 -48.846  31.009  0.00  0.00     0.066 H 
ATOM     72  H36 4YH d   1      16.402 -48.703  32.799  0.00  0.00     0.066 H 
ENDBRANCH  68  69
ENDBRANCH  58  68
ENDBRANCH  51  54
ENDBRANCH  48  51
ENDBRANCH  42  48
ENDBRANCH  39  42
ENDBRANCH   1  39
TORSDOF 21
