REMARK  31 active torsions:
REMARK  status: ('A' for Active; 'I' for Inactive)
REMARK    1  A    between atoms: N_1  and  CA_2 
REMARK    2  A    between atoms: CA_2  and  C_3 
REMARK       I    between atoms: C_3  and  N_5 
REMARK    3  A    between atoms: N_5  and  CA_6 
REMARK    4  A    between atoms: CA_6  and  C_7 
REMARK    5  A    between atoms: CA_6  and  CB_9 
REMARK       I    between atoms: C_7  and  N_13 
REMARK    6  A    between atoms: CB_9  and  CG_10 
REMARK    7  A    between atoms: CG_10  and  CD1_11 
REMARK    8  A    between atoms: CG_10  and  CD2_12 
REMARK    9  A    between atoms: N_13  and  CA_14 
REMARK   10  A    between atoms: CA_14  and  C_15 
REMARK   11  A    between atoms: CA_14  and  CB_17 
REMARK       I    between atoms: C_15  and  N_22 
REMARK   12  A    between atoms: CB_17  and  CG_18 
REMARK   13  A    between atoms: CG_18  and  CD_19 
REMARK   14  A    between atoms: N_22  and  CA_23 
REMARK   15  A    between atoms: CA_23  and  C_24 
REMARK   16  A    between atoms: CA_23  and  CB_26 
REMARK       I    between atoms: C_24  and  N_30 
REMARK   17  A    between atoms: CB_26  and  CG_27 
REMARK   18  A    between atoms: CG_27  and  CD1_28 
REMARK   19  A    between atoms: CG_27  and  CD2_29 
REMARK   20  A    between atoms: N_30  and  CA_31 
REMARK   21  A    between atoms: CA_31  and  C_32 
REMARK   22  A    between atoms: CA_31  and  CB_34 
REMARK       I    between atoms: C_32  and  N_36 
REMARK   23  A    between atoms: CB_34  and  OG_35 
REMARK   24  A    between atoms: N_36  and  CA_37 
REMARK   25  A    between atoms: CA_37  and  C_38 
REMARK   26  A    between atoms: CA_37  and  CB_40 
REMARK       I    between atoms: C_38  and  N_44 
REMARK   27  A    between atoms: CB_40  and  CG_41 
REMARK   28  A    between atoms: CG_41  and  CD1_42 
REMARK   29  A    between atoms: CG_41  and  CD2_43 
REMARK   30  A    between atoms: N_44  and  CA_45 
REMARK   31  A    between atoms: CA_45  and  C_46 
ROOT
ATOM      1  CA  LEU d   1       0.156  65.029 165.341  0.00  0.00     0.089 C 
ATOM      2  H24 LEU d   1      -0.806  64.497 165.381  0.00  0.00     0.087 H 
ENDROOT
BRANCH   1   3
ATOM      3  N   LEU d   1       0.502  65.511 166.670  0.00  0.00    -0.346 N 
ATOM      4  C   GLU d   1       0.287  64.747 167.736  0.00  0.00     0.241 C 
ATOM      5  O   GLU d   1      -0.288  63.655 167.660  0.00  0.00    -0.271 OA
ATOM      6  H23 LEU d   1       0.903  66.420 166.781  0.00  0.00     0.163 HD
BRANCH   4   7
ATOM      7  CA  GLU d   1       0.757  65.290 169.091  0.00  0.00     0.090 C 
ATOM      8  H18 GLU d   1       0.849  66.384 169.027  0.00  0.00     0.087 H 
BRANCH   7   9
ATOM      9  N   GLU d   1      -0.218  64.946 170.105  0.00  0.00    -0.346 N 
ATOM     10  C   LEU d   1      -1.443  65.453 170.084  0.00  0.00     0.241 C 
ATOM     11  O   LEU d   1      -1.805  66.301 169.261  0.00  0.00    -0.271 OA
ATOM     12  H17 GLU d   1       0.038  64.313 170.836  0.00  0.00     0.163 HD
BRANCH  10  13
ATOM     13  CA  LEU d   1      -2.381  64.995 171.196  0.00  0.00     0.089 C 
ATOM     14  H7  LEU d   1      -3.114  64.313 170.739  0.00  0.00     0.087 H 
BRANCH  13  15
ATOM     15  N   LEU d   1      -1.721  64.242 172.271  0.00  0.00    -0.346 N 
ATOM     16  C   GLY d   1      -1.771  62.917 172.374  0.00  0.00     0.243 C 
ATOM     17  O   GLY d   1      -2.557  62.221 171.732  0.00  0.00    -0.272 OA
ATOM     18  H6  LEU d   1      -1.208  64.752 172.961  0.00  0.00     0.163 HD
BRANCH  16  19
ATOM     19  CA  GLY d   1      -0.861  62.296 173.417  0.00  0.00     0.152 C 
ATOM     20  H4  GLY d   1      -1.059  62.775 174.387  0.00  0.00     0.090 H 
ATOM     21  H5  GLY d   1      -1.087  61.222 173.486  0.00  0.00     0.090 H 
BRANCH  19  22
ATOM     22  N   GLY d   1       0.548  62.456 173.098  0.00  0.00    -0.071 N 
ATOM     23  H1  GLY d   1       1.107  62.028 173.820  0.00  0.00     0.274 HD
ATOM     24  H2  GLY d   1       0.770  63.438 173.040  0.00  0.00     0.274 HD
ATOM     25  H3  GLY d   1       0.745  62.014 172.214  0.00  0.00     0.274 HD
ENDBRANCH  19  22
ENDBRANCH  16  19
ENDBRANCH  13  15
BRANCH  13  26
ATOM     26  CB  LEU d   1      -3.145  66.194 171.737  0.00  0.00    -0.035 C 
ATOM     27  H8  LEU d   1      -3.270  66.907 170.909  0.00  0.00     0.037 H 
ATOM     28  H9  LEU d   1      -2.527  66.651 172.524  0.00  0.00     0.037 H 
BRANCH  26  29
ATOM     29  CG  LEU d   1      -4.530  65.937 172.333  0.00  0.00    -0.059 C 
ATOM     30  H10 LEU d   1      -5.239  65.861 171.495  0.00  0.00     0.038 H 
BRANCH  29  31
ATOM     31  CD1 LEU d   1      -4.657  64.650 173.133  0.00  0.00    -0.073 C 
ATOM     32  H11 LEU d   1      -5.684  64.557 173.517  0.00  0.00     0.028 H 
ATOM     33  H12 LEU d   1      -3.950  64.671 173.976  0.00  0.00     0.028 H 
ATOM     34  H13 LEU d   1      -4.429  63.791 172.485  0.00  0.00     0.028 H 
ENDBRANCH  29  31
BRANCH  29  35
ATOM     35  CD2 LEU d   1      -4.916  67.138 173.168  0.00  0.00    -0.073 C 
ATOM     36  H14 LEU d   1      -4.814  68.052 172.565  0.00  0.00     0.028 H 
ATOM     37  H15 LEU d   1      -4.255  67.203 174.045  0.00  0.00     0.028 H 
ATOM     38  H16 LEU d   1      -5.959  67.033 173.502  0.00  0.00     0.028 H 
ENDBRANCH  29  35
ENDBRANCH  26  29
ENDBRANCH  13  26
ENDBRANCH  10  13
ENDBRANCH   7   9
BRANCH   7  39
ATOM     39  CB  GLU d   1       2.112  64.697 169.479  0.00  0.00    -0.029 C 
ATOM     40  H19 GLU d   1       2.147  63.665 169.101  0.00  0.00     0.037 H 
ATOM     41  H20 GLU d   1       2.171  64.687 170.577  0.00  0.00     0.037 H 
BRANCH  39  42
ATOM     42  CG  GLU d   1       3.336  65.421 168.957  0.00  0.00     0.018 C 
ATOM     43  H21 GLU d   1       3.380  66.421 169.414  0.00  0.00     0.049 H 
ATOM     44  H22 GLU d   1       3.252  65.520 167.865  0.00  0.00     0.049 H 
BRANCH  42  45
ATOM     45  CD  GLU d   1       4.618  64.672 169.286  0.00  0.00     0.172 C 
ATOM     46  OE1 GLU d   1       4.918  63.688 168.577  0.00  0.00    -0.648 OA
ATOM     47  OE2 GLU d   1       5.315  65.053 170.254  0.00  0.00    -0.648 OA
ENDBRANCH  42  45
ENDBRANCH  39  42
ENDBRANCH   7  39
ENDBRANCH   4   7
ENDBRANCH   1   3
BRANCH   1  48
ATOM     48  C   LEU d   1       1.260  64.048 164.943  0.00  0.00     0.241 C 
ATOM     49  O   LEU d   1       2.429  64.289 165.252  0.00  0.00    -0.271 OA
ATOM     50  N   SER d   1       0.912  62.953 164.269  0.00  0.00    -0.344 N 
ATOM     51  H34 SER d   1      -0.049  62.803 164.037  0.00  0.00     0.163 HD
BRANCH  50  52
ATOM     52  CA  SER d   1       1.919  61.961 163.860  0.00  0.00     0.109 C 
ATOM     53  H35 SER d   1       2.835  62.513 163.603  0.00  0.00     0.090 H 
BRANCH  52  54
ATOM     54  C   SER d   1       1.521  61.133 162.643  0.00  0.00     0.243 C 
ATOM     55  O   SER d   1       0.403  61.233 162.150  0.00  0.00    -0.271 OA
ATOM     56  N   LEU d   1       2.447  60.305 162.169  0.00  0.00    -0.346 N 
ATOM     57  H39 LEU d   1       3.334  60.250 162.627  0.00  0.00     0.163 HD
BRANCH  56  58
ATOM     58  CA  LEU d   1       2.198  59.475 160.996  0.00  0.00     0.089 C 
ATOM     59  H40 LEU d   1       1.790  60.126 160.208  0.00  0.00     0.087 H 
BRANCH  58  60
ATOM     60  C   LEU d   1       1.179  58.364 161.249  0.00  0.00     0.240 C 
ATOM     61  O   LEU d   1       0.333  58.087 160.394  0.00  0.00    -0.271 OA
ATOM     62  N   GLY d   1       1.241  57.745 162.423  0.00  0.00    -0.349 N 
ATOM     63  H50 GLY d   1       1.915  58.041 163.099  0.00  0.00     0.163 HD
BRANCH  62  64
ATOM     64  CA  GLY d   1       0.346  56.646 162.741  0.00  0.00     0.075 C 
ATOM     65  H51 GLY d   1       0.797  55.711 162.378  0.00  0.00     0.080 H 
ATOM     66  H52 GLY d   1      -0.612  56.814 162.227  0.00  0.00     0.080 H 
BRANCH  64  67
ATOM     67  C   GLY d   1       0.078  56.508 164.226  0.00  0.00     0.191 C 
ATOM     68  O   GLY d   1      -0.073  57.503 164.938  0.00  0.00    -0.647 OA
ATOM     69  OXT GLY d   1       0.005  55.398 164.756  0.00  0.00    -0.647 OA
ENDBRANCH  64  67
ENDBRANCH  62  64
ENDBRANCH  58  60
BRANCH  58  70
ATOM     70  CB  LEU d   1       3.515  58.881 160.491  0.00  0.00    -0.035 C 
ATOM     71  H41 LEU d   1       3.348  57.821 160.247  0.00  0.00     0.037 H 
ATOM     72  H42 LEU d   1       4.262  58.959 161.294  0.00  0.00     0.037 H 
BRANCH  70  73
ATOM     73  CG  LEU d   1       4.065  59.580 159.251  0.00  0.00    -0.059 C 
ATOM     74  H43 LEU d   1       4.282  60.630 159.498  0.00  0.00     0.038 H 
BRANCH  73  75
ATOM     75  CD1 LEU d   1       5.346  58.932 158.733  0.00  0.00    -0.073 C 
ATOM     76  H44 LEU d   1       5.697  59.474 157.842  0.00  0.00     0.028 H 
ATOM     77  H45 LEU d   1       5.146  57.883 158.469  0.00  0.00     0.028 H 
ATOM     78  H46 LEU d   1       6.119  58.972 159.514  0.00  0.00     0.028 H 
ENDBRANCH  73  75
BRANCH  73  79
ATOM     79  CD2 LEU d   1       2.980  59.524 158.188  0.00  0.00    -0.073 C 
ATOM     80  H47 LEU d   1       2.064  59.994 158.574  0.00  0.00     0.028 H 
ATOM     81  H48 LEU d   1       2.773  58.475 157.930  0.00  0.00     0.028 H 
ATOM     82  H49 LEU d   1       3.318  60.063 157.290  0.00  0.00     0.028 H 
ENDBRANCH  73  79
ENDBRANCH  70  73
ENDBRANCH  58  70
ENDBRANCH  56  58
ENDBRANCH  52  54
BRANCH  52  83
ATOM     83  CB  SER d   1       2.240  61.005 165.019  0.00  0.00     0.044 C 
ATOM     84  H36 SER d   1       2.856  60.177 164.638  0.00  0.00     0.077 H 
ATOM     85  H37 SER d   1       1.298  60.606 165.424  0.00  0.00     0.077 H 
BRANCH  83  86
ATOM     86  OG  SER d   1       2.945  61.663 166.058  0.00  0.00    -0.398 OA
ATOM     87  H38 SER d   1       2.417  62.377 166.395  0.00  0.00     0.209 HD
ENDBRANCH  83  86
ENDBRANCH  52  83
ENDBRANCH  50  52
ENDBRANCH   1  48
BRANCH   1  88
ATOM     88  CB  LEU d   1       0.024  66.187 164.357  0.00  0.00    -0.035 C 
ATOM     89  H25 LEU d   1      -0.407  65.806 163.419  0.00  0.00     0.037 H 
ATOM     90  H26 LEU d   1       1.025  66.599 164.160  0.00  0.00     0.037 H 
BRANCH  88  91
ATOM     91  CG  LEU d   1      -0.873  67.309 164.891  0.00  0.00    -0.059 C 
ATOM     92  H27 LEU d   1      -0.404  67.704 165.804  0.00  0.00     0.038 H 
BRANCH  91  93
ATOM     93  CD1 LEU d   1      -1.007  68.461 163.908  0.00  0.00    -0.073 C 
ATOM     94  H28 LEU d   1      -1.658  69.236 164.338  0.00  0.00     0.028 H 
ATOM     95  H29 LEU d   1      -1.446  68.093 162.969  0.00  0.00     0.028 H 
ATOM     96  H30 LEU d   1      -0.014  68.888 163.706  0.00  0.00     0.028 H 
ENDBRANCH  91  93
BRANCH  91  97
ATOM     97  CD2 LEU d   1      -2.238  66.769 165.263  0.00  0.00    -0.073 C 
ATOM     98  H31 LEU d   1      -2.122  65.938 165.974  0.00  0.00     0.028 H 
ATOM     99  H32 LEU d   1      -2.749  66.409 164.358  0.00  0.00     0.028 H 
ATOM    100  H33 LEU d   1      -2.834  67.568 165.728  0.00  0.00     0.028 H 
ENDBRANCH  91  97
ENDBRANCH  88  91
ENDBRANCH   1  88
TORSDOF 31
