REMARK  3 active torsions:
REMARK  status: ('A' for Active; 'I' for Inactive)
REMARK    1  A    between atoms: C2_2  and  C1_1 
REMARK    2  A    between atoms: C5_5  and  N4_4 
REMARK    3  A    between atoms: C6_6  and  C5_5 
REMARK       I    between atoms: N8_15  and  C6_6 
ROOT
ATOM      1  C5  4YE d   1     -16.498 -18.577  -4.280  0.00  0.00     0.156 C 
ATOM      2  H8  4YE d   1     -16.833 -17.557  -4.520  0.00  0.00     0.090 H 
ATOM      3  H9  4YE d   1     -17.276 -19.297  -4.573  0.00  0.00     0.090 H 
ENDROOT
BRANCH   1   4
ATOM      4  N4  4YE d   1     -16.333 -18.664  -2.821  0.00  0.00    -0.059 N 
ATOM      5  C3  4YE d   1     -15.898 -19.989  -2.360  0.00  0.00     0.110 C 
ATOM      6  C2  4YE d   1     -15.911 -20.102  -0.836  0.00  0.00     0.121 C 
ATOM      7  H5  4YE d   1     -16.575 -20.749  -2.778  0.00  0.00     0.079 H 
ATOM      8  H6  4YE d   1     -14.875 -20.171  -2.720  0.00  0.00     0.079 H 
ATOM      9  N19 4YE d   1     -15.078 -18.991  -0.265  0.00  0.00    -0.068 N 
ATOM     10  H4  4YE d   1     -16.948 -19.993  -0.485  0.00  0.00     0.086 H 
ATOM     11  C18 4YE d   1     -15.505 -17.650  -0.745  0.00  0.00     0.104 C 
ATOM     12  H22 4YE d   1     -14.117 -19.138  -0.532  0.00  0.00     0.277 HD
ATOM     13  H23 4YE d   1     -15.155 -19.014   0.740  0.00  0.00     0.277 HD
ATOM     14  C17 4YE d   1     -15.480 -17.607  -2.263  0.00  0.00     0.106 C 
ATOM     15  H20 4YE d   1     -16.526 -17.445  -0.392  0.00  0.00     0.078 H 
ATOM     16  H21 4YE d   1     -14.820 -16.886  -0.348  0.00  0.00     0.078 H 
ATOM     17  H18 4YE d   1     -15.847 -16.628  -2.603  0.00  0.00     0.078 H 
ATOM     18  H19 4YE d   1     -14.447 -17.753  -2.612  0.00  0.00     0.078 H 
ATOM     19  H7  4YE d   1     -17.252 -18.518  -2.433  0.00  0.00     0.280 HD
BRANCH   6  20
ATOM     20  C1  4YE d   1     -15.376 -21.443  -0.347  0.00  0.00    -0.048 C 
ATOM     21  H1  4YE d   1     -15.987 -22.256  -0.766  0.00  0.00     0.030 H 
ATOM     22  H2  4YE d   1     -15.423 -21.478   0.751  0.00  0.00     0.030 H 
ATOM     23  H3  4YE d   1     -14.332 -21.563  -0.674  0.00  0.00     0.030 H 
ENDBRANCH   6  20
ENDBRANCH   1   4
BRANCH   1  24
ATOM     24  C6  4YE d   1     -15.260 -18.867  -5.113  0.00  0.00     0.250 C 
ATOM     25  O7  4YE d   1     -14.168 -19.016  -4.581  0.00  0.00    -0.271 OA
ATOM     26  N8  4YE d   1     -15.417 -18.954  -6.477  0.00  0.00    -0.316 N 
ATOM     27  C16 4YE d   1     -14.417 -19.261  -7.432  0.00  0.00     0.043 A 
ATOM     28  C9  4YE d   1     -16.717 -18.700  -7.154  0.00  0.00     0.007 C 
ATOM     29  C11 4YE d   1     -15.002 -19.333  -8.689  0.00  0.00    -0.030 A 
ATOM     30  C15 4YE d   1     -13.059 -19.477  -7.272  0.00  0.00    -0.056 A 
ATOM     31  C10 4YE d   1     -16.479 -19.063  -8.609  0.00  0.00    -0.024 C 
ATOM     32  C12 4YE d   1     -14.214 -19.623  -9.791  0.00  0.00    -0.075 A 
ATOM     33  H10 4YE d   1     -17.054 -19.959  -8.886  0.00  0.00     0.042 H 
ATOM     34  H11 4YE d   1     -16.759 -18.229  -9.269  0.00  0.00     0.042 H 
ATOM     35  C13 4YE d   1     -12.853 -19.840  -9.633  0.00  0.00    -0.082 A 
ATOM     36  H12 4YE d   1     -14.661 -19.680 -10.777  0.00  0.00     0.084 H 
ATOM     37  C14 4YE d   1     -12.279 -19.767  -8.379  0.00  0.00    -0.081 A 
ATOM     38  H13 4YE d   1     -12.238 -20.067 -10.496  0.00  0.00     0.083 H 
ATOM     39  H14 4YE d   1     -11.215 -19.937  -8.261  0.00  0.00     0.083 H 
ATOM     40  H15 4YE d   1     -12.609 -19.420  -6.287  0.00  0.00     0.086 H 
ATOM     41  H16 4YE d   1     -17.508 -19.331  -6.722  0.00  0.00     0.065 H 
ATOM     42  H17 4YE d   1     -17.001 -17.641  -7.061  0.00  0.00     0.065 H 
ENDBRANCH   1  24
TORSDOF 3
