REMARK  3 active torsions:
REMARK  status: ('A' for Active; 'I' for Inactive)
REMARK    1  A    between atoms: C2_2  and  C1_1 
REMARK    2  A    between atoms: C5_5  and  N4_4 
REMARK    3  A    between atoms: C6_6  and  C5_5 
REMARK       I    between atoms: N8_13  and  C6_6 
ROOT
ATOM      1  C2  4YD d   1     -15.816 -20.286  -0.886  0.00  0.00     0.121 C 
ATOM      2  C3  4YD d   1     -15.816 -20.019  -2.389  0.00  0.00     0.110 C 
ATOM      3  N4  4YD d   1     -16.216 -18.650  -2.740  0.00  0.00    -0.059 N 
ATOM      4  C13 4YD d   1     -15.335 -17.679  -2.089  0.00  0.00     0.106 C 
ATOM      5  C14 4YD d   1     -15.393 -17.844  -0.581  0.00  0.00     0.104 C 
ATOM      6  N15 4YD d   1     -15.000 -19.227  -0.201  0.00  0.00    -0.068 N 
ATOM      7  H4  4YD d   1     -16.851 -20.244  -0.516  0.00  0.00     0.086 H 
ATOM      8  H5  4YD d   1     -16.516 -20.720  -2.867  0.00  0.00     0.079 H 
ATOM      9  H6  4YD d   1     -14.801 -20.195  -2.774  0.00  0.00     0.079 H 
ATOM     10  H7  4YD d   1     -17.135 -18.510  -2.350  0.00  0.00     0.280 HD
ATOM     11  H16 4YD d   1     -15.657 -16.661  -2.355  0.00  0.00     0.078 H 
ATOM     12  H17 4YD d   1     -14.302 -17.839  -2.432  0.00  0.00     0.078 H 
ATOM     13  H18 4YD d   1     -16.418 -17.649  -0.233  0.00  0.00     0.078 H 
ATOM     14  H19 4YD d   1     -14.704 -17.128  -0.110  0.00  0.00     0.078 H 
ATOM     15  H22 4YD d   1     -14.031 -19.362  -0.444  0.00  0.00     0.277 HD
ATOM     16  H23 4YD d   1     -15.114 -19.330   0.795  0.00  0.00     0.277 HD
ENDROOT
BRANCH   3  17
ATOM     17  C5  4YD d   1     -16.355 -18.438  -4.193  0.00  0.00     0.156 C 
ATOM     18  H8  4YD d   1     -16.524 -17.363  -4.357  0.00  0.00     0.090 H 
ATOM     19  H9  4YD d   1     -17.237 -19.003  -4.528  0.00  0.00     0.090 H 
BRANCH  17  20
ATOM     20  C6  4YD d   1     -15.178 -18.858  -5.072  0.00  0.00     0.245 C 
ATOM     21  O7  4YD d   1     -14.093 -19.163  -4.590  0.00  0.00    -0.272 OA
ATOM     22  N8  4YD d   1     -15.377 -18.883  -6.405  0.00  0.00    -0.351 N 
ATOM     23  C12 4YD d   1     -16.665 -18.799  -7.113  0.00  0.00    -0.002 C 
ATOM     24  C9  4YD d   1     -14.254 -19.081  -7.335  0.00  0.00    -0.002 C 
ATOM     25  C11 4YD d   1     -16.255 -18.525  -8.533  0.00  0.00    -0.049 C 
ATOM     26  H14 4YD d   1     -17.220 -19.746  -7.038  0.00  0.00     0.064 H 
ATOM     27  H15 4YD d   1     -17.282 -17.980  -6.715  0.00  0.00     0.064 H 
ATOM     28  C10 4YD d   1     -14.938 -19.248  -8.681  0.00  0.00    -0.049 C 
ATOM     29  H12 4YD d   1     -17.000 -18.922  -9.238  0.00  0.00     0.035 H 
ATOM     30  H13 4YD d   1     -16.129 -17.445  -8.702  0.00  0.00     0.035 H 
ATOM     31  H10 4YD d   1     -14.335 -18.795  -9.482  0.00  0.00     0.035 H 
ATOM     32  H11 4YD d   1     -15.103 -20.313  -8.903  0.00  0.00     0.035 H 
ATOM     33  H20 4YD d   1     -13.587 -18.207  -7.338  0.00  0.00     0.064 H 
ATOM     34  H21 4YD d   1     -13.678 -19.981  -7.071  0.00  0.00     0.064 H 
ENDBRANCH  17  20
ENDBRANCH   3  17
BRANCH   1  35
ATOM     35  C1  4YD d   1     -15.235 -21.655  -0.567  0.00  0.00    -0.048 C 
ATOM     36  H1  4YD d   1     -15.831 -22.432  -1.068  0.00  0.00     0.030 H 
ATOM     37  H2  4YD d   1     -15.258 -21.819   0.520  0.00  0.00     0.030 H 
ATOM     38  H3  4YD d   1     -14.195 -21.704  -0.923  0.00  0.00     0.030 H 
ENDBRANCH   1  35
TORSDOF 3
