REMARK  5 active torsions:
REMARK  status: ('A' for Active; 'I' for Inactive)
REMARK    1  A    between atoms: C2_2  and  C1_1 
REMARK    2  A    between atoms: C5_5  and  N4_4 
REMARK    3  A    between atoms: C6_6  and  C5_5 
REMARK       I    between atoms: N8_17  and  C6_6 
REMARK    4  A    between atoms: C10_7  and  C11_8 
REMARK    5  A    between atoms: C10_7  and  C12_9 
ROOT
ATOM      1  C6  4YC d   1     -14.921 -18.796  -5.440  0.00  0.00     0.250 C 
ATOM      2  C10 4YC d   1     -15.948 -18.497  -9.011  0.00  0.00    -0.002 C 
ATOM      3  C13 4YC d   1     -14.540 -19.064  -9.032  0.00  0.00    -0.021 A 
ATOM      4  C14 4YC d   1     -13.746 -19.404 -10.113  0.00  0.00    -0.072 A 
ATOM      5  C15 4YC d   1     -12.472 -19.913  -9.901  0.00  0.00    -0.061 A 
ATOM      6  C16 4YC d   1     -12.005 -20.077  -8.612  0.00  0.00     0.036 A 
ATOM      7  C19 4YC d   1     -14.056 -19.235  -7.742  0.00  0.00     0.046 A 
ATOM      8  O7  4YC d   1     -13.853 -19.025  -4.889  0.00  0.00    -0.271 OA
ATOM      9  N8  4YC d   1     -15.045 -18.820  -6.818  0.00  0.00    -0.315 N 
ATOM     10  C9  4YC d   1     -16.340 -18.654  -7.529  0.00  0.00     0.013 C 
ATOM     11 CL1  4YC d   1     -10.406 -20.716  -8.356  0.00  0.00    -0.084 Cl
ATOM     12  C18 4YC d   1     -12.784 -19.743  -7.521  0.00  0.00    -0.035 A 
ATOM     13  H16 4YC d   1     -14.118 -19.273 -11.123  0.00  0.00     0.084 H 
ATOM     14  H17 4YC d   1     -11.846 -20.181 -10.745  0.00  0.00     0.086 H 
ATOM     15  H20 4YC d   1     -16.978 -19.539  -7.387  0.00  0.00     0.066 H 
ATOM     16  H21 4YC d   1     -16.869 -17.759  -7.170  0.00  0.00     0.066 H 
ATOM     17  H22 4YC d   1     -12.409 -19.875  -6.513  0.00  0.00     0.089 H 
ENDROOT
BRANCH   1  18
ATOM     18  C5  4YC d   1     -16.167 -18.473  -4.627  0.00  0.00     0.156 C 
ATOM     19  H8  4YC d   1     -16.476 -17.448  -4.881  0.00  0.00     0.090 H 
ATOM     20  H9  4YC d   1     -16.955 -19.179  -4.928  0.00  0.00     0.090 H 
BRANCH  18  21
ATOM     21  N4  4YC d   1     -16.032 -18.550  -3.163  0.00  0.00    -0.059 N 
ATOM     22  C3  4YC d   1     -15.657 -19.888  -2.684  0.00  0.00     0.110 C 
ATOM     23  C2  4YC d   1     -15.698 -19.980  -1.162  0.00  0.00     0.121 C 
ATOM     24  H5  4YC d   1     -16.357 -20.625  -3.104  0.00  0.00     0.079 H 
ATOM     25  H6  4YC d   1     -14.637 -20.115  -3.027  0.00  0.00     0.079 H 
ATOM     26  N22 4YC d   1     -14.806 -18.912  -0.596  0.00  0.00    -0.068 N 
ATOM     27  H4  4YC d   1     -16.731 -19.804  -0.827  0.00  0.00     0.086 H 
ATOM     28  C21 4YC d   1     -15.172 -17.555  -1.082  0.00  0.00     0.104 C 
ATOM     29  H25 4YC d   1     -13.855 -19.107  -0.866  0.00  0.00     0.277 HD
ATOM     30  H26 4YC d   1     -14.880 -18.927   0.409  0.00  0.00     0.277 HD
ATOM     31  C20 4YC d   1     -15.147 -17.519  -2.602  0.00  0.00     0.106 C 
ATOM     32  H18 4YC d   1     -16.183 -17.303  -0.729  0.00  0.00     0.078 H 
ATOM     33  H19 4YC d   1     -14.453 -16.822  -0.689  0.00  0.00     0.078 H 
ATOM     34  H23 4YC d   1     -15.483 -16.529  -2.945  0.00  0.00     0.078 H 
ATOM     35  H24 4YC d   1     -14.119 -17.698  -2.950  0.00  0.00     0.078 H 
ATOM     36  H7  4YC d   1     -16.951 -18.365  -2.792  0.00  0.00     0.280 HD
BRANCH  23  37
ATOM     37  C1  4YC d   1     -15.252 -21.342  -0.649  0.00  0.00    -0.048 C 
ATOM     38  H1  4YC d   1     -15.906 -22.122  -1.065  0.00  0.00     0.030 H 
ATOM     39  H2  4YC d   1     -15.313 -21.358   0.449  0.00  0.00     0.030 H 
ATOM     40  H3  4YC d   1     -14.214 -21.529  -0.961  0.00  0.00     0.030 H 
ENDBRANCH  23  37
ENDBRANCH  18  21
ENDBRANCH   1  18
BRANCH   2  41
ATOM     41  C11 4YC d   1     -16.903 -19.262  -9.919  0.00  0.00    -0.064 C 
ATOM     42  H10 4YC d   1     -17.904 -18.809  -9.864  0.00  0.00     0.028 H 
ATOM     43  H11 4YC d   1     -16.957 -20.311  -9.593  0.00  0.00     0.028 H 
ATOM     44  H12 4YC d   1     -16.538 -19.218 -10.956  0.00  0.00     0.028 H 
ENDBRANCH   2  41
BRANCH   2  45
ATOM     45  C12 4YC d   1     -15.945 -17.032  -9.423  0.00  0.00    -0.064 C 
ATOM     46  H13 4YC d   1     -15.258 -16.470  -8.773  0.00  0.00     0.028 H 
ATOM     47  H14 4YC d   1     -16.961 -16.621  -9.325  0.00  0.00     0.028 H 
ATOM     48  H15 4YC d   1     -15.614 -16.946 -10.468  0.00  0.00     0.028 H 
ENDBRANCH   2  45
TORSDOF 5
