REMARK  3 active torsions:
REMARK  status: ('A' for Active; 'I' for Inactive)
REMARK    1  A    between atoms: C2_2  and  C1_1 
REMARK    2  A    between atoms: C5_5  and  N4_4 
REMARK    3  A    between atoms: C6_6  and  C5_5 
REMARK       I    between atoms: N8_14  and  C6_6 
ROOT
ATOM      1  C5  4YF d   1     -16.484 -18.485  -4.134  0.00  0.00     0.156 C 
ATOM      2  H8  4YF d   1     -16.736 -17.431  -4.325  0.00  0.00     0.090 H 
ATOM      3  H9  4YF d   1     -17.327 -19.124  -4.435  0.00  0.00     0.090 H 
ENDROOT
BRANCH   1   4
ATOM      4  N4  4YF d   1     -16.295 -18.645  -2.687  0.00  0.00    -0.059 N 
ATOM      5  C3  4YF d   1     -15.931 -20.010  -2.288  0.00  0.00     0.110 C 
ATOM      6  C2  4YF d   1     -15.940 -20.180  -0.771  0.00  0.00     0.121 C 
ATOM      7  H5  4YF d   1     -16.652 -20.714  -2.729  0.00  0.00     0.079 H 
ATOM      8  H6  4YF d   1     -14.922 -20.234  -2.665  0.00  0.00     0.079 H 
ATOM      9  N20 4YF d   1     -15.038 -19.143  -0.166  0.00  0.00    -0.068 N 
ATOM     10  H4  4YF d   1     -16.966 -20.024  -0.406  0.00  0.00     0.086 H 
ATOM     11  C19 4YF d   1     -15.391 -17.761  -0.585  0.00  0.00     0.104 C 
ATOM     12  H20 4YF d   1     -14.090 -19.334  -0.451  0.00  0.00     0.277 HD
ATOM     13  H21 4YF d   1     -15.106 -19.203   0.838  0.00  0.00     0.277 HD
ATOM     14  C18 4YF d   1     -15.380 -17.657  -2.100  0.00  0.00     0.106 C 
ATOM     15  H14 4YF d   1     -16.395 -17.512  -0.210  0.00  0.00     0.078 H 
ATOM     16  H15 4YF d   1     -14.658 -17.055  -0.166  0.00  0.00     0.078 H 
ATOM     17  H18 4YF d   1     -15.699 -16.647  -2.396  0.00  0.00     0.078 H 
ATOM     18  H19 4YF d   1     -14.361 -17.843  -2.469  0.00  0.00     0.078 H 
ATOM     19  H7  4YF d   1     -17.198 -18.467  -2.276  0.00  0.00     0.280 HD
BRANCH   6  20
ATOM     20  C1  4YF d   1     -15.482 -21.565  -0.340  0.00  0.00    -0.048 C 
ATOM     21  H1  4YF d   1     -16.143 -22.324  -0.783  0.00  0.00     0.030 H 
ATOM     22  H2  4YF d   1     -15.522 -21.640   0.757  0.00  0.00     0.030 H 
ATOM     23  H3  4YF d   1     -14.450 -21.733  -0.682  0.00  0.00     0.030 H 
ENDBRANCH   6  20
ENDBRANCH   1   4
BRANCH   1  24
ATOM     24  C6  4YF d   1     -15.297 -18.843  -5.010  0.00  0.00     0.250 C 
ATOM     25  O7  4YF d   1     -14.206 -19.114  -4.520  0.00  0.00    -0.271 OA
ATOM     26  N8  4YF d   1     -15.501 -18.847  -6.370  0.00  0.00    -0.316 N 
ATOM     27  C9  4YF d   1     -16.753 -18.400  -7.034  0.00  0.00     0.007 C 
ATOM     28  C17 4YF d   1     -14.544 -19.175  -7.357  0.00  0.00     0.048 A 
ATOM     29  C10 4YF d   1     -16.640 -18.946  -8.441  0.00  0.00    -0.022 C 
ATOM     30  H16 4YF d   1     -17.635 -18.815  -6.524  0.00  0.00     0.065 H 
ATOM     31  H17 4YF d   1     -16.818 -17.302  -7.045  0.00  0.00     0.065 H 
ATOM     32  C11 4YF d   1     -15.174 -19.243  -8.591  0.00  0.00    -0.012 A 
ATOM     33  H10 4YF d   1     -17.239 -19.861  -8.556  0.00  0.00     0.042 H 
ATOM     34  H11 4YF d   1     -16.966 -18.199  -9.179  0.00  0.00     0.042 H 
ATOM     35  C12 4YF d   1     -14.412 -19.553  -9.698  0.00  0.00     0.012 A 
ATOM     36  N13 4YF d   1     -13.101 -19.786  -9.615  0.00  0.00    -0.248 NA
ATOM     37  H12 4YF d   1     -14.894 -19.609 -10.667  0.00  0.00     0.115 H 
ATOM     38  C14 4YF d   1     -12.537 -19.712  -8.421  0.00  0.00     0.127 A 
ATOM     39  C16 4YF d   1     -13.192 -19.414  -7.259  0.00  0.00    -0.017 A 
ATOM     40 CL   4YF d   1     -10.828 -20.024  -8.368  0.00  0.00    -0.062 Cl
ATOM     41  H13 4YF d   1     -12.673 -19.368  -6.308  0.00  0.00     0.092 H 
ENDBRANCH   1  24
TORSDOF 3
