REMARK WARNING: 32 MAX_TORS EXCEEDED!!!
REMARK  43 active torsions:
REMARK  status: ('A' for Active; 'I' for Inactive)
REMARK    1  A    between atoms: N_1  and  CA_2 
REMARK    2  A    between atoms: CA_2  and  C_3 
REMARK    3  A    between atoms: CA_2  and  CB_5 
REMARK       I    between atoms: C_3  and  N_7 
REMARK    4  A    between atoms: CB_5  and  OG_6 
REMARK    5  A    between atoms: N_7  and  CA_8 
REMARK    6  A    between atoms: CA_8  and  C_9 
REMARK    7  A    between atoms: CA_8  and  CB_11 
REMARK       I    between atoms: C_9  and  N_12 
REMARK    8  A    between atoms: N_12  and  CA_13 
REMARK    9  A    between atoms: CA_13  and  C_14 
REMARK   10  A    between atoms: CA_13  and  CB_16 
REMARK       I    between atoms: C_14  and  N_19 
REMARK   11  A    between atoms: CB_16  and  OG1_17 
REMARK   12  A    between atoms: CB_16  and  CG2_18 
REMARK   13  A    between atoms: N_19  and  CA_20 
REMARK   14  A    between atoms: CA_20  and  C_21 
REMARK   15  A    between atoms: CA_20  and  CB_23 
REMARK       I    between atoms: C_21  and  N_28 
REMARK   16  A    between atoms: CB_23  and  CG_24 
REMARK   17  A    between atoms: CG_24  and  CD_25 
REMARK   18  A    between atoms: N_28  and  CA_29 
REMARK   19  A    between atoms: CA_29  and  C_30 
REMARK   20  A    between atoms: CA_29  and  CB_32 
REMARK       I    between atoms: C_30  and  N_36 
REMARK   21  A    between atoms: CB_32  and  CG_33 
REMARK   22  A    between atoms: CG_33  and  CD1_34 
REMARK   23  A    between atoms: CG_33  and  CD2_35 
REMARK   24  A    between atoms: N_36  and  CA_37 
REMARK   25  A    between atoms: CA_37  and  C_38 
REMARK   26  A    between atoms: CA_37  and  CB_40 
REMARK       I    between atoms: C_38  and  N_41 
REMARK   27  A    between atoms: N_41  and  CA_42 
REMARK   28  A    between atoms: CA_42  and  C_43 
REMARK   29  A    between atoms: CA_42  and  CB_45 
REMARK       I    between atoms: C_43  and  N_49 
REMARK   30  A    between atoms: CB_45  and  CG_46 
REMARK   31  A    between atoms: CG_46  and  CD1_47 
REMARK   32  A    between atoms: CG_46  and  CD2_48 
REMARK   33  A    between atoms: N_49  and  CA_50 
REMARK   34  A    between atoms: CA_50  and  C_51 
REMARK   35  A    between atoms: CA_50  and  CB_53 
REMARK       I    between atoms: C_51  and  N_54 
REMARK   36  A    between atoms: N_54  and  CA_55 
REMARK   37  A    between atoms: CA_55  and  C_56 
REMARK   38  A    between atoms: CA_55  and  CB_58 
REMARK       I    between atoms: C_56  and  N_62 
REMARK   39  A    between atoms: CB_58  and  CG_59 
REMARK   40  A    between atoms: CG_59  and  CD1_60 
REMARK   41  A    between atoms: CG_59  and  CD2_61 
REMARK   42  A    between atoms: N_62  and  CA_63 
REMARK   43  A    between atoms: CA_63  and  C_64 
ROOT
ATOM      1  CA  LEU d   1     -53.136  87.227  47.114  0.00  0.00     0.089 C 
ATOM      2  H27 LEU d   1     -52.811  86.471  47.844  0.00  0.00     0.087 H 
ENDROOT
BRANCH   1   3
ATOM      3  N   LEU d   1     -51.956  87.949  46.679  0.00  0.00    -0.346 N 
ATOM      4  C   GLU d   1     -50.758  87.421  46.873  0.00  0.00     0.241 C 
ATOM      5  O   GLU d   1     -50.590  86.417  47.558  0.00  0.00    -0.271 OA
ATOM      6  H26 LEU d   1     -52.047  88.841  46.235  0.00  0.00     0.163 HD
BRANCH   4   7
ATOM      7  CA  GLU d   1     -49.573  88.222  46.382  0.00  0.00     0.090 C 
ATOM      8  H21 GLU d   1     -49.913  89.092  45.801  0.00  0.00     0.087 H 
BRANCH   7   9
ATOM      9  N   GLU d   1     -48.879  88.650  47.579  0.00  0.00    -0.346 N 
ATOM     10  C   THR d   1     -49.127  89.823  48.135  0.00  0.00     0.243 C 
ATOM     11  O   THR d   1     -49.964  90.617  47.695  0.00  0.00    -0.271 OA
ATOM     12  H20 GLU d   1     -48.198  88.046  47.993  0.00  0.00     0.163 HD
BRANCH  10  13
ATOM     13  CA  THR d   1     -48.365  90.116  49.409  0.00  0.00     0.113 C 
ATOM     14  H14 THR d   1     -47.294  89.915  49.262  0.00  0.00     0.091 H 
BRANCH  13  15
ATOM     15  N   THR d   1     -48.552  91.530  49.686  0.00  0.00    -0.344 N 
ATOM     16  C   GLU d   1     -48.048  92.452  48.873  0.00  0.00     0.240 C 
ATOM     17  O   GLU d   1     -47.402  92.175  47.857  0.00  0.00    -0.271 OA
ATOM     18  H13 THR d   1     -49.065  91.812  50.497  0.00  0.00     0.163 HD
BRANCH  16  19
ATOM     19  CA  GLU d   1     -48.267  93.901  49.275  0.00  0.00     0.086 C 
ATOM     20  H9  GLU d   1     -48.504  93.943  50.348  0.00  0.00     0.086 H 
BRANCH  19  21
ATOM     21  N   GLU d   1     -47.039  94.646  49.036  0.00  0.00    -0.346 N 
ATOM     22  C   SER d   1     -45.898  94.346  49.654  0.00  0.00     0.251 C 
ATOM     23  O   SER d   1     -45.778  93.388  50.424  0.00  0.00    -0.271 OA
ATOM     24  H8  GLU d   1     -47.053  95.407  48.387  0.00  0.00     0.163 HD
BRANCH  22  25
ATOM     25  CA  SER d   1     -44.723  95.292  49.399  0.00  0.00     0.195 C 
ATOM     26  H4  SER d   1     -45.114  96.319  49.362  0.00  0.00     0.102 H 
BRANCH  25  27
ATOM     27  N   SER d   1     -43.743  95.222  50.476  0.00  0.00    -0.064 N 
ATOM     28  H1  SER d   1     -42.983  95.855  50.280  0.00  0.00     0.275 HD
ATOM     29  H2  SER d   1     -43.388  94.281  50.546  0.00  0.00     0.275 HD
ATOM     30  H3  SER d   1     -44.181  95.482  51.346  0.00  0.00     0.275 HD
ENDBRANCH  25  27
BRANCH  25  31
ATOM     31  CB  SER d   1     -44.069  94.981  48.045  0.00  0.00     0.051 C 
ATOM     32  H5  SER d   1     -43.424  95.826  47.761  0.00  0.00     0.077 H 
ATOM     33  H6  SER d   1     -44.860  94.854  47.291  0.00  0.00     0.077 H 
BRANCH  31  34
ATOM     34  OG  SER d   1     -43.283  93.800  48.086  0.00  0.00    -0.398 OA
ATOM     35  H7  SER d   1     -42.899  93.647  47.231  0.00  0.00     0.209 HD
ENDBRANCH  31  34
ENDBRANCH  25  31
ENDBRANCH  22  25
ENDBRANCH  19  21
BRANCH  19  36
ATOM     36  CB  GLU d   1     -49.439  94.498  48.496  0.00  0.00    -0.049 C 
ATOM     37  H10 GLU d   1     -50.349  93.914  48.698  0.00  0.00     0.030 H 
ATOM     38  H11 GLU d   1     -49.216  94.469  47.419  0.00  0.00     0.030 H 
ATOM     39  H12 GLU d   1     -49.595  95.540  48.810  0.00  0.00     0.030 H 
ENDBRANCH  19  36
ENDBRANCH  16  19
ENDBRANCH  13  15
BRANCH  13  40
ATOM     40  CB  THR d   1     -48.894  89.192  50.546  0.00  0.00     0.060 C 
ATOM     41  H15 THR d   1     -49.708  88.575  50.138  0.00  0.00     0.086 H 
BRANCH  40  42
ATOM     42  OG1 THR d   1     -49.413  89.981  51.623  0.00  0.00    -0.393 OA
ATOM     43  H16 THR d   1     -49.732  89.407  52.309  0.00  0.00     0.210 HD
ENDBRANCH  40  42
BRANCH  40  44
ATOM     44  CG2 THR d   1     -47.802  88.264  51.068  0.00  0.00    -0.050 C 
ATOM     45  H17 THR d   1     -48.212  87.629  51.867  0.00  0.00     0.031 H 
ATOM     46  H18 THR d   1     -46.971  88.864  51.466  0.00  0.00     0.031 H 
ATOM     47  H19 THR d   1     -47.436  87.630  50.247  0.00  0.00     0.031 H 
ENDBRANCH  40  44
ENDBRANCH  13  40
ENDBRANCH  10  13
ENDBRANCH   7   9
BRANCH   7  48
ATOM     48  CB  GLU d   1     -48.654  87.368  45.521  0.00  0.00    -0.029 C 
ATOM     49  H22 GLU d   1     -47.764  87.117  46.117  0.00  0.00     0.037 H 
ATOM     50  H23 GLU d   1     -48.353  87.965  44.647  0.00  0.00     0.037 H 
BRANCH  48  51
ATOM     51  CG  GLU d   1     -49.263  86.078  45.021  0.00  0.00     0.018 C 
ATOM     52  H24 GLU d   1     -49.974  86.310  44.214  0.00  0.00     0.049 H 
ATOM     53  H25 GLU d   1     -49.797  85.592  45.851  0.00  0.00     0.049 H 
BRANCH  51  54
ATOM     54  CD  GLU d   1     -48.217  85.128  44.491  0.00  0.00     0.172 C 
ATOM     55  OE1 GLU d   1     -47.113  85.602  44.158  0.00  0.00    -0.648 OA
ATOM     56  OE2 GLU d   1     -48.459  83.899  44.503  0.00  0.00    -0.648 OA
ENDBRANCH  51  54
ENDBRANCH  48  51
ENDBRANCH   7  48
ENDBRANCH   4   7
ENDBRANCH   1   3
BRANCH   1  57
ATOM     57  C   LEU d   1     -53.809  86.495  45.967  0.00  0.00     0.241 C 
ATOM     58  O   LEU d   1     -54.894  85.934  46.150  0.00  0.00    -0.271 OA
ATOM     59  N   ASP d   1     -53.155  86.457  44.805  0.00  0.00    -0.346 N 
ATOM     60  H37 ASP d   1     -52.220  86.807  44.747  0.00  0.00     0.163 HD
BRANCH  59  61
ATOM     61  CA  ASP d   1     -53.801  85.906  43.618  0.00  0.00     0.086 C 
ATOM     62  H38 ASP d   1     -54.866  86.179  43.639  0.00  0.00     0.086 H 
BRANCH  61  63
ATOM     63  C   ASP d   1     -53.684  84.402  43.591  0.00  0.00     0.240 C 
ATOM     64  O   ASP d   1     -52.994  83.814  44.410  0.00  0.00    -0.271 OA
ATOM     65  N   LEU d   1     -54.398  83.772  42.674  0.00  0.00    -0.346 N 
ATOM     66  H42 LEU d   1     -54.950  84.300  42.029  0.00  0.00     0.163 HD
BRANCH  65  67
ATOM     67  CA  LEU d   1     -54.391  82.326  42.593  0.00  0.00     0.089 C 
ATOM     68  H43 LEU d   1     -53.682  81.920  43.330  0.00  0.00     0.087 H 
BRANCH  67  69
ATOM     69  C   LEU d   1     -53.925  81.966  41.204  0.00  0.00     0.241 C 
ATOM     70  O   LEU d   1     -54.684  82.123  40.246  0.00  0.00    -0.271 OA
ATOM     71  N   ALA d   1     -52.730  81.417  41.079  0.00  0.00    -0.346 N 
ATOM     72  H53 ALA d   1     -52.176  81.245  41.894  0.00  0.00     0.163 HD
BRANCH  71  73
ATOM     73  CA  ALA d   1     -52.212  81.060  39.767  0.00  0.00     0.086 C 
ATOM     74  H54 ALA d   1     -53.021  80.629  39.159  0.00  0.00     0.086 H 
BRANCH  73  75
ATOM     75  C   ALA d   1     -51.142  80.020  39.987  0.00  0.00     0.240 C 
ATOM     76  O   ALA d   1     -50.870  79.673  41.130  0.00  0.00    -0.271 OA
ATOM     77  N   LEU d   1     -50.531  79.515  38.922  0.00  0.00    -0.346 N 
ATOM     78  H58 LEU d   1     -50.734  79.865  38.008  0.00  0.00     0.163 HD
BRANCH  77  79
ATOM     79  CA  LEU d   1     -49.561  78.444  39.104  0.00  0.00     0.089 C 
ATOM     80  H59 LEU d   1     -50.038  77.678  39.733  0.00  0.00     0.087 H 
BRANCH  79  81
ATOM     81  C   LEU d   1     -48.281  78.886  39.821  0.00  0.00     0.240 C 
ATOM     82  O   LEU d   1     -47.521  78.042  40.294  0.00  0.00    -0.271 OA
ATOM     83  N   GLY d   1     -48.065  80.192  39.955  0.00  0.00    -0.349 N 
ATOM     84  H69 GLY d   1     -48.694  80.840  39.526  0.00  0.00     0.163 HD
BRANCH  83  85
ATOM     85  CA  GLY d   1     -46.928  80.697  40.716  0.00  0.00     0.075 C 
ATOM     86  H70 GLY d   1     -46.788  81.758  40.460  0.00  0.00     0.080 H 
ATOM     87  H71 GLY d   1     -46.036  80.127  40.417  0.00  0.00     0.080 H 
BRANCH  85  88
ATOM     88  C   GLY d   1     -47.076  80.589  42.228  0.00  0.00     0.191 C 
ATOM     89  O   GLY d   1     -46.164  80.926  42.988  0.00  0.00    -0.647 OA
ATOM     90  OXT GLY d   1     -48.113  80.161  42.743  0.00  0.00    -0.647 OA
ENDBRANCH  85  88
ENDBRANCH  83  85
ENDBRANCH  79  81
BRANCH  79  91
ATOM     91  CB  LEU d   1     -49.217  77.797  37.758  0.00  0.00    -0.035 C 
ATOM     92  H60 LEU d   1     -48.543  76.952  37.961  0.00  0.00     0.037 H 
ATOM     93  H61 LEU d   1     -48.689  78.551  37.155  0.00  0.00     0.037 H 
BRANCH  91  94
ATOM     94  CG  LEU d   1     -50.378  77.265  36.914  0.00  0.00    -0.059 C 
ATOM     95  H62 LEU d   1     -51.316  77.680  37.312  0.00  0.00     0.038 H 
BRANCH  94  96
ATOM     96  CD1 LEU d   1     -50.260  77.668  35.457  0.00  0.00    -0.073 C 
ATOM     97  H63 LEU d   1     -51.114  77.263  34.894  0.00  0.00     0.028 H 
ATOM     98  H64 LEU d   1     -49.324  77.268  35.041  0.00  0.00     0.028 H 
ATOM     99  H65 LEU d   1     -50.256  78.765  35.379  0.00  0.00     0.028 H 
ENDBRANCH  94  96
BRANCH  94 100
ATOM    100  CD2 LEU d   1     -50.422  75.751  37.029  0.00  0.00    -0.073 C 
ATOM    101  H66 LEU d   1     -50.508  75.466  38.088  0.00  0.00     0.028 H 
ATOM    102  H67 LEU d   1     -49.500  75.324  36.608  0.00  0.00     0.028 H 
ATOM    103  H68 LEU d   1     -51.291  75.366  36.474  0.00  0.00     0.028 H 
ENDBRANCH  94 100
ENDBRANCH  91  94
ENDBRANCH  79  91
ENDBRANCH  77  79
ENDBRANCH  73  75
BRANCH  73 104
ATOM    104  CB  ALA d   1     -51.657  82.286  39.039  0.00  0.00    -0.049 C 
ATOM    105  H55 ALA d   1     -51.274  81.985  38.053  0.00  0.00     0.030 H 
ATOM    106  H56 ALA d   1     -50.841  82.725  39.631  0.00  0.00     0.030 H 
ATOM    107  H57 ALA d   1     -52.458  83.029  38.910  0.00  0.00     0.030 H 
ENDBRANCH  73 104
ENDBRANCH  71  73
ENDBRANCH  67  69
BRANCH  67 108
ATOM    108  CB  LEU d   1     -55.777  81.765  42.894  0.00  0.00    -0.035 C 
ATOM    109  H44 LEU d   1     -55.740  80.674  42.755  0.00  0.00     0.037 H 
ATOM    110  H45 LEU d   1     -56.485  82.203  42.175  0.00  0.00     0.037 H 
BRANCH 108 111
ATOM    111  CG  LEU d   1     -56.296  82.044  44.294  0.00  0.00    -0.059 C 
ATOM    112  H46 LEU d   1     -56.293  83.129  44.473  0.00  0.00     0.038 H 
BRANCH 111 113
ATOM    113  CD1 LEU d   1     -57.702  81.527  44.421  0.00  0.00    -0.073 C 
ATOM    114  H47 LEU d   1     -58.077  81.730  45.435  0.00  0.00     0.028 H 
ATOM    115  H48 LEU d   1     -57.712  80.443  44.236  0.00  0.00     0.028 H 
ATOM    116  H49 LEU d   1     -58.346  82.031  43.685  0.00  0.00     0.028 H 
ENDBRANCH 111 113
BRANCH 111 117
ATOM    117  CD2 LEU d   1     -55.394  81.367  45.314  0.00  0.00    -0.073 C 
ATOM    118  H50 LEU d   1     -54.369  81.753  45.211  0.00  0.00     0.028 H 
ATOM    119  H51 LEU d   1     -55.395  80.281  45.141  0.00  0.00     0.028 H 
ATOM    120  H52 LEU d   1     -55.765  81.577  46.328  0.00  0.00     0.028 H 
ENDBRANCH 111 117
ENDBRANCH 108 111
ENDBRANCH  67 108
ENDBRANCH  65  67
ENDBRANCH  61  63
BRANCH  61 121
ATOM    121  CB  ASP d   1     -53.166  86.481  42.354  0.00  0.00    -0.049 C 
ATOM    122  H39 ASP d   1     -53.663  86.057  41.469  0.00  0.00     0.030 H 
ATOM    123  H40 ASP d   1     -52.096  86.225  42.332  0.00  0.00     0.030 H 
ATOM    124  H41 ASP d   1     -53.282  87.575  42.351  0.00  0.00     0.030 H 
ENDBRANCH  61 121
ENDBRANCH  59  61
ENDBRANCH   1  57
BRANCH   1 125
ATOM    125  CB  LEU d   1     -54.119  88.160  47.818  0.00  0.00    -0.035 C 
ATOM    126  H28 LEU d   1     -55.042  88.234  47.224  0.00  0.00     0.037 H 
ATOM    127  H29 LEU d   1     -53.667  89.158  47.919  0.00  0.00     0.037 H 
BRANCH 125 128
ATOM    128  CG  LEU d   1     -54.453  87.608  49.212  0.00  0.00    -0.059 C 
ATOM    129  H30 LEU d   1     -54.898  86.611  49.077  0.00  0.00     0.038 H 
BRANCH 128 130
ATOM    130  CD1 LEU d   1     -53.195  87.452  50.040  0.00  0.00    -0.073 C 
ATOM    131  H31 LEU d   1     -53.456  87.056  51.033  0.00  0.00     0.028 H 
ATOM    132  H32 LEU d   1     -52.706  88.431  50.153  0.00  0.00     0.028 H 
ATOM    133  H33 LEU d   1     -52.509  86.755  49.536  0.00  0.00     0.028 H 
ENDBRANCH 128 130
BRANCH 128 134
ATOM    134  CD2 LEU d   1     -55.459  88.464  49.949  0.00  0.00    -0.073 C 
ATOM    135  H34 LEU d   1     -56.368  88.570  49.338  0.00  0.00     0.028 H 
ATOM    136  H35 LEU d   1     -55.026  89.457  50.138  0.00  0.00     0.028 H 
ATOM    137  H36 LEU d   1     -55.715  87.987  50.907  0.00  0.00     0.028 H 
ENDBRANCH 128 134
ENDBRANCH 125 128
ENDBRANCH   1 125
TORSDOF 43
