REMARK WARNING: 32 MAX_TORS EXCEEDED!!!
REMARK  39 active torsions:
REMARK  status: ('A' for Active; 'I' for Inactive)
REMARK    1  A    between atoms: N_1  and  CA_2 
REMARK    2  A    between atoms: CA_2  and  C_3 
REMARK    3  A    between atoms: CA_2  and  CB_5 
REMARK       I    between atoms: C_3  and  N_8 
REMARK    4  A    between atoms: CB_5  and  OG1_6 
REMARK    5  A    between atoms: CB_5  and  CG2_7 
REMARK    6  A    between atoms: N_8  and  CA_9 
REMARK    7  A    between atoms: CA_9  and  C_10 
REMARK    8  A    between atoms: CA_9  and  CB_12 
REMARK       I    between atoms: C_10  and  N_17 
REMARK    9  A    between atoms: CB_12  and  CG_13 
REMARK   10  A    between atoms: CG_13  and  CD_14 
REMARK   11  A    between atoms: N_17  and  CA_18 
REMARK   12  A    between atoms: CA_18  and  C_19 
REMARK   13  A    between atoms: CA_18  and  CB_21 
REMARK       I    between atoms: C_19  and  N_25 
REMARK   14  A    between atoms: CB_21  and  CG_22 
REMARK   15  A    between atoms: CG_22  and  CD1_23 
REMARK   16  A    between atoms: CG_22  and  CD2_24 
REMARK   17  A    between atoms: N_25  and  CA_26 
REMARK   18  A    between atoms: CA_26  and  C_27 
REMARK   19  A    between atoms: CA_26  and  CB_29 
REMARK       I    between atoms: C_27  and  N_36 
REMARK   20  A    between atoms: CB_29  and  CG_30 
REMARK   21  A    between atoms: CG_30  and  CD_31 
REMARK   22  A    between atoms: CD_31  and  NE_32 
REMARK       I    between atoms: NE_32  and  CZ_33 
REMARK       I    between atoms: CZ_33  and  NH1_34 
REMARK   23  A    between atoms: N_36  and  CA_37 
REMARK   24  A    between atoms: CA_37  and  C_38 
REMARK   25  A    between atoms: CA_37  and  CB_40 
REMARK       I    between atoms: C_38  and  N_44 
REMARK   26  A    between atoms: CB_40  and  CG_41 
REMARK   27  A    between atoms: CG_41  and  CD1_42 
REMARK   28  A    between atoms: CG_41  and  CD2_43 
REMARK   29  A    between atoms: N_44  and  CA_45 
REMARK   30  A    between atoms: CA_45  and  C_46 
REMARK       I    between atoms: C_46  and  N_48 
REMARK   31  A    between atoms: N_48  and  CA_49 
REMARK   32  A    between atoms: CA_49  and  C_50 
REMARK   33  A    between atoms: CA_49  and  CB_52 
REMARK       I    between atoms: C_50  and  N_56 
REMARK   34  A    between atoms: CB_52  and  CG_53 
REMARK   35  A    between atoms: CG_53  and  CD1_54 
REMARK   36  A    between atoms: CG_53  and  CD2_55 
REMARK   37  A    between atoms: CA_57  and  C_58 
REMARK       I    between atoms: C_58  and  N_63 
REMARK   38  A    between atoms: N_63  and  CA_64 
REMARK   39  A    between atoms: CA_64  and  C_65 
ROOT
ATOM      1  CA  ARG d   1      32.244 -69.386  19.403  0.00  0.00     0.089 C 
ATOM      2  H28 ARG d   1      33.082 -69.248  18.703  0.00  0.00     0.087 H 
ENDROOT
BRANCH   1   3
ATOM      3  N   ARG d   1      32.627 -68.789  20.687  0.00  0.00    -0.346 N 
ATOM      4  C   LEU d   1      33.290 -67.643  20.706  0.00  0.00     0.241 C 
ATOM      5  O   LEU d   1      33.720 -67.149  19.659  0.00  0.00    -0.271 OA
ATOM      6  H27 ARG d   1      32.388 -69.246  21.544  0.00  0.00     0.163 HD
BRANCH   4   7
ATOM      7  CA  LEU d   1      33.649 -66.994  22.070  0.00  0.00     0.089 C 
ATOM      8  H17 LEU d   1      32.972 -66.139  22.214  0.00  0.00     0.087 H 
BRANCH   7   9
ATOM      9  N   LEU d   1      33.482 -67.884  23.215  0.00  0.00    -0.346 N 
ATOM     10  C   GLU d   1      32.421 -67.812  23.994  0.00  0.00     0.241 C 
ATOM     11  O   GLU d   1      31.672 -66.819  24.012  0.00  0.00    -0.271 OA
ATOM     12  H16 LEU d   1      34.188 -68.564  23.413  0.00  0.00     0.163 HD
BRANCH  10  13
ATOM     13  CA  GLU d   1      32.217 -68.942  24.979  0.00  0.00     0.090 C 
ATOM     14  H11 GLU d   1      31.236 -68.837  25.465  0.00  0.00     0.087 H 
BRANCH  13  15
ATOM     15  N   GLU d   1      32.220 -70.101  24.129  0.00  0.00    -0.346 N 
ATOM     16  C   THR d   1      31.108 -70.568  23.602  0.00  0.00     0.251 C 
ATOM     17  O   THR d   1      29.997 -70.192  23.964  0.00  0.00    -0.271 OA
ATOM     18  H10 GLU d   1      33.085 -70.562  23.934  0.00  0.00     0.163 HD
BRANCH  16  19
ATOM     19  CA  THR d   1      31.307 -71.623  22.524  0.00  0.00     0.199 C 
ATOM     20  H4  THR d   1      31.739 -71.125  21.644  0.00  0.00     0.103 H 
BRANCH  19  21
ATOM     21  N   THR d   1      32.254 -72.633  22.966  0.00  0.00    -0.064 N 
ATOM     22  H1  THR d   1      33.116 -72.188  23.240  0.00  0.00     0.275 HD
ATOM     23  H2  THR d   1      32.433 -73.278  22.213  0.00  0.00     0.275 HD
ATOM     24  H3  THR d   1      31.869 -73.133  23.752  0.00  0.00     0.275 HD
ENDBRANCH  19  21
BRANCH  19  25
ATOM     25  CB  THR d   1      29.943 -72.253  22.084  0.00  0.00     0.068 C 
ATOM     26  H5  THR d   1      30.147 -72.982  21.285  0.00  0.00     0.086 H 
BRANCH  25  27
ATOM     27  OG1 THR d   1      29.065 -71.242  21.557  0.00  0.00    -0.393 OA
ATOM     28  H6  THR d   1      28.901 -70.587  22.225  0.00  0.00     0.210 HD
ENDBRANCH  25  27
BRANCH  25  29
ATOM     29  CG2 THR d   1      29.270 -72.995  23.243  0.00  0.00    -0.050 C 
ATOM     30  H7  THR d   1      28.317 -73.424  22.900  0.00  0.00     0.031 H 
ATOM     31  H8  THR d   1      29.080 -72.292  24.067  0.00  0.00     0.031 H 
ATOM     32  H9  THR d   1      29.930 -73.802  23.594  0.00  0.00     0.031 H 
ENDBRANCH  25  29
ENDBRANCH  19  25
ENDBRANCH  16  19
ENDBRANCH  13  15
BRANCH  13  33
ATOM     33  CB  GLU d   1      33.274 -69.008  26.081  0.00  0.00    -0.029 C 
ATOM     34  H12 GLU d   1      33.408 -68.004  26.510  0.00  0.00     0.037 H 
ATOM     35  H13 GLU d   1      34.225 -69.350  25.646  0.00  0.00     0.037 H 
BRANCH  33  36
ATOM     36  CG  GLU d   1      32.851 -69.989  27.209  0.00  0.00     0.018 C 
ATOM     37  H14 GLU d   1      33.514 -69.832  28.072  0.00  0.00     0.049 H 
ATOM     38  H15 GLU d   1      32.969 -71.017  26.837  0.00  0.00     0.049 H 
BRANCH  36  39
ATOM     39  CD  GLU d   1      31.395 -69.805  27.675  0.00  0.00     0.172 C 
ATOM     40  OE1 GLU d   1      30.896 -68.656  27.693  0.00  0.00    -0.648 OA
ATOM     41  OE2 GLU d   1      30.751 -70.820  28.029  0.00  0.00    -0.648 OA
ENDBRANCH  36  39
ENDBRANCH  33  36
ENDBRANCH  13  33
ENDBRANCH  10  13
ENDBRANCH   7   9
BRANCH   7  42
ATOM     42  CB  LEU d   1      35.067 -66.474  22.042  0.00  0.00    -0.035 C 
ATOM     43  H18 LEU d   1      35.276 -65.953  22.988  0.00  0.00     0.037 H 
ATOM     44  H19 LEU d   1      35.173 -65.769  21.204  0.00  0.00     0.037 H 
BRANCH  42  45
ATOM     45  CG  LEU d   1      36.061 -67.594  21.869  0.00  0.00    -0.059 C 
ATOM     46  H20 LEU d   1      35.671 -68.527  22.301  0.00  0.00     0.038 H 
BRANCH  45  47
ATOM     47  CD1 LEU d   1      36.470 -67.878  20.425  0.00  0.00    -0.073 C 
ATOM     48  H21 LEU d   1      37.193 -68.707  20.405  0.00  0.00     0.028 H 
ATOM     49  H22 LEU d   1      36.931 -66.978  19.991  0.00  0.00     0.028 H 
ATOM     50  H23 LEU d   1      35.581 -68.153  19.839  0.00  0.00     0.028 H 
ENDBRANCH  45  47
BRANCH  45  51
ATOM     51  CD2 LEU d   1      37.128 -67.076  22.653  0.00  0.00    -0.073 C 
ATOM     52  H24 LEU d   1      36.774 -66.892  23.678  0.00  0.00     0.028 H 
ATOM     53  H25 LEU d   1      37.482 -66.132  22.213  0.00  0.00     0.028 H 
ATOM     54  H26 LEU d   1      37.953 -67.803  22.675  0.00  0.00     0.028 H 
ENDBRANCH  45  51
ENDBRANCH  42  45
ENDBRANCH   7  42
ENDBRANCH   4   7
ENDBRANCH   1   3
BRANCH   1  55
ATOM     55  C   ARG d   1      31.023 -68.673  18.846  0.00  0.00     0.241 C 
ATOM     56  O   ARG d   1      30.124 -68.284  19.604  0.00  0.00    -0.271 OA
ATOM     57  N   LEU d   1      31.000 -68.505  17.530  0.00  0.00    -0.346 N 
ATOM     58  H40 LEU d   1      31.749 -68.865  16.974  0.00  0.00     0.163 HD
BRANCH  57  59
ATOM     59  CA  LEU d   1      29.904 -67.807  16.888  0.00  0.00     0.089 C 
ATOM     60  H41 LEU d   1      29.511 -67.079  17.612  0.00  0.00     0.087 H 
BRANCH  59  61
ATOM     61  C   LEU d   1      28.774 -68.743  16.508  0.00  0.00     0.240 C 
ATOM     62  O   LEU d   1      28.963 -69.710  15.763  0.00  0.00    -0.271 OA
ATOM     63  N   GLY d   1      27.601 -68.458  17.047  0.00  0.00    -0.351 N 
ATOM     64  H51 GLY d   1      27.526 -67.724  17.722  0.00  0.00     0.163 HD
BRANCH  63  65
ATOM     65  CA  GLY d   1      26.436 -69.202  16.664  0.00  0.00     0.069 C 
ATOM     66  H52 GLY d   1      26.250 -70.006  17.391  0.00  0.00     0.078 H 
ATOM     67  H53 GLY d   1      26.583 -69.638  15.665  0.00  0.00     0.078 H 
BRANCH  65  68
ATOM     68  C   GLY d   1      25.268 -68.254  16.641  0.00  0.00     0.236 C 
ATOM     69  O   GLY d   1      25.405 -67.064  16.933  0.00  0.00    -0.272 OA
ATOM     70  N   LEU d   1      24.103 -68.804  16.351  0.00  0.00    -0.346 N 
ATOM     71  H54 LEU d   1      24.082 -69.765  16.075  0.00  0.00     0.163 HD
BRANCH  70  72
ATOM     72  CA  LEU d   1      22.849 -68.070  16.416  0.00  0.00     0.090 C 
ATOM     73  H55 LEU d   1      23.075 -67.069  16.812  0.00  0.00     0.087 H 
BRANCH  72  74
ATOM     74  C   LEU d   1      21.819 -68.720  17.354  0.00  0.00     0.243 C 
ATOM     75  O   LEU d   1      21.331 -69.814  17.071  0.00  0.00    -0.271 OA
ATOM     76  N   PRO d   1      21.483 -68.030  18.459  0.00  0.00    -0.337 N 
ATOM     77  CA  PRO d   1      22.323 -67.032  19.119  0.00  0.00     0.091 C 
ATOM     78  CD  PRO d   1      20.248 -68.242  19.223  0.00  0.00    -0.001 C 
ATOM     79  CB  PRO d   1      21.282 -66.023  19.573  0.00  0.00    -0.036 C 
ATOM     80  H65 PRO d   1      22.991 -66.591  18.365  0.00  0.00     0.087 H 
ATOM     81  CG  PRO d   1      20.071 -66.899  19.933  0.00  0.00    -0.048 C 
ATOM     82  H66 PRO d   1      21.034 -65.322  18.763  0.00  0.00     0.036 H 
ATOM     83  H67 PRO d   1      21.635 -65.460  20.450  0.00  0.00     0.036 H 
ATOM     84  H68 PRO d   1      19.143 -66.415  19.595  0.00  0.00     0.035 H 
ATOM     85  H69 PRO d   1      20.029 -67.052  21.021  0.00  0.00     0.035 H 
ATOM     86  H70 PRO d   1      20.363 -69.063  19.946  0.00  0.00     0.064 H 
ATOM     87  H71 PRO d   1      19.399 -68.456  18.557  0.00  0.00     0.064 H 
BRANCH  77  88
ATOM     88  C   PRO d   1      23.198 -67.415  20.321  0.00  0.00     0.241 C 
ATOM     89  O   PRO d   1      24.415 -67.514  20.198  0.00  0.00    -0.271 OA
ATOM     90  N   GLY d   1      22.553 -67.790  21.429  0.00  0.00    -0.349 N 
ATOM     91  H72 GLY d   1      21.574 -67.987  21.380  0.00  0.00     0.163 HD
BRANCH  90  92
ATOM     92  CA  GLY d   1      23.240 -67.919  22.709  0.00  0.00     0.075 C 
ATOM     93  H73 GLY d   1      24.065 -68.639  22.601  0.00  0.00     0.080 H 
ATOM     94  H74 GLY d   1      22.527 -68.288  23.462  0.00  0.00     0.080 H 
BRANCH  92  95
ATOM     95  C   GLY d   1      23.809 -66.577  23.178  0.00  0.00     0.191 C 
ATOM     96  O   GLY d   1      23.944 -66.316  24.387  0.00  0.00    -0.647 OA
ATOM     97  OXT GLY d   1      24.156 -65.700  22.367  0.00  0.00    -0.647 OA
ENDBRANCH  92  95
ENDBRANCH  90  92
ENDBRANCH  77  88
ENDBRANCH  72  74
BRANCH  72  98
ATOM     98  CB  LEU d   1      22.236 -67.900  15.017  0.00  0.00    -0.035 C 
ATOM     99  H56 LEU d   1      22.761 -67.041  14.573  0.00  0.00     0.037 H 
ATOM    100  H57 LEU d   1      21.183 -67.636  15.192  0.00  0.00     0.037 H 
BRANCH  98 101
ATOM    101  CG  LEU d   1      22.207 -68.974  13.912  0.00  0.00    -0.059 C 
ATOM    102  H58 LEU d   1      22.909 -68.648  13.130  0.00  0.00     0.038 H 
BRANCH 101 103
ATOM    103  CD1 LEU d   1      22.657 -70.361  14.369  0.00  0.00    -0.073 C 
ATOM    104  H59 LEU d   1      22.605 -71.061  13.522  0.00  0.00     0.028 H 
ATOM    105  H60 LEU d   1      21.998 -70.713  15.176  0.00  0.00     0.028 H 
ATOM    106  H61 LEU d   1      23.692 -70.308  14.738  0.00  0.00     0.028 H 
ENDBRANCH 101 103
BRANCH 101 107
ATOM    107  CD2 LEU d   1      20.816 -69.061  13.284  0.00  0.00    -0.073 C 
ATOM    108  H62 LEU d   1      20.498 -68.060  12.957  0.00  0.00     0.028 H 
ATOM    109  H63 LEU d   1      20.102 -69.448  14.026  0.00  0.00     0.028 H 
ATOM    110  H64 LEU d   1      20.847 -69.737  12.417  0.00  0.00     0.028 H 
ENDBRANCH 101 107
ENDBRANCH  98 101
ENDBRANCH  72  98
ENDBRANCH  70  72
ENDBRANCH  65  68
ENDBRANCH  63  65
ENDBRANCH  59  61
BRANCH  59 111
ATOM    111  CB  LEU d   1      30.356 -67.039  15.648  0.00  0.00    -0.035 C 
ATOM    112  H42 LEU d   1      29.502 -66.436  15.306  0.00  0.00     0.037 H 
ATOM    113  H43 LEU d   1      30.613 -67.781  14.878  0.00  0.00     0.037 H 
BRANCH 111 114
ATOM    114  CG  LEU d   1      31.549 -66.099  15.789  0.00  0.00    -0.059 C 
ATOM    115  H44 LEU d   1      32.468 -66.704  15.795  0.00  0.00     0.038 H 
BRANCH 114 116
ATOM    116  CD1 LEU d   1      31.585 -65.184  14.572  0.00  0.00    -0.073 C 
ATOM    117  H45 LEU d   1      32.440 -64.497  14.655  0.00  0.00     0.028 H 
ATOM    118  H46 LEU d   1      30.652 -64.604  14.522  0.00  0.00     0.028 H 
ATOM    119  H47 LEU d   1      31.689 -65.790  13.660  0.00  0.00     0.028 H 
ENDBRANCH 114 116
BRANCH 114 120
ATOM    120  CD2 LEU d   1      31.507 -65.318  17.079  0.00  0.00    -0.073 C 
ATOM    121  H48 LEU d   1      31.482 -66.016  17.929  0.00  0.00     0.028 H 
ATOM    122  H49 LEU d   1      30.607 -64.686  17.096  0.00  0.00     0.028 H 
ATOM    123  H50 LEU d   1      32.402 -64.683  17.152  0.00  0.00     0.028 H 
ENDBRANCH 114 120
ENDBRANCH 111 114
ENDBRANCH  59 111
ENDBRANCH  57  59
ENDBRANCH   1  55
BRANCH   1 124
ATOM    124  CB  ARG d   1      31.953 -70.876  19.499  0.00  0.00    -0.036 C 
ATOM    125  H29 ARG d   1      30.900 -71.040  19.226  0.00  0.00     0.036 H 
ATOM    126  H30 ARG d   1      32.116 -71.193  20.540  0.00  0.00     0.036 H 
BRANCH 124 127
ATOM    127  CG  ARG d   1      32.810 -71.729  18.606  0.00  0.00    -0.048 C 
ATOM    128  H31 ARG d   1      32.553 -71.524  17.556  0.00  0.00     0.035 H 
ATOM    129  H32 ARG d   1      32.620 -72.789  18.830  0.00  0.00     0.035 H 
BRANCH 127 130
ATOM    130  CD  ARG d   1      34.275 -71.433  18.823  0.00  0.00     0.009 C 
ATOM    131  H33 ARG d   1      34.646 -72.036  19.665  0.00  0.00     0.064 H 
ATOM    132  H34 ARG d   1      34.399 -70.365  19.054  0.00  0.00     0.064 H 
BRANCH 130 133
ATOM    133  NE  ARG d   1      35.038 -71.758  17.626  0.00  0.00    -0.227 N 
ATOM    134  CZ  ARG d   1      36.052 -71.034  17.163  0.00  0.00     0.665 C 
ATOM    135  NH1 ARG d   1      36.437 -69.934  17.802  0.00  0.00    -0.235 N 
ATOM    136  NH2 ARG d   1      36.683 -71.410  16.060  0.00  0.00    -0.235 N 
ATOM    137  H36 ARG d   1      37.223 -69.376  17.439  0.00  0.00     0.174 HD
ATOM    138  H37 ARG d   1      35.949 -69.639  18.660  0.00  0.00     0.174 HD
ATOM    139  H38 ARG d   1      36.387 -72.262  15.562  0.00  0.00     0.174 HD
ATOM    140  H39 ARG d   1      37.469 -70.850  15.700  0.00  0.00     0.174 HD
ATOM    141  H35 ARG d   1      34.774 -72.605  17.103  0.00  0.00     0.177 HD
ENDBRANCH 130 133
ENDBRANCH 127 130
ENDBRANCH 124 127
ENDBRANCH   1 124
TORSDOF 39
