REMARK  10 active torsions:
REMARK  status: ('A' for Active; 'I' for Inactive)
REMARK    1  A    between atoms: C11_18  and  C10_1 
REMARK    2  A    between atoms: N16_21  and  C15_3 
REMARK       I    between atoms: C17_4  and  N16_21 
REMARK    3  A    between atoms: O18_22  and  C17_4 
REMARK    4  A    between atoms: C19_23  and  C20_5 
REMARK    5  A    between atoms: C25_27  and  C26_7 
REMARK    6  A    between atoms: C02_10  and  C01_9 
REMARK    7  A    between atoms: C03_11  and  N04_12 
REMARK    8  A    between atoms: N04_12  and  S05_13 
REMARK    9  A    between atoms: S05_13  and  C06_14 
REMARK   10  A    between atoms: O18_22  and  C19_23 
ROOT
ATOM      1  N12 BMF d   1      14.510   1.523  -5.502  0.00  0.00    -0.164 NA
ATOM      2  C15 BMF d   1      12.348   0.606  -6.932  0.00  0.00     0.089 A 
ATOM      3  C22 BMF d   1      12.209   1.057  -5.614  0.00  0.00    -0.023 A 
ATOM      4  C11 BMF d   1      13.309   1.521  -4.891  0.00  0.00     0.090 A 
ATOM      5  N13 BMF d   1      14.576   1.098  -6.746  0.00  0.00    -0.195 N 
ATOM      6  C14 BMF d   1      13.562   0.643  -7.480  0.00  0.00     0.201 A 
ATOM      7  N23 BMF d   1      14.038   0.299  -8.685  0.00  0.00    -0.126 NA
ATOM      8  N24 BMF d   1      15.268   0.509  -8.725  0.00  0.00    -0.133 NA
ATOM      9  C25 BMF d   1      15.633   1.004  -7.544  0.00  0.00     0.148 A 
ATOM     10  H4  BMF d   1      11.226   1.046  -5.145  0.00  0.00     0.090 H 
ENDROOT
BRANCH   4  11
ATOM     11  C10 BMF d   1      13.122   1.957  -3.569  0.00  0.00    -0.003 A 
ATOM     12  C09 BMF d   1      14.179   2.387  -2.757  0.00  0.00    -0.044 A 
ATOM     13  C03 BMF d   1      13.925   2.804  -1.444  0.00  0.00     0.049 A 
ATOM     14  H16 BMF d   1      15.192   2.397  -3.144  0.00  0.00     0.088 H 
ATOM     15  C02 BMF d   1      12.625   2.791  -0.940  0.00  0.00    -0.035 A 
ATOM     16  C28 BMF d   1      11.579   2.366  -1.748  0.00  0.00    -0.074 A 
ATOM     17  C27 BMF d   1      11.828   1.953  -3.051  0.00  0.00    -0.070 A 
ATOM     18  H8  BMF d   1      10.566   2.356  -1.362  0.00  0.00     0.084 H 
ATOM     19  H20 BMF d   1      11.004   1.623  -3.674  0.00  0.00     0.084 H 
BRANCH  13  20
ATOM     20  N04 BMF d   1      14.867   3.226  -0.580  0.00  0.00    -0.284 N 
ATOM     21  H12 BMF d   1      14.679   3.202   0.402  0.00  0.00     0.178 HD
BRANCH  20  22
ATOM     22  S05 BMF d   1      16.352   3.792  -1.122  0.00  0.00     0.227 S 
ATOM     23  O07 BMF d   1      17.135   2.675  -1.827  0.00  0.00    -0.206 OA
ATOM     24  O08 BMF d   1      16.140   4.960  -2.088  0.00  0.00    -0.206 OA
BRANCH  22  25
ATOM     25  C06 BMF d   1      17.306   4.366   0.266  0.00  0.00     0.033 C 
ATOM     26  H13 BMF d   1      18.279   4.737  -0.087  0.00  0.00     0.051 H 
ATOM     27  H14 BMF d   1      17.464   3.536   0.971  0.00  0.00     0.051 H 
ATOM     28  H15 BMF d   1      16.765   5.179   0.772  0.00  0.00     0.051 H 
ENDBRANCH  22  25
ENDBRANCH  20  22
ENDBRANCH  13  20
BRANCH  15  29
ATOM     29  C01 BMF d   1      12.365   3.204   0.364  0.00  0.00    -0.049 C 
ATOM     30  H9  BMF d   1      11.287   3.119   0.568  0.00  0.00     0.033 H 
ATOM     31  H10 BMF d   1      12.680   4.251   0.487  0.00  0.00     0.033 H 
ATOM     32  H11 BMF d   1      12.922   2.568   1.068  0.00  0.00     0.033 H 
ENDBRANCH  15  29
ENDBRANCH   4  11
BRANCH   2  33
ATOM     33  N16 BMF d   1      11.365   0.162  -7.744  0.00  0.00    -0.299 N 
ATOM     34  C17 BMF d   1      10.050   0.077  -7.389  0.00  0.00     0.365 C 
ATOM     35  O21 BMF d   1       9.632   0.325  -6.258  0.00  0.00    -0.238 OA
ATOM     36  H17 BMF d   1      11.618  -0.124  -8.668  0.00  0.00     0.171 HD
BRANCH  34  37
ATOM     37  O18 BMF d   1       9.149  -0.342  -8.317  0.00  0.00    -0.304 OA
BRANCH  37  38
ATOM     38  C19 BMF d   1       7.822  -0.057  -7.867  0.00  0.00     0.027 C 
ATOM     39  H18 BMF d   1       7.702  -0.406  -6.831  0.00  0.00     0.074 H 
ATOM     40  H19 BMF d   1       7.644   1.028  -7.911  0.00  0.00     0.074 H 
BRANCH  38  41
ATOM     41  C20 BMF d   1       6.818  -0.776  -8.767  0.00  0.00    -0.056 C 
ATOM     42  H1  BMF d   1       5.796  -0.558  -8.423  0.00  0.00     0.030 H 
ATOM     43  H2  BMF d   1       6.997  -1.861  -8.723  0.00  0.00     0.030 H 
ATOM     44  H3  BMF d   1       6.938  -0.427  -9.803  0.00  0.00     0.030 H 
ENDBRANCH  38  41
ENDBRANCH  37  38
ENDBRANCH  34  37
ENDBRANCH   2  33
BRANCH   9  45
ATOM     45  C26 BMF d   1      17.058   1.404  -7.168  0.00  0.00    -0.018 C 
ATOM     46  H5  BMF d   1      17.728   1.219  -8.021  0.00  0.00     0.038 H 
ATOM     47  H6  BMF d   1      17.390   0.809  -6.305  0.00  0.00     0.038 H 
ATOM     48  H7  BMF d   1      17.082   2.473  -6.908  0.00  0.00     0.038 H 
ENDBRANCH   9  45
TORSDOF 10
