REMARK  10 active torsions:
REMARK  status: ('A' for Active; 'I' for Inactive)
REMARK    1  A    between atoms: O2_19  and  C1_1 
REMARK    2  A    between atoms: C3_2  and  O2_19 
REMARK    3  A    between atoms: C4_20  and  C3_2 
REMARK    4  A    between atoms: C7_4  and  C8_5 
REMARK    5  A    between atoms: C11_6  and  C12_7 
REMARK    6  A    between atoms: N10_23  and  C11_6 
REMARK       I    between atoms: C12_7  and  N14_25 
REMARK    7  A    between atoms: C16_9  and  C17_26 
REMARK    8  A    between atoms: C16_9  and  C18_27 
REMARK    9  A    between atoms: C22_11  and  C23_12 
REMARK   10  A    between atoms: C23_12  and  C24_13 
ROOT
ATOM      1  C12 4YN d   1     -15.173 -19.004  -5.358  0.00  0.00     0.250 C 
ATOM      2  C15 4YN d   1     -16.506 -18.424  -7.414  0.00  0.00     0.013 C 
ATOM      3  C16 4YN d   1     -16.151 -18.409  -8.920  0.00  0.00    -0.000 C 
ATOM      4  C19 4YN d   1     -14.640 -18.560  -8.908  0.00  0.00    -0.004 A 
ATOM      5  C22 4YN d   1     -11.958 -18.874  -8.525  0.00  0.00     0.040 A 
ATOM      6  C31 4YN d   1     -14.163 -18.773  -7.625  0.00  0.00     0.047 A 
ATOM      7  O13 4YN d   1     -14.119 -19.298  -4.808  0.00  0.00    -0.271 OA
ATOM      8  N14 4YN d   1     -15.245 -18.784  -6.714  0.00  0.00    -0.315 N 
ATOM      9  C20 4YN d   1     -13.739 -18.513  -9.953  0.00  0.00     0.011 A 
ATOM     10  N21 4YN d   1     -12.425 -18.667  -9.768  0.00  0.00    -0.265 NA
ATOM     11  C30 4YN d   1     -12.805 -18.934  -7.414  0.00  0.00    -0.032 A 
ATOM     12  H14 4YN d   1     -17.286 -19.172  -7.210  0.00  0.00     0.066 H 
ATOM     13  H15 4YN d   1     -16.855 -17.432  -7.091  0.00  0.00     0.066 H 
ATOM     14  H34 4YN d   1     -14.110 -18.346 -10.957  0.00  0.00     0.115 H 
ATOM     15  H36 4YN d   1     -12.410 -19.101  -6.418  0.00  0.00     0.090 H 
ENDROOT
BRANCH   1  16
ATOM     16  C11 4YN d   1     -16.455 -18.870  -4.553  0.00  0.00     0.157 C 
ATOM     17  H12 4YN d   1     -17.107 -19.718  -4.810  0.00  0.00     0.090 H 
ATOM     18  H13 4YN d   1     -16.944 -17.930  -4.848  0.00  0.00     0.090 H 
BRANCH  16  19
ATOM     19  N10 4YN d   1     -16.286 -18.854  -3.090  0.00  0.00    -0.053 N 
ATOM     20  C4  4YN d   1     -15.585 -17.679  -2.513  0.00  0.00     0.147 C 
ATOM     21  C5  4YN d   1     -15.529 -17.775  -0.988  0.00  0.00     0.111 C 
ATOM     22  H22 4YN d   1     -14.553 -17.697  -2.893  0.00  0.00     0.090 H 
ATOM     23  N6  4YN d   1     -15.074 -19.118  -0.537  0.00  0.00    -0.068 N 
ATOM     24  H6  4YN d   1     -16.533 -17.584  -0.582  0.00  0.00     0.079 H 
ATOM     25  H7  4YN d   1     -14.829 -17.016  -0.609  0.00  0.00     0.079 H 
ATOM     26  C7  4YN d   1     -15.949 -20.224  -1.049  0.00  0.00     0.121 C 
ATOM     27  H23 4YN d   1     -15.082 -19.140   0.471  0.00  0.00     0.277 HD
ATOM     28  H24 4YN d   1     -14.134 -19.269  -0.869  0.00  0.00     0.277 HD
ATOM     29  C9  4YN d   1     -15.935 -20.184  -2.573  0.00  0.00     0.110 C 
ATOM     30  H8  4YN d   1     -16.980 -20.060  -0.702  0.00  0.00     0.086 H 
ATOM     31  H25 4YN d   1     -16.661 -20.917  -2.955  0.00  0.00     0.079 H 
ATOM     32  H26 4YN d   1     -14.927 -20.448  -2.926  0.00  0.00     0.079 H 
ATOM     33  H27 4YN d   1     -17.227 -18.722  -2.752  0.00  0.00     0.281 HD
BRANCH  20  34
ATOM     34  C3  4YN d   1     -16.202 -16.332  -2.919  0.00  0.00     0.047 C 
ATOM     35  H4  4YN d   1     -17.299 -16.418  -2.901  0.00  0.00     0.077 H 
ATOM     36  H5  4YN d   1     -15.883 -15.559  -2.204  0.00  0.00     0.077 H 
BRANCH  34  37
ATOM     37  O2  4YN d   1     -15.782 -15.956  -4.236  0.00  0.00    -0.394 OA
BRANCH  37  38
ATOM     38  C1  4YN d   1     -14.390 -15.634  -4.326  0.00  0.00     0.004 C 
ATOM     39  H1  4YN d   1     -14.144 -15.357  -5.362  0.00  0.00     0.066 H 
ATOM     40  H2  4YN d   1     -13.791 -16.508  -4.028  0.00  0.00     0.066 H 
ATOM     41  H3  4YN d   1     -14.165 -14.790  -3.657  0.00  0.00     0.066 H 
ENDBRANCH  37  38
ENDBRANCH  34  37
ENDBRANCH  20  34
BRANCH  26  42
ATOM     42  C8  4YN d   1     -15.463 -21.557  -0.498  0.00  0.00    -0.048 C 
ATOM     43  H9  4YN d   1     -16.106 -22.366  -0.875  0.00  0.00     0.030 H 
ATOM     44  H10 4YN d   1     -15.505 -21.537   0.601  0.00  0.00     0.030 H 
ATOM     45  H11 4YN d   1     -14.426 -21.732  -0.822  0.00  0.00     0.030 H 
ENDBRANCH  26  42
ENDBRANCH  16  19
ENDBRANCH   1  16
BRANCH   3  46
ATOM     46  C17 4YN d   1     -16.826 -19.557  -9.663  0.00  0.00    -0.064 C 
ATOM     47  H28 4YN d   1     -16.552 -19.516 -10.728  0.00  0.00     0.028 H 
ATOM     48  H29 4YN d   1     -17.918 -19.468  -9.561  0.00  0.00     0.028 H 
ATOM     49  H30 4YN d   1     -16.495 -20.515  -9.236  0.00  0.00     0.028 H 
ENDBRANCH   3  46
BRANCH   3  50
ATOM     50  C18 4YN d   1     -16.561 -17.092  -9.562  0.00  0.00    -0.064 C 
ATOM     51  H31 4YN d   1     -16.078 -16.259  -9.031  0.00  0.00     0.028 H 
ATOM     52  H32 4YN d   1     -17.654 -16.980  -9.503  0.00  0.00     0.028 H 
ATOM     53  H33 4YN d   1     -16.248 -17.085 -10.617  0.00  0.00     0.028 H 
ENDBRANCH   3  50
BRANCH   5  54
ATOM     54  C23 4YN d   1     -10.467 -19.038  -8.390  0.00  0.00    -0.001 C 
ATOM     55  H16 4YN d   1     -10.178 -18.798  -7.356  0.00  0.00     0.049 H 
ATOM     56  H17 4YN d   1      -9.971 -18.340  -9.081  0.00  0.00     0.049 H 
BRANCH  54  57
ATOM     57  C24 4YN d   1     -10.012 -20.438  -8.707  0.00  0.00    -0.052 A 
ATOM     58  C25 4YN d   1     -10.129 -21.448  -7.763  0.00  0.00    -0.076 A 
ATOM     59  C26 4YN d   1      -9.711 -22.732  -8.056  0.00  0.00    -0.082 A 
ATOM     60  H18 4YN d   1     -10.551 -21.228  -6.789  0.00  0.00     0.084 H 
ATOM     61  C27 4YN d   1      -9.175 -23.018  -9.289  0.00  0.00    -0.083 A 
ATOM     62  H19 4YN d   1      -9.806 -23.515  -7.312  0.00  0.00     0.083 H 
ATOM     63  C28 4YN d   1      -9.053 -22.026 -10.234  0.00  0.00    -0.082 A 
ATOM     64  H20 4YN d   1      -8.848 -24.026  -9.517  0.00  0.00     0.083 H 
ATOM     65  C29 4YN d   1      -9.469 -20.742  -9.947  0.00  0.00    -0.076 A 
ATOM     66  H21 4YN d   1      -8.629 -22.253 -11.206  0.00  0.00     0.083 H 
ATOM     67  H35 4YN d   1      -9.371 -19.965 -10.696  0.00  0.00     0.084 H 
ENDBRANCH  54  57
ENDBRANCH   5  54
TORSDOF 10
