REMARK  8 active torsions:
REMARK  status: ('A' for Active; 'I' for Inactive)
REMARK    1  A    between atoms: O2_14  and  C1_1 
REMARK    2  A    between atoms: C3_2  and  O2_14 
REMARK    3  A    between atoms: C4_15  and  C3_2 
REMARK    4  A    between atoms: C7_4  and  C8_5 
REMARK    5  A    between atoms: C11_6  and  C12_7 
REMARK    6  A    between atoms: N10_18  and  C11_6 
REMARK       I    between atoms: C12_7  and  N14_20 
REMARK    7  A    between atoms: C16_9  and  C17_21 
REMARK    8  A    between atoms: C16_9  and  C18_22 
ROOT
ATOM      1  C5  4YL d   1     -15.472 -17.758  -1.029  0.00  0.00     0.111 C 
ATOM      2  C7  4YL d   1     -15.885 -20.212  -1.067  0.00  0.00     0.121 C 
ATOM      3  C4  4YL d   1     -15.389 -17.699  -2.552  0.00  0.00     0.147 C 
ATOM      4  N6  4YL d   1     -15.045 -19.092  -0.526  0.00  0.00    -0.068 N 
ATOM      5  C9  4YL d   1     -15.841 -20.161  -2.591  0.00  0.00     0.110 C 
ATOM      6  N10 4YL d   1     -16.174 -18.828  -3.110  0.00  0.00    -0.053 N 
ATOM      7  H6  4YL d   1     -16.510 -17.571  -0.717  0.00  0.00     0.079 H 
ATOM      8  H7  4YL d   1     -14.816 -16.985  -0.602  0.00  0.00     0.079 H 
ATOM      9  H8  4YL d   1     -16.926 -20.073  -0.741  0.00  0.00     0.086 H 
ATOM     10  H17 4YL d   1     -14.340 -17.854  -2.845  0.00  0.00     0.090 H 
ATOM     11  H18 4YL d   1     -15.114 -19.094   0.480  0.00  0.00     0.277 HD
ATOM     12  H19 4YL d   1     -14.087 -19.247  -0.798  0.00  0.00     0.277 HD
ATOM     13  H20 4YL d   1     -16.563 -20.888  -2.991  0.00  0.00     0.079 H 
ATOM     14  H21 4YL d   1     -14.828 -20.429  -2.926  0.00  0.00     0.079 H 
ATOM     15  H22 4YL d   1     -17.099 -18.655  -2.750  0.00  0.00     0.281 HD
ENDROOT
BRANCH   6  16
ATOM     16  C11 4YL d   1     -16.369 -18.844  -4.568  0.00  0.00     0.157 C 
ATOM     17  H12 4YL d   1     -17.051 -19.672  -4.811  0.00  0.00     0.090 H 
ATOM     18  H13 4YL d   1     -16.832 -17.890  -4.860  0.00  0.00     0.090 H 
BRANCH  16  19
ATOM     19  C12 4YL d   1     -15.103 -19.022  -5.389  0.00  0.00     0.250 C 
ATOM     20  O13 4YL d   1     -14.037 -19.276  -4.844  0.00  0.00    -0.271 OA
ATOM     21  N14 4YL d   1     -15.206 -18.886  -6.755  0.00  0.00    -0.315 N 
ATOM     22  C15 4YL d   1     -16.503 -18.680  -7.454  0.00  0.00     0.013 C 
ATOM     23  C25 4YL d   1     -14.219 -19.256  -7.697  0.00  0.00     0.049 A 
ATOM     24  C16 4YL d   1     -16.129 -18.528  -8.942  0.00  0.00    -0.000 C 
ATOM     25  H14 4YL d   1     -17.164 -19.547  -7.307  0.00  0.00     0.066 H 
ATOM     26  H15 4YL d   1     -17.002 -17.772  -7.085  0.00  0.00     0.066 H 
ATOM     27  C19 4YL d   1     -14.711 -19.066  -8.978  0.00  0.00    -0.004 A 
ATOM     28  C20 4YL d   1     -13.899 -19.370 -10.056  0.00  0.00     0.013 A 
ATOM     29  N21 4YL d   1     -12.661 -19.840  -9.900  0.00  0.00    -0.248 NA
ATOM     30  H29 4YL d   1     -14.281 -19.221 -11.059  0.00  0.00     0.115 H 
ATOM     31  C22 4YL d   1     -12.221 -20.011  -8.663  0.00  0.00     0.127 A 
ATOM     32  C24 4YL d   1     -12.940 -19.742  -7.521  0.00  0.00    -0.017 A 
ATOM     33 CL   4YL d   1     -10.600 -20.625  -8.516  0.00  0.00    -0.062 Cl
ATOM     34  H16 4YL d   1     -12.523 -19.904  -6.534  0.00  0.00     0.092 H 
BRANCH  24  35
ATOM     35  C17 4YL d   1     -17.077 -19.322  -9.835  0.00  0.00    -0.064 C 
ATOM     36  H23 4YL d   1     -16.784 -19.193 -10.887  0.00  0.00     0.028 H 
ATOM     37  H24 4YL d   1     -18.105 -18.958  -9.694  0.00  0.00     0.028 H 
ATOM     38  H25 4YL d   1     -17.026 -20.388  -9.568  0.00  0.00     0.028 H 
ENDBRANCH  24  35
BRANCH  24  39
ATOM     39  C18 4YL d   1     -16.158 -17.066  -9.366  0.00  0.00    -0.064 C 
ATOM     40  H26 4YL d   1     -15.477 -16.485  -8.727  0.00  0.00     0.028 H 
ATOM     41  H27 4YL d   1     -17.181 -16.674  -9.262  0.00  0.00     0.028 H 
ATOM     42  H28 4YL d   1     -15.838 -16.982 -10.415  0.00  0.00     0.028 H 
ENDBRANCH  24  39
ENDBRANCH  16  19
ENDBRANCH   6  16
BRANCH   3  43
ATOM     43  C3  4YL d   1     -15.793 -16.306  -3.061  0.00  0.00     0.047 C 
ATOM     44  H4  4YL d   1     -16.890 -16.235  -3.086  0.00  0.00     0.077 H 
ATOM     45  H5  4YL d   1     -15.392 -15.542  -2.379  0.00  0.00     0.077 H 
BRANCH  43  46
ATOM     46  O2  4YL d   1     -15.275 -16.079  -4.381  0.00  0.00    -0.394 OA
BRANCH  46  47
ATOM     47  C1  4YL d   1     -13.882 -15.732  -4.403  0.00  0.00     0.004 C 
ATOM     48  H1  4YL d   1     -13.560 -15.575  -5.443  0.00  0.00     0.066 H 
ATOM     49  H2  4YL d   1     -13.294 -16.547  -3.957  0.00  0.00     0.066 H 
ATOM     50  H3  4YL d   1     -13.725 -14.808  -3.827  0.00  0.00     0.066 H 
ENDBRANCH  46  47
ENDBRANCH  43  46
ENDBRANCH   3  43
BRANCH   2  51
ATOM     51  C8  4YL d   1     -15.381 -21.537  -0.518  0.00  0.00    -0.048 C 
ATOM     52  H9  4YL d   1     -15.998 -22.357  -0.915  0.00  0.00     0.030 H 
ATOM     53  H10 4YL d   1     -15.447 -21.528   0.580  0.00  0.00     0.030 H 
ATOM     54  H11 4YL d   1     -14.334 -21.685  -0.822  0.00  0.00     0.030 H 
ENDBRANCH   2  51
TORSDOF 8
