REMARK  0 active torsions:
REMARK  status: ('A' for Active; 'I' for Inactive)
ROOT
ATOM      1  O   4YO d   1      14.699   0.598  -8.452  0.00  0.00    -0.271 OA
ATOM      2  C   4YO d   1      14.687   1.255  -7.413  0.00  0.00     0.239 C 
ATOM      3  CA  4YO d   1      15.798   2.023  -7.048  0.00  0.00     0.067 C 
ATOM      4  N   4YO d   1      15.766   2.495  -5.641  0.00  0.00    -0.379 N 
ATOM      5  CAL 4YO d   1      14.568   2.559  -4.924  0.00  0.00     0.056 A 
ATOM      6  CAE 4YO d   1      14.508   3.242  -3.717  0.00  0.00    -0.038 A 
ATOM      7  CAJ 4YO d   1      13.305   3.291  -3.032  0.00  0.00     0.013 A 
ATOM      8 BR1  4YO d   1      13.197   4.210  -1.393  0.00  0.00    -0.051 Br
ATOM      9  CAC 4YO d   1      12.176   2.664  -3.547  0.00  0.00    -0.064 A 
ATOM     10  CAD 4YO d   1      12.238   1.984  -4.753  0.00  0.00    -0.054 A 
ATOM     11  CAK 4YO d   1      13.437   1.941  -5.442  0.00  0.00     0.061 A 
ATOM     12  NAH 4YO d   1      13.526   1.248  -6.651  0.00  0.00    -0.324 N 
ATOM     13  H1  4YO d   1      15.843   2.902  -7.707  0.00  0.00     0.078 H 
ATOM     14  H2  4YO d   1      16.702   1.413  -7.188  0.00  0.00     0.078 H 
ATOM     15  H3  4YO d   1      16.644   2.781  -5.184  0.00  0.00     0.160 HD
ATOM     16  H4  4YO d   1      15.389   3.730  -3.317  0.00  0.00     0.089 H 
ATOM     17  H5  4YO d   1      11.240   2.707  -3.001  0.00  0.00     0.085 H 
ATOM     18  H6  4YO d   1      11.358   1.492  -5.152  0.00  0.00     0.087 H 
ATOM     19  H7  4YO d   1      12.733   0.733  -6.977  0.00  0.00     0.169 HD
ENDROOT
TORSDOF 0
