REMARK  0 active torsions:
REMARK  status: ('A' for Active; 'I' for Inactive)
ROOT
ATOM      1  CAE 4YS d   1       7.926 -11.334   3.708  0.00  0.00    -0.072 A 
ATOM      2  CAB 4YS d   1       6.669 -10.776   3.501  0.00  0.00    -0.082 A 
ATOM      3  CAC 4YS d   1       5.751 -11.434   2.693  0.00  0.00    -0.082 A 
ATOM      4  CAF 4YS d   1       6.082 -12.646   2.091  0.00  0.00    -0.068 A 
ATOM      5  CAK 4YS d   1       7.339 -13.206   2.292  0.00  0.00     0.028 A 
ATOM      6  CAJ 4YS d   1       8.258 -12.545   3.107  0.00  0.00    -0.020 A 
ATOM      7  CAG 4YS d   1       9.515 -13.101   3.321  0.00  0.00    -0.057 A 
ATOM      8  CAD 4YS d   1       9.837 -14.312   2.715  0.00  0.00    -0.020 A 
ATOM      9  NAH 4YS d   1       8.896 -14.965   1.905  0.00  0.00    -0.344 N 
ATOM     10  CAI 4YS d   1       7.688 -14.427   1.705  0.00  0.00     0.189 A 
ATOM     11  OAA 4YS d   1       6.768 -15.056   0.914  0.00  0.00    -0.171 OA
ATOM     12  H1  4YS d   1       8.647 -10.826   4.338  0.00  0.00     0.084 H 
ATOM     13  H2  4YS d   1       6.407  -9.833   3.968  0.00  0.00     0.083 H 
ATOM     14  H3  4YS d   1       4.770 -11.002   2.530  0.00  0.00     0.083 H 
ATOM     15  H4  4YS d   1       5.358 -13.154   1.464  0.00  0.00     0.085 H 
ATOM     16  H5  4YS d   1      10.240 -12.594   3.956  0.00  0.00     0.086 H 
ATOM     17  H6  4YS d   1      10.821 -14.753   2.870  0.00  0.00     0.111 H 
ATOM     18  H7  4YS d   1       9.130 -15.837   1.475  0.00  0.00     0.167 HD
ENDROOT
TORSDOF 0
