REMARK  6 active torsions:
REMARK  status: ('A' for Active; 'I' for Inactive)
REMARK    1  A    between atoms: C9_6  and  N6_12 
REMARK    2  A    between atoms: C13_8  and  N15_15 
REMARK    3  A    between atoms: C3_9  and  O2_11 
REMARK    4  A    between atoms: O2_11  and  C1_10 
REMARK    5  A    between atoms: N15_15  and  C16_16 
REMARK    6  A    between atoms: N24_24  and  C25_25 
ROOT
ATOM      1  C11 4YV d   1     -56.155   0.428 -26.529  0.00  0.00     0.009 A 
ATOM      2  C9  4YV d   1     -54.130  -0.580 -25.965  0.00  0.00     0.205 A 
ATOM      3  C12 4YV d   1     -56.064   1.249 -25.421  0.00  0.00    -0.021 A 
ATOM      4  C13 4YV d   1     -54.945   1.122 -24.588  0.00  0.00     0.133 A 
ATOM      5  N10 4YV d   1     -55.198  -0.459 -26.763  0.00  0.00    -0.231 NA
ATOM      6  N14 4YV d   1     -54.011   0.214 -24.893  0.00  0.00    -0.201 NA
ATOM      7  H5  4YV d   1     -57.002   0.509 -27.201  0.00  0.00     0.115 H 
ATOM      8  H10 4YV d   1     -56.840   1.974 -25.202  0.00  0.00     0.091 H 
ENDROOT
BRANCH   4   9
ATOM      9  N15 4YV d   1     -54.868   1.950 -23.471  0.00  0.00    -0.326 N 
ATOM     10  H15 4YV d   1     -55.353   2.856 -23.538  0.00  0.00     0.169 HD
BRANCH   9  11
ATOM     11  C16 4YV d   1     -54.205   1.688 -22.269  0.00  0.00     0.131 A 
ATOM     12  C17 4YV d   1     -53.206   0.713 -22.166  0.00  0.00    -0.010 A 
ATOM     13  C18 4YV d   1     -52.573   0.514 -20.941  0.00  0.00     0.070 A 
ATOM     14  H16 4YV d   1     -52.928   0.120 -23.029  0.00  0.00     0.093 H 
ATOM     15  C19 4YV d   1     -52.944   1.346 -19.853  0.00  0.00     0.102 A 
ATOM     16  N24 4YV d   1     -51.588  -0.331 -20.467  0.00  0.00    -0.335 N 
ATOM     17  C20 4YV d   1     -53.941   2.318 -20.045  0.00  0.00     0.034 A 
ATOM     18  N22 4YV d   1     -52.179   0.968 -18.794  0.00  0.00    -0.240 NA
ATOM     19  N21 4YV d   1     -54.533   2.451 -21.222  0.00  0.00    -0.241 NA
ATOM     20  H17 4YV d   1     -54.228   2.964 -19.223  0.00  0.00     0.118 H 
ATOM     21  C23 4YV d   1     -51.390  -0.003 -19.152  0.00  0.00     0.067 A 
ATOM     22  H18 4YV d   1     -50.670  -0.489 -18.495  0.00  0.00     0.143 H 
BRANCH  16  23
ATOM     23  C25 4YV d   1     -50.864  -1.350 -21.253  0.00  0.00     0.018 C 
ATOM     24  C26 4YV d   1     -49.855  -0.672 -22.206  0.00  0.00    -0.046 C 
ATOM     25  C27 4YV d   1     -48.617  -0.441 -21.311  0.00  0.00    -0.063 C 
ATOM     26  H20 4YV d   1     -50.251   0.282 -22.584  0.00  0.00     0.036 H 
ATOM     27  H21 4YV d   1     -49.611  -1.329 -23.053  0.00  0.00     0.036 H 
ATOM     28  C28 4YV d   1     -48.542  -1.771 -20.515  0.00  0.00    -0.063 C 
ATOM     29  H22 4YV d   1     -48.763   0.418 -20.640  0.00  0.00     0.033 H 
ATOM     30  H23 4YV d   1     -47.711  -0.285 -21.915  0.00  0.00     0.033 H 
ATOM     31  C29 4YV d   1     -49.998  -2.285 -20.389  0.00  0.00    -0.046 C 
ATOM     32  H24 4YV d   1     -48.113  -1.594 -19.518  0.00  0.00     0.033 H 
ATOM     33  H25 4YV d   1     -47.925  -2.504 -21.055  0.00  0.00     0.033 H 
ATOM     34  H26 4YV d   1     -50.070  -3.319 -20.758  0.00  0.00     0.036 H 
ATOM     35  H27 4YV d   1     -50.326  -2.246 -19.340  0.00  0.00     0.036 H 
ATOM     36  H19 4YV d   1     -51.596  -1.940 -21.824  0.00  0.00     0.073 H 
ENDBRANCH  16  23
ENDBRANCH   9  11
ENDBRANCH   4   9
BRANCH   2  37
ATOM     37  N6  4YV d   1     -53.133  -1.519 -26.251  0.00  0.00    -0.251 NA
ATOM     38  C5  4YV d   1     -52.837  -1.618 -27.715  0.00  0.00    -0.011 C 
ATOM     39  C4  4YV d   1     -51.542  -2.357 -28.072  0.00  0.00    -0.029 C 
ATOM     40  H3  4YV d   1     -53.673  -2.146 -28.196  0.00  0.00     0.056 H 
ATOM     41  H4  4YV d   1     -52.768  -0.597 -28.118  0.00  0.00     0.056 H 
ATOM     42  C3  4YV d   1     -50.398  -1.774 -27.215  0.00  0.00     0.040 C 
ATOM     43  H1  4YV d   1     -51.316  -2.216 -29.139  0.00  0.00     0.038 H 
ATOM     44  H2  4YV d   1     -51.656  -3.430 -27.860  0.00  0.00     0.038 H 
ATOM     45  C8  4YV d   1     -50.672  -1.957 -25.708  0.00  0.00    -0.029 C 
ATOM     46  H11 4YV d   1     -50.418  -0.689 -27.397  0.00  0.00     0.083 H 
ATOM     47  C7  4YV d   1     -52.000  -1.311 -25.307  0.00  0.00    -0.011 C 
ATOM     48  H8  4YV d   1     -50.712  -3.032 -25.478  0.00  0.00     0.038 H 
ATOM     49  H9  4YV d   1     -49.858  -1.489 -25.135  0.00  0.00     0.038 H 
ATOM     50  H6  4YV d   1     -51.834  -0.228 -25.213  0.00  0.00     0.056 H 
ATOM     51  H7  4YV d   1     -52.294  -1.723 -24.331  0.00  0.00     0.056 H 
BRANCH  42  52
ATOM     52  O2  4YV d   1     -49.071  -2.198 -27.594  0.00  0.00    -0.391 OA
BRANCH  52  53
ATOM     53  C1  4YV d   1     -48.666  -3.560 -27.350  0.00  0.00     0.004 C 
ATOM     54  H12 4YV d   1     -47.633  -3.704 -27.700  0.00  0.00     0.066 H 
ATOM     55  H13 4YV d   1     -49.335  -4.244 -27.892  0.00  0.00     0.066 H 
ATOM     56  H14 4YV d   1     -48.721  -3.771 -26.272  0.00  0.00     0.066 H 
ENDBRANCH  52  53
ENDBRANCH  42  52
ENDBRANCH   2  37
TORSDOF 6
