REMARK  9 active torsions:
REMARK  status: ('A' for Active; 'I' for Inactive)
REMARK    1  A    between atoms: C11_3  and  C12_7 
REMARK    2  A    between atoms: C11_3  and  C13_8 
REMARK    3  A    between atoms: N10_13  and  C11_3 
REMARK    4  A    between atoms: C7_4  and  N14_14 
REMARK    5  A    between atoms: C2_11  and  C1_10 
REMARK    6  A    between atoms: N14_14  and  C15_15 
REMARK    7  A    between atoms: C19_19  and  N21_21 
REMARK    8  A    between atoms: C24_24  and  S27_27 
REMARK    9  A    between atoms: S27_27  and  C30_30 
ROOT
ATOM      1  C15 4YW d   1     -56.692   1.217 -26.048  0.00  0.00     0.133 A 
ATOM      2  C16 4YW d   1     -57.753   1.375 -26.954  0.00  0.00    -0.021 A 
ATOM      3  C17 4YW d   1     -57.817   0.537 -28.054  0.00  0.00     0.009 A 
ATOM      4  N18 4YW d   1     -56.887  -0.403 -28.210  0.00  0.00    -0.231 NA
ATOM      5  C19 4YW d   1     -55.874  -0.547 -27.348  0.00  0.00     0.205 A 
ATOM      6  N20 4YW d   1     -55.784   0.266 -26.291  0.00  0.00    -0.201 NA
ATOM      7  H14 4YW d   1     -58.507   2.138 -26.795  0.00  0.00     0.091 H 
ATOM      8  H15 4YW d   1     -58.615   0.645 -28.780  0.00  0.00     0.115 H 
ENDROOT
BRANCH   1   9
ATOM      9  N14 4YW d   1     -56.609   2.060 -24.942  0.00  0.00    -0.326 N 
ATOM     10  H13 4YW d   1     -57.087   2.969 -25.024  0.00  0.00     0.169 HD
BRANCH   9  11
ATOM     11  C7  4YW d   1     -55.948   1.812 -23.727  0.00  0.00     0.131 A 
ATOM     12  C8  4YW d   1     -54.947   0.842 -23.588  0.00  0.00    -0.010 A 
ATOM     13  C9  4YW d   1     -54.318   0.669 -22.348  0.00  0.00     0.070 A 
ATOM     14  H3  4YW d   1     -54.661   0.229 -24.435  0.00  0.00     0.093 H 
ATOM     15  C4  4YW d   1     -54.713   1.501 -21.273  0.00  0.00     0.103 A 
ATOM     16  N10 4YW d   1     -53.330  -0.165 -21.855  0.00  0.00    -0.329 N 
ATOM     17  C5  4YW d   1     -55.704   2.467 -21.495  0.00  0.00     0.034 A 
ATOM     18  N3  4YW d   1     -53.964   1.139 -20.202  0.00  0.00    -0.232 NA
ATOM     19  N6  4YW d   1     -56.271   2.586 -22.687  0.00  0.00    -0.241 NA
ATOM     20  H1  4YW d   1     -56.009   3.121 -20.686  0.00  0.00     0.118 H 
ATOM     21  C2  4YW d   1     -53.151   0.176 -20.524  0.00  0.00     0.103 A 
BRANCH  21  22
ATOM     22  C1  4YW d   1     -52.187  -0.406 -19.512  0.00  0.00    -0.021 C 
ATOM     23  H10 4YW d   1     -52.316   0.105 -18.546  0.00  0.00     0.037 H 
ATOM     24  H11 4YW d   1     -51.155  -0.266 -19.866  0.00  0.00     0.037 H 
ATOM     25  H12 4YW d   1     -52.389  -1.480 -19.389  0.00  0.00     0.037 H 
ENDBRANCH  21  22
BRANCH  16  26
ATOM     26  C11 4YW d   1     -52.659  -1.182 -22.695  0.00  0.00     0.011 C 
ATOM     27  H2  4YW d   1     -53.107  -1.049 -23.691  0.00  0.00     0.072 H 
BRANCH  26  28
ATOM     28  C12 4YW d   1     -51.162  -0.940 -22.918  0.00  0.00    -0.057 C 
ATOM     29  H4  4YW d   1     -50.751  -1.741 -23.550  0.00  0.00     0.030 H 
ATOM     30  H5  4YW d   1     -50.643  -0.935 -21.948  0.00  0.00     0.030 H 
ATOM     31  H6  4YW d   1     -51.018   0.030 -23.416  0.00  0.00     0.030 H 
ENDBRANCH  26  28
BRANCH  26  32
ATOM     32  C13 4YW d   1     -53.001  -2.625 -22.312  0.00  0.00    -0.057 C 
ATOM     33  H7  4YW d   1     -54.088  -2.719 -22.170  0.00  0.00     0.030 H 
ATOM     34  H8  4YW d   1     -52.485  -2.888 -21.377  0.00  0.00     0.030 H 
ATOM     35  H9  4YW d   1     -52.676  -3.304 -23.114  0.00  0.00     0.030 H 
ENDBRANCH  26  32
ENDBRANCH  16  26
ENDBRANCH   9  11
ENDBRANCH   1   9
BRANCH   5  36
ATOM     36  N21 4YW d   1     -54.939  -1.570 -27.534  0.00  0.00    -0.251 NA
ATOM     37  C22 4YW d   1     -54.525  -1.673 -28.960  0.00  0.00    -0.013 C 
ATOM     38  C23 4YW d   1     -53.344  -2.621 -29.200  0.00  0.00    -0.038 C 
ATOM     39  H16 4YW d   1     -54.240  -0.670 -29.311  0.00  0.00     0.056 H 
ATOM     40  H17 4YW d   1     -55.384  -2.036 -29.544  0.00  0.00     0.056 H 
ATOM     41  C24 4YW d   1     -52.243  -2.158 -28.243  0.00  0.00     0.046 C 
ATOM     42  H18 4YW d   1     -53.001  -2.550 -30.243  0.00  0.00     0.036 H 
ATOM     43  H19 4YW d   1     -53.634  -3.659 -28.979  0.00  0.00     0.036 H 
ATOM     44  C25 4YW d   1     -52.657  -2.456 -26.795  0.00  0.00    -0.038 C 
ATOM     45  H20 4YW d   1     -52.248  -1.060 -28.310  0.00  0.00     0.064 H 
ATOM     46  C26 4YW d   1     -53.886  -1.592 -26.477  0.00  0.00    -0.013 C 
ATOM     47  H21 4YW d   1     -51.834  -2.204 -26.110  0.00  0.00     0.036 H 
ATOM     48  H22 4YW d   1     -52.910  -3.521 -26.689  0.00  0.00     0.036 H 
ATOM     49  H23 4YW d   1     -54.341  -1.975 -25.552  0.00  0.00     0.056 H 
ATOM     50  H24 4YW d   1     -53.543  -0.559 -26.317  0.00  0.00     0.056 H 
BRANCH  41  51
ATOM     51  S27 4YW d   1     -50.556  -2.608 -28.753  0.00  0.00     0.144 S 
ATOM     52  O28 4YW d   1     -50.100  -3.688 -27.947  0.00  0.00    -0.228 OA
ATOM     53  O29 4YW d   1     -50.600  -2.789 -30.162  0.00  0.00    -0.228 OA
BRANCH  51  54
ATOM     54  C30 4YW d   1     -49.498  -1.177 -28.376  0.00  0.00     0.016 C 
ATOM     55  H25 4YW d   1     -48.461  -1.401 -28.668  0.00  0.00     0.048 H 
ATOM     56  H26 4YW d   1     -49.538  -0.966 -27.297  0.00  0.00     0.048 H 
ATOM     57  H27 4YW d   1     -49.855  -0.299 -28.935  0.00  0.00     0.048 H 
ENDBRANCH  51  54
ENDBRANCH  41  51
ENDBRANCH   5  36
TORSDOF 9
