REMARK  11 active torsions:
REMARK  status: ('A' for Active; 'I' for Inactive)
REMARK    1  A    between atoms: C13_12  and  O3_1 
REMARK    2  A    between atoms: O3_1  and  C14_13 
REMARK    3  A    between atoms: C3_20  and  C4_2 
REMARK    4  A    between atoms: C4_2  and  N_21 
REMARK    5  A    between atoms: C5_3  and  C6_4 
REMARK       I    between atoms: N_21  and  C5_3 
REMARK    6  A    between atoms: N1_5  and  C9_8 
REMARK    7  A    between atoms: C7_6  and  C8_7 
REMARK    8  A    between atoms: C1_16  and  O_17 
REMARK    9  A    between atoms: C2_19  and  C1_16 
REMARK   10  A    between atoms: O_17  and  C_18 
REMARK   11  A    between atoms: C2_19  and  C3_20 
ROOT
ATOM      1  C6  4YU d   1     -35.046   7.305  -6.937  0.00  0.00     0.066 A 
ATOM      2  N1  4YU d   1     -33.983   5.953  -8.393  0.00  0.00    -0.353 N 
ATOM      3  C7  4YU d   1     -34.154   7.257  -8.117  0.00  0.00     0.024 A 
ATOM      4  C10 4YU d   1     -34.671   5.192  -7.509  0.00  0.00     0.045 A 
ATOM      5  C11 4YU d   1     -34.797   3.808  -7.395  0.00  0.00    -0.054 A 
ATOM      6  C12 4YU d   1     -35.570   3.249  -6.380  0.00  0.00    -0.049 A 
ATOM      7  C13 4YU d   1     -36.234   4.057  -5.460  0.00  0.00     0.069 A 
ATOM      8  C15 4YU d   1     -36.120   5.449  -5.568  0.00  0.00    -0.038 A 
ATOM      9  C16 4YU d   1     -35.342   6.000  -6.583  0.00  0.00     0.011 A 
ATOM     10  H9  4YU d   1     -34.289   3.162  -8.102  0.00  0.00     0.087 H 
ATOM     11  H10 4YU d   1     -35.656   2.171  -6.305  0.00  0.00     0.087 H 
ATOM     12  H14 4YU d   1     -36.635   6.094  -4.865  0.00  0.00     0.089 H 
ENDROOT
BRANCH   1  13
ATOM     13  C5  4YU d   1     -35.521   8.553  -6.243  0.00  0.00     0.254 C 
ATOM     14  N   4YU d   1     -35.699   8.626  -4.913  0.00  0.00    -0.357 N 
ATOM     15  H22 4YU d   1     -35.546   7.803  -4.366  0.00  0.00     0.162 HD
ATOM     16  O2  4YU d   1     -35.722   9.519  -6.964  0.00  0.00    -0.268 OA
BRANCH  14  17
ATOM     17  C4  4YU d   1     -36.106   9.852  -4.228  0.00  0.00    -0.004 C 
ATOM     18  H1  4YU d   1     -35.338  10.062  -3.469  0.00  0.00     0.064 H 
ATOM     19  H2  4YU d   1     -36.106  10.653  -4.982  0.00  0.00     0.064 H 
BRANCH  17  20
ATOM     20  C3  4YU d   1     -37.460   9.912  -3.518  0.00  0.00    -0.042 C 
ATOM     21  H20 4YU d   1     -37.661   8.944  -3.035  0.00  0.00     0.036 H 
ATOM     22  H21 4YU d   1     -38.248  10.125  -4.255  0.00  0.00     0.036 H 
BRANCH  20  23
ATOM     23  C2  4YU d   1     -37.448  11.020  -2.452  0.00  0.00     0.017 C 
ATOM     24  H18 4YU d   1     -36.638  11.724  -2.694  0.00  0.00     0.048 H 
ATOM     25  H19 4YU d   1     -38.413  11.546  -2.489  0.00  0.00     0.048 H 
BRANCH  23  26
ATOM     26  C1  4YU d   1     -37.234  10.514  -1.036  0.00  0.00     0.258 C 
ATOM     27  O1  4YU d   1     -36.111  10.469  -0.550  0.00  0.00    -0.265 OA
BRANCH  26  28
ATOM     28  O   4YU d   1     -38.387  10.103  -0.236  0.00  0.00    -0.326 OA
BRANCH  28  29
ATOM     29  C   4YU d   1     -38.364   8.942   0.593  0.00  0.00     0.013 C 
ATOM     30  H15 4YU d   1     -39.336   8.832   1.097  0.00  0.00     0.067 H 
ATOM     31  H16 4YU d   1     -37.570   9.046   1.347  0.00  0.00     0.067 H 
ATOM     32  H17 4YU d   1     -38.169   8.054  -0.025  0.00  0.00     0.067 H 
ENDBRANCH  28  29
ENDBRANCH  26  28
ENDBRANCH  23  26
ENDBRANCH  20  23
ENDBRANCH  17  20
ENDBRANCH  14  17
ENDBRANCH   1  13
BRANCH   3  33
ATOM     33  C8  4YU d   1     -33.566   8.434  -8.851  0.00  0.00    -0.036 C 
ATOM     34  H3  4YU d   1     -33.900   9.367  -8.374  0.00  0.00     0.035 H 
ATOM     35  H4  4YU d   1     -33.901   8.418  -9.899  0.00  0.00     0.035 H 
ATOM     36  H5  4YU d   1     -32.468   8.377  -8.816  0.00  0.00     0.035 H 
ENDBRANCH   3  33
BRANCH   2  37
ATOM     37  C9  4YU d   1     -33.156   5.431  -9.518  0.00  0.00    -0.014 C 
ATOM     38  H6  4YU d   1     -32.714   6.274 -10.070  0.00  0.00     0.057 H 
ATOM     39  H7  4YU d   1     -33.790   4.840 -10.196  0.00  0.00     0.057 H 
ATOM     40  H8  4YU d   1     -32.353   4.794  -9.118  0.00  0.00     0.057 H 
ENDBRANCH   2  37
BRANCH   7  41
ATOM     41  O3  4YU d   1     -36.988   3.434  -4.493  0.00  0.00    -0.356 OA
BRANCH  41  42
ATOM     42  C14 4YU d   1     -37.480   4.067  -3.309  0.00  0.00     0.010 C 
ATOM     43  H11 4YU d   1     -38.050   3.339  -2.714  0.00  0.00     0.066 H 
ATOM     44  H12 4YU d   1     -38.134   4.906  -3.587  0.00  0.00     0.066 H 
ATOM     45  H13 4YU d   1     -36.634   4.443  -2.715  0.00  0.00     0.066 H 
ENDBRANCH  41  42
ENDBRANCH   7  41
TORSDOF 11
