REMARK  12 active torsions:
REMARK  status: ('A' for Active; 'I' for Inactive)
REMARK    1  A    between atoms: C11_3  and  C12_7 
REMARK    2  A    between atoms: C11_3  and  C13_8 
REMARK    3  A    between atoms: N10_13  and  C11_3 
REMARK    4  A    between atoms: C7_4  and  N14_14 
REMARK    5  A    between atoms: C2_11  and  C1_10 
REMARK    6  A    between atoms: N14_14  and  C15_15 
REMARK    7  A    between atoms: C19_19  and  N21_21 
REMARK    8  A    between atoms: N21_21  and  C22_22 
REMARK    9  A    between atoms: C22_22  and  C23_23 
REMARK   10  A    between atoms: C23_23  and  C24_24 
REMARK   11  A    between atoms: C23_23  and  C25_25 
REMARK   12  A    between atoms: C23_23  and  C26_26 
REMARK       I    between atoms: C26_26  and  N28_28 
ROOT
ATOM      1  C15 4Z8 d   1     -54.527   1.119 -24.256  0.00  0.00     0.149 A 
ATOM      2  C16 4Z8 d   1     -55.633   1.162 -25.124  0.00  0.00    -0.020 A 
ATOM      3  C17 4Z8 d   1     -55.620   0.333 -26.240  0.00  0.00     0.025 A 
ATOM      4  N18 4Z8 d   1     -54.570  -0.465 -26.454  0.00  0.00    -0.075 NA
ATOM      5  C19 4Z8 d   1     -53.543  -0.494 -25.607  0.00  0.00     0.724 A 
ATOM      6  N20 4Z8 d   1     -53.510   0.302 -24.550  0.00  0.00    -0.045 NA
ATOM      7  H14 4Z8 d   1     -56.471   1.822 -24.929  0.00  0.00     0.091 H 
ATOM      8  H15 4Z8 d   1     -56.455   0.334 -26.931  0.00  0.00     0.115 H 
ENDROOT
BRANCH   1   9
ATOM      9  N14 4Z8 d   1     -54.500   1.938 -23.131  0.00  0.00    -0.325 N 
ATOM     10  H13 4Z8 d   1     -55.013   2.827 -23.219  0.00  0.00     0.169 HD
BRANCH   9  11
ATOM     11  C7  4Z8 d   1     -53.873   1.724 -21.893  0.00  0.00     0.131 A 
ATOM     12  C8  4Z8 d   1     -52.893   0.750 -21.651  0.00  0.00    -0.010 A 
ATOM     13  C9  4Z8 d   1     -52.336   0.632 -20.364  0.00  0.00     0.070 A 
ATOM     14  H3  4Z8 d   1     -52.567   0.093 -22.449  0.00  0.00     0.093 H 
ATOM     15  C4  4Z8 d   1     -52.784   1.537 -19.362  0.00  0.00     0.103 A 
ATOM     16  N10 4Z8 d   1     -51.391  -0.180 -19.736  0.00  0.00    -0.329 N 
ATOM     17  C5  4Z8 d   1     -53.748   2.497 -19.695  0.00  0.00     0.034 A 
ATOM     18  N3  4Z8 d   1     -52.106   1.247 -18.223  0.00  0.00    -0.232 NA
ATOM     19  N6  4Z8 d   1     -54.256   2.544 -20.914  0.00  0.00    -0.241 NA
ATOM     20  H1  4Z8 d   1     -54.080   3.207 -18.947  0.00  0.00     0.118 H 
ATOM     21  C2  4Z8 d   1     -51.296   0.252 -18.433  0.00  0.00     0.103 A 
BRANCH  21  22
ATOM     22  C1  4Z8 d   1     -50.398  -0.309 -17.357  0.00  0.00    -0.021 C 
ATOM     23  H10 4Z8 d   1     -50.552   0.250 -16.422  0.00  0.00     0.037 H 
ATOM     24  H11 4Z8 d   1     -49.348  -0.216 -17.671  0.00  0.00     0.037 H 
ATOM     25  H12 4Z8 d   1     -50.640  -1.370 -17.194  0.00  0.00     0.037 H 
ENDBRANCH  21  22
BRANCH  16  26
ATOM     26  C11 4Z8 d   1     -50.589  -1.276 -20.325  0.00  0.00     0.011 C 
ATOM     27  H2  4Z8 d   1     -50.059  -1.748 -19.485  0.00  0.00     0.072 H 
BRANCH  26  28
ATOM     28  C12 4Z8 d   1     -51.430  -2.386 -20.968  0.00  0.00    -0.057 C 
ATOM     29  H4  4Z8 d   1     -50.764  -3.158 -21.380  0.00  0.00     0.030 H 
ATOM     30  H5  4Z8 d   1     -52.042  -1.960 -21.776  0.00  0.00     0.030 H 
ATOM     31  H6  4Z8 d   1     -52.087  -2.835 -20.208  0.00  0.00     0.030 H 
ENDBRANCH  26  28
BRANCH  26  32
ATOM     32  C13 4Z8 d   1     -49.508  -0.745 -21.271  0.00  0.00    -0.057 C 
ATOM     33  H7  4Z8 d   1     -48.934   0.046 -20.765  0.00  0.00     0.030 H 
ATOM     34  H8  4Z8 d   1     -49.981  -0.334 -22.175  0.00  0.00     0.030 H 
ATOM     35  H9  4Z8 d   1     -48.832  -1.566 -21.552  0.00  0.00     0.030 H 
ENDBRANCH  26  32
ENDBRANCH  16  26
ENDBRANCH   9  11
ENDBRANCH   1   9
BRANCH   5  36
ATOM     36  N21 4Z8 d   1     -52.441  -1.284 -25.861  0.00  0.00    -0.221 N 
ATOM     37  H16 4Z8 d   1     -51.756  -0.977 -26.566  0.00  0.00     0.177 HD
BRANCH  36  38
ATOM     38  C22 4Z8 d   1     -52.218  -2.552 -25.153  0.00  0.00     0.024 C 
ATOM     39  H17 4Z8 d   1     -53.075  -3.216 -25.342  0.00  0.00     0.066 H 
ATOM     40  H18 4Z8 d   1     -52.146  -2.345 -24.075  0.00  0.00     0.066 H 
BRANCH  38  41
ATOM     41  C23 4Z8 d   1     -50.928  -3.270 -25.605  0.00  0.00     0.050 C 
BRANCH  41  42
ATOM     42  C24 4Z8 d   1     -50.737  -3.155 -27.129  0.00  0.00    -0.059 C 
ATOM     43  H19 4Z8 d   1     -49.813  -3.674 -27.423  0.00  0.00     0.029 H 
ATOM     44  H20 4Z8 d   1     -50.667  -2.094 -27.411  0.00  0.00     0.029 H 
ATOM     45  H21 4Z8 d   1     -51.595  -3.615 -27.642  0.00  0.00     0.029 H 
ENDBRANCH  41  42
BRANCH  41  46
ATOM     46  C25 4Z8 d   1     -49.745  -2.601 -24.902  0.00  0.00    -0.059 C 
ATOM     47  H22 4Z8 d   1     -49.874  -2.679 -23.812  0.00  0.00     0.029 H 
ATOM     48  H23 4Z8 d   1     -49.699  -1.541 -25.191  0.00  0.00     0.029 H 
ATOM     49  H24 4Z8 d   1     -48.812  -3.103 -25.197  0.00  0.00     0.029 H 
ENDBRANCH  41  46
BRANCH  41  50
ATOM     50  C26 4Z8 d   1     -50.965  -4.732 -25.181  0.00  0.00     0.225 C 
ATOM     51  O27 4Z8 d   1     -51.446  -5.058 -24.106  0.00  0.00    -0.273 OA
ATOM     52  N28 4Z8 d   1     -50.447  -5.708 -25.966  0.00  0.00    -0.369 N 
ATOM     53  H25 4Z8 d   1     -50.483  -6.662 -25.667  0.00  0.00     0.159 HD
ATOM     54  H26 4Z8 d   1     -50.029  -5.474 -26.844  0.00  0.00     0.159 HD
ENDBRANCH  41  50
ENDBRANCH  38  41
ENDBRANCH  36  38
ENDBRANCH   5  36
TORSDOF 12
