REMARK  9 active torsions:
REMARK  status: ('A' for Active; 'I' for Inactive)
REMARK    1  A    between atoms: C11_3  and  C12_7 
REMARK    2  A    between atoms: C11_3  and  C13_8 
REMARK    3  A    between atoms: N10_13  and  C11_3 
REMARK    4  A    between atoms: C7_4  and  N14_14 
REMARK    5  A    between atoms: C2_11  and  C1_10 
REMARK    6  A    between atoms: N14_14  and  C15_15 
REMARK    7  A    between atoms: C19_19  and  N21_21 
REMARK    8  A    between atoms: C24_24  and  C26_26 
REMARK    9  A    between atoms: C24_24  and  C27_27 
REMARK       I    between atoms: C27_27  and  N29_29 
ROOT
ATOM      1  C15 4ZB d   1     -55.013   1.197 -24.405  0.00  0.00     0.133 A 
ATOM      2  C16 4ZB d   1     -56.160   1.132 -25.214  0.00  0.00    -0.021 A 
ATOM      3  C17 4ZB d   1     -56.139   0.281 -26.316  0.00  0.00     0.009 A 
ATOM      4  N18 4ZB d   1     -55.038  -0.432 -26.581  0.00  0.00    -0.231 NA
ATOM      5  C19 4ZB d   1     -53.975  -0.392 -25.773  0.00  0.00     0.205 A 
ATOM      6  N20 4ZB d   1     -53.965   0.445 -24.737  0.00  0.00    -0.201 NA
ATOM      7  H14 4ZB d   1     -57.037   1.728 -24.987  0.00  0.00     0.091 H 
ATOM      8  H15 4ZB d   1     -57.010   0.197 -26.956  0.00  0.00     0.115 H 
ENDROOT
BRANCH   1   9
ATOM      9  N14 4ZB d   1     -54.970   2.053 -23.308  0.00  0.00    -0.326 N 
ATOM     10  H13 4ZB d   1     -55.483   2.941 -23.403  0.00  0.00     0.169 HD
BRANCH   9  11
ATOM     11  C7  4ZB d   1     -54.307   1.844 -22.085  0.00  0.00     0.131 A 
ATOM     12  C8  4ZB d   1     -53.279   0.914 -21.950  0.00  0.00    -0.010 A 
ATOM     13  C9  4ZB d   1     -52.670   0.740 -20.702  0.00  0.00     0.070 A 
ATOM     14  H3  4ZB d   1     -52.954   0.330 -22.804  0.00  0.00     0.093 H 
ATOM     15  C4  4ZB d   1     -53.075   1.558 -19.613  0.00  0.00     0.103 A 
ATOM     16  N10 4ZB d   1     -51.690  -0.100 -20.222  0.00  0.00    -0.329 N 
ATOM     17  C5  4ZB d   1     -54.075   2.520 -19.840  0.00  0.00     0.034 A 
ATOM     18  N3  4ZB d   1     -52.324   1.177 -18.541  0.00  0.00    -0.232 NA
ATOM     19  N6  4ZB d   1     -54.654   2.606 -21.033  0.00  0.00    -0.241 NA
ATOM     20  H1  4ZB d   1     -54.373   3.191 -19.043  0.00  0.00     0.118 H 
ATOM     21  C2  4ZB d   1     -51.527   0.197 -18.876  0.00  0.00     0.103 A 
BRANCH  21  22
ATOM     22  C1  4ZB d   1     -50.577  -0.410 -17.875  0.00  0.00    -0.021 C 
ATOM     23  H10 4ZB d   1     -50.721   0.069 -16.895  0.00  0.00     0.037 H 
ATOM     24  H11 4ZB d   1     -49.541  -0.253 -18.211  0.00  0.00     0.037 H 
ATOM     25  H12 4ZB d   1     -50.775  -1.488 -17.789  0.00  0.00     0.037 H 
ENDBRANCH  21  22
BRANCH  16  26
ATOM     26  C11 4ZB d   1     -51.054  -1.092 -21.108  0.00  0.00     0.011 C 
ATOM     27  H2  4ZB d   1     -51.487  -0.880 -22.097  0.00  0.00     0.072 H 
BRANCH  26  28
ATOM     28  C12 4ZB d   1     -49.552  -0.891 -21.322  0.00  0.00    -0.057 C 
ATOM     29  H4  4ZB d   1     -49.169  -1.674 -21.993  0.00  0.00     0.030 H 
ATOM     30  H5  4ZB d   1     -49.032  -0.951 -20.354  0.00  0.00     0.030 H 
ATOM     31  H6  4ZB d   1     -49.375   0.097 -21.773  0.00  0.00     0.030 H 
ENDBRANCH  26  28
BRANCH  26  32
ATOM     32  C13 4ZB d   1     -51.485  -2.530 -20.821  0.00  0.00    -0.057 C 
ATOM     33  H7  4ZB d   1     -52.576  -2.565 -20.684  0.00  0.00     0.030 H 
ATOM     34  H8  4ZB d   1     -50.989  -2.886 -19.906  0.00  0.00     0.030 H 
ATOM     35  H9  4ZB d   1     -51.201  -3.174 -21.667  0.00  0.00     0.030 H 
ENDBRANCH  26  32
ENDBRANCH  16  26
ENDBRANCH   9  11
ENDBRANCH   1   9
BRANCH   5  36
ATOM     36  N21 4ZB d   1     -52.785  -1.043 -26.090  0.00  0.00    -0.250 NA
ATOM     37  C22 4ZB d   1     -51.810  -1.223 -24.980  0.00  0.00    -0.013 C 
ATOM     38  C23 4ZB d   1     -50.658  -1.969 -25.703  0.00  0.00    -0.038 C 
ATOM     39  H16 4ZB d   1     -52.234  -1.830 -24.166  0.00  0.00     0.056 H 
ATOM     40  H17 4ZB d   1     -51.474  -0.256 -24.579  0.00  0.00     0.056 H 
ATOM     41  C24 4ZB d   1     -51.432  -2.964 -26.603  0.00  0.00     0.050 C 
ATOM     42  H18 4ZB d   1     -50.013  -2.498 -24.986  0.00  0.00     0.036 H 
ATOM     43  H19 4ZB d   1     -50.049  -1.277 -26.304  0.00  0.00     0.036 H 
ATOM     44  C25 4ZB d   1     -52.809  -2.303 -26.863  0.00  0.00     0.001 C 
ATOM     45  H20 4ZB d   1     -52.941  -2.096 -27.935  0.00  0.00     0.058 H 
ATOM     46  H21 4ZB d   1     -53.623  -2.955 -26.513  0.00  0.00     0.058 H 
BRANCH  41  47
ATOM     47  C26 4ZB d   1     -50.700  -3.058 -27.949  0.00  0.00    -0.059 C 
ATOM     48  H22 4ZB d   1     -49.715  -3.525 -27.799  0.00  0.00     0.029 H 
ATOM     49  H23 4ZB d   1     -50.568  -2.049 -28.366  0.00  0.00     0.029 H 
ATOM     50  H24 4ZB d   1     -51.292  -3.668 -28.647  0.00  0.00     0.029 H 
ENDBRANCH  41  47
BRANCH  41  51
ATOM     51  C27 4ZB d   1     -51.579  -4.294 -25.858  0.00  0.00     0.225 C 
ATOM     52  O28 4ZB d   1     -52.301  -4.390 -24.868  0.00  0.00    -0.273 OA
ATOM     53  N29 4ZB d   1     -50.901  -5.399 -26.247  0.00  0.00    -0.369 N 
ATOM     54  H25 4ZB d   1     -51.013  -6.257 -25.745  0.00  0.00     0.159 HD
ATOM     55  H26 4ZB d   1     -50.288  -5.358 -27.036  0.00  0.00     0.159 HD
ENDBRANCH  41  51
ENDBRANCH   5  36
TORSDOF 9
