REMARK  13 active torsions:
REMARK  status: ('A' for Active; 'I' for Inactive)
REMARK    1  A    between atoms: C11_3  and  C12_7 
REMARK    2  A    between atoms: C11_3  and  C13_8 
REMARK    3  A    between atoms: N10_13  and  C11_3 
REMARK    4  A    between atoms: C7_4  and  N14_14 
REMARK    5  A    between atoms: C2_11  and  C1_10 
REMARK    6  A    between atoms: N14_14  and  C15_15 
REMARK    7  A    between atoms: C19_19  and  N21_21 
REMARK    8  A    between atoms: N21_21  and  C22_22 
REMARK    9  A    between atoms: C22_22  and  C23_23 
REMARK   10  A    between atoms: C23_23  and  C24_24 
REMARK   11  A    between atoms: C23_23  and  C25_25 
REMARK   12  A    between atoms: C23_23  and  S26_26 
REMARK   13  A    between atoms: S26_26  and  C29_29 
ROOT
ATOM      1  C15 4ZG d   1     -56.058   1.174 -25.934  0.00  0.00     0.149 A 
ATOM      2  C16 4ZG d   1     -57.133   1.211 -26.837  0.00  0.00    -0.020 A 
ATOM      3  C17 4ZG d   1     -57.141   0.291 -27.879  0.00  0.00     0.025 A 
ATOM      4  N18 4ZG d   1     -56.133  -0.576 -28.009  0.00  0.00    -0.075 NA
ATOM      5  C19 4ZG d   1     -55.126  -0.598 -27.141  0.00  0.00     0.724 A 
ATOM      6  N20 4ZG d   1     -55.085   0.272 -26.125  0.00  0.00    -0.045 NA
ATOM      7  H14 4ZG d   1     -57.932   1.935 -26.725  0.00  0.00     0.091 H 
ATOM      8  H15 4ZG d   1     -57.964   0.277 -28.585  0.00  0.00     0.115 H 
ENDROOT
BRANCH   1   9
ATOM      9  N14 4ZG d   1     -56.041   2.066 -24.873  0.00  0.00    -0.325 N 
ATOM     10  H13 4ZG d   1     -56.492   2.979 -25.029  0.00  0.00     0.169 HD
BRANCH   9  11
ATOM     11  C7  4ZG d   1     -55.472   1.851 -23.608  0.00  0.00     0.131 A 
ATOM     12  C8  4ZG d   1     -54.451   0.916 -23.386  0.00  0.00    -0.010 A 
ATOM     13  C9  4ZG d   1     -53.910   0.776 -22.102  0.00  0.00     0.070 A 
ATOM     14  H3  4ZG d   1     -54.083   0.306 -24.203  0.00  0.00     0.093 H 
ATOM     15  C4  4ZG d   1     -54.397   1.616 -21.074  0.00  0.00     0.103 A 
ATOM     16  N10 4ZG d   1     -52.944  -0.031 -21.527  0.00  0.00    -0.329 N 
ATOM     17  C5  4ZG d   1     -55.390   2.556 -21.385  0.00  0.00     0.034 A 
ATOM     18  N3  4ZG d   1     -53.720   1.285 -19.945  0.00  0.00    -0.232 NA
ATOM     19  N6  4ZG d   1     -55.892   2.632 -22.607  0.00  0.00    -0.241 NA
ATOM     20  H1  4ZG d   1     -55.751   3.228 -20.615  0.00  0.00     0.118 H 
ATOM     21  C2  4ZG d   1     -52.867   0.331 -20.191  0.00  0.00     0.103 A 
BRANCH  21  22
ATOM     22  C1  4ZG d   1     -51.965  -0.222 -19.109  0.00  0.00    -0.021 C 
ATOM     23  H10 4ZG d   1     -52.170   0.296 -18.161  0.00  0.00     0.037 H 
ATOM     24  H11 4ZG d   1     -50.914  -0.066 -19.393  0.00  0.00     0.037 H 
ATOM     25  H12 4ZG d   1     -52.156  -1.298 -18.987  0.00  0.00     0.037 H 
ENDBRANCH  21  22
BRANCH  16  26
ATOM     26  C11 4ZG d   1     -52.187  -1.043 -22.303  0.00  0.00     0.011 C 
ATOM     27  H2  4ZG d   1     -52.609  -0.972 -23.316  0.00  0.00     0.072 H 
BRANCH  26  28
ATOM     28  C12 4ZG d   1     -50.700  -0.721 -22.495  0.00  0.00    -0.057 C 
ATOM     29  H4  4ZG d   1     -50.224  -1.523 -23.078  0.00  0.00     0.030 H 
ATOM     30  H5  4ZG d   1     -50.212  -0.643 -21.512  0.00  0.00     0.030 H 
ATOM     31  H6  4ZG d   1     -50.598   0.234 -23.032  0.00  0.00     0.030 H 
ENDBRANCH  26  28
BRANCH  26  32
ATOM     32  C13 4ZG d   1     -52.462  -2.490 -21.884  0.00  0.00    -0.057 C 
ATOM     33  H7  4ZG d   1     -53.546  -2.638 -21.768  0.00  0.00     0.030 H 
ATOM     34  H8  4ZG d   1     -51.959  -2.697 -20.928  0.00  0.00     0.030 H 
ATOM     35  H9  4ZG d   1     -52.079  -3.174 -22.655  0.00  0.00     0.030 H 
ENDBRANCH  26  32
ENDBRANCH  16  26
ENDBRANCH   9  11
ENDBRANCH   1   9
BRANCH   5  36
ATOM     36  N21 4ZG d   1     -54.127  -1.543 -27.310  0.00  0.00    -0.221 N 
ATOM     37  H16 4ZG d   1     -54.209  -2.219 -28.083  0.00  0.00     0.177 HD
BRANCH  36  38
ATOM     38  C22 4ZG d   1     -52.954  -1.616 -26.425  0.00  0.00     0.029 C 
ATOM     39  H17 4ZG d   1     -53.282  -1.442 -25.390  0.00  0.00     0.067 H 
ATOM     40  H18 4ZG d   1     -52.241  -0.832 -26.720  0.00  0.00     0.067 H 
BRANCH  38  41
ATOM     41  C23 4ZG d   1     -52.246  -2.977 -26.495  0.00  0.00     0.072 C 
BRANCH  41  42
ATOM     42  C24 4ZG d   1     -53.081  -4.042 -25.760  0.00  0.00    -0.055 C 
ATOM     43  H19 4ZG d   1     -53.207  -3.747 -24.708  0.00  0.00     0.029 H 
ATOM     44  H20 4ZG d   1     -52.564  -5.012 -25.810  0.00  0.00     0.029 H 
ATOM     45  H21 4ZG d   1     -54.068  -4.128 -26.238  0.00  0.00     0.029 H 
ENDBRANCH  41  42
BRANCH  41  46
ATOM     46  C25 4ZG d   1     -50.902  -2.817 -25.769  0.00  0.00    -0.055 C 
ATOM     47  H22 4ZG d   1     -51.083  -2.556 -24.716  0.00  0.00     0.029 H 
ATOM     48  H23 4ZG d   1     -50.318  -2.018 -26.250  0.00  0.00     0.029 H 
ATOM     49  H24 4ZG d   1     -50.342  -3.763 -25.821  0.00  0.00     0.029 H 
ENDBRANCH  41  46
BRANCH  41  50
ATOM     50  S26 4ZG d   1     -52.002  -3.412 -28.251  0.00  0.00     0.150 S 
ATOM     51  O27 4ZG d   1     -53.272  -3.709 -28.827  0.00  0.00    -0.227 OA
ATOM     52  O28 4ZG d   1     -51.201  -2.388 -28.849  0.00  0.00    -0.227 OA
BRANCH  50  53
ATOM     53  C29 4ZG d   1     -51.048  -4.963 -28.263  0.00  0.00     0.016 C 
ATOM     54  H25 4ZG d   1     -50.870  -5.276 -29.302  0.00  0.00     0.049 H 
ATOM     55  H26 4ZG d   1     -51.614  -5.746 -27.737  0.00  0.00     0.049 H 
ATOM     56  H27 4ZG d   1     -50.084  -4.805 -27.757  0.00  0.00     0.049 H 
ENDBRANCH  50  53
ENDBRANCH  41  50
ENDBRANCH  38  41
ENDBRANCH  36  38
ENDBRANCH   5  36
TORSDOF 13
