REMARK  11 active torsions:
REMARK  status: ('A' for Active; 'I' for Inactive)
REMARK    1  A    between atoms: C12_7  and  C14_1 
REMARK    2  A    between atoms: C8_4  and  N18_18 
REMARK    3  A    between atoms: C12_7  and  C13_8 
REMARK    4  A    between atoms: N11_14  and  C12_7 
REMARK    5  A    between atoms: C3_9  and  C2_11 
REMARK    6  A    between atoms: C2_11  and  C1_10 
REMARK    7  A    between atoms: C2_11  and  O34_34 
REMARK    8  A    between atoms: N18_18  and  C19_19 
REMARK    9  A    between atoms: C23_23  and  N25_25 
REMARK   10  A    between atoms: C28_28  and  O32_32 
REMARK   11  A    between atoms: O32_32  and  C33_33 
ROOT
ATOM      1  N18 4ZQ d   1     -54.820   1.594 -23.079  0.00  0.00    -0.325 N 
ATOM      2  H11 4ZQ d   1     -55.283   2.514 -23.104  0.00  0.00     0.169 HD
ENDROOT
BRANCH   1   3
ATOM      3  C8  4ZQ d   1     -54.144   1.290 -21.890  0.00  0.00     0.131 A 
ATOM      4  C9  4ZQ d   1     -53.190   0.271 -21.743  0.00  0.00    -0.010 A 
ATOM      5  C10 4ZQ d   1     -52.558   0.091 -20.499  0.00  0.00     0.070 A 
ATOM      6  H2  4ZQ d   1     -52.942  -0.371 -22.580  0.00  0.00     0.093 H 
ATOM      7  C5  4ZQ d   1     -52.923   0.973 -19.447  0.00  0.00     0.103 A 
ATOM      8  N11 4ZQ d   1     -51.606  -0.771 -19.951  0.00  0.00    -0.318 N 
ATOM      9  C6  4ZQ d   1     -53.865   1.977 -19.683  0.00  0.00     0.034 A 
ATOM     10  N4  4ZQ d   1     -52.206   0.624 -18.358  0.00  0.00    -0.229 NA
ATOM     11  N7  4ZQ d   1     -54.432   2.092 -20.868  0.00  0.00    -0.241 NA
ATOM     12  H1  4ZQ d   1     -54.131   2.665 -18.889  0.00  0.00     0.118 H 
ATOM     13  C3  4ZQ d   1     -51.415  -0.372 -18.644  0.00  0.00     0.136 A 
BRANCH  13  14
ATOM     14  C2  4ZQ d   1     -50.468  -1.009 -17.641  0.00  0.00     0.089 C 
ATOM     15  H10 4ZQ d   1     -49.569  -1.353 -18.173  0.00  0.00     0.094 H 
BRANCH  14  16
ATOM     16  C1  4ZQ d   1     -50.043  -0.017 -16.554  0.00  0.00    -0.046 C 
ATOM     17  H7  4ZQ d   1     -49.360  -0.515 -15.850  0.00  0.00     0.031 H 
ATOM     18  H8  4ZQ d   1     -50.933   0.338 -16.013  0.00  0.00     0.031 H 
ATOM     19  H9  4ZQ d   1     -49.531   0.839 -17.018  0.00  0.00     0.031 H 
ENDBRANCH  14  16
BRANCH  14  20
ATOM     20  O34 4ZQ d   1     -51.115  -2.134 -17.039  0.00  0.00    -0.388 OA
ATOM     21  H25 4ZQ d   1     -51.377  -2.747 -17.716  0.00  0.00     0.210 HD
ENDBRANCH  14  20
ENDBRANCH  13  14
BRANCH   8  22
ATOM     22  C12 4ZQ d   1     -50.873  -1.890 -20.600  0.00  0.00     0.109 C 
ATOM     23  H3  4ZQ d   1     -50.385  -2.453 -19.791  0.00  0.00     0.086 H 
BRANCH  22  24
ATOM     24  C14 4ZQ d   1     -49.764  -1.382 -21.529  0.00  0.00     0.407 C 
ATOM     25  F15 4ZQ d   1     -49.011  -0.392 -20.891  0.00  0.00    -0.169 F 
ATOM     26  F16 4ZQ d   1     -48.913  -2.455 -21.822  0.00  0.00    -0.169 F 
ATOM     27  F17 4ZQ d   1     -50.306  -0.857 -22.708  0.00  0.00    -0.169 F 
ENDBRANCH  22  24
BRANCH  22  28
ATOM     28  C13 4ZQ d   1     -51.782  -2.880 -21.339  0.00  0.00    -0.049 C 
ATOM     29  H4  4ZQ d   1     -52.570  -3.233 -20.658  0.00  0.00     0.030 H 
ATOM     30  H5  4ZQ d   1     -51.186  -3.737 -21.685  0.00  0.00     0.030 H 
ATOM     31  H6  4ZQ d   1     -52.242  -2.380 -22.204  0.00  0.00     0.030 H 
ENDBRANCH  22  28
ENDBRANCH   8  22
ENDBRANCH   1   3
BRANCH   1  32
ATOM     32  C19 4ZQ d   1     -54.952   0.826 -24.228  0.00  0.00     0.149 A 
ATOM     33  C20 4ZQ d   1     -56.127   0.937 -24.991  0.00  0.00    -0.020 A 
ATOM     34  C21 4ZQ d   1     -56.247   0.151 -26.129  0.00  0.00     0.025 A 
ATOM     35  H12 4ZQ d   1     -56.918   1.618 -24.699  0.00  0.00     0.091 H 
ATOM     36  N22 4ZQ d   1     -55.247  -0.660 -26.473  0.00  0.00    -0.075 NA
ATOM     37  H13 4ZQ d   1     -57.146   0.197 -26.733  0.00  0.00     0.115 H 
ATOM     38  C23 4ZQ d   1     -54.142  -0.765 -25.727  0.00  0.00     0.726 A 
ATOM     39  N24 4ZQ d   1     -53.986   0.003 -24.646  0.00  0.00    -0.045 NA
BRANCH  38  40
ATOM     40  N25 4ZQ d   1     -53.105  -1.617 -26.106  0.00  0.00    -0.211 N 
ATOM     41  C26 4ZQ d   1     -52.262  -2.218 -25.055  0.00  0.00     0.014 C 
ATOM     42  C27 4ZQ d   1     -50.837  -2.307 -25.624  0.00  0.00    -0.023 C 
ATOM     43  H14 4ZQ d   1     -52.632  -3.223 -24.802  0.00  0.00     0.065 H 
ATOM     44  H15 4ZQ d   1     -52.271  -1.586 -24.155  0.00  0.00     0.065 H 
ATOM     45  C28 4ZQ d   1     -50.848  -3.061 -26.975  0.00  0.00     0.070 C 
ATOM     46  H16 4ZQ d   1     -50.194  -2.846 -24.912  0.00  0.00     0.039 H 
ATOM     47  H17 4ZQ d   1     -50.443  -1.292 -25.778  0.00  0.00     0.039 H 
ATOM     48  C29 4ZQ d   1     -51.923  -2.524 -27.954  0.00  0.00     0.119 C 
ATOM     49  H18 4ZQ d   1     -51.059  -4.123 -26.780  0.00  0.00     0.087 H 
ATOM     50  C30 4ZQ d   1     -53.291  -2.494 -27.276  0.00  0.00     0.043 C 
ATOM     51  F31 4ZQ d   1     -51.642  -1.206 -28.333  0.00  0.00    -0.245 F 
ATOM     52  H19 4ZQ d   1     -51.957  -3.171 -28.843  0.00  0.00     0.098 H 
ATOM     53  H20 4ZQ d   1     -54.052  -2.081 -27.954  0.00  0.00     0.069 H 
ATOM     54  H21 4ZQ d   1     -53.591  -3.504 -26.961  0.00  0.00     0.069 H 
BRANCH  45  55
ATOM     55  O32 4ZQ d   1     -49.547  -2.942 -27.576  0.00  0.00    -0.388 OA
BRANCH  55  56
ATOM     56  C33 4ZQ d   1     -48.730  -4.119 -27.616  0.00  0.00     0.005 C 
ATOM     57  H22 4ZQ d   1     -47.770  -3.883 -28.099  0.00  0.00     0.066 H 
ATOM     58  H23 4ZQ d   1     -49.246  -4.904 -28.189  0.00  0.00     0.066 H 
ATOM     59  H24 4ZQ d   1     -48.547  -4.473 -26.591  0.00  0.00     0.066 H 
ENDBRANCH  55  56
ENDBRANCH  45  55
ENDBRANCH  38  40
ENDBRANCH   1  32
TORSDOF 11
