REMARK  2 active torsions:
REMARK  status: ('A' for Active; 'I' for Inactive)
REMARK       I    between atoms: C02_2  and  N03_3 
REMARK    1  A    between atoms: C02_2  and  C21_10 
REMARK    2  A    between atoms: N03_3  and  C05_4 
ROOT
ATOM      1  O01 4ZW d   1      16.217   4.552  14.464  0.00  0.00    -0.268 OA
ATOM      2  C02 4ZW d   1      16.243   4.649  15.701  0.00  0.00     0.252 C 
ATOM      3  N03 4ZW d   1      17.173   3.935  16.371  0.00  0.00    -0.352 N 
ATOM      4  H1  4ZW d   1      17.156   3.943  17.371  0.00  0.00     0.163 HD
ENDROOT
BRANCH   3   5
ATOM      5  C05 4ZW d   1      18.217   3.140  15.683  0.00  0.00     0.015 C 
ATOM      6  C07 4ZW d   1      17.664   1.803  15.250  0.00  0.00    -0.024 C 
ATOM      7  C10 4ZW d   1      18.756   0.955  14.635  0.00  0.00     0.083 C 
ATOM      8  H3  4ZW d   1      16.868   1.963  14.508  0.00  0.00     0.038 H 
ATOM      9  H4  4ZW d   1      17.250   1.281  16.125  0.00  0.00     0.038 H 
ATOM     10  N13 4ZW d   1      19.921   0.830  15.521  0.00  0.00    -0.075 N 
ATOM     11  H5  4ZW d   1      19.076   1.419  13.691  0.00  0.00     0.075 H 
ATOM     12  H6  4ZW d   1      18.355  -0.049  14.433  0.00  0.00     0.075 H 
ATOM     13  C15 4ZW d   1      20.493   2.110  15.899  0.00  0.00     0.083 C 
ATOM     14  H7  4ZW d   1      20.628   0.291  15.046  0.00  0.00     0.277 HD
ATOM     15  H8  4ZW d   1      19.636   0.347  16.358  0.00  0.00     0.277 HD
ATOM     16  C18 4ZW d   1      19.433   2.966  16.582  0.00  0.00    -0.024 C 
ATOM     17  H9  4ZW d   1      20.857   2.628  14.999  0.00  0.00     0.075 H 
ATOM     18  H10 4ZW d   1      21.332   1.945  16.591  0.00  0.00     0.075 H 
ATOM     19  H11 4ZW d   1      19.123   2.478  17.517  0.00  0.00     0.038 H 
ATOM     20  H12 4ZW d   1      19.859   3.955  16.808  0.00  0.00     0.038 H 
ATOM     21  H2  4ZW d   1      18.532   3.689  14.783  0.00  0.00     0.072 H 
ENDBRANCH   3   5
BRANCH   2  22
ATOM     22  C21 4ZW d   1      15.196   5.437  16.398  0.00  0.00     0.032 A 
ATOM     23  C22 4ZW d   1      14.752   6.582  15.728  0.00  0.00    -0.059 A 
ATOM     24  C24 4ZW d   1      13.750   7.347  16.293  0.00  0.00    -0.022 A 
ATOM     25  H13 4ZW d   1      15.189   6.865  14.777  0.00  0.00     0.086 H 
ATOM     26  C25 4ZW d   1      13.142   6.911  17.460  0.00  0.00     0.041 A 
ATOM     27  C30 4ZW d   1      13.047   8.570  15.821  0.00  0.00     0.035 A 
ATOM     28  N26 4ZW d   1      12.135   7.806  17.814  0.00  0.00    -0.326 N 
ATOM     29  C33 4ZW d   1      13.523   5.757  18.154  0.00  0.00    -0.056 A 
ATOM     30  C28 4ZW d   1      11.992   8.811  16.870  0.00  0.00     0.226 A 
ATOM     31  H14 4ZW d   1      11.584   7.733  18.645  0.00  0.00     0.169 HD
ATOM     32  O29 4ZW d   1      11.132   9.667  16.859  0.00  0.00    -0.273 OA
ATOM     33  C35 4ZW d   1      14.549   5.014  17.568  0.00  0.00    -0.066 A 
ATOM     34  H17 4ZW d   1      13.053   5.460  19.084  0.00  0.00     0.087 H 
ATOM     35  H18 4ZW d   1      14.855   4.083  18.031  0.00  0.00     0.085 H 
ATOM     36  H15 4ZW d   1      12.588   8.402  14.836  0.00  0.00     0.054 H 
ATOM     37  H16 4ZW d   1      13.741   9.421  15.761  0.00  0.00     0.054 H 
ENDBRANCH   2  22
TORSDOF 2
