REMARK  7 active torsions:
REMARK  status: ('A' for Active; 'I' for Inactive)
REMARK    1  A    between atoms: C16_11  and  C17_12 
REMARK       I    between atoms: C17_12  and  N19_14 
REMARK    2  A    between atoms: N19_14  and  C21_15 
REMARK    3  A    between atoms: N39_22  and  S40_23 
REMARK    4  A    between atoms: S40_23  and  N43_26 
REMARK    5  A    between atoms: C50_29  and  N58_32 
REMARK    6  A    between atoms: N58_32  and  C60_33 
REMARK    7  A    between atoms: C60_33  and  C63_34 
ROOT
ATOM      1  C21 4ZX d   1      19.312   2.493  15.662  0.00  0.00     0.016 C 
ATOM      2  C23 4ZX d   1      18.656   1.280  14.940  0.00  0.00    -0.026 C 
ATOM      3  C26 4ZX d   1      18.525   0.002  15.788  0.00  0.00     0.026 C 
ATOM      4  C28 4ZX d   1      17.605   0.161  16.988  0.00  0.00    -0.043 C 
ATOM      5  C31 4ZX d   1      18.494   0.806  18.047  0.00  0.00    -0.043 C 
ATOM      6  C34 4ZX d   1      19.919   0.813  17.480  0.00  0.00     0.026 C 
ATOM      7  C36 4ZX d   1      20.344   2.085  16.731  0.00  0.00    -0.026 C 
ATOM      8  N39 4ZX d   1      19.842  -0.190  16.420  0.00  0.00    -0.284 N 
ATOM      9  H7  4ZX d   1      19.854   3.066  14.895  0.00  0.00     0.072 H 
ATOM     10  H8  4ZX d   1      19.265   1.040  14.056  0.00  0.00     0.039 H 
ATOM     11  H9  4ZX d   1      17.647   1.580  14.620  0.00  0.00     0.039 H 
ATOM     12  H10 4ZX d   1      18.221  -0.850  15.162  0.00  0.00     0.074 H 
ATOM     13  H11 4ZX d   1      17.235  -0.817  17.330  0.00  0.00     0.036 H 
ATOM     14  H12 4ZX d   1      16.752   0.811  16.744  0.00  0.00     0.036 H 
ATOM     15  H13 4ZX d   1      18.459   0.222  18.978  0.00  0.00     0.036 H 
ATOM     16  H14 4ZX d   1      18.160   1.835  18.247  0.00  0.00     0.036 H 
ATOM     17  H15 4ZX d   1      20.650   0.565  18.264  0.00  0.00     0.074 H 
ATOM     18  H16 4ZX d   1      20.449   2.906  17.456  0.00  0.00     0.039 H 
ATOM     19  H17 4ZX d   1      21.311   1.903  16.240  0.00  0.00     0.039 H 
ENDROOT
BRANCH   8  20
ATOM     20  S40 4ZX d   1      20.433  -1.717  16.703  0.00  0.00     0.319 S 
ATOM     21  O41 4ZX d   1      21.768  -1.524  17.240  0.00  0.00    -0.182 OA
ATOM     22  O42 4ZX d   1      19.333  -2.353  17.414  0.00  0.00    -0.182 OA
BRANCH  20  23
ATOM     23  N43 4ZX d   1      20.596  -2.304  15.148  0.00  0.00    -0.294 N 
ATOM     24  C44 4ZX d   1      21.506  -1.571  14.244  0.00  0.00     0.008 C 
ATOM     25  C47 4ZX d   1      22.926  -2.097  14.419  0.00  0.00    -0.023 C 
ATOM     26  H18 4ZX d   1      21.479  -0.498  14.487  0.00  0.00     0.065 H 
ATOM     27  H19 4ZX d   1      21.186  -1.719  13.202  0.00  0.00     0.065 H 
ATOM     28  C50 4ZX d   1      22.940  -3.618  14.244  0.00  0.00     0.105 C 
ATOM     29  H20 4ZX d   1      23.289  -1.842  15.426  0.00  0.00     0.038 H 
ATOM     30  H21 4ZX d   1      23.582  -1.637  13.665  0.00  0.00     0.038 H 
ATOM     31  C52 4ZX d   1      21.879  -4.373  15.070  0.00  0.00    -0.023 C 
ATOM     32  H22 4ZX d   1      22.672  -3.800  13.193  0.00  0.00     0.084 H 
ATOM     33  C55 4ZX d   1      20.496  -3.759  14.937  0.00  0.00     0.008 C 
ATOM     34  H23 4ZX d   1      22.175  -4.351  16.129  0.00  0.00     0.038 H 
ATOM     35  H24 4ZX d   1      21.837  -5.416  14.723  0.00  0.00     0.038 H 
ATOM     36  H25 4ZX d   1      20.098  -3.960  13.931  0.00  0.00     0.065 H 
ATOM     37  H26 4ZX d   1      19.824  -4.196  15.691  0.00  0.00     0.065 H 
BRANCH  28  38
ATOM     38  N58 4ZX d   1      24.279  -4.144  14.413  0.00  0.00    -0.067 N 
ATOM     39  H27 4ZX d   1      24.854  -3.659  13.742  0.00  0.00     0.277 HD
ATOM     40  H28 4ZX d   1      24.226  -5.120  14.166  0.00  0.00     0.277 HD
BRANCH  38  41
ATOM     41  C60 4ZX d   1      25.004  -4.089  15.675  0.00  0.00     0.105 C 
ATOM     42  H29 4ZX d   1      24.586  -4.821  16.382  0.00  0.00     0.083 H 
ATOM     43  H30 4ZX d   1      24.933  -3.080  16.107  0.00  0.00     0.083 H 
BRANCH  41  44
ATOM     44  C63 4ZX d   1      26.439  -4.422  15.377  0.00  0.00    -0.033 A 
ATOM     45  C64 4ZX d   1      26.891  -5.750  15.479  0.00  0.00    -0.075 A 
ATOM     46  C66 4ZX d   1      28.223  -6.050  15.184  0.00  0.00    -0.082 A 
ATOM     47  H31 4ZX d   1      26.210  -6.536  15.785  0.00  0.00     0.084 H 
ATOM     48  C68 4ZX d   1      29.100  -5.040  14.780  0.00  0.00    -0.083 A 
ATOM     49  H32 4ZX d   1      28.578  -7.071  15.269  0.00  0.00     0.083 H 
ATOM     50  C70 4ZX d   1      28.656  -3.719  14.670  0.00  0.00    -0.082 A 
ATOM     51  H33 4ZX d   1      30.131  -5.282  14.550  0.00  0.00     0.083 H 
ATOM     52  C72 4ZX d   1      27.326  -3.411  14.964  0.00  0.00    -0.075 A 
ATOM     53  H34 4ZX d   1      29.340  -2.938  14.358  0.00  0.00     0.083 H 
ATOM     54  H35 4ZX d   1      26.976  -2.389  14.874  0.00  0.00     0.084 H 
ENDBRANCH  41  44
ENDBRANCH  38  41
ENDBRANCH  28  38
ENDBRANCH  20  23
ENDBRANCH   8  20
BRANCH   1  55
ATOM     55  N19 4ZX d   1      18.294   3.380  16.235  0.00  0.00    -0.352 N 
ATOM     56  C17 4ZX d   1      17.467   4.210  15.548  0.00  0.00     0.253 C 
ATOM     57  O18 4ZX d   1      17.560   4.189  14.330  0.00  0.00    -0.268 OA
ATOM     58  H6  4ZX d   1      18.199   3.373  17.230  0.00  0.00     0.163 HD
BRANCH  56  59
ATOM     59  C16 4ZX d   1      16.421   5.066  16.156  0.00  0.00     0.054 A 
ATOM     60  C02 4ZX d   1      15.624   4.689  17.266  0.00  0.00     0.051 A 
ATOM     61 CL1  4ZX d   1      15.780   3.203  18.147  0.00  0.00    -0.083 Cl
ATOM     62  C03 4ZX d   1      14.627   5.546  17.737  0.00  0.00    -0.035 A 
ATOM     63  C05 4ZX d   1      14.432   6.742  17.090  0.00  0.00     0.043 A 
ATOM     64  H1  4ZX d   1      14.021   5.274  18.593  0.00  0.00     0.089 H 
ATOM     65  C06 4ZX d   1      15.186   7.124  15.994  0.00  0.00    -0.022 A 
ATOM     66  N12 4ZX d   1      13.508   7.713  17.391  0.00  0.00    -0.326 N 
ATOM     67  C07 4ZX d   1      14.725   8.462  15.526  0.00  0.00     0.035 A 
ATOM     68  C14 4ZX d   1      16.184   6.297  15.512  0.00  0.00    -0.057 A 
ATOM     69  C10 4ZX d   1      13.601   8.770  16.508  0.00  0.00     0.226 A 
ATOM     70  H2  4ZX d   1      14.352   8.417  14.492  0.00  0.00     0.054 H 
ATOM     71  H3  4ZX d   1      15.530   9.208  15.593  0.00  0.00     0.054 H 
ATOM     72  O11 4ZX d   1      12.908   9.761  16.515  0.00  0.00    -0.273 OA
ATOM     73  H5  4ZX d   1      16.775   6.591  14.652  0.00  0.00     0.086 H 
ATOM     74  H4  4ZX d   1      12.856   7.661  18.148  0.00  0.00     0.169 HD
ENDBRANCH  56  59
ENDBRANCH   1  55
TORSDOF 7
