REMARK  5 active torsions:
REMARK  status: ('A' for Active; 'I' for Inactive)
REMARK    1  A    between atoms: C1_3  and  C2_4 
REMARK    2  A    between atoms: C2_4  and  O2_5 
REMARK    3  A    between atoms: C2_4  and  C3_6 
REMARK    4  A    between atoms: C3_6  and  O3_7 
REMARK    5  A    between atoms: C3_6  and  C4_8 
ROOT
ATOM      1  C2  TLA d   1     114.997  30.328  25.756  0.00  0.00     0.153 C 
ATOM      2  H1  TLA d   1     114.377  30.706  24.929  0.00  0.00     0.105 H 
ENDROOT
BRANCH   1   3
ATOM      3  C1  TLA d   1     114.195  30.361  27.044  0.00  0.00     0.206 C 
ATOM      4  O1  TLA d   1     113.735  31.458  27.477  0.00  0.00    -0.646 OA
ATOM      5  O11 TLA d   1     113.979  29.302  27.690  0.00  0.00    -0.646 OA
ENDBRANCH   1   3
BRANCH   1   6
ATOM      6  O2  TLA d   1     115.471  29.030  25.442  0.00  0.00    -0.382 OA
ATOM      7  H2  TLA d   1     116.032  28.721  26.143  0.00  0.00     0.210 HD
ENDBRANCH   1   6
BRANCH   1   8
ATOM      8  C3  TLA d   1     116.211  31.195  25.947  0.00  0.00     0.153 C 
ATOM      9  H3  TLA d   1     115.932  32.256  26.025  0.00  0.00     0.105 H 
BRANCH   8  10
ATOM     10  O3  TLA d   1     116.906  30.780  27.081  0.00  0.00    -0.382 OA
ATOM     11  H4  TLA d   1     117.672  31.329  27.200  0.00  0.00     0.210 HD
ENDBRANCH   8  10
BRANCH   8  12
ATOM     12  C4  TLA d   1     117.089  30.944  24.763  0.00  0.00     0.206 C 
ATOM     13  O4  TLA d   1     116.660  31.343  23.648  0.00  0.00    -0.646 OA
ATOM     14  O41 TLA d   1     118.205  30.350  24.909  0.00  0.00    -0.646 OA
ENDBRANCH   8  12
ENDBRANCH   1   8
TORSDOF 5
