REMARK  4 active torsions:
REMARK  status: ('A' for Active; 'I' for Inactive)
REMARK    1  A    between atoms: C4_1  and  C2_9 
REMARK    2  A    between atoms: C5_2  and  C17_16 
REMARK    3  A    between atoms: C2_9  and  C3_7 
REMARK    4  A    between atoms: C2_9  and  C1_8 
ROOT
ATOM      1  C4  50P d   1     128.781 369.311 115.525  0.00  0.00     0.043 A 
ATOM      2  C5  50P d   1     129.370 368.249 114.850  0.00  0.00     0.056 A 
ATOM      3  C8  50P d   1     129.684 369.655 112.922  0.00  0.00     0.155 A 
ATOM      4  C9  50P d   1     130.053 370.131 111.654  0.00  0.00     0.109 A 
ATOM      5  C10 50P d   1     129.596 371.457 111.622  0.00  0.00     0.046 A 
ATOM      6  C13 50P d   1     128.627 370.624 114.892  0.00  0.00     0.278 A 
ATOM      7  N6  50P d   1     129.808 368.446 113.552  0.00  0.00    -0.338 N 
ATOM      8  N11 50P d   1     129.022 371.818 112.759  0.00  0.00    -0.174 NA
ATOM      9  N12 50P d   1     129.094 370.703 113.566  0.00  0.00    -0.179 N 
ATOM     10  O14 50P d   1     128.166 371.613 115.454  0.00  0.00    -0.265 OA
ATOM     11  C15 50P d   1     130.841 369.429 110.670  0.00  0.00     0.105 C 
ATOM     12  N16 50P d   1     131.486 368.838 109.927  0.00  0.00    -0.191 NA
ATOM     13  H1  50P d   1     129.701 372.114 110.760  0.00  0.00     0.120 H 
ATOM     14  H9  50P d   1     130.240 367.660 113.045  0.00  0.00     0.167 HD
ENDROOT
BRANCH   2  15
ATOM     15  C17 50P d   1     129.649 366.887 115.369  0.00  0.00    -0.009 A 
ATOM     16  C18 50P d   1     128.657 366.153 116.022  0.00  0.00    -0.071 A 
ATOM     17  C19 50P d   1     128.922 364.874 116.475  0.00  0.00    -0.082 A 
ATOM     18  H10 50P d   1     127.676 366.587 116.174  0.00  0.00     0.084 H 
ATOM     19  C20 50P d   1     130.152 364.302 116.283  0.00  0.00    -0.083 A 
ATOM     20  H11 50P d   1     128.147 364.317 116.989  0.00  0.00     0.083 H 
ATOM     21  C21 50P d   1     131.139 365.010 115.637  0.00  0.00    -0.082 A 
ATOM     22  H12 50P d   1     130.347 363.296 116.638  0.00  0.00     0.083 H 
ATOM     23  C22 50P d   1     130.891 366.294 115.185  0.00  0.00    -0.071 A 
ATOM     24  H13 50P d   1     132.113 364.561 115.482  0.00  0.00     0.083 H 
ATOM     25  H14 50P d   1     131.677 366.844 114.680  0.00  0.00     0.084 H 
ENDBRANCH   2  15
BRANCH   1  26
ATOM     26  C2  50P d   1     128.181 369.231 116.919  0.00  0.00    -0.028 C 
ATOM     27  H8  50P d   1     128.404 368.221 117.293  0.00  0.00     0.046 H 
BRANCH  26  28
ATOM     28  C3  50P d   1     126.657 369.381 116.911  0.00  0.00    -0.069 C 
ATOM     29  H2  50P d   1     126.277 369.316 117.941  0.00  0.00     0.028 H 
ATOM     30  H3  50P d   1     126.213 368.578 116.305  0.00  0.00     0.028 H 
ATOM     31  H4  50P d   1     126.387 370.357 116.482  0.00  0.00     0.028 H 
ENDBRANCH  26  28
BRANCH  26  32
ATOM     32  C1  50P d   1     128.795 370.217 117.914  0.00  0.00    -0.069 C 
ATOM     33  H5  50P d   1     129.889 370.104 117.915  0.00  0.00     0.028 H 
ATOM     34  H6  50P d   1     128.405 370.012 118.922  0.00  0.00     0.028 H 
ATOM     35  H7  50P d   1     128.533 371.244 117.621  0.00  0.00     0.028 H 
ENDBRANCH  26  32
ENDBRANCH   1  26
TORSDOF 4
