REMARK  4 active torsions:
REMARK  status: ('A' for Active; 'I' for Inactive)
REMARK    1  A    between atoms: C5_1  and  C3_9 
REMARK    2  A    between atoms: C8_5  and  O14_14 
REMARK       I    between atoms: C3_9  and  N2_8 
REMARK    3  A    between atoms: N2_8  and  C1_10 
REMARK    4  A    between atoms: O14_14  and  C15_15 
ROOT
ATOM      1  C5  50R d   1       5.521  58.840  53.160  0.00  0.00     0.074 A 
ATOM      2  C6  50R d   1       5.748  58.777  51.839  0.00  0.00    -0.047 A 
ATOM      3  C11 50R d   1       8.833  60.672  52.169  0.00  0.00     0.019 A 
ATOM      4  C7  50R d   1       6.921  59.408  51.398  0.00  0.00     0.019 A 
ATOM      5  C8  50R d   1       7.482  59.523  50.091  0.00  0.00     0.105 A 
ATOM      6  C9  50R d   1       8.674  60.196  49.924  0.00  0.00     0.035 A 
ATOM      7  C12 50R d   1       7.631  60.001  52.452  0.00  0.00     0.036 A 
ATOM      8  N10 50R d   1       9.323  60.738  50.945  0.00  0.00    -0.269 NA
ATOM      9  S13 50R d   1       6.772  59.743  53.978  0.00  0.00    -0.083 SA
ATOM     10  H1  50R d   1       5.068  58.270  51.156  0.00  0.00     0.087 H 
ATOM     11  H2  50R d   1       9.373  61.149  52.979  0.00  0.00     0.116 H 
ATOM     12  H3  50R d   1       9.093  60.285  48.928  0.00  0.00     0.119 H 
ENDROOT
BRANCH   5  13
ATOM     13  O14 50R d   1       6.868  59.019  48.990  0.00  0.00    -0.308 OA
BRANCH  13  14
ATOM     14  C15 50R d   1       6.637  57.709  48.705  0.00  0.00     0.076 A 
ATOM     15  C16 50R d   1       5.767  57.425  47.662  0.00  0.00    -0.049 A 
ATOM     16  C17 50R d   1       5.486  56.120  47.314  0.00  0.00    -0.064 A 
ATOM     17  H8  50R d   1       5.303  58.237  47.115  0.00  0.00     0.087 H 
ATOM     18  C18 50R d   1       6.072  55.069  47.994  0.00  0.00     0.006 A 
ATOM     19  H9  50R d   1       4.800  55.917  46.500  0.00  0.00     0.085 H 
ATOM     20  C19 50R d   1       6.950  55.355  49.034  0.00  0.00    -0.064 A 
ATOM     21  I21 50R d   1       5.617  53.088  47.414  0.00  0.00    -0.045 I 
ATOM     22  C20 50R d   1       7.237  56.665  49.392  0.00  0.00    -0.049 A 
ATOM     23  H10 50R d   1       7.418  54.541  49.575  0.00  0.00     0.085 H 
ATOM     24  H11 50R d   1       7.926  56.870  50.203  0.00  0.00     0.087 H 
ENDBRANCH  13  14
ENDBRANCH   5  13
BRANCH   1  25
ATOM     25  C3  50R d   1       4.386  58.250  53.873  0.00  0.00     0.258 C 
ATOM     26  N2  50R d   1       3.546  57.415  53.236  0.00  0.00    -0.361 N 
ATOM     27  H4  50R d   1       3.679  57.196  52.269  0.00  0.00     0.162 HD
ATOM     28  O4  50R d   1       4.233  58.483  55.058  0.00  0.00    -0.267 OA
BRANCH  26  29
ATOM     29  C1  50R d   1       2.433  56.834  53.988  0.00  0.00    -0.018 C 
ATOM     30  H5  50R d   1       1.846  56.179  53.327  0.00  0.00     0.056 H 
ATOM     31  H6  50R d   1       1.790  57.639  54.372  0.00  0.00     0.056 H 
ATOM     32  H7  50R d   1       2.827  56.246  54.830  0.00  0.00     0.056 H 
ENDBRANCH  26  29
ENDBRANCH   1  25
TORSDOF 4
