REMARK  12 active torsions:
REMARK  status: ('A' for Active; 'I' for Inactive)
REMARK    1  A    between atoms: C16_2  and  C17_1 
REMARK    2  A    between atoms: N9_19  and  C16_2 
REMARK    3  A    between atoms: C8_18  and  C15_3 
REMARK       I    between atoms: C15_3  and  N19_25 
REMARK    4  A    between atoms: N19_25  and  C20_4 
REMARK    5  A    between atoms: N19_25  and  C21_5 
REMARK    6  A    between atoms: C26_27  and  C27_10 
REMARK    7  A    between atoms: C27_10  and  C28_28 
REMARK    8  A    between atoms: N13_22  and  C4_14 
REMARK    9  A    between atoms: N12_21  and  C14_23 
REMARK   10  A    between atoms: N13_22  and  C26_27 
REMARK   11  A    between atoms: C28_28  and  O29_29 
REMARK   12  A    between atoms: O29_29  and  C30_30 
ROOT
ATOM      1  C11 50Y d   1      -6.700  44.428   0.124  0.00  0.00     0.067 A 
ATOM      2  C1  50Y d   1      -3.670  46.353   0.102  0.00  0.00     0.042 A 
ATOM      3  C2  50Y d   1      -2.724  46.120   1.110  0.00  0.00     0.145 A 
ATOM      4  N3  50Y d   1      -2.863  45.375   2.214  0.00  0.00    -0.210 NA
ATOM      5  C4  50Y d   1      -4.022  44.716   2.382  0.00  0.00     0.157 A 
ATOM      6  C5  50Y d   1      -5.017  44.764   1.375  0.00  0.00     0.131 A 
ATOM      7  C6  50Y d   1      -4.846  45.581   0.256  0.00  0.00     0.082 A 
ATOM      8  C7  50Y d   1      -3.091  47.290  -0.799  0.00  0.00    -0.036 A 
ATOM      9  C8  50Y d   1      -1.821  47.560  -0.352  0.00  0.00     0.105 A 
ATOM     10  N9  50Y d   1      -1.582  46.829   0.810  0.00  0.00    -0.327 N 
ATOM     11  N10 50Y d   1      -6.200  44.049   1.275  0.00  0.00    -0.238 NA
ATOM     12  N12 50Y d   1      -5.948  45.350  -0.540  0.00  0.00    -0.343 N 
ATOM     13  H   50Y d   1      -7.634  44.040  -0.267  0.00  0.00     0.143 H 
ATOM     14  H   50Y d   1      -3.568  47.715  -1.681  0.00  0.00     0.088 H 
ENDROOT
BRANCH   9  15
ATOM     15  C15 50Y d   1      -0.893  48.533  -0.979  0.00  0.00     0.271 C 
ATOM     16  O18 50Y d   1      -0.466  49.419  -0.250  0.00  0.00    -0.266 OA
ATOM     17  N19 50Y d   1      -0.615  48.556  -2.313  0.00  0.00    -0.337 N 
BRANCH  17  18
ATOM     18  C20 50Y d   1      -0.818  47.536  -3.385  0.00  0.00     0.015 A 
ATOM     19  C22 50Y d   1      -0.587  46.099  -3.082  0.00  0.00    -0.044 A 
ATOM     20  C23 50Y d   1      -1.965  46.591  -3.364  0.00  0.00    -0.044 A 
ATOM     21  H   50Y d   1      -0.311  45.789  -2.063  0.00  0.00     0.036 H 
ATOM     22  H   50Y d   1      -0.071  45.459  -3.813  0.00  0.00     0.036 H 
ATOM     23  H   50Y d   1      -2.467  46.314  -4.303  0.00  0.00     0.036 H 
ATOM     24  H   50Y d   1      -2.707  46.644  -2.554  0.00  0.00     0.036 H 
ATOM     25  H   50Y d   1      -0.485  47.955  -4.346  0.00  0.00     0.072 H 
ENDBRANCH  17  18
BRANCH  17  26
ATOM     26  C21 50Y d   1      -0.007  49.847  -2.775  0.00  0.00     0.015 A 
ATOM     27  C24 50Y d   1      -0.825  51.093  -2.771  0.00  0.00    -0.044 A 
ATOM     28  C25 50Y d   1      -0.446  50.452  -4.064  0.00  0.00    -0.044 A 
ATOM     29  H   50Y d   1      -0.369  52.050  -2.477  0.00  0.00     0.036 H 
ATOM     30  H   50Y d   1      -1.870  51.064  -2.428  0.00  0.00     0.036 H 
ATOM     31  H   50Y d   1      -1.211  49.951  -4.675  0.00  0.00     0.036 H 
ATOM     32  H   50Y d   1       0.290  50.936  -4.723  0.00  0.00     0.036 H 
ATOM     33  H   50Y d   1       1.053  49.882  -2.482  0.00  0.00     0.072 H 
ENDBRANCH  17  26
ENDBRANCH   9  15
BRANCH  10  34
ATOM     34  C16 50Y d   1      -0.322  46.701   1.573  0.00  0.00    -0.001 C 
ATOM     35  H   50Y d   1       0.230  47.647   1.471  0.00  0.00     0.064 H 
ATOM     36  H   50Y d   1      -0.584  46.542   2.629  0.00  0.00     0.064 H 
BRANCH  34  37
ATOM     37  C17 50Y d   1       0.586  45.598   1.159  0.00  0.00    -0.061 C 
ATOM     38  H   50Y d   1       1.484  45.604   1.795  0.00  0.00     0.029 H 
ATOM     39  H   50Y d   1       0.880  45.740   0.109  0.00  0.00     0.029 H 
ATOM     40  H   50Y d   1       0.066  44.635   1.267  0.00  0.00     0.029 H 
ENDBRANCH  34  37
ENDBRANCH  10  34
BRANCH  12  41
ATOM     41  C14 50Y d   1      -6.271  45.969  -1.820  0.00  0.00    -0.013 C 
ATOM     42  H   50Y d   1      -7.223  45.563  -2.193  0.00  0.00     0.057 H 
ATOM     43  H   50Y d   1      -5.471  45.753  -2.544  0.00  0.00     0.057 H 
ATOM     44  H   50Y d   1      -6.363  47.057  -1.688  0.00  0.00     0.057 H 
ENDBRANCH  12  41
BRANCH   5  45
ATOM     45  N13 50Y d   1      -4.204  44.045   3.531  0.00  0.00    -0.373 N 
ATOM     46  H   50Y d   1      -5.035  43.445   3.629  0.00  0.00     0.161 HD
BRANCH  45  47
ATOM     47  C26 50Y d   1      -3.271  44.135   4.641  0.00  0.00    -0.004 C 
ATOM     48  H   50Y d   1      -2.262  43.910   4.265  0.00  0.00     0.064 H 
ATOM     49  H   50Y d   1      -3.296  45.163   5.032  0.00  0.00     0.064 H 
BRANCH  47  50
ATOM     50  C27 50Y d   1      -3.581  43.182   5.780  0.00  0.00    -0.030 C 
ATOM     51  H   50Y d   1      -3.125  42.206   5.556  0.00  0.00     0.038 H 
ATOM     52  H   50Y d   1      -4.673  43.068   5.856  0.00  0.00     0.038 H 
BRANCH  50  53
ATOM     53  C28 50Y d   1      -3.054  43.666   7.106  0.00  0.00     0.020 C 
ATOM     54  H   50Y d   1      -2.004  43.975   7.002  0.00  0.00     0.074 H 
ATOM     55  H   50Y d   1      -3.127  42.863   7.854  0.00  0.00     0.074 H 
BRANCH  53  56
ATOM     56  O29 50Y d   1      -3.850  44.777   7.506  0.00  0.00    -0.396 OA
BRANCH  56  57
ATOM     57  C30 50Y d   1      -3.427  45.346   8.740  0.00  0.00     0.004 C 
ATOM     58  H   50Y d   1      -4.078  46.196   8.994  0.00  0.00     0.066 H 
ATOM     59  H   50Y d   1      -2.388  45.695   8.646  0.00  0.00     0.066 H 
ATOM     60  H   50Y d   1      -3.488  44.587   9.534  0.00  0.00     0.066 H 
ENDBRANCH  56  57
ENDBRANCH  53  56
ENDBRANCH  50  53
ENDBRANCH  47  50
ENDBRANCH  45  47
ENDBRANCH   5  45
TORSDOF 12
