REMARK  10 active torsions:
REMARK  status: ('A' for Active; 'I' for Inactive)
REMARK    1  A    between atoms: C11_9  and  C13_1 
REMARK       I    between atoms: C13_1  and  N18_23 
REMARK    2  A    between atoms: C16_3  and  C17_2 
REMARK    3  A    between atoms: N12_20  and  C16_3 
REMARK    4  A    between atoms: N18_23  and  C20_4 
REMARK    5  A    between atoms: N18_23  and  C21_5 
REMARK    6  A    between atoms: C4_13  and  N15_22 
REMARK    7  A    between atoms: N9_18  and  C14_21 
REMARK    8  A    between atoms: N15_22  and  C26_26 
REMARK    9  A    between atoms: C29_29  and  C31_31 
REMARK   10  A    between atoms: C30_30  and  C32_32 
ROOT
ATOM      1  C11 50W d   1      -1.983  47.441  -0.597  0.00  0.00     0.105 A 
ATOM      2  C1  50W d   1      -3.772  46.191  -0.061  0.00  0.00     0.042 A 
ATOM      3  C2  50W d   1      -2.803  46.036   0.941  0.00  0.00     0.145 A 
ATOM      4  N3  50W d   1      -2.874  45.295   2.055  0.00  0.00    -0.210 NA
ATOM      5  C4  50W d   1      -4.011  44.623   2.277  0.00  0.00     0.163 A 
ATOM      6  C5  50W d   1      -5.058  44.645   1.320  0.00  0.00     0.132 A 
ATOM      7  C6  50W d   1      -4.945  45.431   0.176  0.00  0.00     0.082 A 
ATOM      8  N7  50W d   1      -6.250  43.938   1.304  0.00  0.00    -0.238 NA
ATOM      9  C8  50W d   1      -6.809  44.290   0.171  0.00  0.00     0.067 A 
ATOM     10  N9  50W d   1      -6.091  45.191  -0.552  0.00  0.00    -0.343 N 
ATOM     11  C10 50W d   1      -3.232  47.085  -1.023  0.00  0.00    -0.036 A 
ATOM     12  N12 50W d   1      -1.712  46.805   0.610  0.00  0.00    -0.327 N 
ATOM     13  H   50W d   1      -7.763  43.896  -0.161  0.00  0.00     0.143 H 
ATOM     14  H   50W d   1      -3.723  47.425  -1.934  0.00  0.00     0.088 H 
ENDROOT
BRANCH   1  15
ATOM     15  C13 50W d   1      -0.973  48.317  -1.231  0.00  0.00     0.271 C 
ATOM     16  N18 50W d   1      -0.807  48.273  -2.574  0.00  0.00    -0.337 N 
ATOM     17  O19 50W d   1      -0.374  49.124  -0.523  0.00  0.00    -0.266 OA
BRANCH  16  18
ATOM     18  C20 50W d   1      -0.069  49.395  -3.202  0.00  0.00     0.015 A 
ATOM     19  C24 50W d   1      -0.749  50.208  -4.250  0.00  0.00    -0.044 A 
ATOM     20  C25 50W d   1      -0.482  50.795  -2.902  0.00  0.00    -0.044 A 
ATOM     21  H   50W d   1      -1.779  49.967  -4.551  0.00  0.00     0.036 H 
ATOM     22  H   50W d   1      -0.184  50.561  -5.125  0.00  0.00     0.036 H 
ATOM     23  H   50W d   1       0.279  51.580  -2.785  0.00  0.00     0.036 H 
ATOM     24  H   50W d   1      -1.316  50.986  -2.210  0.00  0.00     0.036 H 
ATOM     25  H   50W d   1       0.996  49.138  -3.299  0.00  0.00     0.072 H 
ENDBRANCH  16  18
BRANCH  16  26
ATOM     26  C21 50W d   1      -1.203  47.143  -3.463  0.00  0.00     0.015 A 
ATOM     27  C22 50W d   1      -0.778  45.753  -3.141  0.00  0.00    -0.044 A 
ATOM     28  C23 50W d   1      -0.149  46.482  -4.281  0.00  0.00    -0.044 A 
ATOM     29  H   50W d   1      -1.458  44.911  -3.335  0.00  0.00     0.036 H 
ATOM     30  H   50W d   1      -0.197  45.553  -2.229  0.00  0.00     0.036 H 
ATOM     31  H   50W d   1       0.895  46.819  -4.209  0.00  0.00     0.036 H 
ATOM     32  H   50W d   1      -0.366  46.177  -5.316  0.00  0.00     0.036 H 
ATOM     33  H   50W d   1      -2.202  47.330  -3.883  0.00  0.00     0.072 H 
ENDBRANCH  16  26
ENDBRANCH   1  15
BRANCH  12  34
ATOM     34  C16 50W d   1      -0.479  46.864   1.421  0.00  0.00    -0.001 C 
ATOM     35  H   50W d   1      -0.038  47.867   1.327  0.00  0.00     0.064 H 
ATOM     36  H   50W d   1      -0.735  46.673   2.474  0.00  0.00     0.064 H 
BRANCH  34  37
ATOM     37  C17 50W d   1       0.529  45.844   0.971  0.00  0.00    -0.061 C 
ATOM     38  H   50W d   1       1.431  45.919   1.597  0.00  0.00     0.029 H 
ATOM     39  H   50W d   1       0.796  46.031  -0.080  0.00  0.00     0.029 H 
ATOM     40  H   50W d   1       0.099  44.836   1.067  0.00  0.00     0.029 H 
ENDBRANCH  34  37
ENDBRANCH  12  34
BRANCH  10  41
ATOM     41  C14 50W d   1      -6.471  45.755  -1.844  0.00  0.00    -0.013 C 
ATOM     42  H   50W d   1      -5.692  46.455  -2.182  0.00  0.00     0.057 H 
ATOM     43  H   50W d   1      -7.427  46.290  -1.744  0.00  0.00     0.057 H 
ATOM     44  H   50W d   1      -6.580  44.945  -2.580  0.00  0.00     0.057 H 
ENDBRANCH  10  41
BRANCH   5  45
ATOM     45  N15 50W d   1      -4.201  44.019   3.514  0.00  0.00    -0.318 N 
ATOM     46  H   50W d   1      -5.080  43.502   3.656  0.00  0.00     0.169 HD
BRANCH  45  47
ATOM     47  C26 50W d   1      -3.321  44.053   4.557  0.00  0.00     0.173 A 
ATOM     48  N27 50W d   1      -3.632  43.497   5.697  0.00  0.00    -0.228 NA
ATOM     49  C29 50W d   1      -2.674  43.777   6.650  0.00  0.00     0.046 A 
ATOM     50  C30 50W d   1      -1.625  44.542   6.234  0.00  0.00     0.006 A 
ATOM     51  S28 50W d   1      -1.831  44.936   4.557  0.00  0.00    -0.055 SA
BRANCH  49  52
ATOM     52  C31 50W d   1      -2.846  43.179   8.008  0.00  0.00    -0.034 C 
ATOM     53  H   50W d   1      -2.011  43.489   8.654  0.00  0.00     0.035 H 
ATOM     54  H   50W d   1      -2.859  42.082   7.927  0.00  0.00     0.035 H 
ATOM     55  H   50W d   1      -3.795  43.525   8.444  0.00  0.00     0.035 H 
ENDBRANCH  49  52
BRANCH  50  56
ATOM     56  C32 50W d   1      -0.474  45.124   7.009  0.00  0.00    -0.043 C 
ATOM     57  H   50W d   1      -0.510  44.762   8.047  0.00  0.00     0.034 H 
ATOM     58  H   50W d   1      -0.544  46.222   7.001  0.00  0.00     0.034 H 
ATOM     59  H   50W d   1       0.474  44.814   6.545  0.00  0.00     0.034 H 
ENDBRANCH  50  56
ENDBRANCH  45  47
ENDBRANCH   5  45
TORSDOF 10
