REMARK  11 active torsions:
REMARK  status: ('A' for Active; 'I' for Inactive)
REMARK    1  A    between atoms: C5_13  and  C13_1 
REMARK       I    between atoms: C13_1  and  N19_22 
REMARK    2  A    between atoms: N15_21  and  C18_2 
REMARK    3  A    between atoms: N11_19  and  C17_3 
REMARK    4  A    between atoms: C16_4  and  C21_5 
REMARK    5  A    between atoms: C14_20  and  C16_4 
REMARK    6  A    between atoms: C16_4  and  O23_25 
REMARK    7  A    between atoms: C21_5  and  O22_24 
REMARK    8  A    between atoms: N19_22  and  C24_6 
REMARK    9  A    between atoms: N3_11  and  C14_20 
REMARK   10  A    between atoms: C10_18  and  N15_21 
REMARK   11  A    between atoms: N19_22  and  C25_26 
ROOT
ATOM      1  C12 50O d   1     -11.595 -62.586   0.111  0.00  0.00     0.067 A 
ATOM      2  C1  50O d   1      -9.891 -58.664  -1.082  0.00  0.00     0.145 A 
ATOM      3  C2  50O d   1      -9.747 -59.510   0.028  0.00  0.00     0.042 A 
ATOM      4  N3  50O d   1      -9.164 -57.509  -0.848  0.00  0.00    -0.324 N 
ATOM      5  N4  50O d   1     -10.603 -58.887  -2.200  0.00  0.00    -0.210 NA
ATOM      6  C5  50O d   1      -8.539 -57.638   0.389  0.00  0.00     0.105 A 
ATOM      7  C6  50O d   1     -11.280 -60.951  -1.209  0.00  0.00     0.131 A 
ATOM      8  C7  50O d   1     -10.486 -60.712  -0.087  0.00  0.00     0.082 A 
ATOM      9  N8  50O d   1     -11.973 -62.143  -1.067  0.00  0.00    -0.238 NA
ATOM     10  C9  50O d   1      -8.884 -58.846   0.945  0.00  0.00    -0.036 A 
ATOM     11  C10 50O d   1     -11.319 -60.014  -2.264  0.00  0.00     0.157 A 
ATOM     12  N11 50O d   1     -10.691 -61.789   0.747  0.00  0.00    -0.343 N 
ATOM     13  H   50O d   1     -11.971 -63.508   0.541  0.00  0.00     0.143 H 
ATOM     14  H   50O d   1      -8.557 -59.226   1.911  0.00  0.00     0.088 H 
ENDROOT
BRANCH   6  15
ATOM     15  C13 50O d   1      -7.553 -56.665   0.917  0.00  0.00     0.271 C 
ATOM     16  N19 50O d   1      -7.672 -56.241   2.192  0.00  0.00    -0.337 N 
ATOM     17  O20 50O d   1      -6.546 -56.479   0.277  0.00  0.00    -0.266 OA
BRANCH  16  18
ATOM     18  C24 50O d   1      -9.050 -56.293   2.735  0.00  0.00     0.015 A 
ATOM     19  C27 50O d   1      -9.393 -57.232   3.833  0.00  0.00    -0.044 A 
ATOM     20  C26 50O d   1      -9.317 -55.765   4.097  0.00  0.00    -0.044 A 
ATOM     21  H   50O d   1      -8.625 -57.905   4.242  0.00  0.00     0.036 H 
ATOM     22  H   50O d   1     -10.367 -57.742   3.837  0.00  0.00     0.036 H 
ATOM     23  H   50O d   1     -10.236 -55.193   4.295  0.00  0.00     0.036 H 
ATOM     24  H   50O d   1      -8.493 -55.356   4.700  0.00  0.00     0.036 H 
ATOM     25  H   50O d   1      -9.771 -56.115   1.923  0.00  0.00     0.072 H 
ENDBRANCH  16  18
BRANCH  16  26
ATOM     26  C25 50O d   1      -6.579 -55.642   3.017  0.00  0.00     0.015 A 
ATOM     27  C28 50O d   1      -5.156 -55.983   2.731  0.00  0.00    -0.044 A 
ATOM     28  C29 50O d   1      -5.817 -56.504   3.966  0.00  0.00    -0.044 A 
ATOM     29  H   50O d   1      -4.378 -55.209   2.808  0.00  0.00     0.036 H 
ATOM     30  H   50O d   1      -4.910 -56.669   1.908  0.00  0.00     0.036 H 
ATOM     31  H   50O d   1      -6.057 -57.574   4.052  0.00  0.00     0.036 H 
ATOM     32  H   50O d   1      -5.526 -56.113   4.952  0.00  0.00     0.036 H 
ATOM     33  H   50O d   1      -6.852 -54.615   3.301  0.00  0.00     0.072 H 
ENDBRANCH  16  26
ENDBRANCH   6  15
BRANCH   4  34
ATOM     34  C14 50O d   1      -9.124 -56.329  -1.733  0.00  0.00     0.028 C 
ATOM     35  H   50O d   1      -8.526 -55.544  -1.246  0.00  0.00     0.069 H 
ATOM     36  H   50O d   1      -8.648 -56.617  -2.682  0.00  0.00     0.069 H 
BRANCH  34  37
ATOM     37  C16 50O d   1     -10.511 -55.769  -2.034  0.00  0.00     0.071 C 
ATOM     38  H   50O d   1     -11.114 -55.889  -1.122  0.00  0.00     0.088 H 
BRANCH  37  39
ATOM     39  C21 50O d   1     -10.550 -54.312  -2.414  0.00  0.00     0.042 C 
ATOM     40  H   50O d   1      -9.628 -54.048  -2.953  0.00  0.00     0.077 H 
ATOM     41  H   50O d   1     -10.632 -53.697  -1.506  0.00  0.00     0.077 H 
BRANCH  39  42
ATOM     42  O22 50O d   1     -11.680 -54.075  -3.255  0.00  0.00    -0.398 OA
ATOM     43  H   50O d   1     -11.707 -53.157  -3.496  0.00  0.00     0.209 HD
ENDBRANCH  39  42
ENDBRANCH  37  39
BRANCH  37  44
ATOM     44  O23 50O d   1     -11.123 -56.521  -3.086  0.00  0.00    -0.392 OA
ATOM     45  H   50O d   1     -11.203 -57.429  -2.820  0.00  0.00     0.210 HD
ENDBRANCH  37  44
ENDBRANCH  34  37
ENDBRANCH   4  34
BRANCH  11  46
ATOM     46  N15 50O d   1     -12.084 -60.229  -3.348  0.00  0.00    -0.377 N 
ATOM     47  H   50O d   1     -12.724 -61.036  -3.346  0.00  0.00     0.160 HD
BRANCH  46  48
ATOM     48  C18 50O d   1     -12.049 -59.376  -4.519  0.00  0.00    -0.019 C 
ATOM     49  H   50O d   1     -12.760 -59.753  -5.269  0.00  0.00     0.056 H 
ATOM     50  H   50O d   1     -11.034 -59.377  -4.943  0.00  0.00     0.056 H 
ATOM     51  H   50O d   1     -12.327 -58.350  -4.234  0.00  0.00     0.056 H 
ENDBRANCH  46  48
ENDBRANCH  11  46
BRANCH  12  52
ATOM     52  C17 50O d   1     -10.082 -62.039   2.048  0.00  0.00    -0.013 C 
ATOM     53  H   50O d   1     -10.459 -62.990   2.453  0.00  0.00     0.057 H 
ATOM     54  H   50O d   1     -10.338 -61.220   2.736  0.00  0.00     0.057 H 
ATOM     55  H   50O d   1      -8.989 -62.096   1.936  0.00  0.00     0.057 H 
ENDBRANCH  12  52
TORSDOF 11
