REMARK  10 active torsions:
REMARK  status: ('A' for Active; 'I' for Inactive)
REMARK    1  A    between atoms: N14_1  and  C18_3 
REMARK    2  A    between atoms: C13_2  and  C15_4 
REMARK    3  A    between atoms: C18_3  and  C19_5 
REMARK       I    between atoms: C15_4  and  N16_24 
REMARK    4  A    between atoms: N16_24  and  C20_6 
REMARK    5  A    between atoms: N16_24  and  C21_7 
REMARK    6  A    between atoms: N10_23  and  C11_11 
REMARK    7  A    between atoms: N7_20  and  C4_17 
REMARK    8  A    between atoms: N7_20  and  C26_27 
REMARK    9  A    between atoms: C28_28  and  C31_31 
REMARK   10  A    between atoms: N29_29  and  C32_32 
ROOT
ATOM      1  N14 50V d   1      -1.653  46.852   0.709  0.00  0.00    -0.327 N 
ATOM      2  C13 50V d   1      -1.880  47.435  -0.534  0.00  0.00     0.105 A 
ATOM      3  C12 50V d   1      -3.120  47.057  -0.985  0.00  0.00    -0.036 A 
ATOM      4  C1  50V d   1      -3.691  46.211   0.004  0.00  0.00     0.042 A 
ATOM      5  C2  50V d   1      -2.755  46.112   1.044  0.00  0.00     0.145 A 
ATOM      6  N3  50V d   1      -2.840  45.393   2.169  0.00  0.00    -0.210 NA
ATOM      7  C4  50V d   1      -3.962  44.694   2.366  0.00  0.00     0.163 A 
ATOM      8  C5  50V d   1      -4.993  44.699   1.399  0.00  0.00     0.132 A 
ATOM      9  C6  50V d   1      -4.864  45.467   0.241  0.00  0.00     0.082 A 
ATOM     10  N8  50V d   1      -6.214  44.043   1.410  0.00  0.00    -0.238 NA
ATOM     11  C9  50V d   1      -6.779  44.413   0.281  0.00  0.00     0.067 A 
ATOM     12  N10 50V d   1      -6.028  45.267  -0.468  0.00  0.00    -0.343 N 
ATOM     13  H17 50V d   1      -3.581  47.351  -1.927  0.00  0.00     0.088 H 
ATOM     14  H20 50V d   1      -7.764  44.066  -0.028  0.00  0.00     0.143 H 
ENDROOT
BRANCH   2  15
ATOM     15  C15 50V d   1      -0.901  48.350  -1.157  0.00  0.00     0.271 C 
ATOM     16  N16 50V d   1      -0.789  48.390  -2.501  0.00  0.00    -0.337 N 
ATOM     17  O17 50V d   1      -0.285  49.118  -0.428  0.00  0.00    -0.266 OA
BRANCH  16  18
ATOM     18  C20 50V d   1      -0.105  49.552  -3.117  0.00  0.00     0.015 A 
ATOM     19  C22 50V d   1      -0.850  50.362  -4.119  0.00  0.00    -0.044 A 
ATOM     20  C23 50V d   1      -0.554  50.929  -2.771  0.00  0.00    -0.044 A 
ATOM     21  H8  50V d   1      -1.882  50.092  -4.388  0.00  0.00     0.036 H 
ATOM     22  H9  50V d   1      -0.331  50.753  -5.006  0.00  0.00     0.036 H 
ATOM     23  H10 50V d   1       0.184  51.738  -2.664  0.00  0.00     0.036 H 
ATOM     24  H11 50V d   1      -1.367  51.077  -2.045  0.00  0.00     0.036 H 
ATOM     25  H6  50V d   1       0.964  49.333  -3.255  0.00  0.00     0.072 H 
ENDBRANCH  16  18
BRANCH  16  26
ATOM     26  C21 50V d   1      -1.149  47.270  -3.408  0.00  0.00     0.015 A 
ATOM     27  C24 50V d   1      -0.769  45.874  -3.058  0.00  0.00    -0.044 A 
ATOM     28  C25 50V d   1      -0.050  46.593  -4.151  0.00  0.00    -0.044 A 
ATOM     29  H12 50V d   1      -1.447  45.042  -3.300  0.00  0.00     0.036 H 
ATOM     30  H13 50V d   1      -0.257  45.665  -2.107  0.00  0.00     0.036 H 
ATOM     31  H21 50V d   1       0.992  46.914  -4.006  0.00  0.00     0.036 H 
ATOM     32  H22 50V d   1      -0.198  46.291  -5.198  0.00  0.00     0.036 H 
ATOM     33  H7  50V d   1      -2.115  47.474  -3.893  0.00  0.00     0.072 H 
ENDBRANCH  16  26
ENDBRANCH   2  15
BRANCH   1  34
ATOM     34  C18 50V d   1      -0.428  46.880   1.526  0.00  0.00    -0.001 C 
ATOM     35  H1  50V d   1      -0.696  46.809   2.590  0.00  0.00     0.064 H 
ATOM     36  H2  50V d   1       0.111  47.822   1.346  0.00  0.00     0.064 H 
BRANCH  34  37
ATOM     37  C19 50V d   1       0.461  45.711   1.151  0.00  0.00    -0.061 C 
ATOM     38  H3  50V d   1       1.375  45.734   1.763  0.00  0.00     0.029 H 
ATOM     39  H4  50V d   1       0.730  45.782   0.087  0.00  0.00     0.029 H 
ATOM     40  H5  50V d   1      -0.077  44.769   1.331  0.00  0.00     0.029 H 
ENDBRANCH  34  37
ENDBRANCH   1  34
BRANCH   7  41
ATOM     41  N7  50V d   1      -4.129  44.043   3.568  0.00  0.00    -0.322 N 
ATOM     42  H19 50V d   1      -4.993  43.493   3.680  0.00  0.00     0.169 HD
BRANCH  41  43
ATOM     43  C26 50V d   1      -3.247  44.052   4.650  0.00  0.00     0.151 A 
ATOM     44  C27 50V d   1      -3.715  43.458   5.815  0.00  0.00    -0.014 A 
ATOM     45  C28 50V d   1      -2.786  43.716   6.772  0.00  0.00     0.030 A 
ATOM     46  H18 50V d   1      -4.641  42.898   5.937  0.00  0.00     0.092 H 
ATOM     47  N29 50V d   1      -1.790  44.389   6.170  0.00  0.00    -0.277 N 
ATOM     48  N30 50V d   1      -2.053  44.620   4.837  0.00  0.00    -0.154 NA
BRANCH  45  49
ATOM     49  C31 50V d   1      -2.783  43.392   8.227  0.00  0.00    -0.036 C 
ATOM     50  H23 50V d   1      -3.700  42.840   8.482  0.00  0.00     0.035 H 
ATOM     51  H24 50V d   1      -2.743  44.324   8.810  0.00  0.00     0.035 H 
ATOM     52  H25 50V d   1      -1.905  42.773   8.463  0.00  0.00     0.035 H 
ENDBRANCH  45  49
BRANCH  47  53
ATOM     53  C32 50V d   1      -0.528  44.851   6.747  0.00  0.00     0.003 C 
ATOM     54  H26 50V d   1       0.060  45.370   5.975  0.00  0.00     0.059 H 
ATOM     55  H27 50V d   1       0.041  43.988   7.123  0.00  0.00     0.059 H 
ATOM     56  H28 50V d   1      -0.736  45.543   7.577  0.00  0.00     0.059 H 
ENDBRANCH  47  53
ENDBRANCH  41  43
ENDBRANCH   7  41
BRANCH  12  57
ATOM     57  C11 50V d   1      -6.382  45.832  -1.763  0.00  0.00    -0.013 C 
ATOM     58  H14 50V d   1      -7.381  45.478  -2.057  0.00  0.00     0.057 H 
ATOM     59  H15 50V d   1      -5.645  45.515  -2.515  0.00  0.00     0.057 H 
ATOM     60  H16 50V d   1      -6.388  46.930  -1.695  0.00  0.00     0.057 H 
ENDBRANCH  12  57
TORSDOF 10
