REMARK WARNING: 32 MAX_TORS EXCEEDED!!!
REMARK  46 active torsions:
REMARK  status: ('A' for Active; 'I' for Inactive)
REMARK    1  A    between atoms: N_1  and  CA_2 
REMARK    2  A    between atoms: CA_2  and  C_3 
REMARK    3  A    between atoms: CA_2  and  CB_5 
REMARK       I    between atoms: C_3  and  N_6 
REMARK    4  A    between atoms: N_6  and  CA_7 
REMARK    5  A    between atoms: CA_7  and  C_8 
REMARK    6  A    between atoms: CA_7  and  CB_10 
REMARK       I    between atoms: C_8  and  N_15 
REMARK    7  A    between atoms: CB_10  and  CG_11 
REMARK    8  A    between atoms: CG_11  and  CD_12 
REMARK    9  A    between atoms: CD_12  and  CE_13 
REMARK   10  A    between atoms: CE_13  and  NZ_14 
REMARK   11  A    between atoms: N_15  and  CA_16 
REMARK   12  A    between atoms: CA_16  and  C_17 
REMARK   13  A    between atoms: CA_16  and  CB_19 
REMARK       I    between atoms: C_17  and  N_24 
REMARK   14  A    between atoms: CB_19  and  CG_20 
REMARK   15  A    between atoms: CG_20  and  CD_21 
REMARK       I    between atoms: CD_21  and  NE2_23 
REMARK   16  A    between atoms: N_24  and  CA_25 
REMARK   17  A    between atoms: CA_25  and  C_26 
REMARK   18  A    between atoms: CA_25  and  CB_28 
REMARK       I    between atoms: C_26  and  N_35 
REMARK   19  A    between atoms: CB_28  and  CG_29 
REMARK   20  A    between atoms: N_35  and  CA_36 
REMARK   21  A    between atoms: CA_36  and  C_37 
REMARK   22  A    between atoms: CA_36  and  CB_39 
REMARK       I    between atoms: C_37  and  N_42 
REMARK   23  A    between atoms: CB_39  and  OG1_40 
REMARK   24  A    between atoms: CB_39  and  CG2_41 
REMARK   25  A    between atoms: N_42  and  CA_43 
REMARK   26  A    between atoms: CA_43  and  C_44 
REMARK   27  A    between atoms: CA_43  and  CB_46 
REMARK       I    between atoms: C_44  and  N_48 
REMARK   28  A    between atoms: CB_46  and  OG_47 
REMARK   29  A    between atoms: N_48  and  CA_49 
REMARK   30  A    between atoms: CA_49  and  C_50 
REMARK   31  A    between atoms: CA_49  and  CB_52 
REMARK       I    between atoms: C_50  and  N_54 
REMARK   32  A    between atoms: CB_52  and  OG_53 
REMARK   33  A    between atoms: N_54  and  CA_55 
REMARK   34  A    between atoms: CA_55  and  C_56 
REMARK   35  A    between atoms: CA_55  and  CB_58 
REMARK       I    between atoms: C_56  and  N_61 
REMARK   36  A    between atoms: CB_58  and  OG1_59 
REMARK   37  A    between atoms: CB_58  and  CG2_60 
REMARK   38  A    between atoms: N_61  and  CA_62 
REMARK   39  A    between atoms: CA_62  and  C_63 
REMARK   40  A    between atoms: CA_62  and  CB_65 
REMARK       I    between atoms: C_63  and  N_67 
REMARK   41  A    between atoms: CB_65  and  OG_66 
REMARK   42  A    between atoms: N_67  and  CA_68 
REMARK   43  A    between atoms: CA_68  and  C_69 
REMARK   44  A    between atoms: CA_68  and  CB_71 
REMARK   45  A    between atoms: CB_71  and  CG_72 
REMARK   46  A    between atoms: CZ_77  and  OH_78 
ROOT
ATOM      1  CA  THR d   1      13.694  10.054  22.111  0.00  0.00     0.113 C 
ATOM      2  H39 THR d   1      14.287   9.129  22.061  0.00  0.00     0.091 H 
ENDROOT
BRANCH   1   3
ATOM      3  N   THR d   1      12.911  10.028  23.334  0.00  0.00    -0.344 N 
ATOM      4  C   PHE d   1      12.571   8.892  23.929  0.00  0.00     0.241 C 
ATOM      5  O   PHE d   1      12.845   7.774  23.488  0.00  0.00    -0.271 OA
ATOM      6  H38 THR d   1      12.619  10.894  23.740  0.00  0.00     0.163 HD
BRANCH   4   7
ATOM      7  CA  PHE d   1      11.854   9.074  25.251  0.00  0.00     0.093 C 
ATOM      8  H30 PHE d   1      11.207   9.960  25.177  0.00  0.00     0.088 H 
BRANCH   7   9
ATOM      9  N   PHE d   1      11.015   7.935  25.611  0.00  0.00    -0.346 N 
ATOM     10  C   GLN d   1       9.788   8.125  26.083  0.00  0.00     0.241 C 
ATOM     11  O   GLN d   1       9.225   9.224  26.037  0.00  0.00    -0.271 OA
ATOM     12  H29 PHE d   1      11.366   7.005  25.502  0.00  0.00     0.163 HD
BRANCH  10  13
ATOM     13  CA  GLN d   1       9.063   6.937  26.707  0.00  0.00     0.090 C 
ATOM     14  H22 GLN d   1       9.771   6.282  27.236  0.00  0.00     0.087 H 
BRANCH  13  15
ATOM     15  N   GLN d   1       8.208   7.642  27.640  0.00  0.00    -0.346 N 
ATOM     16  C   LYS d   1       8.211   7.279  28.905  0.00  0.00     0.241 C 
ATOM     17  O   LYS d   1       8.967   6.412  29.358  0.00  0.00    -0.271 OA
ATOM     18  H21 GLN d   1       7.625   8.392  27.328  0.00  0.00     0.163 HD
BRANCH  16  19
ATOM     19  CA  LYS d   1       7.266   8.037  29.760  0.00  0.00     0.089 C 
ATOM     20  H9  LYS d   1       6.284   8.089  29.267  0.00  0.00     0.087 H 
BRANCH  19  21
ATOM     21  N   LYS d   1       7.120   7.347  31.014  0.00  0.00    -0.346 N 
ATOM     22  C   SER d   1       5.990   6.741  31.338  0.00  0.00     0.248 C 
ATOM     23  O   SER d   1       5.003   6.730  30.607  0.00  0.00    -0.271 OA
ATOM     24  H8  LYS d   1       7.888   7.325  31.654  0.00  0.00     0.163 HD
BRANCH  22  25
ATOM     25  CA  SER d   1       5.969   6.067  32.705  0.00  0.00     0.172 C 
ATOM     26  H4  SER d   1       5.016   6.322  33.191  0.00  0.00     0.098 H 
BRANCH  25  27
ATOM     27  N   SER d   1       6.048   4.605  32.617  0.00  0.00    -0.067 N 
ATOM     28  H1  SER d   1       6.030   4.211  33.545  0.00  0.00     0.275 HD
ATOM     29  H2  SER d   1       6.905   4.342  32.157  0.00  0.00     0.275 HD
ATOM     30  H3  SER d   1       5.263   4.257  32.090  0.00  0.00     0.275 HD
ENDBRANCH  25  27
BRANCH  25  31
ATOM     31  CB  SER d   1       7.104   6.607  33.565  0.00  0.00    -0.042 C 
ATOM     32  H5  SER d   1       7.032   7.703  33.622  0.00  0.00     0.030 H 
ATOM     33  H6  SER d   1       8.069   6.326  33.118  0.00  0.00     0.030 H 
ATOM     34  H7  SER d   1       7.031   6.182  34.577  0.00  0.00     0.030 H 
ENDBRANCH  25  31
ENDBRANCH  22  25
ENDBRANCH  19  21
BRANCH  19  35
ATOM     35  CB  LYS d   1       7.799   9.445  29.939  0.00  0.00    -0.038 C 
ATOM     36  H10 LYS d   1       8.032   9.860  28.947  0.00  0.00     0.036 H 
ATOM     37  H11 LYS d   1       8.718   9.398  30.541  0.00  0.00     0.036 H 
BRANCH  35  38
ATOM     38  CG  LYS d   1       6.821  10.365  30.627  0.00  0.00    -0.061 C 
ATOM     39  H12 LYS d   1       6.431   9.883  31.536  0.00  0.00     0.033 H 
ATOM     40  H13 LYS d   1       5.987  10.597  29.948  0.00  0.00     0.033 H 
BRANCH  38  41
ATOM     41  CD  LYS d   1       7.540  11.616  30.989  0.00  0.00    -0.043 C 
ATOM     42  H14 LYS d   1       7.989  12.057  30.087  0.00  0.00     0.035 H 
ATOM     43  H15 LYS d   1       8.331  11.388  31.718  0.00  0.00     0.035 H 
BRANCH  41  44
ATOM     44  CE  LYS d   1       6.569  12.585  31.590  0.00  0.00     0.080 C 
ATOM     45  H16 LYS d   1       6.108  12.121  32.475  0.00  0.00     0.075 H 
ATOM     46  H17 LYS d   1       5.790  12.811  30.847  0.00  0.00     0.075 H 
BRANCH  44  47
ATOM     47  NZ  LYS d   1       7.216  13.850  32.000  0.00  0.00    -0.079 N 
ATOM     48  H18 LYS d   1       6.525  14.467  32.397  0.00  0.00     0.274 HD
ATOM     49  H19 LYS d   1       7.636  14.289  31.195  0.00  0.00     0.274 HD
ATOM     50  H20 LYS d   1       7.928  13.656  32.687  0.00  0.00     0.274 HD
ENDBRANCH  44  47
ENDBRANCH  41  44
ENDBRANCH  38  41
ENDBRANCH  35  38
ENDBRANCH  19  35
ENDBRANCH  16  19
ENDBRANCH  13  15
BRANCH  13  51
ATOM     51  CB  GLN d   1       8.274   6.081  25.704  0.00  0.00    -0.030 C 
ATOM     52  H23 GLN d   1       8.901   5.228  25.404  0.00  0.00     0.037 H 
ATOM     53  H24 GLN d   1       8.047   6.698  24.822  0.00  0.00     0.037 H 
BRANCH  51  54
ATOM     54  CG  GLN d   1       6.906   5.519  26.292  0.00  0.00     0.011 C 
ATOM     55  H25 GLN d   1       6.439   6.278  26.937  0.00  0.00     0.047 H 
ATOM     56  H26 GLN d   1       7.099   4.608  26.878  0.00  0.00     0.047 H 
BRANCH  54  57
ATOM     57  CD  GLN d   1       5.968   5.190  25.108  0.00  0.00     0.215 C 
ATOM     58  OE1 GLN d   1       6.331   4.293  24.358  0.00  0.00    -0.274 OA
ATOM     59  NE2 GLN d   1       4.957   6.059  24.778  0.00  0.00    -0.370 N 
ATOM     60  H27 GLN d   1       4.348   5.850  24.013  0.00  0.00     0.159 HD
ATOM     61  H28 GLN d   1       4.830   6.901  25.303  0.00  0.00     0.159 HD
ENDBRANCH  54  57
ENDBRANCH  51  54
ENDBRANCH  13  51
ENDBRANCH  10  13
ENDBRANCH   7   9
BRANCH   7  62
ATOM     62  CB  PHE d   1      12.914   9.321  26.323  0.00  0.00    -0.014 C 
ATOM     63  H31 PHE d   1      13.648  10.035  25.922  0.00  0.00     0.043 H 
ATOM     64  H32 PHE d   1      13.413   8.365  26.540  0.00  0.00     0.043 H 
BRANCH  62  65
ATOM     65  CG  PHE d   1      12.378   9.872  27.609  0.00  0.00    -0.056 A 
ATOM     66  CD1 PHE d   1      12.244  11.239  27.798  0.00  0.00    -0.077 A 
ATOM     67  CE1 PHE d   1      11.768  11.739  28.998  0.00  0.00    -0.082 A 
ATOM     68  H33 PHE d   1      12.514  11.921  27.000  0.00  0.00     0.084 H 
ATOM     69  CZ  PHE d   1      11.427  10.881  30.018  0.00  0.00    -0.083 A 
ATOM     70  H35 PHE d   1      11.664  12.809  29.134  0.00  0.00     0.083 H 
ATOM     71  CE2 PHE d   1      11.555   9.518  29.850  0.00  0.00    -0.082 A 
ATOM     72  H37 PHE d   1      11.057  11.277  30.956  0.00  0.00     0.083 H 
ATOM     73  CD2 PHE d   1      12.035   9.017  28.643  0.00  0.00    -0.077 A 
ATOM     74  H36 PHE d   1      11.284   8.841  30.652  0.00  0.00     0.083 H 
ATOM     75  H34 PHE d   1      12.141   7.946  28.511  0.00  0.00     0.084 H 
ENDBRANCH  62  65
ENDBRANCH   7  62
ENDBRANCH   4   7
ENDBRANCH   1   3
BRANCH   1  76
ATOM     76  C   THR d   1      14.646  11.241  22.115  0.00  0.00     0.243 C 
ATOM     77  O   THR d   1      14.508  12.187  22.904  0.00  0.00    -0.271 OA
ATOM     78  N   SER d   1      15.612  11.189  21.203  0.00  0.00    -0.344 N 
ATOM     79  H45 SER d   1      15.690  10.372  20.632  0.00  0.00     0.163 HD
BRANCH  78  80
ATOM     80  CA  SER d   1      16.556  12.268  21.003  0.00  0.00     0.109 C 
ATOM     81  H46 SER d   1      16.675  12.820  21.947  0.00  0.00     0.090 H 
BRANCH  80  82
ATOM     82  C   SER d   1      16.020  13.208  19.942  0.00  0.00     0.243 C 
ATOM     83  O   SER d   1      15.423  12.770  18.957  0.00  0.00    -0.271 OA
ATOM     84  N   SER d   1      16.228  14.500  20.156  0.00  0.00    -0.344 N 
ATOM     85  H50 SER d   1      16.656  14.792  21.011  0.00  0.00     0.163 HD
BRANCH  84  86
ATOM     86  CA  SER d   1      15.848  15.498  19.177  0.00  0.00     0.109 C 
ATOM     87  H51 SER d   1      15.620  14.988  18.229  0.00  0.00     0.090 H 
BRANCH  86  88
ATOM     88  C   SER d   1      17.002  16.463  18.945  0.00  0.00     0.243 C 
ATOM     89  O   SER d   1      18.050  16.369  19.587  0.00  0.00    -0.271 OA
ATOM     90  N   THR d   1      16.799  17.388  18.018  0.00  0.00    -0.344 N 
ATOM     91  H55 THR d   1      15.931  17.397  17.522  0.00  0.00     0.163 HD
BRANCH  90  92
ATOM     92  CA  THR d   1      17.803  18.389  17.703  0.00  0.00     0.113 C 
ATOM     93  H56 THR d   1      18.735  18.132  18.228  0.00  0.00     0.091 H 
BRANCH  92  94
ATOM     94  C   THR d   1      17.330  19.757  18.183  0.00  0.00     0.243 C 
ATOM     95  O   THR d   1      16.156  20.102  18.034  0.00  0.00    -0.271 OA
ATOM     96  N   SER d   1      18.233  20.524  18.788  0.00  0.00    -0.344 N 
ATOM     97  H62 SER d   1      19.142  20.157  18.983  0.00  0.00     0.163 HD
BRANCH  96  98
ATOM     98  CA  SER d   1      17.913  21.891  19.169  0.00  0.00     0.109 C 
ATOM     99  H63 SER d   1      16.823  21.984  19.289  0.00  0.00     0.090 H 
BRANCH  98 100
ATOM    100  C   SER d   1      18.375  22.811  18.062  0.00  0.00     0.243 C 
ATOM    101  O   SER d   1      19.364  22.524  17.392  0.00  0.00    -0.271 OA
ATOM    102  N   TYR d   1      17.668  23.920  17.875  0.00  0.00    -0.344 N 
ATOM    103  H67 TYR d   1      16.919  24.141  18.500  0.00  0.00     0.163 HD
BRANCH 102 104
ATOM    104  CA  TYR d   1      17.972  24.819  16.768  0.00  0.00     0.100 C 
ATOM    105  H68 TYR d   1      18.976  24.571  16.394  0.00  0.00     0.090 H 
BRANCH 104 106
ATOM    106  C   TYR d   1      17.970  26.286  17.194  0.00  0.00     0.197 C 
ATOM    107  O   TYR d   1      18.522  26.647  18.235  0.00  0.00    -0.646 OA
ATOM    108  OXT TYR d   1      17.416  27.147  16.508  0.00  0.00    -0.646 OA
ENDBRANCH 104 106
BRANCH 104 109
ATOM    109  CB  TYR d   1      16.968  24.619  15.637  0.00  0.00    -0.013 C 
ATOM    110  H69 TYR d   1      17.179  25.372  14.864  0.00  0.00     0.043 H 
ATOM    111  H70 TYR d   1      15.962  24.788  16.048  0.00  0.00     0.043 H 
BRANCH 109 112
ATOM    112  CG  TYR d   1      16.973  23.257  14.970  0.00  0.00    -0.056 A 
ATOM    113  CD1 TYR d   1      18.038  22.855  14.169  0.00  0.00    -0.074 A 
ATOM    114  CE1 TYR d   1      18.037  21.618  13.546  0.00  0.00    -0.051 A 
ATOM    115  H71 TYR d   1      18.882  23.521  14.030  0.00  0.00     0.084 H 
ATOM    116  CZ  TYR d   1      16.962  20.766  13.715  0.00  0.00     0.065 A 
ATOM    117  H73 TYR d   1      18.876  21.319  12.928  0.00  0.00     0.087 H 
ATOM    118  CE2 TYR d   1      15.888  21.142  14.502  0.00  0.00    -0.051 A 
ATOM    119  CD2 TYR d   1      15.897  22.384  15.121  0.00  0.00    -0.074 A 
ATOM    120  H74 TYR d   1      15.046  20.472  14.634  0.00  0.00     0.087 H 
ATOM    121  H72 TYR d   1      15.053  22.680  15.733  0.00  0.00     0.084 H 
BRANCH 116 122
ATOM    122  OH  TYR d   1      16.960  19.534  13.095  0.00  0.00    -0.361 OA
ATOM    123  H75 TYR d   1      17.762  19.430  12.597  0.00  0.00     0.217 HD
ENDBRANCH 116 122
ENDBRANCH 109 112
ENDBRANCH 104 109
ENDBRANCH 102 104
ENDBRANCH  98 100
BRANCH  98 124
ATOM    124  CB  SER d   1      18.581  22.277  20.480  0.00  0.00     0.044 C 
ATOM    125  H64 SER d   1      18.378  23.337  20.695  0.00  0.00     0.077 H 
ATOM    126  H65 SER d   1      19.667  22.121  20.396  0.00  0.00     0.077 H 
BRANCH 124 127
ATOM    127  OG  SER d   1      18.077  21.487  21.523  0.00  0.00    -0.398 OA
ATOM    128  H66 SER d   1      17.140  21.622  21.597  0.00  0.00     0.209 HD
ENDBRANCH 124 127
ENDBRANCH  98 124
ENDBRANCH  96  98
ENDBRANCH  92  94
BRANCH  92 129
ATOM    129  CB  THR d   1      18.085  18.420  16.193  0.00  0.00     0.060 C 
ATOM    130  H57 THR d   1      17.234  18.892  15.680  0.00  0.00     0.086 H 
BRANCH 129 131
ATOM    131  OG1 THR d   1      18.240  17.078  15.715  0.00  0.00    -0.393 OA
ATOM    132  H58 THR d   1      18.415  17.094  14.781  0.00  0.00     0.210 HD
ENDBRANCH 129 131
BRANCH 129 133
ATOM    133  CG2 THR d   1      19.349  19.215  15.889  0.00  0.00    -0.050 C 
ATOM    134  H59 THR d   1      19.526  19.221  14.803  0.00  0.00     0.031 H 
ATOM    135  H60 THR d   1      20.206  18.750  16.398  0.00  0.00     0.031 H 
ATOM    136  H61 THR d   1      19.227  20.248  16.246  0.00  0.00     0.031 H 
ENDBRANCH 129 133
ENDBRANCH  92 129
ENDBRANCH  90  92
ENDBRANCH  86  88
BRANCH  86 137
ATOM    137  CB  SER d   1      14.602  16.259  19.627  0.00  0.00     0.044 C 
ATOM    138  H52 SER d   1      14.841  16.848  20.525  0.00  0.00     0.077 H 
ATOM    139  H53 SER d   1      13.803  15.541  19.862  0.00  0.00     0.077 H 
BRANCH 137 140
ATOM    140  OG  SER d   1      14.163  17.127  18.603  0.00  0.00    -0.398 OA
ATOM    141  H54 SER d   1      13.955  16.620  17.827  0.00  0.00     0.209 HD
ENDBRANCH 137 140
ENDBRANCH  86 137
ENDBRANCH  84  86
ENDBRANCH  80  82
BRANCH  80 142
ATOM    142  CB  SER d   1      17.919  11.719  20.577  0.00  0.00     0.044 C 
ATOM    143  H47 SER d   1      17.780  11.058  19.709  0.00  0.00     0.077 H 
ATOM    144  H48 SER d   1      18.347  11.143  21.411  0.00  0.00     0.077 H 
BRANCH 142 145
ATOM    145  OG  SER d   1      18.821  12.756  20.225  0.00  0.00    -0.398 OA
ATOM    146  H49 SER d   1      18.461  13.255  19.501  0.00  0.00     0.209 HD
ENDBRANCH 142 145
ENDBRANCH  80 142
ENDBRANCH  78  80
ENDBRANCH   1  76
BRANCH   1 147
ATOM    147  CB  THR d   1      12.790  10.117  20.873  0.00  0.00     0.060 C 
ATOM    148  H40 THR d   1      12.053   9.302  20.925  0.00  0.00     0.086 H 
BRANCH 147 149
ATOM    149  OG1 THR d   1      13.589   9.962  19.691  0.00  0.00    -0.393 OA
ATOM    150  H41 THR d   1      14.033   9.123  19.718  0.00  0.00     0.210 HD
ENDBRANCH 147 149
BRANCH 147 151
ATOM    151  CG2 THR d   1      12.062  11.439  20.809  0.00  0.00    -0.050 C 
ATOM    152  H42 THR d   1      11.421  11.462  19.915  0.00  0.00     0.031 H 
ATOM    153  H43 THR d   1      12.794  12.258  20.756  0.00  0.00     0.031 H 
ATOM    154  H44 THR d   1      11.441  11.559  21.709  0.00  0.00     0.031 H 
ENDBRANCH 147 151
ENDBRANCH   1 147
TORSDOF 46
