REMARK  0 active torsions:
REMARK  status: ('A' for Active; 'I' for Inactive)
ROOT
ATOM      1  CAV SY9 d   1     117.814 133.174  19.417  0.00  0.00     0.118 C 
ATOM      2  CAU SY9 d   1     117.891 132.466  18.060  0.00  0.00    -0.030 C 
ATOM      3  CAT SY9 d   1     119.204 131.712  17.963  0.00  0.00    -0.021 C 
ATOM      4  CAN SY9 d   1     119.133 130.546  18.941  0.00  0.00    -0.000 C 
ATOM      5  CAK SY9 d   1     118.886 130.979  20.381  0.00  0.00     0.040 A 
ATOM      6  NAH SY9 d   1     118.122 129.863  20.933  0.00  0.00    -0.311 N 
ATOM      7  CAA SY9 d   1     116.865 130.299  21.381  0.00  0.00     0.044 A 
ATOM      8  CAF SY9 d   1     115.793 129.564  21.884  0.00  0.00    -0.056 A 
ATOM      9  CAE SY9 d   1     114.609 130.200  22.237  0.00  0.00    -0.081 A 
ATOM     10  CAD SY9 d   1     114.482 131.577  22.071  0.00  0.00    -0.082 A 
ATOM     11  CAC SY9 d   1     115.541 132.319  21.556  0.00  0.00    -0.074 A 
ATOM     12  CAB SY9 d   1     116.726 131.682  21.194  0.00  0.00    -0.018 A 
ATOM     13  CAG SY9 d   1     118.031 132.233  20.627  0.00  0.00     0.041 A 
ATOM     14  CAW SY9 d   1     118.657 133.144  21.670  0.00  0.00    -0.027 C 
ATOM     15  CAX SY9 d   1     119.494 134.117  20.848  0.00  0.00     0.085 C 
ATOM     16  NAY SY9 d   1     118.845 134.247  19.526  0.00  0.00    -0.062 N 
ATOM     17  CAS SY9 d   1     119.923 134.160  18.517  0.00  0.00     0.104 C 
ATOM     18  CAR SY9 d   1     120.294 132.694  18.313  0.00  0.00    -0.051 C 
ATOM     19  CAQ SY9 d   1     121.628 132.404  18.490  0.00  0.00    -0.076 C 
ATOM     20  CAP SY9 d   1     122.094 131.112  18.366  0.00  0.00     0.035 C 
ATOM     21  OAO SY9 d   1     121.610 130.139  19.306  0.00  0.00    -0.381 OA
ATOM     22  CAM SY9 d   1     120.325 129.559  18.959  0.00  0.00     0.053 C 
ATOM     23  CAL SY9 d   1     120.062 128.461  20.060  0.00  0.00     0.034 C 
ATOM     24  CAI SY9 d   1     118.683 128.584  20.744  0.00  0.00     0.227 C 
ATOM     25  OAJ SY9 d   1     118.103 127.572  21.136  0.00  0.00    -0.273 OA
ATOM     26  H1  SY9 d   1     116.815 133.626  19.500  0.00  0.00     0.086 H 
ATOM     27  H2  SY9 d   1     117.835 133.211  17.253  0.00  0.00     0.037 H 
ATOM     28  H3  SY9 d   1     117.053 131.759  17.966  0.00  0.00     0.037 H 
ATOM     29  H4  SY9 d   1     119.361 131.330  16.944  0.00  0.00     0.048 H 
ATOM     30  H5  SY9 d   1     118.256 129.962  18.625  0.00  0.00     0.048 H 
ATOM     31  H6  SY9 d   1     119.852 131.106  20.892  0.00  0.00     0.076 H 
ATOM     32  H7  SY9 d   1     115.883 128.490  22.000  0.00  0.00     0.086 H 
ATOM     33  H8  SY9 d   1     113.784 129.625  22.642  0.00  0.00     0.083 H 
ATOM     34  H9  SY9 d   1     113.557 132.072  22.343  0.00  0.00     0.083 H 
ATOM     35  H10 SY9 d   1     115.444 133.392  21.437  0.00  0.00     0.084 H 
ATOM     36  H11 SY9 d   1     119.291 132.570  22.362  0.00  0.00     0.037 H 
ATOM     37  H12 SY9 d   1     117.882 133.678  22.239  0.00  0.00     0.037 H 
ATOM     38  H13 SY9 d   1     120.516 133.727  20.729  0.00  0.00     0.076 H 
ATOM     39  H14 SY9 d   1     119.531 135.096  21.347  0.00  0.00     0.076 H 
ATOM     40  H15 SY9 d   1     118.391 135.143  19.445  0.00  0.00     0.280 HD
ATOM     41  H16 SY9 d   1     120.803 134.718  18.869  0.00  0.00     0.083 H 
ATOM     42  H17 SY9 d   1     119.573 134.588  17.566  0.00  0.00     0.083 H 
ATOM     43  H18 SY9 d   1     122.325 133.206  18.731  0.00  0.00     0.080 H 
ATOM     44  H19 SY9 d   1     123.189 131.146  18.462  0.00  0.00     0.080 H 
ATOM     45  H20 SY9 d   1     121.825 130.760  17.359  0.00  0.00     0.080 H 
ATOM     46  H21 SY9 d   1     120.400 129.093  17.965  0.00  0.00     0.084 H 
ATOM     47  H22 SY9 d   1     120.841 128.549  20.831  0.00  0.00     0.051 H 
ATOM     48  H23 SY9 d   1     120.127 127.471  19.585  0.00  0.00     0.051 H 
ENDROOT
TORSDOF 0
