REMARK  2 active torsions:
REMARK  status: ('A' for Active; 'I' for Inactive)
REMARK    1  A    between atoms: C7_6  and  C8_7 
REMARK    2  A    between atoms: C10_9  and  N14_14 
ROOT
ATOM      1  C2  51D d   1     -24.030  18.190  44.213  0.00  0.00     0.150 A 
ATOM      2  C3  51D d   1     -23.520  19.377  44.710  0.00  0.00     0.075 A 
ATOM      3  C4  51D d   1     -22.490  19.365  45.624  0.00  0.00    -0.039 A 
ATOM      4  C5  51D d   1     -21.958  18.151  46.055  0.00  0.00     0.047 A 
ATOM      5  C6  51D d   1     -22.466  16.953  45.559  0.00  0.00    -0.048 A 
ATOM      6  C7  51D d   1     -23.509  16.964  44.640  0.00  0.00     0.035 A 
ATOM      7  F1  51D d   1     -25.039  18.251  43.323  0.00  0.00    -0.203 F 
ATOM      8  C19 51D d   1     -20.889  18.149  47.003  0.00  0.00     0.099 C 
ATOM      9  N20 51D d   1     -20.041  18.157  47.756  0.00  0.00    -0.191 NA
ATOM     10 CL   51D d   1     -24.179  20.891  44.179  0.00  0.00    -0.081 Cl
ATOM     11  H1  51D d   1     -22.094  20.298  46.008  0.00  0.00     0.088 H 
ATOM     12  H2  51D d   1     -22.047  16.010  45.890  0.00  0.00     0.087 H 
ENDROOT
BRANCH   6  13
ATOM     13  C8  51D d   1     -24.015  15.660  44.129  0.00  0.00     0.075 A 
ATOM     14  C9  51D d   1     -24.405  15.500  42.797  0.00  0.00    -0.008 A 
ATOM     15  C10 51D d   1     -24.858  14.255  42.378  0.00  0.00     0.153 A 
ATOM     16  H3  51D d   1     -24.355  16.331  42.103  0.00  0.00     0.093 H 
ATOM     17  N11 51D d   1     -24.898  13.254  43.251  0.00  0.00    -0.223 NA
ATOM     18  C12 51D d   1     -24.513  13.436  44.499  0.00  0.00     0.089 A 
ATOM     19  N13 51D d   1     -24.083  14.603  44.938  0.00  0.00    -0.241 NA
ATOM     20  H4  51D d   1     -24.551  12.599  45.187  0.00  0.00     0.146 H 
BRANCH  15  21
ATOM     21  N14 51D d   1     -25.249  14.066  41.052  0.00  0.00    -0.227 N 
ATOM     22  C15 51D d   1     -25.555  12.878  40.472  0.00  0.00     0.007 A 
ATOM     23  C16 51D d   1     -25.869  13.127  39.183  0.00  0.00    -0.047 A 
ATOM     24  H5  51D d   1     -25.549  11.903  40.957  0.00  0.00     0.115 H 
ATOM     25  C17 51D d   1     -25.750  14.505  38.961  0.00  0.00     0.024 A 
ATOM     26  H6  51D d   1     -26.164  12.384  38.443  0.00  0.00     0.087 H 
ATOM     27  N18 51D d   1     -25.377  15.066  40.080  0.00  0.00    -0.179 NA
ATOM     28  H7  51D d   1     -25.936  15.019  38.019  0.00  0.00     0.117 H 
ENDBRANCH  15  21
ENDBRANCH   6  13
TORSDOF 2
