REMARK  2 active torsions:
REMARK  status: ('A' for Active; 'I' for Inactive)
REMARK    1  A    between atoms: C8_7  and  C7_6 
REMARK    2  A    between atoms: C4_19  and  C10_9 
ROOT
ATOM      1  C01 51E d   1     -24.014  17.911  44.231  0.00  0.00    -0.050 A 
ATOM      2  C02 51E d   1     -23.617  19.134  44.801  0.00  0.00     0.036 A 
ATOM      3  C03 51E d   1     -22.643  19.157  45.811  0.00  0.00    -0.042 A 
ATOM      4  C04 51E d   1     -22.063  17.951  46.251  0.00  0.00     0.047 A 
ATOM      5  C6  51E d   1     -22.465  16.728  45.675  0.00  0.00    -0.051 A 
ATOM      6  C7  51E d   1     -23.451  16.689  44.660  0.00  0.00    -0.004 A 
ATOM      7  C19 51E d   1     -21.053  17.971  47.296  0.00  0.00     0.099 C 
ATOM      8  N20 51E d   1     -20.251  17.988  48.127  0.00  0.00    -0.191 NA
ATOM      9 CL   51E d   1     -24.333  20.607  44.256  0.00  0.00    -0.084 Cl
ATOM     10  H1  51E d   1     -24.765  17.906  43.449  0.00  0.00     0.087 H 
ATOM     11  H2  51E d   1     -22.338  20.099  46.251  0.00  0.00     0.088 H 
ATOM     12  H3  51E d   1     -22.012  15.804  46.015  0.00  0.00     0.087 H 
ENDROOT
BRANCH   6  13
ATOM     13  C8  51E d   1     -23.871  15.412  44.047  0.00  0.00     0.070 A 
ATOM     14  C9  51E d   1     -24.222  15.320  42.701  0.00  0.00    -0.024 A 
ATOM     15  C10 51E d   1     -24.606  14.064  42.216  0.00  0.00     0.089 A 
ATOM     16  H4  51E d   1     -24.198  16.189  42.054  0.00  0.00     0.090 H 
ATOM     17  N11 51E d   1     -24.621  12.994  43.033  0.00  0.00    -0.240 NA
ATOM     18  C12 51E d   1     -24.271  13.183  44.292  0.00  0.00     0.088 A 
ATOM     19  N13 51E d   1     -23.898  14.329  44.839  0.00  0.00    -0.241 NA
ATOM     20  H5  51E d   1     -24.291  12.315  44.941  0.00  0.00     0.146 H 
BRANCH  15  21
ATOM     21  C4  51E d   1     -24.991  13.861  40.796  0.00  0.00     0.085 A 
ATOM     22  C3  51E d   1     -25.131  12.583  40.213  0.00  0.00    -0.050 A 
ATOM     23  C2  51E d   1     -25.492  12.498  38.860  0.00  0.00    -0.042 A 
ATOM     24  H7  51E d   1     -24.963  11.686  40.798  0.00  0.00     0.087 H 
ATOM     25  C1  51E d   1     -25.697  13.679  38.125  0.00  0.00     0.133 A 
ATOM     26  H6  51E d   1     -25.612  11.531  38.386  0.00  0.00     0.088 H 
ATOM     27  C5  51E d   1     -25.532  14.908  38.781  0.00  0.00     0.040 A 
ATOM     28  F1  51E d   1     -26.045  13.638  36.817  0.00  0.00    -0.205 F 
ATOM     29  N1  51E d   1     -25.186  14.994  40.080  0.00  0.00    -0.256 NA
ATOM     30  H8  51E d   1     -25.689  15.823  38.221  0.00  0.00     0.119 H 
ENDBRANCH  15  21
ENDBRANCH   6  13
TORSDOF 2
