REMARK  9 active torsions:
REMARK  status: ('A' for Active; 'I' for Inactive)
REMARK    1  A    between atoms: C3_3  and  N11_23 
REMARK    2  A    between atoms: C13_9  and  C16_12 
REMARK    3  A    between atoms: S20_26  and  C21_14 
REMARK    4  A    between atoms: C24_15  and  C29_32 
REMARK    5  A    between atoms: C27_16  and  C31_18 
REMARK    6  A    between atoms: C25_29  and  C30_17 
REMARK    7  A    between atoms: C28_31  and  C32_19 
REMARK    8  A    between atoms: N19_25  and  C4_20 
REMARK    9  A    between atoms: N19_25  and  S20_26 
ROOT
ATOM      1  C1  51M d   1      39.127 -20.562  -4.761  0.00  0.00    -0.054 A 
ATOM      2  C2  51M d   1      39.370 -19.578  -5.738  0.00  0.00    -0.059 A 
ATOM      3  C3  51M d   1      39.312 -18.246  -5.424  0.00  0.00     0.021 A 
ATOM      4  C7  51M d   1      38.452 -18.412  -1.797  0.00  0.00    -0.070 A 
ATOM      5  C8  51M d   1      38.391 -17.089  -1.472  0.00  0.00    -0.082 A 
ATOM      6  C9  51M d   1      38.634 -16.106  -2.452  0.00  0.00    -0.082 A 
ATOM      7  C10 51M d   1      38.933 -16.472  -3.732  0.00  0.00    -0.070 A 
ATOM      8  C4  51M d   1      38.827 -20.194  -3.474  0.00  0.00     0.053 A 
ATOM      9  C5  51M d   1      39.002 -17.837  -4.092  0.00  0.00    -0.002 A 
ATOM     10  C6  51M d   1      38.759 -18.815  -3.115  0.00  0.00     0.003 A 
ATOM     11  H1  51M d   1      39.177 -21.612  -5.026  0.00  0.00     0.087 H 
ATOM     12  H2  51M d   1      39.606 -19.878  -6.752  0.00  0.00     0.086 H 
ATOM     13  H3  51M d   1      38.263 -19.161  -1.037  0.00  0.00     0.084 H 
ATOM     14  H4  51M d   1      38.155 -16.793  -0.456  0.00  0.00     0.083 H 
ATOM     15  H5  51M d   1      38.583 -15.056  -2.188  0.00  0.00     0.083 H 
ATOM     16  H6  51M d   1      39.119 -15.709  -4.479  0.00  0.00     0.084 H 
ENDROOT
BRANCH   8  17
ATOM     17  N19 51M d   1      38.585 -21.195  -2.502  0.00  0.00    -0.280 N 
ATOM     18  H23 51M d   1      37.645 -21.287  -2.174  0.00  0.00     0.179 HD
BRANCH  17  19
ATOM     19  S20 51M d   1      39.700 -22.222  -1.859  0.00  0.00     0.264 S 
ATOM     20  O22 51M d   1      40.646 -21.375  -1.244  0.00  0.00    -0.200 OA
ATOM     21  O23 51M d   1      39.037 -23.097  -0.977  0.00  0.00    -0.200 OA
BRANCH  19  22
ATOM     22  C21 51M d   1      40.327 -23.050  -3.150  0.00  0.00     0.092 A 
ATOM     23  C24 51M d   1      41.521 -22.642  -3.802  0.00  0.00    -0.032 A 
ATOM     24  C25 51M d   1      42.032 -23.355  -4.889  0.00  0.00    -0.054 A 
ATOM     25  C26 51M d   1      41.372 -24.481  -5.349  0.00  0.00    -0.070 A 
ATOM     26  C27 51M d   1      40.208 -24.905  -4.738  0.00  0.00    -0.054 A 
ATOM     27  H24 51M d   1      41.770 -25.033  -6.193  0.00  0.00     0.085 H 
ATOM     28  C28 51M d   1      39.694 -24.199  -3.655  0.00  0.00    -0.032 A 
BRANCH  23  29
ATOM     29  C29 51M d   1      42.301 -21.440  -3.378  0.00  0.00    -0.049 C 
ATOM     30  H25 51M d   1      41.804 -20.965  -2.519  0.00  0.00     0.033 H 
ATOM     31  H26 51M d   1      42.355 -20.725  -4.212  0.00  0.00     0.033 H 
ATOM     32  H27 51M d   1      43.318 -21.745  -3.090  0.00  0.00     0.033 H 
ENDBRANCH  23  29
BRANCH  24  33
ATOM     33  C30 51M d   1      43.281 -22.952  -5.593  0.00  0.00    -0.051 C 
ATOM     34  H14 51M d   1      43.485 -23.659  -6.411  0.00  0.00     0.033 H 
ATOM     35  H15 51M d   1      44.121 -22.960  -4.883  0.00  0.00     0.033 H 
ATOM     36  H16 51M d   1      43.159 -21.939  -6.005  0.00  0.00     0.033 H 
ENDBRANCH  24  33
BRANCH  26  37
ATOM     37  C31 51M d   1      39.549 -26.123  -5.281  0.00  0.00    -0.051 C 
ATOM     38  H17 51M d   1      40.132 -26.507  -6.131  0.00  0.00     0.033 H 
ATOM     39  H18 51M d   1      38.533 -25.871  -5.618  0.00  0.00     0.033 H 
ATOM     40  H19 51M d   1      39.495 -26.892  -4.496  0.00  0.00     0.033 H 
ENDBRANCH  26  37
BRANCH  28  41
ATOM     41  C32 51M d   1      38.437 -24.721  -3.055  0.00  0.00    -0.049 C 
ATOM     42  H20 51M d   1      38.138 -24.078  -2.214  0.00  0.00     0.033 H 
ATOM     43  H21 51M d   1      38.602 -25.746  -2.693  0.00  0.00     0.033 H 
ATOM     44  H22 51M d   1      37.642 -24.724  -3.815  0.00  0.00     0.033 H 
ENDBRANCH  28  41
ENDBRANCH  19  22
ENDBRANCH  17  19
ENDBRANCH   8  17
BRANCH   3  45
ATOM     45  N11 51M d   1      39.553 -17.219  -6.384  0.00  0.00    -0.282 NA
ATOM     46  C12 51M d   1      39.036 -17.529  -7.746  0.00  0.00    -0.004 C 
ATOM     47  C13 51M d   1      40.293 -17.733  -8.602  0.00  0.00     0.043 C 
ATOM     48  H7  51M d   1      38.425 -18.443  -7.730  0.00  0.00     0.057 H 
ATOM     49  H8  51M d   1      38.435 -16.693  -8.132  0.00  0.00     0.057 H 
ATOM     50  C14 51M d   1      41.317 -16.785  -7.975  0.00  0.00    -0.040 C 
ATOM     51  H9  51M d   1      40.637 -18.776  -8.536  0.00  0.00     0.058 H 
ATOM     52  C15 51M d   1      40.973 -16.764  -6.492  0.00  0.00    -0.015 C 
ATOM     53  H10 51M d   1      41.228 -15.777  -8.408  0.00  0.00     0.036 H 
ATOM     54  H11 51M d   1      42.339 -17.161  -8.130  0.00  0.00     0.036 H 
ATOM     55  H12 51M d   1      41.078 -15.745  -6.091  0.00  0.00     0.056 H 
ATOM     56  H13 51M d   1      41.635 -17.446  -5.938  0.00  0.00     0.056 H 
BRANCH  47  57
ATOM     57  C16 51M d   1      40.061 -17.387 -10.037  0.00  0.00     0.178 C 
ATOM     58  O17 51M d   1      39.385 -16.493 -10.502  0.00  0.00    -0.648 OA
ATOM     59  O18 51M d   1      40.720 -18.215 -10.868  0.00  0.00    -0.648 OA
ENDBRANCH  47  57
ENDBRANCH   3  45
TORSDOF 9
