REMARK  8 active torsions:
REMARK  status: ('A' for Active; 'I' for Inactive)
REMARK    1  A    between atoms: C16_7  and  C15_8 
REMARK    2  A    between atoms: C15_8  and  C11_9 
REMARK    3  A    between atoms: C11_9  and  C14_12 
REMARK    4  A    between atoms: C14_12  and  C22_14 
REMARK    5  A    between atoms: C23_15  and  O28_16 
REMARK    6  A    between atoms: C23_15  and  C24_17 
REMARK    7  A    between atoms: N8_22  and  C7_23 
REMARK    8  A    between atoms: C7_23  and  C2_24 
ROOT
ATOM      1  C11 0N8 d   1     -27.817 -17.577  19.209  0.00  0.00     0.031 C 
ATOM      2  C10 0N8 d   1     -28.881 -18.150  18.149  0.00  0.00    -0.028 C 
ATOM      3  C9  0N8 d   1     -28.280 -19.182  17.182  0.00  0.00     0.085 C 
ATOM      4  C12 0N8 d   1     -27.027 -18.814  19.691  0.00  0.00    -0.028 C 
ATOM      5  C13 0N8 d   1     -26.284 -19.462  18.544  0.00  0.00     0.085 C 
ATOM      6  N8  0N8 d   1     -26.856 -19.412  17.228  0.00  0.00    -0.067 N 
ATOM      7  H7  0N8 d   1     -29.276 -17.308  17.561  0.00  0.00     0.037 H 
ATOM      8  H8  0N8 d   1     -29.703 -18.628  18.703  0.00  0.00     0.037 H 
ATOM      9  H9  0N8 d   1     -28.524 -18.853  16.161  0.00  0.00     0.076 H 
ATOM     10  H10 0N8 d   1     -28.772 -20.145  17.385  0.00  0.00     0.076 H 
ATOM     11  H13 0N8 d   1     -27.728 -19.543  20.123  0.00  0.00     0.037 H 
ATOM     12  H14 0N8 d   1     -26.303 -18.502  20.458  0.00  0.00     0.037 H 
ATOM     13  H15 0N8 d   1     -26.158 -20.524  18.801  0.00  0.00     0.076 H 
ATOM     14  H16 0N8 d   1     -25.297 -18.979  18.485  0.00  0.00     0.076 H 
ATOM     15  H17 0N8 d   1     -26.457 -18.604  16.776  0.00  0.00     0.280 HD
ENDROOT
BRANCH   1  16
ATOM     16  C15 0N8 d   1     -28.368 -17.020  20.534  0.00  0.00    -0.027 C 
ATOM     17  H5  0N8 d   1     -28.949 -17.810  21.032  0.00  0.00     0.042 H 
ATOM     18  H6  0N8 d   1     -27.520 -16.731  21.172  0.00  0.00     0.042 H 
BRANCH  16  19
ATOM     19  C16 0N8 d   1     -29.253 -15.823  20.343  0.00  0.00    -0.057 A 
ATOM     20  C17 0N8 d   1     -28.734 -14.565  20.362  0.00  0.00    -0.075 A 
ATOM     21  C18 0N8 d   1     -29.568 -13.505  20.215  0.00  0.00    -0.061 A 
ATOM     22  H2  0N8 d   1     -27.669 -14.412  20.493  0.00  0.00     0.084 H 
ATOM     23  C19 0N8 d   1     -30.929 -13.657  20.000  0.00  0.00     0.034 A 
ATOM     24  H1  0N8 d   1     -29.155 -12.504  20.267  0.00  0.00     0.086 H 
ATOM     25 CL2  0N8 d   1     -32.005 -12.236  19.755  0.00  0.00    -0.084 Cl
ATOM     26  C20 0N8 d   1     -31.442 -14.943  19.971  0.00  0.00    -0.061 A 
ATOM     27  C21 0N8 d   1     -30.599 -16.015  20.139  0.00  0.00    -0.075 A 
ATOM     28  H3  0N8 d   1     -32.503 -15.103  19.817  0.00  0.00     0.086 H 
ATOM     29  H4  0N8 d   1     -30.999 -17.022  20.110  0.00  0.00     0.084 H 
ENDBRANCH  16  19
ENDBRANCH   1  16
BRANCH   1  30
ATOM     30  C14 0N8 d   1     -26.851 -16.513  18.679  0.00  0.00     0.161 C 
ATOM     31  O27 0N8 d   1     -25.735 -16.431  19.161  0.00  0.00    -0.292 OA
BRANCH  30  32
ATOM     32  C22 0N8 d   1     -27.353 -15.586  17.594  0.00  0.00     0.001 C 
ATOM     33  C23 0N8 d   1     -26.733 -14.483  17.140  0.00  0.00     0.146 C 
ATOM     34  H11 0N8 d   1     -28.309 -15.836  17.137  0.00  0.00     0.093 H 
BRANCH  33  35
ATOM     35  O28 0N8 d   1     -25.489 -14.166  17.577  0.00  0.00    -0.355 OA
ATOM     36  H12 0N8 d   1     -24.889 -14.870  17.359  0.00  0.00     0.218 HD
ENDBRANCH  33  35
BRANCH  33  37
ATOM     37  C24 0N8 d   1     -27.385 -13.603  16.118  0.00  0.00     0.233 C 
ATOM     38  O26 0N8 d   1     -26.944 -12.511  15.664  0.00  0.00    -0.642 OA
ATOM     39  O25 0N8 d   1     -28.462 -13.968  15.689  0.00  0.00    -0.642 OA
ENDBRANCH  33  37
ENDBRANCH  30  32
ENDBRANCH   1  30
BRANCH   6  40
ATOM     40  C7  0N8 d   1     -26.335 -20.608  16.476  0.00  0.00     0.107 C 
ATOM     41  H18 0N8 d   1     -26.458 -21.486  17.128  0.00  0.00     0.083 H 
ATOM     42  H19 0N8 d   1     -25.265 -20.438  16.288  0.00  0.00     0.083 H 
BRANCH  40  43
ATOM     43  C2  0N8 d   1     -26.993 -20.941  15.126  0.00  0.00    -0.033 A 
ATOM     44  C3  0N8 d   1     -27.715 -22.161  14.971  0.00  0.00    -0.075 A 
ATOM     45  C4  0N8 d   1     -28.362 -22.511  13.765  0.00  0.00    -0.082 A 
ATOM     46  H20 0N8 d   1     -27.769 -22.845  15.810  0.00  0.00     0.084 H 
ATOM     47  C5  0N8 d   1     -28.298 -21.642  12.716  0.00  0.00    -0.083 A 
ATOM     48  H21 0N8 d   1     -28.897 -23.449  13.675  0.00  0.00     0.083 H 
ATOM     49  C6  0N8 d   1     -27.587 -20.433  12.846  0.00  0.00    -0.082 A 
ATOM     50  H22 0N8 d   1     -28.794 -21.882  11.782  0.00  0.00     0.083 H 
ATOM     51  C1  0N8 d   1     -26.914 -20.066  14.028  0.00  0.00    -0.075 A 
ATOM     52  H23 0N8 d   1     -27.556 -19.756  12.000  0.00  0.00     0.083 H 
ATOM     53  H24 0N8 d   1     -26.354 -19.140  14.089  0.00  0.00     0.084 H 
ENDBRANCH  40  43
ENDBRANCH   6  40
TORSDOF 8
