REMARK  8 active torsions:
REMARK  status: ('A' for Active; 'I' for Inactive)
REMARK    1  A    between atoms: N12_1  and  C13_2 
REMARK    2  A    between atoms: C11_20  and  N12_1 
REMARK    3  A    between atoms: C15_3  and  N16_22 
REMARK       I    between atoms: N16_22  and  C17_4 
REMARK       I    between atoms: C17_4  and  N18_23 
REMARK    4  A    between atoms: C02_11  and  N01_10 
REMARK    5  A    between atoms: C03_12  and  C02_11 
REMARK    6  A    between atoms: C04_13  and  C03_12 
REMARK    7  A    between atoms: N05_14  and  C04_13 
REMARK    8  A    between atoms: C06_15  and  N05_14 
ROOT
ATOM      1  C13 51W d   1      -3.409 -40.584 -17.956  0.00  0.00     0.051 A 
ATOM      2  C15 51W d   1      -1.564 -39.206 -17.317  0.00  0.00     0.038 A 
ATOM      3  C24 51W d   1      -0.864 -39.532 -18.459  0.00  0.00    -0.057 A 
ATOM      4  C26 51W d   1      -2.681 -40.925 -19.102  0.00  0.00    -0.057 A 
ATOM      5  C14 51W d   1      -2.849 -39.730 -17.047  0.00  0.00    -0.031 A 
ATOM      6  C25 51W d   1      -1.433 -40.403 -19.367  0.00  0.00    -0.079 A 
ATOM      7  H8  51W d   1       0.118 -39.111 -18.641  0.00  0.00     0.086 H 
ATOM      8  H9  51W d   1      -3.115 -41.625 -19.807  0.00  0.00     0.086 H 
ATOM      9  H21 51W d   1      -3.378 -39.461 -16.140  0.00  0.00     0.090 H 
ATOM     10  H25 51W d   1      -0.906 -40.672 -20.275  0.00  0.00     0.083 H 
ENDROOT
BRANCH   1  11
ATOM     11  N12 51W d   1      -4.717 -41.196 -17.805  0.00  0.00    -0.188 N 
ATOM     12  H1  51W d   1      -4.981 -41.857 -18.550  0.00  0.00     0.184 HD
BRANCH  11  13
ATOM     13  C11 51W d   1      -5.692 -41.018 -16.777  0.00  0.00     0.728 A 
ATOM     14  N10 51W d   1      -6.796 -41.742 -16.891  0.00  0.00    -0.074 NA
ATOM     15  C09 51W d   1      -7.784 -41.705 -16.008  0.00  0.00     0.041 A 
ATOM     16  C07 51W d   1      -7.671 -40.850 -14.927  0.00  0.00     0.070 A 
ATOM     17  H20 51W d   1      -8.661 -42.331 -16.131  0.00  0.00     0.117 H 
ATOM     18  C06 51W d   1      -6.512 -40.080 -14.802  0.00  0.00     0.160 A 
ATOM     19  I08 51W d   1      -9.258 -40.781 -13.531  0.00  0.00    -0.039 I 
ATOM     20  N27 51W d   1      -5.538 -40.184 -15.727  0.00  0.00    -0.044 NA
BRANCH  18  21
ATOM     21  N05 51W d   1      -6.376 -39.200 -13.689  0.00  0.00    -0.373 N 
ATOM     22  H19 51W d   1      -7.145 -39.105 -13.011  0.00  0.00     0.161 HD
BRANCH  21  23
ATOM     23  C04 51W d   1      -5.168 -38.446 -13.513  0.00  0.00    -0.004 C 
ATOM     24  H17 51W d   1      -5.065 -38.225 -12.440  0.00  0.00     0.064 H 
ATOM     25  H18 51W d   1      -4.329 -39.078 -13.840  0.00  0.00     0.064 H 
BRANCH  23  26
ATOM     26  C03 51W d   1      -5.078 -37.146 -14.257  0.00  0.00    -0.028 C 
ATOM     27  H15 51W d   1      -5.733 -37.220 -15.137  0.00  0.00     0.037 H 
ATOM     28  H16 51W d   1      -5.449 -36.354 -13.589  0.00  0.00     0.037 H 
BRANCH  26  29
ATOM     29  C02 51W d   1      -3.716 -36.734 -14.738  0.00  0.00     0.081 C 
ATOM     30  H13 51W d   1      -2.980 -37.169 -14.046  0.00  0.00     0.075 H 
ATOM     31  H14 51W d   1      -3.579 -37.168 -15.739  0.00  0.00     0.075 H 
BRANCH  29  32
ATOM     32  N01 51W d   1      -3.429 -35.339 -14.838  0.00  0.00    -0.079 N 
ATOM     33  H10 51W d   1      -2.486 -35.213 -15.171  0.00  0.00     0.274 HD
ATOM     34  H11 51W d   1      -3.525 -34.910 -13.931  0.00  0.00     0.274 HD
ATOM     35  H12 51W d   1      -4.073 -34.909 -15.483  0.00  0.00     0.274 HD
ENDBRANCH  29  32
ENDBRANCH  26  29
ENDBRANCH  23  26
ENDBRANCH  21  23
ENDBRANCH  18  21
ENDBRANCH  11  13
ENDBRANCH   1  11
BRANCH   2  36
ATOM     36  N16 51W d   1      -0.929 -38.303 -16.393  0.00  0.00    -0.309 N 
ATOM     37  C17 51W d   1       0.440 -38.573 -15.977  0.00  0.00     0.322 C 
ATOM     38  N18 51W d   1       1.086 -37.655 -15.052  0.00  0.00    -0.334 N 
ATOM     39  O23 51W d   1       1.031 -39.571 -16.408  0.00  0.00    -0.247 OA
ATOM     40  C22 51W d   1       0.491 -36.466 -14.491  0.00  0.00    -0.001 C 
ATOM     41  C19 51W d   1       2.420 -37.765 -14.535  0.00  0.00    -0.001 C 
ATOM     42  C21 51W d   1       1.276 -36.152 -13.239  0.00  0.00    -0.049 C 
ATOM     43  H6  51W d   1       0.561 -35.632 -15.204  0.00  0.00     0.064 H 
ATOM     44  H7  51W d   1      -0.565 -36.649 -14.243  0.00  0.00     0.064 H 
ATOM     45  C20 51W d   1       2.405 -37.123 -13.209  0.00  0.00    -0.049 C 
ATOM     46  H4  51W d   1       1.659 -35.121 -13.276  0.00  0.00     0.035 H 
ATOM     47  H5  51W d   1       0.642 -36.276 -12.349  0.00  0.00     0.035 H 
ATOM     48  H2  51W d   1       2.243 -37.874 -12.422  0.00  0.00     0.035 H 
ATOM     49  H3  51W d   1       3.355 -36.600 -13.026  0.00  0.00     0.035 H 
ATOM     50  H23 51W d   1       2.706 -38.823 -14.443  0.00  0.00     0.064 H 
ATOM     51  H24 51W d   1       3.129 -37.250 -15.199  0.00  0.00     0.064 H 
ATOM     52  H22 51W d   1      -1.419 -37.505 -16.043  0.00  0.00     0.170 HD
ENDBRANCH   2  36
TORSDOF 8
