REMARK WARNING: 32 MAX_TORS EXCEEDED!!!
REMARK  63 active torsions:
REMARK  status: ('A' for Active; 'I' for Inactive)
REMARK    1  A    between atoms: N_1  and  CA_2 
REMARK    2  A    between atoms: CA_2  and  C_3 
REMARK    3  A    between atoms: CA_2  and  CB_5 
REMARK       I    between atoms: C_3  and  N_9 
REMARK    4  A    between atoms: CB_5  and  CG_6 
REMARK       I    between atoms: CG_6  and  ND2_8 
REMARK    5  A    between atoms: N_9  and  CA_10 
REMARK    6  A    between atoms: CA_10  and  C_11 
REMARK    7  A    between atoms: CA_10  and  CB_13 
REMARK       I    between atoms: C_11  and  N_23 
REMARK    8  A    between atoms: CB_13  and  CG_14 
REMARK    9  A    between atoms: N_23  and  CA_24 
REMARK   10  A    between atoms: CA_24  and  C_25 
REMARK   11  A    between atoms: CA_24  and  CB_27 
REMARK       I    between atoms: C_25  and  N_34 
REMARK   12  A    between atoms: CB_27  and  CG_28 
REMARK   13  A    between atoms: N_34  and  CA_35 
REMARK   14  A    between atoms: CA_35  and  C_36 
REMARK   15  A    between atoms: CA_35  and  CB_38 
REMARK       I    between atoms: C_36  and  N_42 
REMARK   16  A    between atoms: CB_38  and  CG_39 
REMARK   17  A    between atoms: N_42  and  CA_43 
REMARK   18  A    between atoms: CA_43  and  C_44 
REMARK   19  A    between atoms: CA_43  and  CB_46 
REMARK       I    between atoms: C_44  and  N_50 
REMARK   20  A    between atoms: CB_46  and  CG1_47 
REMARK   21  A    between atoms: CB_46  and  CG2_48 
REMARK   22  A    between atoms: CG1_47  and  CD1_49 
REMARK   23  A    between atoms: N_50  and  CA_51 
REMARK   24  A    between atoms: CA_51  and  C_52 
REMARK   25  A    between atoms: CA_51  and  CB_54 
REMARK       I    between atoms: C_52  and  N_57 
REMARK   26  A    between atoms: CB_54  and  OG1_55 
REMARK   27  A    between atoms: CB_54  and  CG2_56 
REMARK   28  A    between atoms: N_57  and  CA_58 
REMARK   29  A    between atoms: CA_58  and  C_59 
REMARK   30  A    between atoms: CA_58  and  CB_61 
REMARK       I    between atoms: C_59  and  N_65 
REMARK   31  A    between atoms: CB_61  and  CG_62 
REMARK       I    between atoms: CG_62  and  ND2_64 
REMARK   32  A    between atoms: N_65  and  CA_66 
REMARK   33  A    between atoms: CA_66  and  C_67 
REMARK   34  A    between atoms: CA_66  and  CB_69 
REMARK       I    between atoms: C_67  and  N_79 
REMARK   35  A    between atoms: CB_69  and  CG_70 
REMARK   36  A    between atoms: N_79  and  CA_80 
REMARK   37  A    between atoms: CA_80  and  C_81 
REMARK   38  A    between atoms: CA_80  and  CB_83 
REMARK       I    between atoms: C_81  and  N_87 
REMARK   39  A    between atoms: CB_83  and  CG_84 
REMARK   40  A    between atoms: CG_84  and  CD1_85 
REMARK   41  A    between atoms: CG_84  and  CD2_86 
REMARK   42  A    between atoms: N_87  and  CA_88 
REMARK   43  A    between atoms: CA_88  and  C_89 
REMARK   44  A    between atoms: CA_88  and  CB_91 
REMARK       I    between atoms: C_89  and  N_101 
REMARK   45  A    between atoms: CB_91  and  CG_92 
REMARK   46  A    between atoms: N_101  and  CA_102 
REMARK   47  A    between atoms: CA_102  and  C_103 
REMARK   48  A    between atoms: CA_102  and  CB_105 
REMARK       I    between atoms: C_103  and  N_113 
REMARK   49  A    between atoms: CB_105  and  CG_106 
REMARK   50  A    between atoms: CZ_111  and  OH_112 
REMARK   51  A    between atoms: N_113  and  CA_114 
REMARK   52  A    between atoms: CA_114  and  C_115 
REMARK   53  A    between atoms: CA_114  and  CB_117 
REMARK       I    between atoms: C_115  and  N_121 
REMARK   54  A    between atoms: CB_117  and  CG1_118 
REMARK   55  A    between atoms: CB_117  and  CG2_119 
REMARK   56  A    between atoms: CG1_118  and  CD1_120 
REMARK   57  A    between atoms: N_121  and  CA_122 
REMARK   58  A    between atoms: CA_122  and  C_123 
REMARK   59  A    between atoms: CA_122  and  CB_125 
REMARK   60  A    between atoms: CB_125  and  CG_126 
REMARK   61  A    between atoms: CG_126  and  CD_127 
REMARK   62  A    between atoms: CD_127  and  CE_128 
REMARK   63  A    between atoms: CE_128  and  NZ_129 
ROOT
ATOM      1  CA  TRP d   1      21.232  -8.263 -36.774  0.00  0.00     0.093 C 
ATOM      2  H57 TRP d   1      21.782  -9.092 -37.243  0.00  0.00     0.088 H 
ENDROOT
BRANCH   1   3
ATOM      3  N   TRP d   1      21.540  -8.293 -35.328  0.00  0.00    -0.346 N 
ATOM      4  C   ASN d   1      22.796  -8.297 -34.873  0.00  0.00     0.241 C 
ATOM      5  O   ASN d   1      23.813  -8.272 -35.620  0.00  0.00    -0.271 OA
ATOM      6  H56 TRP d   1      20.786  -8.311 -34.671  0.00  0.00     0.163 HD
BRANCH   4   7
ATOM      7  CA  ASN d   1      22.959  -8.245 -33.349  0.00  0.00     0.097 C 
ATOM      8  H51 ASN d   1      23.992  -7.941 -33.126  0.00  0.00     0.088 H 
BRANCH   7   9
ATOM      9  N   ASN d   1      22.064  -7.259 -32.768  0.00  0.00    -0.345 N 
ATOM     10  C   THR d   1      22.132  -5.956 -33.062  0.00  0.00     0.243 C 
ATOM     11  O   THR d   1      23.010  -5.457 -33.786  0.00  0.00    -0.271 OA
ATOM     12  H50 ASN d   1      21.367  -7.568 -32.120  0.00  0.00     0.163 HD
BRANCH  10  13
ATOM     13  CA  THR d   1      21.017  -5.043 -32.501  0.00  0.00     0.113 C 
ATOM     14  H44 THR d   1      20.814  -4.269 -33.256  0.00  0.00     0.091 H 
BRANCH  13  15
ATOM     15  N   THR d   1      19.779  -5.789 -32.298  0.00  0.00    -0.344 N 
ATOM     16  C   ILE d   1      19.137  -6.301 -33.347  0.00  0.00     0.241 C 
ATOM     17  O   ILE d   1      19.576  -6.213 -34.531  0.00  0.00    -0.271 OA
ATOM     18  H43 THR d   1      19.414  -5.915 -31.375  0.00  0.00     0.163 HD
BRANCH  16  19
ATOM     19  CA  ILE d   1      17.791  -6.962 -33.043  0.00  0.00     0.092 C 
ATOM     20  H33 ILE d   1      17.508  -7.535 -33.938  0.00  0.00     0.088 H 
BRANCH  19  21
ATOM     21  N   ILE d   1      17.861  -7.906 -31.935  0.00  0.00    -0.346 N 
ATOM     22  C   ASP d   1      18.653  -8.963 -31.986  0.00  0.00     0.241 C 
ATOM     23  O   ASP d   1      19.467  -9.147 -32.904  0.00  0.00    -0.271 OA
ATOM     24  H32 ILE d   1      17.300  -7.751 -31.122  0.00  0.00     0.163 HD
BRANCH  22  25
ATOM     25  CA  ASP d   1      18.536  -9.943 -30.826  0.00  0.00     0.098 C 
ATOM     26  H29 ASP d   1      19.545 -10.150 -30.441  0.00  0.00     0.088 H 
BRANCH  25  27
ATOM     27  N   ASP d   1      17.718  -9.434 -29.737  0.00  0.00    -0.345 N 
ATOM     28  C   PHE d   1      18.217  -8.908 -28.606  0.00  0.00     0.241 C 
ATOM     29  O   PHE d   1      19.416  -8.800 -28.361  0.00  0.00    -0.271 OA
ATOM     30  H28 ASP d   1      16.724  -9.478 -29.836  0.00  0.00     0.163 HD
BRANCH  28  31
ATOM     31  CA  PHE d   1      17.197  -8.401 -27.571  0.00  0.00     0.093 C 
ATOM     32  H20 PHE d   1      17.444  -7.349 -27.364  0.00  0.00     0.088 H 
BRANCH  31  33
ATOM     33  N   PHE d   1      15.792  -8.429 -28.030  0.00  0.00    -0.346 N 
ATOM     34  C   TRP d   1      15.337  -7.595 -28.968  0.00  0.00     0.241 C 
ATOM     35  O   TRP d   1      16.040  -6.736 -29.494  0.00  0.00    -0.271 OA
ATOM     36  H19 PHE d   1      15.163  -9.093 -27.625  0.00  0.00     0.163 HD
BRANCH  34  37
ATOM     37  CA  TRP d   1      13.815  -7.692 -29.348  0.00  0.00     0.093 C 
ATOM     38  H10 TRP d   1      13.697  -7.360 -30.390  0.00  0.00     0.088 H 
BRANCH  37  39
ATOM     39  N   TRP d   1      13.303  -9.019 -29.235  0.00  0.00    -0.346 N 
ATOM     40  C   ASN d   1      13.895 -10.048 -29.811  0.00  0.00     0.249 C 
ATOM     41  O   ASN d   1      14.914  -9.928 -30.500  0.00  0.00    -0.271 OA
ATOM     42  H9  TRP d   1      12.470  -9.174 -28.703  0.00  0.00     0.163 HD
BRANCH  40  43
ATOM     43  CA  ASN d   1      13.265 -11.398 -29.556  0.00  0.00     0.183 C 
ATOM     44  H4  ASN d   1      12.438 -11.278 -28.841  0.00  0.00     0.099 H 
BRANCH  43  45
ATOM     45  N   ASN d   1      12.739 -11.941 -30.836  0.00  0.00    -0.066 N 
ATOM     46  H1  ASN d   1      12.318 -12.842 -30.671  0.00  0.00     0.275 HD
ATOM     47  H2  ASN d   1      13.495 -12.040 -31.495  0.00  0.00     0.275 HD
ATOM     48  H3  ASN d   1      12.047 -11.310 -31.210  0.00  0.00     0.275 HD
ENDBRANCH  43  45
BRANCH  43  49
ATOM     49  CB  ASN d   1      14.286 -12.391 -28.980  0.00  0.00     0.044 C 
ATOM     50  H5  ASN d   1      15.107 -12.507 -29.703  0.00  0.00     0.051 H 
ATOM     51  H6  ASN d   1      13.787 -13.360 -28.833  0.00  0.00     0.051 H 
BRANCH  49  52
ATOM     52  CG  ASN d   1      14.877 -11.938 -27.638  0.00  0.00     0.217 C 
ATOM     53  OD1 ASN d   1      14.402 -10.958 -27.028  0.00  0.00    -0.274 OA
ATOM     54  ND2 ASN d   1      15.937 -12.635 -27.194  0.00  0.00    -0.370 N 
ATOM     55  H7  ASN d   1      16.368 -12.390 -26.326  0.00  0.00     0.159 HD
ATOM     56  H8  ASN d   1      16.294 -13.399 -27.732  0.00  0.00     0.159 HD
ENDBRANCH  49  52
ENDBRANCH  43  49
ENDBRANCH  40  43
ENDBRANCH  37  39
BRANCH  37  57
ATOM     57  CB  TRP d   1      13.004  -6.776 -28.436  0.00  0.00    -0.012 C 
ATOM     58  H11 TRP d   1      13.115  -7.147 -27.407  0.00  0.00     0.044 H 
ATOM     59  H12 TRP d   1      11.950  -6.851 -28.741  0.00  0.00     0.044 H 
BRANCH  57  60
ATOM     60  CG  TRP d   1      13.378  -5.316 -28.438  0.00  0.00    -0.028 A 
ATOM     61  CD1 TRP d   1      12.905  -4.350 -29.239  0.00  0.00    -0.015 A 
ATOM     62  NE1 TRP d   1      13.428  -3.116 -28.872  0.00  0.00    -0.365 N 
ATOM     63  H13 TRP d   1      12.209  -4.510 -30.061  0.00  0.00     0.112 H 
ATOM     64  CE2 TRP d   1      14.251  -3.301 -27.786  0.00  0.00     0.042 A 
ATOM     65  H14 TRP d   1      13.233  -2.217 -29.334  0.00  0.00     0.165 HD
ATOM     66  CD2 TRP d   1      14.254  -4.670 -27.492  0.00  0.00    -0.002 A 
ATOM     67  CZ2 TRP d   1      15.009  -2.376 -27.064  0.00  0.00    -0.056 A 
ATOM     68  CE3 TRP d   1      15.033  -5.134 -26.421  0.00  0.00    -0.070 A 
ATOM     69  CZ3 TRP d   1      15.771  -4.171 -25.665  0.00  0.00    -0.082 A 
ATOM     70  H15 TRP d   1      15.074  -6.189 -26.175  0.00  0.00     0.084 H 
ATOM     71  CH2 TRP d   1      15.760  -2.836 -26.017  0.00  0.00    -0.081 A 
ATOM     72  H17 TRP d   1      16.346  -4.493 -24.805  0.00  0.00     0.083 H 
ATOM     73  H18 TRP d   1      16.361  -2.135 -25.450  0.00  0.00     0.083 H 
ATOM     74  H16 TRP d   1      15.002  -1.324 -27.326  0.00  0.00     0.086 H 
ENDBRANCH  57  60
ENDBRANCH  37  57
ENDBRANCH  34  37
ENDBRANCH  31  33
BRANCH  31  75
ATOM     75  CB  PHE d   1      17.351  -9.179 -26.272  0.00  0.00    -0.014 C 
ATOM     76  H21 PHE d   1      18.423  -9.320 -26.068  0.00  0.00     0.043 H 
ATOM     77  H22 PHE d   1      16.867 -10.160 -26.387  0.00  0.00     0.043 H 
BRANCH  75  78
ATOM     78  CG  PHE d   1      16.729  -8.467 -25.114  0.00  0.00    -0.056 A 
ATOM     79  CD1 PHE d   1      17.426  -7.462 -24.462  0.00  0.00    -0.077 A 
ATOM     80  CE1 PHE d   1      16.851  -6.785 -23.402  0.00  0.00    -0.082 A 
ATOM     81  H23 PHE d   1      18.428  -7.205 -24.785  0.00  0.00     0.084 H 
ATOM     82  CZ  PHE d   1      15.541  -7.081 -23.011  0.00  0.00    -0.083 A 
ATOM     83  H25 PHE d   1      17.416  -6.025 -22.874  0.00  0.00     0.083 H 
ATOM     84  CE2 PHE d   1      14.837  -8.085 -23.676  0.00  0.00    -0.082 A 
ATOM     85  H27 PHE d   1      15.077  -6.535 -22.198  0.00  0.00     0.083 H 
ATOM     86  CD2 PHE d   1      15.432  -8.764 -24.713  0.00  0.00    -0.077 A 
ATOM     87  H26 PHE d   1      13.824  -8.329 -23.376  0.00  0.00     0.083 H 
ATOM     88  H24 PHE d   1      14.880  -9.544 -25.226  0.00  0.00     0.084 H 
ENDBRANCH  75  78
ENDBRANCH  31  75
ENDBRANCH  28  31
ENDBRANCH  25  27
BRANCH  25  89
ATOM     89  CB  ASP d   1      17.910 -11.241 -31.331  0.00  0.00     0.043 C 
ATOM     90  H30 ASP d   1      18.324 -11.470 -32.324  0.00  0.00     0.052 H 
ATOM     91  H31 ASP d   1      16.822 -11.101 -31.411  0.00  0.00     0.052 H 
BRANCH  89  92
ATOM     92  CG  ASP d   1      18.180 -12.398 -30.418  0.00  0.00     0.175 C 
ATOM     93  OD1 ASP d   1      19.225 -12.342 -29.736  0.00  0.00    -0.648 OA
ATOM     94  OD2 ASP d   1      17.403 -13.399 -30.395  0.00  0.00    -0.648 OA
ENDBRANCH  89  92
ENDBRANCH  25  89
ENDBRANCH  22  25
ENDBRANCH  19  21
BRANCH  19  95
ATOM     95  CB  ILE d   1      16.685  -5.921 -32.796  0.00  0.00    -0.030 C 
ATOM     96  H34 ILE d   1      16.797  -5.504 -31.784  0.00  0.00     0.043 H 
BRANCH  95  97
ATOM     97  CG1 ILE d   1      15.327  -6.655 -32.883  0.00  0.00    -0.063 C 
ATOM     98  H35 ILE d   1      15.316  -7.437 -32.109  0.00  0.00     0.033 H 
ATOM     99  H36 ILE d   1      15.259  -7.122 -33.877  0.00  0.00     0.033 H 
BRANCH  97 100
ATOM    100  CD1 ILE d   1      14.094  -5.790 -32.689  0.00  0.00    -0.076 C 
ATOM    101  H40 ILE d   1      13.192  -6.414 -32.771  0.00  0.00     0.027 H 
ATOM    102  H41 ILE d   1      14.070  -5.007 -33.462  0.00  0.00     0.027 H 
ATOM    103  H42 ILE d   1      14.127  -5.322 -31.694  0.00  0.00     0.027 H 
ENDBRANCH  97 100
ENDBRANCH  95  97
BRANCH  95 104
ATOM    104  CG2 ILE d   1      16.811  -4.775 -33.803  0.00  0.00    -0.071 C 
ATOM    105  H37 ILE d   1      17.794  -4.295 -33.691  0.00  0.00     0.028 H 
ATOM    106  H38 ILE d   1      16.019  -4.035 -33.617  0.00  0.00     0.028 H 
ATOM    107  H39 ILE d   1      16.710  -5.171 -34.824  0.00  0.00     0.028 H 
ENDBRANCH  95 104
ENDBRANCH  19  95
ENDBRANCH  16  19
ENDBRANCH  13  15
BRANCH  13 108
ATOM    108  CB  THR d   1      21.466  -4.326 -31.221  0.00  0.00     0.060 C 
ATOM    109  H45 THR d   1      22.452  -3.870 -31.397  0.00  0.00     0.086 H 
BRANCH 108 110
ATOM    110  OG1 THR d   1      21.582  -5.262 -30.164  0.00  0.00    -0.393 OA
ATOM    111  H46 THR d   1      21.860  -4.813 -29.374  0.00  0.00     0.210 HD
ENDBRANCH 108 110
BRANCH 108 112
ATOM    112  CG2 THR d   1      20.478  -3.222 -30.867  0.00  0.00    -0.050 C 
ATOM    113  H47 THR d   1      20.809  -2.715 -29.949  0.00  0.00     0.031 H 
ATOM    114  H48 THR d   1      19.482  -3.659 -30.706  0.00  0.00     0.031 H 
ATOM    115  H49 THR d   1      20.430  -2.495 -31.691  0.00  0.00     0.031 H 
ENDBRANCH 108 112
ENDBRANCH  13 108
ENDBRANCH  10  13
ENDBRANCH   7   9
BRANCH   7 116
ATOM    116  CB  ASN d   1      22.727  -9.622 -32.734  0.00  0.00     0.036 C 
ATOM    117  H52 ASN d   1      21.725  -9.973 -33.022  0.00  0.00     0.051 H 
ATOM    118  H53 ASN d   1      22.784  -9.534 -31.639  0.00  0.00     0.051 H 
BRANCH 116 119
ATOM    119  CG  ASN d   1      23.757 -10.646 -33.198  0.00  0.00     0.217 C 
ATOM    120  OD1 ASN d   1      23.404 -11.706 -33.701  0.00  0.00    -0.274 OA
ATOM    121  ND2 ASN d   1      25.036 -10.314 -33.063  0.00  0.00    -0.370 N 
ATOM    122  H54 ASN d   1      25.751 -10.950 -33.352  0.00  0.00     0.159 HD
ATOM    123  H55 ASN d   1      25.284  -9.428 -32.672  0.00  0.00     0.159 HD
ENDBRANCH 116 119
ENDBRANCH   7 116
ENDBRANCH   4   7
ENDBRANCH   1   3
BRANCH   1 124
ATOM    124  C   TRP d   1      21.723  -6.965 -37.399  0.00  0.00     0.241 C 
ATOM    125  O   TRP d   1      22.376  -6.983 -38.448  0.00  0.00    -0.271 OA
ATOM    126  N   LEU d   1      21.434  -5.849 -36.734  0.00  0.00    -0.346 N 
ATOM    127  H66 LEU d   1      20.828  -5.899 -35.941  0.00  0.00     0.163 HD
BRANCH 126 128
ATOM    128  CA  LEU d   1      21.978  -4.553 -37.131  0.00  0.00     0.089 C 
ATOM    129  H67 LEU d   1      21.567  -4.314 -38.123  0.00  0.00     0.087 H 
BRANCH 128 130
ATOM    130  C   LEU d   1      23.510  -4.570 -37.253  0.00  0.00     0.241 C 
ATOM    131  O   LEU d   1      24.078  -4.053 -38.232  0.00  0.00    -0.271 OA
ATOM    132  N   TRP d   1      24.178  -5.151 -36.269  0.00  0.00    -0.346 N 
ATOM    133  H77 TRP d   1      23.683  -5.552 -35.498  0.00  0.00     0.163 HD
BRANCH 132 134
ATOM    134  CA  TRP d   1      25.626  -5.207 -36.308  0.00  0.00     0.093 C 
ATOM    135  H78 TRP d   1      26.015  -4.179 -36.357  0.00  0.00     0.088 H 
BRANCH 134 136
ATOM    136  C   TRP d   1      26.094  -5.975 -37.557  0.00  0.00     0.241 C 
ATOM    137  O   TRP d   1      26.943  -5.493 -38.303  0.00  0.00    -0.271 OA
ATOM    138  N   TYR d   1      25.539  -7.162 -37.763  0.00  0.00    -0.346 N 
ATOM    139  H87 TYR d   1      24.780  -7.451 -37.180  0.00  0.00     0.163 HD
BRANCH 138 140
ATOM    140  CA  TYR d   1      26.006  -8.063 -38.821  0.00  0.00     0.093 C 
ATOM    141  H88 TYR d   1      27.087  -8.211 -38.684  0.00  0.00     0.088 H 
BRANCH 140 142
ATOM    142  C   TYR d   1      25.798  -7.433 -40.217  0.00  0.00     0.241 C 
ATOM    143  O   TYR d   1      26.650  -7.587 -41.103  0.00  0.00    -0.271 OA
ATOM    144  N   ILE d   1      24.724  -6.673 -40.408  0.00  0.00    -0.346 N 
ATOM    145  H96 ILE d   1      24.096  -6.496 -39.650  0.00  0.00     0.163 HD
BRANCH 144 146
ATOM    146  CA  ILE d   1      24.460  -6.095 -41.727  0.00  0.00     0.092 C 
ATOM    147  H97 ILE d   1      24.842  -6.816 -42.465  0.00  0.00     0.088 H 
BRANCH 146 148
ATOM    148  C   ILE d   1      25.226  -4.790 -41.973  0.00  0.00     0.241 C 
ATOM    149  O   ILE d   1      25.414  -4.389 -43.100  0.00  0.00    -0.271 OA
ATOM    150  N   LYS d   1      25.683  -4.130 -40.918  0.00  0.00    -0.345 N 
ATOM    151 7H10 LYS d   1      25.494  -4.481 -40.001  0.00  0.00     0.163 HD
BRANCH 150 152
ATOM    152  CA  LYS d   1      26.462  -2.893 -41.069  0.00  0.00     0.096 C 
ATOM    153 8H10 LYS d   1      25.924  -2.235 -41.767  0.00  0.00     0.089 H 
BRANCH 152 154
ATOM    154  C   LYS d   1      27.865  -3.143 -41.648  0.00  0.00     0.196 C 
ATOM    155  O   LYS d   1      28.623  -3.973 -41.148  0.00  0.00    -0.646 OA
ATOM    156  OXT LYS d   1      28.271  -2.520 -42.628  0.00  0.00    -0.646 OA
ENDBRANCH 152 154
BRANCH 152 157
ATOM    157  CB  LYS d   1      26.552  -2.188 -39.711  0.00  0.00    -0.037 C 
ATOM    158 9H10 LYS d   1      27.166  -2.810 -39.043  0.00  0.00     0.036 H 
ATOM    159 0H11 LYS d   1      25.535  -2.103 -39.301  0.00  0.00     0.036 H 
BRANCH 157 160
ATOM    160  CG  LYS d   1      27.161  -0.798 -39.754  0.00  0.00    -0.061 C 
ATOM    161 1H11 LYS d   1      26.620  -0.194 -40.497  0.00  0.00     0.033 H 
ATOM    162 2H11 LYS d   1      28.218  -0.880 -40.048  0.00  0.00     0.033 H 
BRANCH 160 163
ATOM    163  CD  LYS d   1      27.076  -0.104 -38.391  0.00  0.00    -0.043 C 
ATOM    164 3H11 LYS d   1      27.412  -0.798 -37.606  0.00  0.00     0.035 H 
ATOM    165 4H11 LYS d   1      26.035   0.193 -38.197  0.00  0.00     0.035 H 
BRANCH 163 166
ATOM    166  CE  LYS d   1      27.966   1.136 -38.387  0.00  0.00     0.080 C 
ATOM    167 5H11 LYS d   1      27.658   1.790 -39.216  0.00  0.00     0.075 H 
ATOM    168 6H11 LYS d   1      29.008   0.819 -38.538  0.00  0.00     0.075 H 
BRANCH 166 169
ATOM    169  NZ  LYS d   1      27.886   1.909 -37.120  0.00  0.00    -0.079 N 
ATOM    170 7H11 LYS d   1      28.492   2.712 -37.178  0.00  0.00     0.274 HD
ATOM    171 8H11 LYS d   1      28.174   1.325 -36.351  0.00  0.00     0.274 HD
ATOM    172 9H11 LYS d   1      26.937   2.215 -36.972  0.00  0.00     0.274 HD
ENDBRANCH 166 169
ENDBRANCH 163 166
ENDBRANCH 160 163
ENDBRANCH 157 160
ENDBRANCH 152 157
ENDBRANCH 150 152
ENDBRANCH 146 148
BRANCH 146 173
ATOM    173  CB  ILE d   1      22.933  -5.965 -41.990  0.00  0.00    -0.030 C 
ATOM    174  H98 ILE d   1      22.791  -5.777 -43.064  0.00  0.00     0.043 H 
BRANCH 173 175
ATOM    175  CG1 ILE d   1      22.301  -4.812 -41.223  0.00  0.00    -0.063 C 
ATOM    176  H99 ILE d   1      22.622  -3.868 -41.687  0.00  0.00     0.033 H 
ATOM    177 0H10 ILE d   1      22.657  -4.849 -40.183  0.00  0.00     0.033 H 
BRANCH 175 178
ATOM    178  CD1 ILE d   1      20.780  -4.850 -41.213  0.00  0.00    -0.076 C 
ATOM    179 4H10 ILE d   1      20.395  -3.991 -40.644  0.00  0.00     0.027 H 
ATOM    180 5H10 ILE d   1      20.440  -5.784 -40.742  0.00  0.00     0.027 H 
ATOM    181 6H10 ILE d   1      20.405  -4.802 -42.246  0.00  0.00     0.027 H 
ENDBRANCH 175 178
ENDBRANCH 173 175
BRANCH 173 182
ATOM    182  CG2 ILE d   1      22.222  -7.269 -41.629  0.00  0.00    -0.071 C 
ATOM    183 1H10 ILE d   1      22.679  -8.102 -42.184  0.00  0.00     0.028 H 
ATOM    184 2H10 ILE d   1      21.157  -7.192 -41.895  0.00  0.00     0.028 H 
ATOM    185 3H10 ILE d   1      22.318  -7.452 -40.548  0.00  0.00     0.028 H 
ENDBRANCH 173 182
ENDBRANCH 146 173
ENDBRANCH 144 146
ENDBRANCH 140 142
BRANCH 140 186
ATOM    186  CB  TYR d   1      25.329  -9.439 -38.693  0.00  0.00    -0.014 C 
ATOM    187  H89 TYR d   1      24.241  -9.291 -38.767  0.00  0.00     0.043 H 
ATOM    188  H90 TYR d   1      25.576  -9.849 -37.703  0.00  0.00     0.043 H 
BRANCH 186 189
ATOM    189  CG  TYR d   1      25.734 -10.457 -39.734  0.00  0.00    -0.056 A 
ATOM    190  CD1 TYR d   1      27.078 -10.840 -39.891  0.00  0.00    -0.074 A 
ATOM    191  CE1 TYR d   1      27.453 -11.778 -40.863  0.00  0.00    -0.051 A 
ATOM    192  H91 TYR d   1      27.836 -10.403 -39.251  0.00  0.00     0.084 H 
ATOM    193  CZ  TYR d   1      26.488 -12.355 -41.679  0.00  0.00     0.065 A 
ATOM    194  H93 TYR d   1      28.495 -12.053 -40.978  0.00  0.00     0.087 H 
ATOM    195  CE2 TYR d   1      25.150 -12.001 -41.548  0.00  0.00    -0.051 A 
ATOM    196  CD2 TYR d   1      24.775 -11.059 -40.585  0.00  0.00    -0.074 A 
ATOM    197  H94 TYR d   1      24.401 -12.453 -42.189  0.00  0.00     0.087 H 
ATOM    198  H92 TYR d   1      23.731 -10.784 -40.488  0.00  0.00     0.084 H 
BRANCH 193 199
ATOM    199  OH  TYR d   1      26.884 -13.285 -42.618  0.00  0.00    -0.361 OA
ATOM    200  H95 TYR d   1      27.825 -13.403 -42.568  0.00  0.00     0.217 HD
ENDBRANCH 193 199
ENDBRANCH 186 189
ENDBRANCH 140 186
ENDBRANCH 138 140
ENDBRANCH 134 136
BRANCH 134 201
ATOM    201  CB  TRP d   1      26.179  -5.880 -35.053  0.00  0.00    -0.012 C 
ATOM    202  H79 TRP d   1      25.866  -6.934 -35.054  0.00  0.00     0.044 H 
ATOM    203  H80 TRP d   1      25.760  -5.374 -34.171  0.00  0.00     0.044 H 
BRANCH 201 204
ATOM    204  CG  TRP d   1      27.654  -5.828 -34.968  0.00  0.00    -0.028 A 
ATOM    205  CD1 TRP d   1      28.407  -4.792 -34.504  0.00  0.00    -0.015 A 
ATOM    206  NE1 TRP d   1      29.746  -5.113 -34.570  0.00  0.00    -0.365 N 
ATOM    207  H81 TRP d   1      28.009  -3.848 -34.135  0.00  0.00     0.112 H 
ATOM    208  CE2 TRP d   1      29.872  -6.371 -35.101  0.00  0.00     0.042 A 
ATOM    209  H82 TRP d   1      30.524  -4.508 -34.270  0.00  0.00     0.165 HD
ATOM    210  CD2 TRP d   1      28.566  -6.856 -35.354  0.00  0.00    -0.002 A 
ATOM    211  CZ2 TRP d   1      31.017  -7.131 -35.347  0.00  0.00    -0.056 A 
ATOM    212  CE3 TRP d   1      28.409  -8.140 -35.878  0.00  0.00    -0.070 A 
ATOM    213  CZ3 TRP d   1      29.544  -8.893 -36.143  0.00  0.00    -0.082 A 
ATOM    214  H83 TRP d   1      27.421  -8.541 -36.074  0.00  0.00     0.084 H 
ATOM    215  CH2 TRP d   1      30.837  -8.380 -35.887  0.00  0.00    -0.081 A 
ATOM    216  H85 TRP d   1      29.438  -9.891 -36.553  0.00  0.00     0.083 H 
ATOM    217  H86 TRP d   1      31.704  -8.986 -36.122  0.00  0.00     0.083 H 
ATOM    218  H84 TRP d   1      32.007  -6.751 -35.121  0.00  0.00     0.086 H 
ENDBRANCH 201 204
ENDBRANCH 134 201
ENDBRANCH 132 134
ENDBRANCH 128 130
BRANCH 128 219
ATOM    219  CB  LEU d   1      21.549  -3.453 -36.169  0.00  0.00    -0.035 C 
ATOM    220  H68 LEU d   1      22.055  -2.525 -36.474  0.00  0.00     0.037 H 
ATOM    221  H69 LEU d   1      21.884  -3.740 -35.161  0.00  0.00     0.037 H 
BRANCH 219 222
ATOM    222  CG  LEU d   1      20.039  -3.161 -36.095  0.00  0.00    -0.059 C 
ATOM    223  H70 LEU d   1      19.515  -4.058 -35.733  0.00  0.00     0.038 H 
BRANCH 222 224
ATOM    224  CD1 LEU d   1      19.792  -2.016 -35.135  0.00  0.00    -0.073 C 
ATOM    225  H71 LEU d   1      18.713  -1.808 -35.083  0.00  0.00     0.028 H 
ATOM    226  H72 LEU d   1      20.322  -1.119 -35.490  0.00  0.00     0.028 H 
ATOM    227  H73 LEU d   1      20.162  -2.289 -34.136  0.00  0.00     0.028 H 
ENDBRANCH 222 224
BRANCH 222 228
ATOM    228  CD2 LEU d   1      19.507  -2.795 -37.480  0.00  0.00    -0.073 C 
ATOM    229  H74 LEU d   1      19.688  -3.629 -38.174  0.00  0.00     0.028 H 
ATOM    230  H75 LEU d   1      20.023  -1.895 -37.845  0.00  0.00     0.028 H 
ATOM    231  H76 LEU d   1      18.427  -2.598 -37.417  0.00  0.00     0.028 H 
ENDBRANCH 222 228
ENDBRANCH 219 222
ENDBRANCH 128 219
ENDBRANCH 126 128
ENDBRANCH   1 124
BRANCH   1 232
ATOM    232  CB  TRP d   1      19.726  -8.473 -37.082  0.00  0.00    -0.012 C 
ATOM    233  H58 TRP d   1      19.579  -8.423 -38.171  0.00  0.00     0.044 H 
ATOM    234  H59 TRP d   1      19.152  -7.670 -36.597  0.00  0.00     0.044 H 
BRANCH 232 235
ATOM    235  CG  TRP d   1      19.208  -9.812 -36.582  0.00  0.00    -0.028 A 
ATOM    236  CD1 TRP d   1      19.871 -11.015 -36.635  0.00  0.00    -0.015 A 
ATOM    237  NE1 TRP d   1      19.100 -12.011 -36.069  0.00  0.00    -0.365 N 
ATOM    238  H60 TRP d   1      20.862 -11.162 -37.062  0.00  0.00     0.112 H 
ATOM    239  CE2 TRP d   1      17.915 -11.472 -35.632  0.00  0.00     0.042 A 
ATOM    240  H61 TRP d   1      19.371 -13.001 -35.987  0.00  0.00     0.165 HD
ATOM    241  CD2 TRP d   1      17.940 -10.086 -35.937  0.00  0.00    -0.002 A 
ATOM    242  CZ2 TRP d   1      16.814 -12.088 -34.998  0.00  0.00    -0.056 A 
ATOM    243  CE3 TRP d   1      16.823  -9.298 -35.592  0.00  0.00    -0.070 A 
ATOM    244  CZ3 TRP d   1      15.727  -9.915 -34.948  0.00  0.00    -0.082 A 
ATOM    245  H62 TRP d   1      16.805  -8.238 -35.817  0.00  0.00     0.084 H 
ATOM    246  CH2 TRP d   1      15.737 -11.293 -34.665  0.00  0.00    -0.081 A 
ATOM    247  H64 TRP d   1      14.867  -9.318 -34.668  0.00  0.00     0.083 H 
ATOM    248  H65 TRP d   1      14.880 -11.740 -34.175  0.00  0.00     0.083 H 
ATOM    249  H63 TRP d   1      16.815 -13.150 -34.780  0.00  0.00     0.086 H 
ENDBRANCH 232 235
ENDBRANCH   1 232
TORSDOF 63
