REMARK  4 active torsions:
REMARK  status: ('A' for Active; 'I' for Inactive)
REMARK    1  A    between atoms: C2_2  and  C8_5 
REMARK    2  A    between atoms: C9_21  and  C2_2 
REMARK    3  A    between atoms: C12_7  and  N15_17 
REMARK    4  A    between atoms: C16_8  and  C18_9 
REMARK       I    between atoms: N15_17  and  C16_8 
ROOT
ATOM      1  C11 52K d   1      71.916  50.677   8.647  0.00  0.00    -0.074 A 
ATOM      2  C12 52K d   1      72.708  49.258   6.386  0.00  0.00     0.035 A 
ATOM      3  C10 52K d   1      71.365  49.421   6.686  0.00  0.00    -0.049 A 
ATOM      4  C14 52K d   1      73.669  49.798   7.235  0.00  0.00    -0.057 A 
ATOM      5  C13 52K d   1      73.267  50.505   8.360  0.00  0.00    -0.080 A 
ATOM      6  C9  52K d   1      70.933  50.141   7.806  0.00  0.00    -0.026 A 
ATOM      7  H8  52K d   1      71.622  51.232   9.531  0.00  0.00     0.084 H 
ATOM      8  H13 52K d   1      70.624  48.976   6.032  0.00  0.00     0.087 H 
ATOM      9  H14 52K d   1      74.723  49.668   7.020  0.00  0.00     0.086 H 
ATOM     10  H15 52K d   1      74.014  50.928   9.022  0.00  0.00     0.083 H 
ENDROOT
BRANCH   6  11
ATOM     11  C2  52K d   1      69.434  50.340   8.143  0.00  0.00     0.076 C 
ATOM     12  C1  52K d   1      69.025  49.362   9.258  0.00  0.00     0.047 C 
ATOM     13  O3  52K d   1      69.164  48.017   8.805  0.00  0.00    -0.381 OA
ATOM     14  H1  52K d   1      67.977  49.546   9.537  0.00  0.00     0.078 H 
ATOM     15  H2  52K d   1      69.671  49.519  10.135  0.00  0.00     0.078 H 
ATOM     16  C5  52K d   1      68.338  47.690   7.680  0.00  0.00     0.071 C 
ATOM     17  C6  52K d   1      68.049  48.876   6.765  0.00  0.00     0.095 C 
ATOM     18  H3  52K d   1      68.846  46.913   7.091  0.00  0.00     0.086 H 
ATOM     19  H4  52K d   1      67.380  47.299   8.055  0.00  0.00     0.086 H 
ATOM     20  N4  52K d   1      68.607  50.036   6.952  0.00  0.00    -0.363 N 
ATOM     21  N7  52K d   1      67.180  48.737   5.721  0.00  0.00    -0.387 N 
ATOM     22  H16 52K d   1      68.469  50.772   6.245  0.00  0.00     0.162 HD
ATOM     23  H17 52K d   1      66.985  49.538   5.103  0.00  0.00     0.157 HD
ATOM     24  H18 52K d   1      66.720  47.831   5.551  0.00  0.00     0.157 HD
BRANCH  11  25
ATOM     25  C8  52K d   1      69.114  51.775   8.572  0.00  0.00    -0.047 C 
ATOM     26  H5  52K d   1      69.408  52.471   7.772  0.00  0.00     0.031 H 
ATOM     27  H6  52K d   1      69.670  52.016   9.490  0.00  0.00     0.031 H 
ATOM     28  H7  52K d   1      68.034  51.869   8.761  0.00  0.00     0.031 H 
ENDBRANCH  11  25
ENDBRANCH   6  11
BRANCH   2  29
ATOM     29  N15 52K d   1      72.951  48.494   5.217  0.00  0.00    -0.322 N 
ATOM     30  C16 52K d   1      74.065  47.848   4.681  0.00  0.00     0.274 C 
ATOM     31  O17 52K d   1      75.137  47.906   5.246  0.00  0.00    -0.266 OA
ATOM     32  H12 52K d   1      72.137  48.395   4.645  0.00  0.00     0.169 HD
BRANCH  30  33
ATOM     33  C18 52K d   1      73.947  47.082   3.424  0.00  0.00     0.124 A 
ATOM     34  N19 52K d   1      72.904  47.389   2.561  0.00  0.00    -0.254 NA
ATOM     35  C21 52K d   1      72.733  46.682   1.380  0.00  0.00     0.024 A 
ATOM     36  C23 52K d   1      73.597  45.656   1.046  0.00  0.00     0.051 A 
ATOM     37  H9  52K d   1      71.916  46.936   0.714  0.00  0.00     0.117 H 
ATOM     38 CL   52K d   1      73.354  44.817  -0.434  0.00  0.00    -0.083 Cl
ATOM     39  C22 52K d   1      74.643  45.337   1.904  0.00  0.00    -0.058 A 
ATOM     40  C20 52K d   1      74.816  46.038   3.094  0.00  0.00    -0.048 A 
ATOM     41  H10 52K d   1      75.328  44.538   1.645  0.00  0.00     0.086 H 
ATOM     42  H11 52K d   1      75.625  45.774   3.765  0.00  0.00     0.087 H 
ENDBRANCH  30  33
ENDBRANCH   2  29
TORSDOF 4
