REMARK  11 active torsions:
REMARK  status: ('A' for Active; 'I' for Inactive)
REMARK    1  A    between atoms: C8_1  and  C5_2 
REMARK    2  A    between atoms: C8_1  and  N1_10 
REMARK    3  A    between atoms: C2_5  and  O4_8 
REMARK    4  A    between atoms: O4_8  and  C1_9 
REMARK    5  A    between atoms: C13_15  and  O2_21 
REMARK    6  A    between atoms: C10_16  and  O1_19 
REMARK    7  A    between atoms: C10_16  and  C9_20 
REMARK    8  A    between atoms: O2_21  and  C16_22 
REMARK       I    between atoms: C16_22  and  N4_24 
REMARK    9  A    between atoms: N4_24  and  C17_25 
REMARK   10  A    between atoms: C17_25  and  C19_26 
REMARK   11  A    between atoms: C17_25  and  C18_27 
ROOT
ATOM      1  N1  52T d   1      26.366  21.553  16.275  0.00  0.00    -0.269 N 
ATOM      2  C11 52T d   1      26.532  21.306  17.554  0.00  0.00     0.089 A 
ATOM      3  C12 52T d   1      27.925  21.635  17.935  0.00  0.00     0.108 A 
ATOM      4  N3  52T d   1      28.549  22.035  16.806  0.00  0.00    -0.160 NA
ATOM      5  N2  52T d   1      27.595  22.017  15.787  0.00  0.00     0.005 NA
ATOM      6  C13 52T d   1      28.413  21.535  19.331  0.00  0.00     0.095 C 
ATOM      7  C10 52T d   1      25.511  20.720  18.492  0.00  0.00     0.100 C 
ATOM      8  C14 52T d   1      27.436  20.727  20.199  0.00  0.00    -0.032 C 
ATOM      9  C15 52T d   1      25.956  21.051  19.915  0.00  0.00    -0.029 C 
ATOM     10  H10 52T d   1      28.470  22.555  19.739  0.00  0.00     0.094 H 
ATOM     11  H11 52T d   1      27.645  20.947  21.256  0.00  0.00     0.037 H 
ATOM     12  H12 52T d   1      27.602  19.657  20.007  0.00  0.00     0.037 H 
ATOM     13  H13 52T d   1      25.335  20.473  20.615  0.00  0.00     0.038 H 
ATOM     14  H14 52T d   1      25.798  22.126  20.086  0.00  0.00     0.038 H 
ENDROOT
BRANCH   1  15
ATOM     15  C8  52T d   1      25.352  21.443  15.199  0.00  0.00     0.037 C 
ATOM     16  H1  52T d   1      24.452  22.017  15.464  0.00  0.00     0.074 H 
ATOM     17  H2  52T d   1      25.761  21.820  14.250  0.00  0.00     0.074 H 
BRANCH  15  18
ATOM     18  C5  52T d   1      25.013  19.950  15.076  0.00  0.00    -0.039 A 
ATOM     19  C6  52T d   1      26.024  18.980  14.926  0.00  0.00    -0.073 A 
ATOM     20  C7  52T d   1      25.693  17.587  14.826  0.00  0.00    -0.050 A 
ATOM     21  H3  52T d   1      27.062  19.289  14.886  0.00  0.00     0.084 H 
ATOM     22  C2  52T d   1      24.335  17.229  14.942  0.00  0.00     0.068 A 
ATOM     23  H4  52T d   1      26.460  16.837  14.667  0.00  0.00     0.087 H 
ATOM     24  C3  52T d   1      23.383  18.183  15.143  0.00  0.00    -0.050 A 
ATOM     25  C4  52T d   1      23.691  19.552  15.225  0.00  0.00    -0.073 A 
ATOM     26  H5  52T d   1      22.349  17.874  15.243  0.00  0.00     0.087 H 
ATOM     27  H6  52T d   1      22.911  20.284  15.401  0.00  0.00     0.084 H 
BRANCH  22  28
ATOM     28  O4  52T d   1      23.920  15.924  14.935  0.00  0.00    -0.356 OA
BRANCH  28  29
ATOM     29  C1  52T d   1      24.939  14.962  15.181  0.00  0.00     0.010 C 
ATOM     30  H7  52T d   1      24.504  13.952  15.154  0.00  0.00     0.066 H 
ATOM     31  H8  52T d   1      25.383  15.143  16.171  0.00  0.00     0.066 H 
ATOM     32  H9  52T d   1      25.717  15.047  14.408  0.00  0.00     0.066 H 
ENDBRANCH  28  29
ENDBRANCH  22  28
ENDBRANCH  15  18
ENDBRANCH   1  15
BRANCH   7  33
ATOM     33  O1  52T d   1      24.134  21.108  18.229  0.00  0.00    -0.384 OA
ATOM     34  H15 52T d   1      24.041  22.045  18.353  0.00  0.00     0.211 HD
ENDBRANCH   7  33
BRANCH   7  35
ATOM     35  C9  52T d   1      25.663  19.178  18.271  0.00  0.00    -0.042 C 
ATOM     36  H16 52T d   1      25.346  18.921  17.249  0.00  0.00     0.032 H 
ATOM     37  H17 52T d   1      25.035  18.640  18.996  0.00  0.00     0.032 H 
ATOM     38  H18 52T d   1      26.715  18.889  18.412  0.00  0.00     0.032 H 
ENDBRANCH   7  35
BRANCH   6  39
ATOM     39  O2  52T d   1      29.717  20.960  19.403  0.00  0.00    -0.292 OA
BRANCH  39  40
ATOM     40  C16 52T d   1      30.569  21.511  20.423  0.00  0.00     0.361 C 
ATOM     41  O3  52T d   1      30.173  22.536  20.961  0.00  0.00    -0.238 OA
ATOM     42  N4  52T d   1      31.689  20.803  20.663  0.00  0.00    -0.333 N 
ATOM     43  H19 52T d   1      31.851  20.010  20.075  0.00  0.00     0.165 HD
BRANCH  42  44
ATOM     44  C17 52T d   1      32.691  21.068  21.688  0.00  0.00     0.007 C 
ATOM     45  H20 52T d   1      32.458  22.032  22.163  0.00  0.00     0.071 H 
BRANCH  44  46
ATOM     46  C19 52T d   1      34.088  21.178  21.065  0.00  0.00    -0.058 C 
ATOM     47  H21 52T d   1      34.827  21.378  21.855  0.00  0.00     0.030 H 
ATOM     48  H22 52T d   1      34.100  22.001  20.335  0.00  0.00     0.030 H 
ATOM     49  H23 52T d   1      34.339  20.234  20.558  0.00  0.00     0.030 H 
ENDBRANCH  44  46
BRANCH  44  50
ATOM     50  C18 52T d   1      32.611  19.973  22.763  0.00  0.00    -0.058 C 
ATOM     51  H24 52T d   1      33.365  20.167  23.540  0.00  0.00     0.030 H 
ATOM     52  H25 52T d   1      32.803  18.992  22.303  0.00  0.00     0.030 H 
ATOM     53  H26 52T d   1      31.608  19.976  23.216  0.00  0.00     0.030 H 
ENDBRANCH  44  50
ENDBRANCH  42  44
ENDBRANCH  39  40
ENDBRANCH   6  39
TORSDOF 11
