REMARK  5 active torsions:
REMARK  status: ('A' for Active; 'I' for Inactive)
REMARK    1  A    between atoms: C6_2  and  C3_6 
REMARK    2  A    between atoms: C10_10  and  C4_5 
REMARK    3  A    between atoms: S19_19  and  C2_7 
REMARK    4  A    between atoms: C9_9  and  S19_19 
REMARK    5  A    between atoms: C10_10  and  N14_14 
ROOT
ATOM      1  C7  52Q d   1       6.668  33.929 -28.032  0.00  0.00    -0.021 A 
ATOM      2  C6  52Q d   1       7.976  33.629 -27.410  0.00  0.00     0.042 A 
ATOM      3  C5  52Q d   1       6.468  35.902 -26.802  0.00  0.00    -0.011 C 
ATOM      4  C8  52Q d   1       6.749  33.597 -26.595  0.00  0.00     0.007 A 
ATOM      5  C9  52Q d   1       6.184  35.298 -28.141  0.00  0.00     0.006 C 
ATOM      6  C10 52Q d   1       6.516  34.795 -25.802  0.00  0.00     0.216 C 
ATOM      7  H1  52Q d   1       6.254  33.270 -28.809  0.00  0.00     0.043 H 
ATOM      8  H2  52Q d   1       8.742  34.404 -27.262  0.00  0.00     0.058 H 
ATOM      9  H4  52Q d   1       5.671  36.612 -26.536  0.00  0.00     0.039 H 
ATOM     10  H5  52Q d   1       7.434  36.427 -26.826  0.00  0.00     0.039 H 
ATOM     11  H6  52Q d   1       6.354  32.675 -26.144  0.00  0.00     0.046 H 
ATOM     12  H7  52Q d   1       5.113  35.323 -28.390  0.00  0.00     0.058 H 
ENDROOT
BRANCH   5  13
ATOM     13  S19 52Q d   1       7.128  36.224 -29.325  0.00  0.00    -0.085 SA
BRANCH  13  14
ATOM     14  C2  52Q d   1       6.695  35.526 -30.824  0.00  0.00     0.189 A 
ATOM     15  N12 52Q d   1       5.536  35.476 -31.408  0.00  0.00    -0.123 NA
ATOM     16  N11 52Q d   1       5.698  34.833 -32.587  0.00  0.00    -0.143 NA
ATOM     17  C1  52Q d   1       6.949  34.506 -32.691  0.00  0.00     0.087 A 
ATOM     18  N13 52Q d   1       7.620  34.930 -31.599  0.00  0.00    -0.327 N 
ATOM     19  H3  52Q d   1       7.390  33.971 -33.531  0.00  0.00     0.146 H 
ATOM     20  H8  52Q d   1       8.625  34.821 -31.401  0.00  0.00     0.168 HD
ENDBRANCH  13  14
ENDBRANCH   5  13
BRANCH   2  21
ATOM     21  C3  52Q d   1       8.551  32.398 -27.765  0.00  0.00     0.177 C 
ATOM     22  O15 52Q d   1       7.742  31.326 -27.833  0.00  0.00    -0.648 OA
ATOM     23  O17 52Q d   1       9.760  32.392 -28.031  0.00  0.00    -0.648 OA
ENDBRANCH   2  21
BRANCH   6  24
ATOM     24  C4  52Q d   1       5.138  34.922 -25.243  0.00  0.00     0.210 C 
ATOM     25  O16 52Q d   1       5.039  35.032 -23.903  0.00  0.00    -0.646 OA
ATOM     26  O18 52Q d   1       4.233  34.922 -26.092  0.00  0.00    -0.646 OA
ENDBRANCH   6  24
BRANCH   6  27
ATOM     27  N14 52Q d   1       7.575  35.087 -24.850  0.00  0.00    -0.060 N 
ATOM     28  H9  52Q d   1       7.346  35.926 -24.340  0.00  0.00     0.275 HD
ATOM     29  H10 52Q d   1       8.443  35.221 -25.344  0.00  0.00     0.275 HD
ATOM     30  H11 52Q d   1       7.670  34.317 -24.206  0.00  0.00     0.275 HD
ENDBRANCH   6  27
TORSDOF 5
