REMARK  5 active torsions:
REMARK  status: ('A' for Active; 'I' for Inactive)
REMARK    1  A    between atoms: C6_2  and  C3_6 
REMARK    2  A    between atoms: C10_10  and  C4_5 
REMARK    3  A    between atoms: S19_19  and  C2_7 
REMARK    4  A    between atoms: C9_9  and  S19_19 
REMARK    5  A    between atoms: C10_10  and  N14_14 
ROOT
ATOM      1  C7  52Q d   1       3.274  21.553  16.931  0.00  0.00    -0.021 A 
ATOM      2  C6  52Q d   1       4.582  22.202  17.265  0.00  0.00     0.042 A 
ATOM      3  C5  52Q d   1       2.576  20.918  19.136  0.00  0.00    -0.011 A 
ATOM      4  C8  52Q d   1       4.367  20.747  17.544  0.00  0.00     0.007 A 
ATOM      5  C9  52Q d   1       2.159  21.673  17.892  0.00  0.00     0.006 A 
ATOM      6  C10 52Q d   1       3.957  20.342  18.904  0.00  0.00     0.216 A 
ATOM      7  H1  52Q d   1       2.935  21.451  15.890  0.00  0.00     0.043 H 
ATOM      8  H2  52Q d   1       4.661  22.931  18.085  0.00  0.00     0.058 H 
ATOM      9  H4  52Q d   1       1.863  20.105  19.334  0.00  0.00     0.039 H 
ATOM     10  H5  52Q d   1       2.599  21.603  19.996  0.00  0.00     0.039 H 
ATOM     11  H6  52Q d   1       4.942  19.971  17.017  0.00  0.00     0.046 H 
ATOM     12  H7  52Q d   1       1.223  21.274  17.474  0.00  0.00     0.058 H 
ENDROOT
BRANCH   5  13
ATOM     13  S19 52Q d   1       1.987  23.414  18.330  0.00  0.00    -0.085 SA
BRANCH  13  14
ATOM     14  C2  52Q d   1       0.394  23.346  19.008  0.00  0.00     0.189 A 
ATOM     15  N12 52Q d   1       0.030  22.853  20.168  0.00  0.00    -0.123 NA
ATOM     16  N11 52Q d   1      -1.327  23.024  20.262  0.00  0.00    -0.143 NA
ATOM     17  C1  52Q d   1      -1.743  23.613  19.162  0.00  0.00     0.087 A 
ATOM     18  N13 52Q d   1      -0.683  23.836  18.337  0.00  0.00    -0.327 N 
ATOM     19  H3  52Q d   1      -2.776  23.881  18.945  0.00  0.00     0.146 H 
ATOM     20  H8  52Q d   1      -0.694  24.279  17.407  0.00  0.00     0.168 HD
ENDBRANCH  13  14
ENDBRANCH   5  13
BRANCH   2  21
ATOM     21  C3  52Q d   1       5.456  22.561  16.177  0.00  0.00     0.177 C 
ATOM     22  O15 52Q d   1       6.498  23.211  16.461  0.00  0.00    -0.648 OA
ATOM     23  O17 52Q d   1       5.117  22.199  15.017  0.00  0.00    -0.648 OA
ENDBRANCH   2  21
BRANCH   6  24
ATOM     24  C4  52Q d   1       3.638  18.868  18.988  0.00  0.00     0.210 C 
ATOM     25  O16 52Q d   1       4.459  18.190  19.663  0.00  0.00    -0.646 OA
ATOM     26  O18 52Q d   1       2.595  18.519  18.372  0.00  0.00    -0.646 OA
ENDBRANCH   6  24
BRANCH   6  27
ATOM     27  N14 52Q d   1       4.841  20.827  19.987  0.00  0.00    -0.060 N 
ATOM     28  H9  52Q d   1       4.490  20.507  20.876  0.00  0.00     0.275 HD
ATOM     29  H10 52Q d   1       4.862  21.835  19.977  0.00  0.00     0.275 HD
ATOM     30  H11 52Q d   1       5.773  20.470  19.845  0.00  0.00     0.275 HD
ENDBRANCH   6  27
TORSDOF 5
