REMARK  3 active torsions:
REMARK  status: ('A' for Active; 'I' for Inactive)
REMARK    1  A    between atoms: C8_4  and  C9_15 
REMARK    2  A    between atoms: N18_22  and  C17_8 
REMARK    3  A    between atoms: C19_19  and  N18_22 
ROOT
ATOM      1  C5  539 d   1      -3.874 -14.364  24.441  0.00  0.00    -0.046 A 
ATOM      2  C6  539 d   1      -3.660 -15.461  25.272  0.00  0.00     0.026 A 
ATOM      3  C7  539 d   1      -3.367 -16.696  24.730  0.00  0.00     0.011 A 
ATOM      4  C8  539 d   1      -3.096 -17.714  25.630  0.00  0.00     0.100 A 
ATOM      5  C17 539 d   1      -3.678 -15.367  26.654  0.00  0.00     0.157 A 
ATOM      6  C24 539 d   1      -3.357 -16.844  23.347  0.00  0.00    -0.047 A 
ATOM      7  C2  539 d   1      -3.621 -15.778  22.509  0.00  0.00     0.056 A 
ATOM      8  C3  539 d   1      -3.848 -14.534  23.066  0.00  0.00     0.056 A 
ATOM      9  N15 539 d   1      -3.186 -17.548  26.960  0.00  0.00    -0.147 NA
ATOM     10  N16 539 d   1      -3.456 -16.421  27.457  0.00  0.00    -0.131 NA
ATOM     11 CL1  539 d   1      -3.657 -16.053  20.793  0.00  0.00    -0.083 Cl
ATOM     12 CL4  539 d   1      -4.119 -13.183  22.042  0.00  0.00    -0.083 Cl
ATOM     13  H1  539 d   1      -4.059 -13.384  24.867  0.00  0.00     0.087 H 
ATOM     14  H10 539 d   1      -3.138 -17.815  22.918  0.00  0.00     0.087 H 
ENDROOT
BRANCH   5  15
ATOM     15  N18 539 d   1      -3.931 -14.098  27.188  0.00  0.00    -0.368 N 
ATOM     16  H16 539 d   1      -4.162 -13.283  26.603  0.00  0.00     0.161 HD
BRANCH  15  17
ATOM     17  C19 539 d   1      -3.840 -14.027  28.633  0.00  0.00     0.011 C 
ATOM     18  C20 539 d   1      -2.857 -12.924  28.965  0.00  0.00    -0.046 C 
ATOM     19  C21 539 d   1      -3.650 -11.656  29.132  0.00  0.00    -0.063 C 
ATOM     20  H4  539 d   1      -2.325 -13.162  29.898  0.00  0.00     0.035 H 
ATOM     21  H5  539 d   1      -2.130 -12.809  28.148  0.00  0.00     0.035 H 
ATOM     22  C22 539 d   1      -5.108 -12.022  29.174  0.00  0.00    -0.063 C 
ATOM     23  H6  539 d   1      -3.459 -10.982  28.284  0.00  0.00     0.033 H 
ATOM     24  H7  539 d   1      -3.363 -11.157  30.069  0.00  0.00     0.033 H 
ATOM     25  C23 539 d   1      -5.194 -13.532  29.093  0.00  0.00    -0.046 C 
ATOM     26  H8  539 d   1      -5.635 -11.568  28.322  0.00  0.00     0.033 H 
ATOM     27  H9  539 d   1      -5.558 -11.669  30.113  0.00  0.00     0.033 H 
ATOM     28  H13 539 d   1      -5.970 -13.828  28.372  0.00  0.00     0.035 H 
ATOM     29  H14 539 d   1      -5.434 -13.950  30.082  0.00  0.00     0.035 H 
ATOM     30  H15 539 d   1      -3.561 -14.989  29.087  0.00  0.00     0.072 H 
ENDBRANCH  15  17
ENDBRANCH   5  15
BRANCH   4  31
ATOM     31  C9  539 d   1      -2.680 -19.072  25.296  0.00  0.00    -0.002 A 
ATOM     32  C10 539 d   1      -1.936 -19.390  24.174  0.00  0.00    -0.054 A 
ATOM     33  C11 539 d   1      -1.575 -20.702  23.936  0.00  0.00     0.003 A 
ATOM     34  H2  539 d   1      -1.637 -18.611  23.483  0.00  0.00     0.087 H 
ATOM     35  N12 539 d   1      -1.867 -21.730  24.746  0.00  0.00    -0.273 NA
ATOM     36  H12 539 d   1      -1.017 -20.915  23.032  0.00  0.00     0.114 H 
ATOM     37  C13 539 d   1      -2.588 -21.402  25.828  0.00  0.00     0.003 A 
ATOM     38  C14 539 d   1      -3.005 -20.121  26.144  0.00  0.00    -0.054 A 
ATOM     39  H3  539 d   1      -2.865 -22.201  26.506  0.00  0.00     0.114 H 
ATOM     40  H11 539 d   1      -3.580 -19.939  27.045  0.00  0.00     0.087 H 
ENDBRANCH   4  31
TORSDOF 3
