REMARK  5 active torsions:
REMARK  status: ('A' for Active; 'I' for Inactive)
REMARK    1  A    between atoms: O_23  and  C5_1 
REMARK    2  A    between atoms: C6_2  and  O_23 
REMARK    3  A    between atoms: C9_5  and  C12_8 
REMARK    4  A    between atoms: C12_8  and  C20_17 
REMARK    5  A    between atoms: C13_9  and  C14_10 
ROOT
ATOM      1  C12 53Q d   1     -11.740  -0.361  -1.815  0.00  0.00     0.007 C 
ATOM      2  C13 53Q d   1     -11.864  -1.045  -0.614  0.00  0.00     0.056 C 
ATOM      3 CL   53Q d   1     -10.816  -0.727   0.724  0.00  0.00    -0.082 Cl
ENDROOT
BRANCH   1   4
ATOM      4  C9  53Q d   1     -12.477  -0.750  -3.045  0.00  0.00    -0.023 A 
ATOM      5  C8  53Q d   1     -12.422  -2.055  -3.527  0.00  0.00    -0.070 A 
ATOM      6  C7  53Q d   1     -13.139  -2.436  -4.649  0.00  0.00    -0.050 A 
ATOM      7  H5  53Q d   1     -11.807  -2.786  -3.015  0.00  0.00     0.085 H 
ATOM      8  C6  53Q d   1     -13.927  -1.503  -5.305  0.00  0.00     0.068 A 
ATOM      9  H4  53Q d   1     -13.084  -3.456  -5.011  0.00  0.00     0.087 H 
ATOM     10  C11 53Q d   1     -13.989  -0.196  -4.850  0.00  0.00    -0.050 A 
ATOM     11  C10 53Q d   1     -13.262   0.175  -3.732  0.00  0.00    -0.070 A 
ATOM     12  H7  53Q d   1     -14.604   0.532  -5.367  0.00  0.00     0.087 H 
ATOM     13  H6  53Q d   1     -13.304   1.201  -3.385  0.00  0.00     0.085 H 
BRANCH   8  14
ATOM     14  O   53Q d   1     -14.653  -1.897  -6.407  0.00  0.00    -0.356 OA
BRANCH  14  15
ATOM     15  C5  53Q d   1     -15.474  -0.917  -7.060  0.00  0.00     0.010 C 
ATOM     16  H1  53Q d   1     -15.987  -1.380  -7.916  0.00  0.00     0.066 H 
ATOM     17  H2  53Q d   1     -14.844  -0.088  -7.415  0.00  0.00     0.066 H 
ATOM     18  H3  53Q d   1     -16.220  -0.532  -6.350  0.00  0.00     0.066 H 
ENDBRANCH  14  15
ENDBRANCH   8  14
ENDBRANCH   1   4
BRANCH   1  19
ATOM     19  C20 53Q d   1     -10.791   0.776  -1.987  0.00  0.00    -0.023 A 
ATOM     20  C25 53Q d   1     -10.099   0.943  -3.184  0.00  0.00    -0.072 A 
ATOM     21  C24 53Q d   1      -9.214   1.994  -3.346  0.00  0.00    -0.082 A 
ATOM     22  H13 53Q d   1     -10.255   0.243  -3.997  0.00  0.00     0.084 H 
ATOM     23  C23 53Q d   1      -9.003   2.889  -2.323  0.00  0.00    -0.083 A 
ATOM     24  H14 53Q d   1      -8.684   2.113  -4.284  0.00  0.00     0.083 H 
ATOM     25  C22 53Q d   1      -9.687   2.744  -1.136  0.00  0.00    -0.082 A 
ATOM     26  H15 53Q d   1      -8.301   3.705  -2.450  0.00  0.00     0.083 H 
ATOM     27  C21 53Q d   1     -10.578   1.700  -0.968  0.00  0.00    -0.072 A 
ATOM     28  H16 53Q d   1      -9.526   3.451  -0.330  0.00  0.00     0.083 H 
ATOM     29  H17 53Q d   1     -11.117   1.600  -0.033  0.00  0.00     0.084 H 
ENDBRANCH   1  19
BRANCH   2  30
ATOM     30  C14 53Q d   1     -12.786  -2.149  -0.275  0.00  0.00    -0.014 A 
ATOM     31  C15 53Q d   1     -12.407  -3.474  -0.476  0.00  0.00    -0.071 A 
ATOM     32  C16 53Q d   1     -13.236  -4.507  -0.070  0.00  0.00    -0.082 A 
ATOM     33  H8  53Q d   1     -11.459  -3.698  -0.952  0.00  0.00     0.084 H 
ATOM     34  C17 53Q d   1     -14.447  -4.235   0.530  0.00  0.00    -0.083 A 
ATOM     35  H12 53Q d   1     -12.931  -5.535  -0.225  0.00  0.00     0.083 H 
ATOM     36  C18 53Q d   1     -14.835  -2.927   0.726  0.00  0.00    -0.082 A 
ATOM     37  H11 53Q d   1     -15.092  -5.047   0.847  0.00  0.00     0.083 H 
ATOM     38  C19 53Q d   1     -14.011  -1.888   0.328  0.00  0.00    -0.071 A 
ATOM     39  H10 53Q d   1     -15.789  -2.711   1.194  0.00  0.00     0.083 H 
ATOM     40  H9  53Q d   1     -14.324  -0.863   0.488  0.00  0.00     0.084 H 
ENDBRANCH   2  30
TORSDOF 5
