REMARK WARNING: 32 MAX_TORS EXCEEDED!!!
REMARK  66 active torsions:
REMARK  status: ('A' for Active; 'I' for Inactive)
REMARK    1  A    between atoms: N_1  and  CA_2 
REMARK    2  A    between atoms: CA_2  and  C_3 
REMARK    3  A    between atoms: CA_2  and  CB_5 
REMARK       I    between atoms: C_3  and  N_11 
REMARK    4  A    between atoms: CB_5  and  CG_6 
REMARK    5  A    between atoms: N_11  and  CA_12 
REMARK    6  A    between atoms: CA_12  and  C_13 
REMARK    7  A    between atoms: CA_12  and  CB_15 
REMARK       I    between atoms: C_13  and  N_20 
REMARK    8  A    between atoms: CB_15  and  CG_16 
REMARK    9  A    between atoms: CG_16  and  CD_17 
REMARK   10  A    between atoms: N_20  and  CA_21 
REMARK   11  A    between atoms: CA_21  and  C_22 
REMARK   12  A    between atoms: CA_21  and  CB_24 
REMARK       I    between atoms: C_22  and  N_25 
REMARK   13  A    between atoms: N_25  and  CA_26 
REMARK   14  A    between atoms: CA_26  and  C_27 
REMARK   15  A    between atoms: CA_26  and  CB_29 
REMARK       I    between atoms: C_27  and  N_33 
REMARK   16  A    between atoms: CB_29  and  CG1_30 
REMARK   17  A    between atoms: CB_29  and  CG2_31 
REMARK   18  A    between atoms: CG1_30  and  CD1_32 
REMARK   19  A    between atoms: N_33  and  CA_34 
REMARK   20  A    between atoms: CA_34  and  C_35 
REMARK   21  A    between atoms: CA_34  and  CB_37 
REMARK       I    between atoms: C_35  and  N_41 
REMARK   22  A    between atoms: CB_37  and  CG_38 
REMARK   23  A    between atoms: N_41  and  CA_42 
REMARK   24  A    between atoms: CA_42  and  C_43 
REMARK   25  A    between atoms: CA_42  and  CB_45 
REMARK       I    between atoms: C_43  and  N_55 
REMARK   26  A    between atoms: CB_45  and  CG_46 
REMARK   27  A    between atoms: N_55  and  CA_56 
REMARK   28  A    between atoms: CA_56  and  C_57 
REMARK       I    between atoms: C_57  and  N_59 
REMARK   29  A    between atoms: N_59  and  CA_60 
REMARK   30  A    between atoms: CA_60  and  C_61 
REMARK   31  A    between atoms: CA_60  and  CB_63 
REMARK       I    between atoms: C_61  and  N_68 
REMARK   32  A    between atoms: CB_63  and  CG_64 
REMARK   33  A    between atoms: CG_64  and  CD_65 
REMARK   34  A    between atoms: CA_69  and  C_70 
REMARK       I    between atoms: C_70  and  N_75 
REMARK   35  A    between atoms: N_75  and  CA_76 
REMARK   36  A    between atoms: CA_76  and  C_77 
REMARK   37  A    between atoms: CA_76  and  CB_79 
REMARK       I    between atoms: C_77  and  N_84 
REMARK   38  A    between atoms: CB_79  and  CG_80 
REMARK   39  A    between atoms: CG_80  and  CD_81 
REMARK   40  A    between atoms: CD_81  and  CE_82 
REMARK   41  A    between atoms: CE_82  and  NZ_83 
REMARK   42  A    between atoms: N_84  and  CA_85 
REMARK   43  A    between atoms: CA_85  and  C_86 
REMARK   44  A    between atoms: CA_85  and  CB_88 
REMARK       I    between atoms: C_86  and  N_92 
REMARK   45  A    between atoms: CB_88  and  CG_89 
REMARK   46  A    between atoms: N_92  and  CA_93 
REMARK   47  A    between atoms: CA_93  and  C_94 
REMARK   48  A    between atoms: CA_93  and  CB_96 
REMARK       I    between atoms: C_94  and  N_101 
REMARK   49  A    between atoms: CB_96  and  CG_97 
REMARK   50  A    between atoms: CG_97  and  CD_98 
REMARK   51  A    between atoms: CD_98  and  CE_99 
REMARK   52  A    between atoms: CE_99  and  NZ_100 
REMARK   53  A    between atoms: N_101  and  CA_102 
REMARK   54  A    between atoms: CA_102  and  C_103 
REMARK   55  A    between atoms: CA_102  and  CB_105 
REMARK       I    between atoms: C_103  and  N_110 
REMARK   56  A    between atoms: CB_105  and  CG_106 
REMARK   57  A    between atoms: CG_106  and  CD_107 
REMARK   58  A    between atoms: N_110  and  CA_111 
REMARK   59  A    between atoms: CA_111  and  C_112 
REMARK   60  A    between atoms: CA_111  and  CB_114 
REMARK       I    between atoms: C_112  and  N_117 
REMARK   61  A    between atoms: CB_114  and  CG1_115 
REMARK   62  A    between atoms: CB_114  and  CG2_116 
REMARK   63  A    between atoms: N_117  and  CA_118 
REMARK   64  A    between atoms: CA_118  and  C_119 
REMARK   65  A    between atoms: CA_118  and  CB_121 
REMARK   66  A    between atoms: CB_121  and  CG_122 
ROOT
ATOM      1  C   GLU d   1      77.024 -73.139  15.254  0.00  0.00     0.243 C 
ATOM      2  O   GLU d   1      76.771 -72.352  14.334  0.00  0.00    -0.271 OA
ATOM      3  N   PRO d   1      77.367 -72.719  16.483  0.00  0.00    -0.337 N 
ATOM      4  CA  PRO d   1      77.551 -71.279  16.693  0.00  0.00     0.091 C 
ATOM      5  CB  PRO d   1      77.932 -71.185  18.176  0.00  0.00    -0.036 C 
ATOM      6  CG  PRO d   1      77.248 -72.366  18.795  0.00  0.00    -0.048 C 
ATOM      7  CD  PRO d   1      77.328 -73.463  17.755  0.00  0.00    -0.001 C 
ATOM      8  H55 PRO d   1      76.626 -70.722  16.481  0.00  0.00     0.087 H 
ATOM      9  H56 PRO d   1      77.567 -70.245  18.616  0.00  0.00     0.036 H 
ATOM     10  H57 PRO d   1      79.022 -71.251  18.306  0.00  0.00     0.036 H 
ATOM     11  H58 PRO d   1      76.199 -72.128  19.024  0.00  0.00     0.035 H 
ATOM     12  H59 PRO d   1      77.764 -72.671  19.717  0.00  0.00     0.035 H 
ATOM     13  H60 PRO d   1      78.238 -74.066  17.887  0.00  0.00     0.064 H 
ATOM     14  H61 PRO d   1      76.445 -74.117  17.803  0.00  0.00     0.064 H 
ENDROOT
BRANCH   1  15
ATOM     15  CA  GLU d   1      76.922 -74.650  15.034  0.00  0.00     0.090 C 
ATOM     16  H50 GLU d   1      76.962 -75.141  16.018  0.00  0.00     0.087 H 
BRANCH  15  17
ATOM     17  N   GLU d   1      75.646 -75.012  14.402  0.00  0.00    -0.346 N 
ATOM     18  C   GLY d   1      74.489 -74.796  15.027  0.00  0.00     0.236 C 
ATOM     19  O   GLY d   1      74.424 -74.263  16.137  0.00  0.00    -0.272 OA
ATOM     20  H49 GLU d   1      75.646 -75.426  13.492  0.00  0.00     0.163 HD
BRANCH  18  21
ATOM     21  CA  GLY d   1      73.218 -75.228  14.315  0.00  0.00     0.069 C 
ATOM     22  H47 GLY d   1      73.373 -75.134  13.230  0.00  0.00     0.078 H 
ATOM     23  H48 GLY d   1      73.014 -76.279  14.567  0.00  0.00     0.078 H 
BRANCH  21  24
ATOM     24  N   GLY d   1      72.062 -74.425  14.692  0.00  0.00    -0.351 N 
ATOM     25  C   TRP d   1      71.966 -73.153  14.316  0.00  0.00     0.241 C 
ATOM     26  O   TRP d   1      72.863 -72.578  13.697  0.00  0.00    -0.271 OA
ATOM     27  H46 GLY d   1      71.333 -74.835  15.240  0.00  0.00     0.163 HD
BRANCH  25  28
ATOM     28  CA  TRP d   1      70.685 -72.405  14.685  0.00  0.00     0.093 C 
ATOM     29  H37 TRP d   1      70.079 -72.327  13.771  0.00  0.00     0.088 H 
BRANCH  28  30
ATOM     30  N   TRP d   1      69.869 -73.091  15.686  0.00  0.00    -0.346 N 
ATOM     31  C   ASP d   1      68.875 -73.888  15.317  0.00  0.00     0.241 C 
ATOM     32  O   ASP d   1      68.623 -74.134  14.135  0.00  0.00    -0.271 OA
ATOM     33  H36 TRP d   1      70.062 -72.958  16.658  0.00  0.00     0.163 HD
BRANCH  31  34
ATOM     34  CA  ASP d   1      68.039 -74.498  16.441  0.00  0.00     0.098 C 
ATOM     35  H33 ASP d   1      68.411 -74.112  17.402  0.00  0.00     0.088 H 
BRANCH  34  36
ATOM     36  N   ASP d   1      66.637 -74.128  16.300  0.00  0.00    -0.345 N 
ATOM     37  C   ILE d   1      66.045 -73.238  17.093  0.00  0.00     0.241 C 
ATOM     38  O   ILE d   1      66.631 -72.629  17.988  0.00  0.00    -0.271 OA
ATOM     39  H32 ASP d   1      66.097 -74.561  15.578  0.00  0.00     0.163 HD
BRANCH  37  40
ATOM     40  CA  ILE d   1      64.570 -72.990  16.827  0.00  0.00     0.092 C 
ATOM     41  H22 ILE d   1      64.232 -73.705  16.062  0.00  0.00     0.088 H 
BRANCH  40  42
ATOM     42  N   ILE d   1      63.749 -73.189  18.014  0.00  0.00    -0.346 N 
ATOM     43  C   ASN d   1      63.743 -74.334  18.686  0.00  0.00     0.240 C 
ATOM     44  O   ASN d   1      64.482 -75.282  18.415  0.00  0.00    -0.271 OA
ATOM     45  H21 ILE d   1      63.171 -72.438  18.333  0.00  0.00     0.163 HD
BRANCH  43  46
ATOM     46  CA  ASN d   1      62.724 -74.436  19.813  0.00  0.00     0.086 C 
ATOM     47  H17 ASN d   1      62.258 -73.454  19.981  0.00  0.00     0.086 H 
BRANCH  46  48
ATOM     48  N   ASN d   1      61.718 -75.385  19.371  0.00  0.00    -0.346 N 
ATOM     49  C   GLU d   1      60.856 -75.049  18.421  0.00  0.00     0.241 C 
ATOM     50  O   GLU d   1      60.662 -73.884  18.079  0.00  0.00    -0.271 OA
ATOM     51  H16 ASN d   1      61.675 -76.295  19.784  0.00  0.00     0.163 HD
BRANCH  49  52
ATOM     52  CA  GLU d   1      60.077 -76.178  17.775  0.00  0.00     0.090 C 
ATOM     53  H11 GLU d   1      59.909 -76.984  18.505  0.00  0.00     0.087 H 
BRANCH  52  54
ATOM     54  N   GLU d   1      58.802 -75.639  17.336  0.00  0.00    -0.346 N 
ATOM     55  C   HIS d   1      57.888 -75.249  18.215  0.00  0.00     0.249 C 
ATOM     56  O   HIS d   1      58.023 -75.396  19.432  0.00  0.00    -0.271 OA
ATOM     57  H10 GLU d   1      58.610 -75.561  16.358  0.00  0.00     0.163 HD
BRANCH  55  58
ATOM     58  CA  HIS d   1      56.632 -74.604  17.642  0.00  0.00     0.181 C 
ATOM     59  H4  HIS d   1      56.442 -75.025  16.644  0.00  0.00     0.099 H 
BRANCH  58  60
ATOM     60  N   HIS d   1      55.477 -74.888  18.492  0.00  0.00    -0.066 N 
ATOM     61  H1  HIS d   1      54.656 -74.455  18.099  0.00  0.00     0.275 HD
ATOM     62  H2  HIS d   1      55.641 -74.520  19.416  0.00  0.00     0.275 HD
ATOM     63  H3  HIS d   1      55.337 -75.885  18.547  0.00  0.00     0.275 HD
ENDBRANCH  58  60
BRANCH  58  64
ATOM     64  CB  HIS d   1      56.852 -73.094  17.504  0.00  0.00     0.011 C 
ATOM     65  H5  HIS d   1      57.721 -72.929  16.849  0.00  0.00     0.046 H 
ATOM     66  H6  HIS d   1      57.062 -72.682  18.502  0.00  0.00     0.046 H 
BRANCH  64  67
ATOM     67  CG  HIS d   1      55.682 -72.359  16.928  0.00  0.00     0.053 A 
ATOM     68  ND1 HIS d   1      55.407 -72.338  15.576  0.00  0.00    -0.247 NA
ATOM     69  CE1 HIS d   1      54.323 -71.611  15.361  0.00  0.00     0.064 A 
ATOM     70  NE2 HIS d   1      53.891 -71.154  16.523  0.00  0.00    -0.359 N 
ATOM     71  H8  HIS d   1      53.865 -71.421  14.392  0.00  0.00     0.143 H 
ATOM     72  CD2 HIS d   1      54.724 -71.604  17.519  0.00  0.00     0.002 A 
ATOM     73  H9  HIS d   1      53.063 -70.557  16.660  0.00  0.00     0.166 HD
ATOM     74  H7  HIS d   1      54.632 -71.394  18.584  0.00  0.00     0.114 H 
ENDBRANCH  64  67
ENDBRANCH  58  64
ENDBRANCH  55  58
ENDBRANCH  52  54
BRANCH  52  75
ATOM     75  CB  GLU d   1      60.866 -76.728  16.582  0.00  0.00    -0.029 C 
ATOM     76  H12 GLU d   1      60.277 -77.531  16.116  0.00  0.00     0.037 H 
ATOM     77  H13 GLU d   1      61.817 -77.138  16.953  0.00  0.00     0.037 H 
BRANCH  75  78
ATOM     78  CG  GLU d   1      61.176 -75.678  15.519  0.00  0.00     0.018 C 
ATOM     79  H14 GLU d   1      61.748 -74.864  15.987  0.00  0.00     0.049 H 
ATOM     80  H15 GLU d   1      60.226 -75.282  15.130  0.00  0.00     0.049 H 
BRANCH  78  81
ATOM     81  CD  GLU d   1      61.984 -76.230  14.354  0.00  0.00     0.172 C 
ATOM     82  OE1 GLU d   1      62.412 -77.403  14.424  0.00  0.00    -0.648 OA
ATOM     83  OE2 GLU d   1      62.188 -75.486  13.367  0.00  0.00    -0.648 OA
ENDBRANCH  78  81
ENDBRANCH  75  78
ENDBRANCH  52  75
ENDBRANCH  49  52
ENDBRANCH  46  48
BRANCH  46  84
ATOM     84  CB  ASN d   1      63.384 -74.892  21.111  0.00  0.00    -0.049 C 
ATOM     85  H18 ASN d   1      64.139 -74.153  21.418  0.00  0.00     0.030 H 
ATOM     86  H19 ASN d   1      63.868 -75.867  20.953  0.00  0.00     0.030 H 
ATOM     87  H20 ASN d   1      62.621 -74.984  21.898  0.00  0.00     0.030 H 
ENDBRANCH  46  84
ENDBRANCH  43  46
ENDBRANCH  40  42
BRANCH  40  88
ATOM     88  CB  ILE d   1      64.408 -71.564  16.269  0.00  0.00    -0.030 C 
ATOM     89  H23 ILE d   1      64.670 -70.851  17.064  0.00  0.00     0.043 H 
BRANCH  88  90
ATOM     90  CG1 ILE d   1      62.951 -71.309  15.866  0.00  0.00    -0.063 C 
ATOM     91  H24 ILE d   1      62.904 -70.349  15.332  0.00  0.00     0.033 H 
ATOM     92  H25 ILE d   1      62.345 -71.249  16.782  0.00  0.00     0.033 H 
BRANCH  90  93
ATOM     93  CD1 ILE d   1      62.357 -72.381  14.971  0.00  0.00    -0.076 C 
ATOM     94  H29 ILE d   1      61.315 -72.122  14.730  0.00  0.00     0.027 H 
ATOM     95  H30 ILE d   1      62.383 -73.350  15.492  0.00  0.00     0.027 H 
ATOM     96  H31 ILE d   1      62.942 -72.448  14.042  0.00  0.00     0.027 H 
ENDBRANCH  90  93
ENDBRANCH  88  90
BRANCH  88  97
ATOM     97  CG2 ILE d   1      65.363 -71.342  15.106  0.00  0.00    -0.071 C 
ATOM     98  H26 ILE d   1      66.394 -71.535  15.437  0.00  0.00     0.028 H 
ATOM     99  H27 ILE d   1      65.279 -70.303  14.755  0.00  0.00     0.028 H 
ATOM    100  H28 ILE d   1      65.107 -72.028  14.285  0.00  0.00     0.028 H 
ENDBRANCH  88  97
ENDBRANCH  40  88
ENDBRANCH  37  40
ENDBRANCH  34  36
BRANCH  34 101
ATOM    101  CB  ASP d   1      68.170 -76.024  16.440  0.00  0.00     0.043 C 
ATOM    102  H34 ASP d   1      67.626 -76.422  15.571  0.00  0.00     0.052 H 
ATOM    103  H35 ASP d   1      67.720 -76.415  17.364  0.00  0.00     0.052 H 
BRANCH 101 104
ATOM    104  CG  ASP d   1      69.612 -76.495  16.366  0.00  0.00     0.175 C 
ATOM    105  OD1 ASP d   1      70.529 -75.680  16.598  0.00  0.00    -0.648 OA
ATOM    106  OD2 ASP d   1      69.826 -77.695  16.086  0.00  0.00    -0.648 OA
ENDBRANCH 101 104
ENDBRANCH  34 101
ENDBRANCH  31  34
ENDBRANCH  28  30
BRANCH  28 107
ATOM    107  CB  TRP d   1      71.019 -70.986  15.149  0.00  0.00    -0.012 C 
ATOM    108  H38 TRP d   1      71.695 -70.530  14.411  0.00  0.00     0.044 H 
ATOM    109  H39 TRP d   1      71.528 -71.050  16.122  0.00  0.00     0.044 H 
BRANCH 107 110
ATOM    110  CG  TRP d   1      69.816 -70.101  15.300  0.00  0.00    -0.028 A 
ATOM    111  CD1 TRP d   1      68.992 -70.007  16.391  0.00  0.00    -0.015 A 
ATOM    112  NE1 TRP d   1      68.002 -69.076  16.158  0.00  0.00    -0.365 N 
ATOM    113  H40 TRP d   1      69.103 -70.584  17.308  0.00  0.00     0.112 H 
ATOM    114  CE2 TRP d   1      68.174 -68.554  14.902  0.00  0.00     0.042 A 
ATOM    115  H41 TRP d   1      67.256 -68.816  16.819  0.00  0.00     0.165 HD
ATOM    116  CD2 TRP d   1      69.309 -69.173  14.335  0.00  0.00    -0.002 A 
ATOM    117  CZ2 TRP d   1      67.431 -67.592  14.221  0.00  0.00    -0.056 A 
ATOM    118  CE3 TRP d   1      69.702 -68.808  13.043  0.00  0.00    -0.070 A 
ATOM    119  CZ3 TRP d   1      68.963 -67.854  12.371  0.00  0.00    -0.082 A 
ATOM    120  H42 TRP d   1      70.569 -69.264  12.579  0.00  0.00     0.084 H 
ATOM    121  CH2 TRP d   1      67.841 -67.257  12.961  0.00  0.00    -0.081 A 
ATOM    122  H44 TRP d   1      69.256 -67.562  11.369  0.00  0.00     0.083 H 
ATOM    123  H45 TRP d   1      67.285 -66.511  12.405  0.00  0.00     0.083 H 
ATOM    124  H43 TRP d   1      66.562 -67.127  14.673  0.00  0.00     0.086 H 
ENDBRANCH 107 110
ENDBRANCH  28 107
ENDBRANCH  25  28
ENDBRANCH  21  24
ENDBRANCH  18  21
ENDBRANCH  15  17
BRANCH  15 125
ATOM    125  CB  GLU d   1      78.113 -75.149  14.205  0.00  0.00    -0.029 C 
ATOM    126  H51 GLU d   1      78.109 -74.614  13.244  0.00  0.00     0.037 H 
ATOM    127  H52 GLU d   1      77.978 -76.226  14.026  0.00  0.00     0.037 H 
BRANCH 125 128
ATOM    128  CG  GLU d   1      79.481 -74.942  14.860  0.00  0.00     0.018 C 
ATOM    129  H53 GLU d   1      79.603 -73.874  15.092  0.00  0.00     0.049 H 
ATOM    130  H54 GLU d   1      80.262 -75.254  14.151  0.00  0.00     0.049 H 
BRANCH 128 131
ATOM    131  CD  GLU d   1      79.641 -75.739  16.142  0.00  0.00     0.172 C 
ATOM    132  OE1 GLU d   1      78.719 -75.695  16.981  0.00  0.00    -0.648 OA
ATOM    133  OE2 GLU d   1      80.688 -76.402  16.323  0.00  0.00    -0.648 OA
ENDBRANCH 128 131
ENDBRANCH 125 128
ENDBRANCH  15 125
ENDBRANCH   1  15
BRANCH   4 134
ATOM    134  C   PRO d   1      78.678 -70.759  15.825  0.00  0.00     0.241 C 
ATOM    135  O   PRO d   1      79.668 -71.469  15.597  0.00  0.00    -0.271 OA
ATOM    136  N   LYS d   1      78.528 -69.531  15.344  0.00  0.00    -0.346 N 
ATOM    137  H62 LYS d   1      77.744 -68.986  15.640  0.00  0.00     0.163 HD
BRANCH 136 138
ATOM    138  CA  LYS d   1      79.475 -68.954  14.396  0.00  0.00     0.089 C 
ATOM    139  H63 LYS d   1      80.326 -69.642  14.283  0.00  0.00     0.087 H 
BRANCH 138 140
ATOM    140  C   LYS d   1      79.989 -67.611  14.880  0.00  0.00     0.241 C 
ATOM    141  O   LYS d   1      79.252 -66.854  15.519  0.00  0.00    -0.271 OA
ATOM    142  N   ASP d   1      81.253 -67.322  14.575  0.00  0.00    -0.346 N 
ATOM    143  H75 ASP d   1      81.832 -68.037  14.182  0.00  0.00     0.163 HD
BRANCH 142 144
ATOM    144  CA  ASP d   1      81.819 -65.998  14.796  0.00  0.00     0.098 C 
ATOM    145  H76 ASP d   1      82.884 -66.015  14.520  0.00  0.00     0.088 H 
BRANCH 144 146
ATOM    146  C   ASP d   1      81.707 -65.626  16.275  0.00  0.00     0.241 C 
ATOM    147  O   ASP d   1      82.193 -66.356  17.147  0.00  0.00    -0.271 OA
ATOM    148  N   LYS d   1      81.068 -64.498  16.562  0.00  0.00    -0.346 N 
ATOM    149  H79 LYS d   1      80.644 -63.967  15.828  0.00  0.00     0.163 HD
BRANCH 148 150
ATOM    150  CA  LYS d   1      80.979 -64.026  17.943  0.00  0.00     0.089 C 
ATOM    151  H80 LYS d   1      81.867 -64.418  18.462  0.00  0.00     0.087 H 
BRANCH 150 152
ATOM    152  C   LYS d   1      79.764 -64.555  18.708  0.00  0.00     0.241 C 
ATOM    153  O   LYS d   1      79.525 -64.141  19.841  0.00  0.00    -0.271 OA
ATOM    154  N   GLU d   1      79.007 -65.474  18.120  0.00  0.00    -0.346 N 
ATOM    155  H92 GLU d   1      79.156 -65.705  17.159  0.00  0.00     0.163 HD
BRANCH 154 156
ATOM    156  CA  GLU d   1      77.949 -66.151  18.884  0.00  0.00     0.090 C 
ATOM    157  H93 GLU d   1      77.317 -65.392  19.370  0.00  0.00     0.087 H 
BRANCH 156 158
ATOM    158  C   GLU d   1      78.587 -67.038  19.960  0.00  0.00     0.241 C 
ATOM    159  O   GLU d   1      79.430 -67.866  19.654  0.00  0.00    -0.271 OA
ATOM    160  N   VAL d   1      78.213 -66.856  21.227  0.00  0.00    -0.346 N 
ATOM    161  H98 VAL d   1      77.533 -66.160  21.456  0.00  0.00     0.163 HD
BRANCH 160 162
ATOM    162  CA  VAL d   1      78.809 -67.688  22.288  0.00  0.00     0.092 C 
ATOM    163  H99 VAL d   1      79.771 -68.038  21.886  0.00  0.00     0.088 H 
BRANCH 162 164
ATOM    164  C   VAL d   1      78.007 -68.937  22.629  0.00  0.00     0.241 C 
ATOM    165  O   VAL d   1      78.522 -69.853  23.268  0.00  0.00    -0.271 OA
ATOM    166  N   TRP d   1      76.750 -68.961  22.206  0.00  0.00    -0.344 N 
ATOM    167 7H10 TRP d   1      76.380 -68.156  21.741  0.00  0.00     0.163 HD
BRANCH 166 168
ATOM    168  CA  TRP d   1      75.889 -70.125  22.397  0.00  0.00     0.100 C 
ATOM    169 8H10 TRP d   1      76.484 -71.028  22.192  0.00  0.00     0.090 H 
BRANCH 168 170
ATOM    170  C   TRP d   1      74.721 -70.101  21.414  0.00  0.00     0.197 C 
ATOM    171  O   TRP d   1      73.881 -70.997  21.388  0.00  0.00    -0.646 OA
ATOM    172  OXT TRP d   1      74.574 -69.185  20.609  0.00  0.00    -0.646 OA
ENDBRANCH 168 170
BRANCH 168 173
ATOM    173  CB  TRP d   1      75.405 -70.198  23.850  0.00  0.00    -0.011 C 
ATOM    174 9H10 TRP d   1      76.289 -70.239  24.503  0.00  0.00     0.044 H 
ATOM    175 0H11 TRP d   1      74.818 -71.121  23.969  0.00  0.00     0.044 H 
BRANCH 173 176
ATOM    176  CG  TRP d   1      74.544 -69.031  24.296  0.00  0.00    -0.028 A 
ATOM    177  CD1 TRP d   1      74.246 -67.887  23.597  0.00  0.00    -0.015 A 
ATOM    178  NE1 TRP d   1      73.420 -67.074  24.357  0.00  0.00    -0.365 N 
ATOM    179 1H11 TRP d   1      74.605 -67.654  22.596  0.00  0.00     0.112 H 
ATOM    180  CE2 TRP d   1      73.173 -67.691  25.547  0.00  0.00     0.042 A 
ATOM    181 2H11 TRP d   1      73.053 -66.155  24.070  0.00  0.00     0.165 HD
ATOM    182  CD2 TRP d   1      73.855 -68.928  25.546  0.00  0.00    -0.002 A 
ATOM    183  CZ2 TRP d   1      72.397 -67.279  26.641  0.00  0.00    -0.056 A 
ATOM    184  CE3 TRP d   1      73.767 -69.758  26.662  0.00  0.00    -0.070 A 
ATOM    185  CZ3 TRP d   1      72.999 -69.338  27.748  0.00  0.00    -0.082 A 
ATOM    186 3H11 TRP d   1      74.285 -70.710  26.686  0.00  0.00     0.084 H 
ATOM    187  CH2 TRP d   1      72.330 -68.111  27.726  0.00  0.00    -0.081 A 
ATOM    188 5H11 TRP d   1      72.920 -69.973  28.623  0.00  0.00     0.083 H 
ATOM    189 6H11 TRP d   1      71.745 -67.811  28.588  0.00  0.00     0.083 H 
ATOM    190 4H11 TRP d   1      71.868 -66.333  26.628  0.00  0.00     0.086 H 
ENDBRANCH 173 176
ENDBRANCH 168 173
ENDBRANCH 166 168
ENDBRANCH 162 164
BRANCH 162 191
ATOM    191  CB  VAL d   1      79.134 -66.899  23.582  0.00  0.00    -0.033 C 
ATOM    192 0H10 VAL d   1      79.634 -67.588  24.278  0.00  0.00     0.042 H 
BRANCH 191 193
ATOM    193  CG1 VAL d   1      80.115 -65.749  23.277  0.00  0.00    -0.071 C 
ATOM    194 1H10 VAL d   1      80.335 -65.200  24.204  0.00  0.00     0.028 H 
ATOM    195 2H10 VAL d   1      79.662 -65.065  22.544  0.00  0.00     0.028 H 
ATOM    196 3H10 VAL d   1      81.048 -66.162  22.865  0.00  0.00     0.028 H 
ENDBRANCH 191 193
BRANCH 191 197
ATOM    197  CG2 VAL d   1      77.862 -66.398  24.269  0.00  0.00    -0.071 C 
ATOM    198 4H10 VAL d   1      77.193 -67.249  24.467  0.00  0.00     0.028 H 
ATOM    199 5H10 VAL d   1      77.352 -65.675  23.615  0.00  0.00     0.028 H 
ATOM    200 6H10 VAL d   1      78.126 -65.910  25.219  0.00  0.00     0.028 H 
ENDBRANCH 191 197
ENDBRANCH 162 191
ENDBRANCH 160 162
ENDBRANCH 156 158
BRANCH 156 201
ATOM    201  CB  GLU d   1      77.075 -67.005  17.958  0.00  0.00    -0.029 C 
ATOM    202  H94 GLU d   1      76.255 -67.430  18.555  0.00  0.00     0.037 H 
ATOM    203  H95 GLU d   1      77.695 -67.819  17.555  0.00  0.00     0.037 H 
BRANCH 201 204
ATOM    204  CG  GLU d   1      76.468 -66.250  16.790  0.00  0.00     0.018 C 
ATOM    205  H96 GLU d   1      77.263 -65.683  16.284  0.00  0.00     0.049 H 
ATOM    206  H97 GLU d   1      75.708 -65.554  17.175  0.00  0.00     0.049 H 
BRANCH 204 207
ATOM    207  CD  GLU d   1      75.815 -67.178  15.785  0.00  0.00     0.172 C 
ATOM    208  OE1 GLU d   1      75.240 -66.677  14.795  0.00  0.00    -0.648 OA
ATOM    209  OE2 GLU d   1      75.876 -68.413  15.987  0.00  0.00    -0.648 OA
ENDBRANCH 204 207
ENDBRANCH 201 204
ENDBRANCH 156 201
ENDBRANCH 154 156
ENDBRANCH 150 152
BRANCH 150 210
ATOM    210  CB  LYS d   1      81.058 -62.496  18.017  0.00  0.00    -0.038 C 
ATOM    211  H81 LYS d   1      80.925 -62.189  19.065  0.00  0.00     0.036 H 
ATOM    212  H82 LYS d   1      80.247 -62.074  17.405  0.00  0.00     0.036 H 
BRANCH 210 213
ATOM    213  CG  LYS d   1      82.398 -61.936  17.509  0.00  0.00    -0.061 C 
ATOM    214  H83 LYS d   1      82.536 -62.242  16.462  0.00  0.00     0.033 H 
ATOM    215  H84 LYS d   1      83.211 -62.352  18.122  0.00  0.00     0.033 H 
BRANCH 213 216
ATOM    216  CD  LYS d   1      82.453 -60.414  17.587  0.00  0.00    -0.043 C 
ATOM    217  H85 LYS d   1      83.468 -60.081  17.325  0.00  0.00     0.035 H 
ATOM    218  H86 LYS d   1      82.218 -60.101  18.615  0.00  0.00     0.035 H 
BRANCH 216 219
ATOM    219  CE  LYS d   1      81.461 -59.764  16.637  0.00  0.00     0.080 C 
ATOM    220  H87 LYS d   1      81.499 -58.673  16.775  0.00  0.00     0.075 H 
ATOM    221  H88 LYS d   1      80.451 -60.129  16.874  0.00  0.00     0.075 H 
BRANCH 219 222
ATOM    222  NZ  LYS d   1      81.769 -60.083  15.196  0.00  0.00    -0.079 N 
ATOM    223  H89 LYS d   1      81.091 -59.635  14.600  0.00  0.00     0.274 HD
ATOM    224  H90 LYS d   1      81.731 -61.081  15.057  0.00  0.00     0.274 HD
ATOM    225  H91 LYS d   1      82.691 -59.747  14.967  0.00  0.00     0.274 HD
ENDBRANCH 219 222
ENDBRANCH 216 219
ENDBRANCH 213 216
ENDBRANCH 210 213
ENDBRANCH 150 210
ENDBRANCH 148 150
ENDBRANCH 144 146
BRANCH 144 226
ATOM    226  CB  ASP d   1      81.098 -64.973  13.904  0.00  0.00     0.043 C 
ATOM    227  H77 ASP d   1      80.039 -64.935  14.200  0.00  0.00     0.052 H 
ATOM    228  H78 ASP d   1      81.175 -65.304  12.858  0.00  0.00     0.052 H 
BRANCH 226 229
ATOM    229  CG  ASP d   1      81.681 -63.573  14.013  0.00  0.00     0.175 C 
ATOM    230  OD1 ASP d   1      82.912 -63.408  13.841  0.00  0.00    -0.648 OA
ATOM    231  OD2 ASP d   1      80.900 -62.632  14.275  0.00  0.00    -0.648 OA
ENDBRANCH 226 229
ENDBRANCH 144 226
ENDBRANCH 142 144
ENDBRANCH 138 140
BRANCH 138 232
ATOM    232  CB  LYS d   1      78.799 -68.762  13.039  0.00  0.00    -0.038 C 
ATOM    233  H64 LYS d   1      79.538 -68.337  12.343  0.00  0.00     0.036 H 
ATOM    234  H65 LYS d   1      77.966 -68.055  13.166  0.00  0.00     0.036 H 
BRANCH 232 235
ATOM    235  CG  LYS d   1      78.248 -70.040  12.426  0.00  0.00    -0.061 C 
ATOM    236  H66 LYS d   1      77.427 -69.785  11.739  0.00  0.00     0.033 H 
ATOM    237  H67 LYS d   1      77.867 -70.689  13.228  0.00  0.00     0.033 H 
BRANCH 235 238
ATOM    238  CD  LYS d   1      79.325 -70.781  11.658  0.00  0.00    -0.043 C 
ATOM    239  H68 LYS d   1      78.916 -71.734  11.291  0.00  0.00     0.035 H 
ATOM    240  H69 LYS d   1      80.174 -70.980  12.329  0.00  0.00     0.035 H 
BRANCH 238 241
ATOM    241  CE  LYS d   1      79.807 -69.957  10.475  0.00  0.00     0.080 C 
ATOM    242  H70 LYS d   1      80.270 -69.033  10.853  0.00  0.00     0.075 H 
ATOM    243  H71 LYS d   1      78.942 -69.703   9.845  0.00  0.00     0.075 H 
BRANCH 241 244
ATOM    244  NZ  LYS d   1      80.809 -70.690   9.641  0.00  0.00    -0.079 N 
ATOM    245  H72 LYS d   1      81.098 -70.106   8.872  0.00  0.00     0.274 HD
ATOM    246  H73 LYS d   1      80.394 -71.536   9.283  0.00  0.00     0.274 HD
ATOM    247  H74 LYS d   1      81.611 -70.922  10.206  0.00  0.00     0.274 HD
ENDBRANCH 241 244
ENDBRANCH 238 241
ENDBRANCH 235 238
ENDBRANCH 232 235
ENDBRANCH 138 232
ENDBRANCH 136 138
ENDBRANCH   4 134
TORSDOF 66
