REMARK  4 active torsions:
REMARK  status: ('A' for Active; 'I' for Inactive)
REMARK    1  A    between atoms: N6_8  and  C6_3 
REMARK       I    between atoms: C13_16  and  N6_8 
REMARK    2  A    between atoms: C3_11  and  C13_16 
REMARK    3  A    between atoms: C1_17  and  C19_22 
REMARK    4  A    between atoms: N2_23  and  C23_28 
ROOT
ATOM      1  C3  5WO d   1      82.742  66.751  54.725  0.00  0.00     0.033 C 
ATOM      2  C7  5WO d   1      83.782  67.686  54.692  0.00  0.00    -0.057 C 
ATOM      3  C10 5WO d   1      85.339  66.360  55.801  0.00  0.00    -0.072 C 
ATOM      4  C11 5WO d   1      84.371  65.353  55.817  0.00  0.00    -0.081 C 
ATOM      5  C12 5WO d   1      83.110  65.513  55.229  0.00  0.00    -0.068 C 
ATOM      6  C19 5WO d   1      84.983  67.619  55.362  0.00  0.00    -0.025 C 
ATOM      7  H5  5WO d   1      83.625  68.560  54.070  0.00  0.00     0.086 H 
ATOM      8  H6  5WO d   1      86.352  66.156  56.128  0.00  0.00     0.084 H 
ATOM      9  H7  5WO d   1      84.605  64.412  56.303  0.00  0.00     0.083 H 
ATOM     10  H8  5WO d   1      82.426  64.674  55.168  0.00  0.00     0.085 H 
ENDROOT
BRANCH   6  11
ATOM     11  C1  5WO d   1      85.836  68.709  55.219  0.00  0.00    -0.024 C 
ATOM     12  C14 5WO d   1      87.226  68.658  55.159  0.00  0.00    -0.046 C 
ATOM     13  C23 5WO d   1      87.974  69.832  55.110  0.00  0.00     0.039 C 
ATOM     14  H9  5WO d   1      87.730  67.698  55.150  0.00  0.00     0.088 H 
ATOM     15  C16 5WO d   1      87.369  71.065  55.359  0.00  0.00    -0.057 C 
ATOM     16  C17 5WO d   1      86.003  71.116  55.568  0.00  0.00    -0.080 C 
ATOM     17  H10 5WO d   1      87.963  71.972  55.388  0.00  0.00     0.086 H 
ATOM     18  C18 5WO d   1      85.260  69.941  55.540  0.00  0.00    -0.072 C 
ATOM     19  H11 5WO d   1      85.514  72.066  55.752  0.00  0.00     0.083 H 
ATOM     20  H12 5WO d   1      84.202  69.982  55.774  0.00  0.00     0.084 H 
BRANCH  13  21
ATOM     21  N2  5WO d   1      89.294  69.809  54.952  0.00  0.00    -0.333 N 
ATOM     22  C9  5WO d   1      89.929  68.687  54.621  0.00  0.00    -0.015 A 
ATOM     23  C20 5WO d   1      91.225  68.962  54.572  0.00  0.00    -0.066 A 
ATOM     24  H13 5WO d   1      89.468  67.720  54.426  0.00  0.00     0.112 H 
ATOM     25  C21 5WO d   1      91.393  70.248  54.876  0.00  0.00    -0.066 A 
ATOM     26  H14 5WO d   1      92.017  68.257  54.325  0.00  0.00     0.085 H 
ATOM     27  C22 5WO d   1      90.193  70.779  55.114  0.00  0.00    -0.015 A 
ATOM     28  H15 5WO d   1      92.345  70.775  54.922  0.00  0.00     0.085 H 
ATOM     29  H16 5WO d   1      89.987  71.812  55.389  0.00  0.00     0.112 H 
ENDBRANCH  13  21
ENDBRANCH   6  11
BRANCH   1  30
ATOM     30  C13 5WO d   1      81.533  66.892  54.000  0.00  0.00     0.257 C 
ATOM     31  N6  5WO d   1      81.446  67.536  52.756  0.00  0.00    -0.305 N 
ATOM     32  H3  5WO d   1      80.535  67.571  52.344  0.00  0.00     0.170 HD
ATOM     33  O1  5WO d   1      80.522  66.405  54.516  0.00  0.00    -0.267 OA
BRANCH  31  34
ATOM     34  C6  5WO d   1      82.449  68.121  52.038  0.00  0.00     0.164 C 
ATOM     35  C5  5WO d   1      82.190  68.667  50.832  0.00  0.00     0.149 A 
ATOM     36  C4  5WO d   1      83.204  69.107  50.062  0.00  0.00     0.162 A 
ATOM     37  N7  5WO d   1      81.094  69.240  50.357  0.00  0.00    -0.236 NA
ATOM     38  N3  5WO d   1      84.479  68.768  50.282  0.00  0.00    -0.222 NA
ATOM     39  N9  5WO d   1      82.707  69.838  49.075  0.00  0.00    -0.333 N 
ATOM     40  C2  5WO d   1      84.772  68.000  51.379  0.00  0.00     0.091 C 
ATOM     41  N1  5WO d   1      83.682  67.627  52.132  0.00  0.00    -0.222 NA
ATOM     42  H2  5WO d   1      85.785  67.709  51.634  0.00  0.00     0.146 H 
ATOM     43  C8  5WO d   1      81.400  69.918  49.255  0.00  0.00     0.066 A 
ATOM     44  H4  5WO d   1      83.242  70.266  48.306  0.00  0.00     0.168 HD
ATOM     45  H1  5WO d   1      80.697  70.447  48.613  0.00  0.00     0.143 H 
ENDBRANCH  31  34
ENDBRANCH   1  30
TORSDOF 4
