REMARK  31 active torsions:
REMARK  status: ('A' for Active; 'I' for Inactive)
REMARK    1  A    between atoms: CA_1  and  CB_2 
REMARK    2  A    between atoms: CB_2  and  CG_3 
REMARK    3  A    between atoms: CB_2  and  OB_18 
REMARK    4  A    between atoms: NE2_8  and  C1_9 
REMARK    5  A    between atoms: C1_9  and  C2_10 
REMARK    6  A    between atoms: C1_9  and  C3_11 
REMARK    7  A    between atoms: C1_9  and  C4_19 
REMARK    8  A    between atoms: N_22  and  CN_23 
REMARK    9  A    between atoms: CA_24  and  CB_25 
REMARK   10  A    between atoms: CB_25  and  CG_26 
REMARK   11  A    between atoms: CG_26  and  CG1_27 
REMARK   12  A    between atoms: CG_26  and  CG2_29 
REMARK   13  A    between atoms: CG1_27  and  O4_28 
REMARK   14  A    between atoms: CA_33  and  CB_36 
REMARK   15  A    between atoms: CA_38  and  CB_40 
REMARK   16  A    between atoms: CB_40  and  OB_41 
REMARK   17  A    between atoms: CB_40  and  CG_43 
REMARK   18  A    between atoms: OB_41  and  CB1_42 
REMARK   19  A    between atoms: CA_51  and  CB_54 
REMARK   20  A    between atoms: CB_54  and  CG1_55 
REMARK   21  A    between atoms: CB_54  and  CG2_56 
REMARK   22  A    between atoms: N_57  and  CN_58 
REMARK   23  A    between atoms: CA_59  and  CB_60 
REMARK   24  A    between atoms: CB_60  and  CG_61 
REMARK   25  A    between atoms: CG_61  and  CD1_62 
REMARK   26  A    between atoms: CG_61  and  CD2_63 
REMARK   27  A    between atoms: CA_67  and  CB_69 
REMARK   28  A    between atoms: CB_69  and  CG2_70 
REMARK   29  A    between atoms: CB_69  and  CG1_71 
REMARK   30  A    between atoms: CD_72  and  CE1_73 
REMARK   31  A    between atoms: CD_72  and  CE2_74 
ROOT
ATOM      1  CA  54C d   1      31.696 -33.709  -2.549  0.00  0.00     0.278 A 
ATOM      2  N   54C d   1      31.807 -32.534  -1.684  0.00  0.00    -0.074 NA
ATOM      3  C   54C d   1      32.123 -35.010  -1.900  0.00  0.00     0.278 C 
ATOM      4  O   54C d   1      33.209 -34.946  -1.367  0.00  0.00    -0.268 OA
ATOM      5  N   WLU d   1      31.377 -36.155  -1.872  0.00  0.00    -0.339 N 
ATOM      6  CA  WLU d   1      30.066 -36.256  -2.546  0.00  0.00     0.091 C 
ATOM      7  C   WLU d   1      29.053 -36.634  -1.487  0.00  0.00     0.241 C 
ATOM      8  O   WLU d   1      28.607 -37.768  -1.502  0.00  0.00    -0.271 OA
ATOM      9  H20 WLU d   1      29.818 -35.256  -2.930  0.00  0.00     0.087 H 
ATOM     10  N   ALA d   1      28.649 -35.739  -0.557  0.00  0.00    -0.346 N 
ATOM     11  CA  ALA d   1      27.676 -36.193   0.440  0.00  0.00     0.086 C 
ATOM     12  C   ALA d   1      26.691 -35.111   0.831  0.00  0.00     0.240 C 
ATOM     13  O   ALA d   1      25.675 -35.480   1.398  0.00  0.00    -0.271 OA
ATOM     14  H30 ALA d   1      29.001 -34.803  -0.550  0.00  0.00     0.163 HD
ATOM     15  H31 ALA d   1      27.111 -37.031   0.005  0.00  0.00     0.086 H 
ATOM     16  N   WPA d   1      27.003 -33.813   0.552  0.00  0.00    -0.343 N 
ATOM     17  CA  WPA d   1      26.138 -32.672   0.895  0.00  0.00     0.118 C 
ATOM     18  C   WPA d   1      26.435 -31.517  -0.042  0.00  0.00     0.244 C 
ATOM     19  O   WPA d   1      27.340 -31.627  -0.856  0.00  0.00    -0.271 OA
ATOM     20  H35 WPA d   1      27.869 -33.626   0.088  0.00  0.00     0.163 HD
ATOM     21  H36 WPA d   1      25.093 -32.987   0.758  0.00  0.00     0.092 H 
ATOM     22  N   VAL d   1      25.697 -30.388   0.089  0.00  0.00    -0.346 N 
ATOM     23  CA  VAL d   1      25.935 -29.199  -0.740  0.00  0.00     0.092 C 
ATOM     24  C   VAL d   1      26.748 -28.245   0.124  0.00  0.00     0.243 C 
ATOM     25  O   VAL d   1      26.168 -27.882   1.130  0.00  0.00    -0.271 OA
ATOM     26  H46 VAL d   1      24.967 -30.364   0.772  0.00  0.00     0.163 HD
ATOM     27  H47 VAL d   1      26.547 -29.497  -1.604  0.00  0.00     0.088 H 
ATOM     28  N   MLE d   1      28.039 -27.896  -0.155  0.00  0.00    -0.341 N 
ATOM     29  CA  MLE d   1      28.722 -28.379  -1.370  0.00  0.00     0.091 C 
ATOM     30  C   MLE d   1      30.044 -29.026  -0.977  0.00  0.00     0.241 C 
ATOM     31  O   MLE d   1      31.102 -28.461  -1.217  0.00  0.00    -0.271 OA
ATOM     32  H58 MLE d   1      28.072 -29.199  -1.708  0.00  0.00     0.087 H 
ATOM     33  C   WVL d   1      30.996 -32.285  -0.634  0.00  0.00     0.249 C 
ATOM     34  CA  WVL d   1      31.166 -30.966   0.087  0.00  0.00     0.093 C 
ATOM     35  O   WVL d   1      30.079 -33.021  -0.291  0.00  0.00    -0.275 OA
ATOM     36  N   WVL d   1      29.981 -30.213  -0.333  0.00  0.00    -0.346 N 
ATOM     37  OXT WVL d   1      31.782 -32.563  -1.531  0.00  0.00    -0.249 OA
ATOM     38  H68 WVL d   1      32.081 -30.457  -0.249  0.00  0.00     0.087 H 
ATOM     39  H80 WVL d   1      29.079 -30.597  -0.133  0.00  0.00     0.163 HD
ENDROOT
BRANCH   1  40
ATOM     40  CB  54C d   1      32.485 -33.385  -3.841  0.00  0.00     0.119 C 
ATOM     41  H1  54C d   1      33.519 -33.178  -3.528  0.00  0.00     0.098 H 
BRANCH  40  42
ATOM     42  CG  54C d   1      32.578 -34.510  -4.843  0.00  0.00     0.003 A 
ATOM     43  CD1 54C d   1      31.853 -34.658  -5.953  0.00  0.00    -0.009 A 
ATOM     44  NE2 54C d   1      32.278 -35.682  -6.660  0.00  0.00    -0.344 N 
ATOM     45  H2  54C d   1      31.020 -34.016  -6.236  0.00  0.00     0.112 H 
ATOM     46  CE2 54C d   1      33.383 -36.224  -6.088  0.00  0.00     0.046 A 
ATOM     47  CD2 54C d   1      33.666 -35.549  -4.908  0.00  0.00     0.001 A 
ATOM     48  CH2 54C d   1      34.186 -37.310  -6.462  0.00  0.00    -0.056 A 
ATOM     49  CE3 54C d   1      34.768 -35.830  -4.103  0.00  0.00    -0.070 A 
ATOM     50  CZ3 54C d   1      35.570 -36.913  -4.490  0.00  0.00    -0.082 A 
ATOM     51  H9  54C d   1      34.994 -35.241  -3.222  0.00  0.00     0.084 H 
ATOM     52  C70 54C d   1      35.281 -37.639  -5.652  0.00  0.00    -0.081 A 
ATOM     53  H10 54C d   1      36.424 -37.191  -3.883  0.00  0.00     0.083 H 
ATOM     54  H11 54C d   1      35.917 -38.472  -5.930  0.00  0.00     0.083 H 
ATOM     55  H12 54C d   1      33.965 -37.882  -7.356  0.00  0.00     0.087 H 
BRANCH  44  56
ATOM     56  C1  54C d   1      31.624 -36.116  -7.913  0.00  0.00     0.058 C 
BRANCH  56  57
ATOM     57  C2  54C d   1      30.545 -35.098  -8.393  0.00  0.00    -0.050 C 
ATOM     58  H3  54C d   1      30.087 -35.461  -9.325  0.00  0.00     0.030 H 
ATOM     59  H4  54C d   1      31.017 -34.121  -8.573  0.00  0.00     0.030 H 
ATOM     60  H5  54C d   1      29.770 -34.994  -7.620  0.00  0.00     0.030 H 
ENDBRANCH  56  57
BRANCH  56  61
ATOM     61  C3  54C d   1      31.068 -37.555  -7.729  0.00  0.00    -0.050 C 
ATOM     62  H6  54C d   1      30.581 -37.882  -8.659  0.00  0.00     0.030 H 
ATOM     63  H7  54C d   1      30.335 -37.563  -6.909  0.00  0.00     0.030 H 
ATOM     64  H8  54C d   1      31.895 -38.240  -7.489  0.00  0.00     0.030 H 
ENDBRANCH  56  61
BRANCH  56  65
ATOM     65  C4  54C d   1      32.698 -36.066  -9.040  0.00  0.00     0.083 A 
ATOM     66  C5  54C d   1      33.161 -34.608  -9.451  0.00  0.00     0.046 A 
ATOM     67  O6  54C d   1      32.399 -35.462 -10.268  0.00  0.00    -0.379 OA
ATOM     68  H15 54C d   1      34.215 -34.398  -9.686  0.00  0.00     0.078 H 
ATOM     69  H16 54C d   1      32.706 -33.721  -8.986  0.00  0.00     0.078 H 
ATOM     70  H14 54C d   1      33.388 -36.920  -8.975  0.00  0.00     0.090 H 
ENDBRANCH  56  65
ENDBRANCH  44  56
ENDBRANCH  40  42
BRANCH  40  71
ATOM     71  OB  54C d   1      31.975 -32.174  -4.423  0.00  0.00    -0.386 OA
ATOM     72  H13 54C d   1      31.934 -31.497  -3.758  0.00  0.00     0.210 HD
ENDBRANCH  40  71
ENDBRANCH   1  40
BRANCH   5  73
ATOM     73  CN  WLU d   1      31.933 -37.345  -1.217  0.00  0.00    -0.015 C 
ATOM     74  H17 WLU d   1      32.906 -37.096  -0.769  0.00  0.00     0.056 H 
ATOM     75  H18 WLU d   1      32.066 -38.145  -1.961  0.00  0.00     0.056 H 
ATOM     76  H19 WLU d   1      31.244 -37.686  -0.431  0.00  0.00     0.056 H 
ENDBRANCH   5  73
BRANCH  34  77
ATOM     77  CB  WVL d   1      31.244 -31.160   1.629  0.00  0.00    -0.013 C 
ATOM     78  H69 WVL d   1      30.320 -31.657   1.959  0.00  0.00     0.049 H 
BRANCH  77  79
ATOM     79  CG2 WVL d   1      31.376 -29.789   2.351  0.00  0.00    -0.067 C 
ATOM     80  H70 WVL d   1      31.429 -29.951   3.438  0.00  0.00     0.028 H 
ATOM     81  H71 WVL d   1      30.501 -29.165   2.116  0.00  0.00     0.028 H 
ATOM     82  H72 WVL d   1      32.291 -29.282   2.010  0.00  0.00     0.028 H 
ENDBRANCH  77  79
BRANCH  77  83
ATOM     83  CG1 WVL d   1      32.434 -32.000   2.055  0.00  0.00    -0.095 C 
ATOM     84  CD  WVL d   1      32.350 -33.263   2.500  0.00  0.00    -0.091 C 
ATOM     85  H73 WVL d   1      33.423 -31.547   1.996  0.00  0.00     0.077 H 
BRANCH  84  86
ATOM     86  CE1 WVL d   1      31.026 -33.993   2.581  0.00  0.00    -0.055 C 
ATOM     87  H74 WVL d   1      31.190 -35.008   2.971  0.00  0.00     0.033 H 
ATOM     88  H75 WVL d   1      30.579 -34.053   1.578  0.00  0.00     0.033 H 
ATOM     89  H76 WVL d   1      30.347 -33.448   3.253  0.00  0.00     0.033 H 
ENDBRANCH  84  86
BRANCH  84  90
ATOM     90  CE2 WVL d   1      33.575 -34.041   2.933  0.00  0.00    -0.055 C 
ATOM     91  H77 WVL d   1      34.468 -33.407   2.829  0.00  0.00     0.033 H 
ATOM     92  H78 WVL d   1      33.684 -34.935   2.301  0.00  0.00     0.033 H 
ATOM     93  H79 WVL d   1      33.463 -34.346   3.984  0.00  0.00     0.033 H 
ENDBRANCH  84  90
ENDBRANCH  77  83
ENDBRANCH  34  77
BRANCH   6  94
ATOM     94  CB  WLU d   1      29.964 -37.242  -3.757  0.00  0.00    -0.033 C 
ATOM     95  H21 WLU d   1      30.419 -38.194  -3.447  0.00  0.00     0.037 H 
ATOM     96  H22 WLU d   1      30.545 -36.810  -4.585  0.00  0.00     0.037 H 
BRANCH  94  97
ATOM     97  CG  WLU d   1      28.533 -37.561  -4.304  0.00  0.00    -0.035 C 
ATOM     98  H23 WLU d   1      27.869 -37.725  -3.443  0.00  0.00     0.042 H 
BRANCH  97  99
ATOM     99  CG1 WLU d   1      28.557 -38.856  -5.175  0.00  0.00     0.020 C 
ATOM    100  H24 WLU d   1      28.719 -39.730  -4.527  0.00  0.00     0.074 H 
ATOM    101  H25 WLU d   1      29.373 -38.788  -5.910  0.00  0.00     0.074 H 
BRANCH  99 102
ATOM    102  O4  WLU d   1      27.300 -38.998  -5.866  0.00  0.00    -0.400 OA
ATOM    103  H26 WLU d   1      27.318 -39.787  -6.395  0.00  0.00     0.209 HD
ENDBRANCH  99 102
ENDBRANCH  97  99
BRANCH  97 104
ATOM    104  CG2 WLU d   1      27.948 -36.399  -5.160  0.00  0.00    -0.071 C 
ATOM    105  H27 WLU d   1      27.924 -35.477  -4.560  0.00  0.00     0.028 H 
ATOM    106  H28 WLU d   1      26.927 -36.656  -5.478  0.00  0.00     0.028 H 
ATOM    107  H29 WLU d   1      28.580 -36.243  -6.047  0.00  0.00     0.028 H 
ENDBRANCH  97 104
ENDBRANCH  94  97
ENDBRANCH   6  94
BRANCH  29 108
ATOM    108  CB  MLE d   1      28.926 -27.535  -2.674  0.00  0.00    -0.035 C 
ATOM    109  H59 MLE d   1      29.679 -26.762  -2.461  0.00  0.00     0.037 H 
ATOM    110  H60 MLE d   1      27.967 -27.055  -2.919  0.00  0.00     0.037 H 
BRANCH 108 111
ATOM    111  CG  MLE d   1      29.398 -28.330  -3.930  0.00  0.00    -0.059 C 
ATOM    112  H61 MLE d   1      30.302 -28.891  -3.649  0.00  0.00     0.038 H 
BRANCH 111 113
ATOM    113  CD1 MLE d   1      28.309 -29.349  -4.364  0.00  0.00    -0.073 C 
ATOM    114  H62 MLE d   1      28.656 -29.901  -5.250  0.00  0.00     0.028 H 
ATOM    115  H63 MLE d   1      27.380 -28.812  -4.607  0.00  0.00     0.028 H 
ATOM    116  H64 MLE d   1      28.120 -30.055  -3.542  0.00  0.00     0.028 H 
ENDBRANCH 111 113
BRANCH 111 117
ATOM    117  CD2 MLE d   1      29.765 -27.414  -5.121  0.00  0.00    -0.073 C 
ATOM    118  H65 MLE d   1      30.536 -26.695  -4.807  0.00  0.00     0.028 H 
ATOM    119  H66 MLE d   1      28.869 -26.869  -5.454  0.00  0.00     0.028 H 
ATOM    120  H67 MLE d   1      30.150 -28.026  -5.949  0.00  0.00     0.028 H 
ENDBRANCH 111 117
ENDBRANCH 108 111
ENDBRANCH  29 108
BRANCH  11 121
ATOM    121  CB  ALA d   1      28.406 -36.695   1.714  0.00  0.00    -0.049 C 
ATOM    122  H32 ALA d   1      27.664 -37.032   2.453  0.00  0.00     0.030 H 
ATOM    123  H33 ALA d   1      29.003 -35.876   2.141  0.00  0.00     0.030 H 
ATOM    124  H34 ALA d   1      29.069 -37.533   1.451  0.00  0.00     0.030 H 
ENDBRANCH  11 121
BRANCH  28 125
ATOM    125  CN  MLE d   1      28.770 -27.008   0.753  0.00  0.00    -0.015 C 
ATOM    126  H55 MLE d   1      28.125 -26.741   1.603  0.00  0.00     0.056 H 
ATOM    127  H56 MLE d   1      29.064 -26.095   0.215  0.00  0.00     0.056 H 
ATOM    128  H57 MLE d   1      29.670 -27.522   1.123  0.00  0.00     0.056 H 
ENDBRANCH  28 125
BRANCH  23 129
ATOM    129  CB  VAL d   1      24.631 -28.546  -1.308  0.00  0.00    -0.033 C 
ATOM    130  H48 VAL d   1      23.991 -28.290  -0.451  0.00  0.00     0.042 H 
BRANCH 129 131
ATOM    131  CG1 VAL d   1      24.938 -27.233  -2.086  0.00  0.00    -0.071 C 
ATOM    132  H49 VAL d   1      23.999 -26.805  -2.468  0.00  0.00     0.028 H 
ATOM    133  H50 VAL d   1      25.610 -27.454  -2.928  0.00  0.00     0.028 H 
ATOM    134  H51 VAL d   1      25.421 -26.511  -1.411  0.00  0.00     0.028 H 
ENDBRANCH 129 131
BRANCH 129 135
ATOM    135  CG2 VAL d   1      23.833 -29.521  -2.224  0.00  0.00    -0.071 C 
ATOM    136  H52 VAL d   1      23.617 -30.448  -1.673  0.00  0.00     0.028 H 
ATOM    137  H53 VAL d   1      24.430 -29.756  -3.117  0.00  0.00     0.028 H 
ATOM    138  H54 VAL d   1      22.888 -29.047  -2.529  0.00  0.00     0.028 H 
ENDBRANCH 129 135
ENDBRANCH  23 129
BRANCH  17 139
ATOM    139  CB  WPA d   1      26.303 -32.163   2.359  0.00  0.00     0.091 C 
ATOM    140  H37 WPA d   1      25.576 -31.353   2.520  0.00  0.00     0.095 H 
BRANCH 139 141
ATOM    141  OB  WPA d   1      27.632 -31.621   2.506  0.00  0.00    -0.383 OA
BRANCH 141 142
ATOM    142  CB1 WPA d   1      27.695 -30.528   3.441  0.00  0.00     0.005 C 
ATOM    143  H38 WPA d   1      28.730 -30.161   3.507  0.00  0.00     0.066 H 
ATOM    144  H39 WPA d   1      27.364 -30.873   4.432  0.00  0.00     0.066 H 
ATOM    145  H40 WPA d   1      27.039 -29.714   3.099  0.00  0.00     0.066 H 
ENDBRANCH 141 142
ENDBRANCH 139 141
BRANCH 139 146
ATOM    146  CG  WPA d   1      26.036 -33.238   3.417  0.00  0.00    -0.027 A 
ATOM    147  CD1 WPA d   1      27.086 -34.041   3.883  0.00  0.00    -0.074 A 
ATOM    148  CE1 WPA d   1      26.857 -35.012   4.862  0.00  0.00    -0.082 A 
ATOM    149  H41 WPA d   1      28.084 -33.908   3.481  0.00  0.00     0.084 H 
ATOM    150  CZ  WPA d   1      25.570 -35.180   5.376  0.00  0.00    -0.083 A 
ATOM    151  H42 WPA d   1      27.673 -35.630   5.220  0.00  0.00     0.083 H 
ATOM    152  CE2 WPA d   1      24.521 -34.373   4.920  0.00  0.00    -0.082 A 
ATOM    153  H43 WPA d   1      25.383 -35.937   6.129  0.00  0.00     0.083 H 
ATOM    154  CD2 WPA d   1      24.752 -33.400   3.945  0.00  0.00    -0.074 A 
ATOM    155  H44 WPA d   1      23.524 -34.504   5.326  0.00  0.00     0.083 H 
ATOM    156  H45 WPA d   1      23.938 -32.773   3.599  0.00  0.00     0.084 H 
ENDBRANCH 139 146
ENDBRANCH  17 139
TORSDOF 31
