REMARK  6 active torsions:
REMARK  status: ('A' for Active; 'I' for Inactive)
REMARK    1  A    between atoms: C2_2  and  C1_1 
REMARK    2  A    between atoms: C1_1  and  S1_11 
REMARK    3  A    between atoms: N1_3  and  C2_2 
REMARK    4  A    between atoms: C2'_7  and  C1'_6 
REMARK    5  A    between atoms: C1'_6  and  S1'_12 
REMARK    6  A    between atoms: N1'_8  and  C2'_7 
ROOT
ATOM      1  N1  PIN d   1      -4.270  28.430 -11.525  0.00  0.00    -0.067 N 
ATOM      2  C3  PIN d   1      -4.463  27.167 -12.242  0.00  0.00     0.106 C 
ATOM      3  C4  PIN d   1      -3.065  28.675 -10.743  0.00  0.00     0.106 C 
ATOM      4  N1' PIN d   1      -2.363  26.457 -11.311  0.00  0.00    -0.067 N 
ATOM      5  C3' PIN d   1      -2.670  27.319 -10.167  0.00  0.00     0.106 C 
ATOM      6  C4' PIN d   1      -3.083  26.599 -12.576  0.00  0.00     0.106 C 
ATOM      7  H5  PIN d   1      -3.828  28.823 -12.341  0.00  0.00     0.280 HD
ATOM      8  H6  PIN d   1      -5.027  27.346 -13.169  0.00  0.00     0.078 H 
ATOM      9  H7  PIN d   1      -5.015  26.458 -11.608  0.00  0.00     0.078 H 
ATOM     10  H8  PIN d   1      -3.271  29.391  -9.934  0.00  0.00     0.078 H 
ATOM     11  H9  PIN d   1      -2.263  29.068 -11.385  0.00  0.00     0.078 H 
ATOM     12  H14 PIN d   1      -3.047  25.791 -10.988  0.00  0.00     0.280 HD
ATOM     13  H15 PIN d   1      -3.502  26.896  -9.585  0.00  0.00     0.078 H 
ATOM     14  H16 PIN d   1      -1.786  27.423  -9.521  0.00  0.00     0.078 H 
ATOM     15  H17 PIN d   1      -2.543  27.287 -13.243  0.00  0.00     0.078 H 
ATOM     16  H18 PIN d   1      -3.186  25.619 -13.065  0.00  0.00     0.078 H 
ENDROOT
BRANCH   1  17
ATOM     17  C2  PIN d   1      -5.289  29.470 -11.563  0.00  0.00     0.098 C 
ATOM     18  H3  PIN d   1      -6.147  29.180 -10.939  0.00  0.00     0.077 H 
ATOM     19  H4  PIN d   1      -4.872  30.419 -11.195  0.00  0.00     0.077 H 
BRANCH  17  20
ATOM     20  C1  PIN d   1      -5.728  29.621 -13.017  0.00  0.00     0.068 C 
ATOM     21  H1  PIN d   1      -6.781  29.317 -13.108  0.00  0.00     0.062 H 
ATOM     22  H2  PIN d   1      -5.104  28.973 -13.650  0.00  0.00     0.062 H 
BRANCH  20  23
ATOM     23  S1  PIN d   1      -5.570  31.195 -13.527  0.00  0.00     0.103 S 
ATOM     24  O1  PIN d   1      -4.154  31.619 -13.442  0.00  0.00    -0.595 OA
ATOM     25  O2  PIN d   1      -5.998  31.275 -14.943  0.00  0.00    -0.595 OA
ATOM     26  O3  PIN d   1      -6.423  32.074 -12.696  0.00  0.00    -0.595 OA
ENDBRANCH  20  23
ENDBRANCH  17  20
ENDBRANCH   1  17
BRANCH   4  27
ATOM     27  C2' PIN d   1      -1.319  25.441 -11.226  0.00  0.00     0.098 C 
ATOM     28  H12 PIN d   1      -1.522  24.635 -11.946  0.00  0.00     0.077 H 
ATOM     29  H13 PIN d   1      -0.340  25.892 -11.446  0.00  0.00     0.077 H 
BRANCH  27  30
ATOM     30  C1' PIN d   1      -1.325  24.881  -9.804  0.00  0.00     0.068 C 
ATOM     31  H10 PIN d   1      -1.567  23.808  -9.838  0.00  0.00     0.062 H 
ATOM     32  H11 PIN d   1      -2.085  25.410  -9.209  0.00  0.00     0.062 H 
BRANCH  30  33
ATOM     33  S1' PIN d   1       0.166  25.085  -9.095  0.00  0.00     0.103 S 
ATOM     34  O1' PIN d   1       1.206  24.455  -9.942  0.00  0.00    -0.595 OA
ATOM     35  O2' PIN d   1       0.452  26.532  -8.970  0.00  0.00    -0.595 OA
ATOM     36  O3' PIN d   1       0.177  24.466  -7.746  0.00  0.00    -0.595 OA
ENDBRANCH  30  33
ENDBRANCH  27  30
ENDBRANCH   4  27
TORSDOF 6
