REMARK  15 active torsions:
REMARK  status: ('A' for Active; 'I' for Inactive)
REMARK    1  A    between atoms: C1_1  and  C2_2 
REMARK    2  A    between atoms: C2_2  and  C3_3 
REMARK    3  A    between atoms: C3_3  and  C4_4 
REMARK    4  A    between atoms: C4_4  and  C5_5 
REMARK    5  A    between atoms: C6_6  and  C7_7 
REMARK    6  A    between atoms: C7_7  and  C8_8 
REMARK    7  A    between atoms: C9_9  and  C10_10 
REMARK    8  A    between atoms: C10_10  and  C11_11 
REMARK    9  A    between atoms: C12_12  and  C13_13 
REMARK   10  A    between atoms: C13_13  and  C14_14 
REMARK   11  A    between atoms: C15_15  and  C16_16 
REMARK   12  A    between atoms: C16_16  and  C17_17 
REMARK   13  A    between atoms: C17_17  and  C18_18 
REMARK   14  A    between atoms: C18_18  and  C19_19 
REMARK   15  A    between atoms: C19_19  and  C20_20 
ROOT
ATOM      1  C11 ACD d   1     -24.698 -18.977  13.516  0.00  0.00    -0.103 C 
ATOM      2  C12 ACD d   1     -24.356 -20.193  13.085  0.00  0.00    -0.103 C 
ATOM      3  H15 ACD d   1     -25.494 -18.929  14.257  0.00  0.00     0.076 H 
ATOM      4  H16 ACD d   1     -24.913 -21.028  13.507  0.00  0.00     0.076 H 
ENDROOT
BRANCH   1   5
ATOM      5  C10 ACD d   1     -24.100 -17.666  13.086  0.00  0.00    -0.035 C 
ATOM      6  H13 ACD d   1     -23.994 -16.989  13.946  0.00  0.00     0.044 H 
ATOM      7  H14 ACD d   1     -23.116 -17.824  12.620  0.00  0.00     0.044 H 
BRANCH   5   8
ATOM      8  C9  ACD d   1     -25.078 -17.101  12.083  0.00  0.00    -0.103 C 
ATOM      9  C8  ACD d   1     -25.665 -15.915  12.133  0.00  0.00    -0.103 C 
ATOM     10  H11 ACD d   1     -26.341 -15.645  11.323  0.00  0.00     0.076 H 
ATOM     11  H12 ACD d   1     -25.326 -17.734  11.232  0.00  0.00     0.076 H 
BRANCH   9  12
ATOM     12  C7  ACD d   1     -25.457 -14.921  13.235  0.00  0.00    -0.035 C 
ATOM     13  H9  ACD d   1     -25.459 -15.431  14.210  0.00  0.00     0.044 H 
ATOM     14  H10 ACD d   1     -24.499 -14.398  13.097  0.00  0.00     0.044 H 
BRANCH  12  15
ATOM     15  C6  ACD d   1     -26.599 -13.939  13.162  0.00  0.00    -0.103 C 
ATOM     16  C5  ACD d   1     -26.949 -13.156  14.168  0.00  0.00    -0.106 C 
ATOM     17  H7  ACD d   1     -27.791 -12.481  14.020  0.00  0.00     0.076 H 
ATOM     18  H8  ACD d   1     -27.164 -13.871  12.233  0.00  0.00     0.076 H 
BRANCH  16  19
ATOM     19  C4  ACD d   1     -26.258 -13.138  15.503  0.00  0.00    -0.050 C 
ATOM     20  H5  ACD d   1     -25.567 -13.991  15.578  0.00  0.00     0.038 H 
ATOM     21  H6  ACD d   1     -25.697 -12.199  15.621  0.00  0.00     0.038 H 
BRANCH  19  22
ATOM     22  C3  ACD d   1     -27.314 -13.240  16.570  0.00  0.00    -0.053 C 
ATOM     23  H3  ACD d   1     -28.056 -13.991  16.262  0.00  0.00     0.034 H 
ATOM     24  H4  ACD d   1     -26.838 -13.559  17.509  0.00  0.00     0.034 H 
BRANCH  22  25
ATOM     25  C2  ACD d   1     -28.030 -11.911  16.809  0.00  0.00     0.016 C 
ATOM     26  H1  ACD d   1     -27.325 -11.191  17.250  0.00  0.00     0.049 H 
ATOM     27  H2  ACD d   1     -28.402 -11.520  15.850  0.00  0.00     0.049 H 
BRANCH  25  28
ATOM     28  C1  ACD d   1     -29.190 -12.112  17.749  0.00  0.00     0.172 C 
ATOM     29  O1  ACD d   1     -29.451 -13.270  18.141  0.00  0.00    -0.648 OA
ATOM     30  O2  ACD d   1     -29.852 -11.119  18.112  0.00  0.00    -0.648 OA
ENDBRANCH  25  28
ENDBRANCH  22  25
ENDBRANCH  19  22
ENDBRANCH  16  19
ENDBRANCH  12  15
ENDBRANCH   9  12
ENDBRANCH   5   8
ENDBRANCH   1   5
BRANCH   2  31
ATOM     31  C13 ACD d   1     -23.285 -20.544  12.079  0.00  0.00    -0.035 C 
ATOM     32  H17 ACD d   1     -22.374 -20.874  12.601  0.00  0.00     0.044 H 
ATOM     33  H18 ACD d   1     -23.054 -19.667  11.456  0.00  0.00     0.044 H 
BRANCH  31  34
ATOM     34  C14 ACD d   1     -23.819 -21.669  11.210  0.00  0.00    -0.103 C 
ATOM     35  C15 ACD d   1     -23.159 -22.203  10.177  0.00  0.00    -0.106 C 
ATOM     36  H20 ACD d   1     -23.640 -23.019   9.640  0.00  0.00     0.076 H 
ATOM     37  H19 ACD d   1     -24.805 -22.067  11.444  0.00  0.00     0.076 H 
BRANCH  35  38
ATOM     38  C16 ACD d   1     -21.798 -21.760   9.700  0.00  0.00    -0.050 C 
ATOM     39  H21 ACD d   1     -21.563 -20.771  10.120  0.00  0.00     0.038 H 
ATOM     40  H22 ACD d   1     -21.792 -21.703   8.601  0.00  0.00     0.038 H 
BRANCH  38  41
ATOM     41  C17 ACD d   1     -20.762 -22.773  10.165  0.00  0.00    -0.062 C 
ATOM     42  H23 ACD d   1     -21.230 -23.768  10.194  0.00  0.00     0.033 H 
ATOM     43  H24 ACD d   1     -20.427 -22.496  11.175  0.00  0.00     0.033 H 
BRANCH  41  44
ATOM     44  C18 ACD d   1     -19.558 -22.830   9.254  0.00  0.00    -0.065 C 
ATOM     45  H25 ACD d   1     -19.159 -21.815   9.109  0.00  0.00     0.033 H 
ATOM     46  H26 ACD d   1     -19.853 -23.251   8.281  0.00  0.00     0.033 H 
BRANCH  44  47
ATOM     47  C19 ACD d   1     -18.490 -23.710   9.885  0.00  0.00    -0.069 C 
ATOM     48  H27 ACD d   1     -18.957 -24.610  10.311  0.00  0.00     0.032 H 
ATOM     49  H28 ACD d   1     -17.975 -23.152  10.681  0.00  0.00     0.032 H 
BRANCH  47  50
ATOM     50  C20 ACD d   1     -17.499 -24.109   8.825  0.00  0.00    -0.077 C 
ATOM     51  H29 ACD d   1     -16.721 -24.746   9.271  0.00  0.00     0.027 H 
ATOM     52  H30 ACD d   1     -17.034 -23.207   8.399  0.00  0.00     0.027 H 
ATOM     53  H31 ACD d   1     -18.017 -24.665   8.030  0.00  0.00     0.027 H 
ENDBRANCH  47  50
ENDBRANCH  44  47
ENDBRANCH  41  44
ENDBRANCH  38  41
ENDBRANCH  35  38
ENDBRANCH  31  34
ENDBRANCH   2  31
TORSDOF 15
