REMARK  3 active torsions:
REMARK  status: ('A' for Active; 'I' for Inactive)
REMARK    1  A    between atoms: C4_4  and  C7_10 
REMARK    2  A    between atoms: C1_7  and  C_8 
REMARK    3  A    between atoms: C_8  and  N_9 
ROOT
ATOM      1 CL   54E d   1      -4.826 166.500 397.491  0.00  0.00    -0.083 Cl
ATOM      2  C3  54E d   1      -3.610 167.099 398.566  0.00  0.00     0.045 A 
ATOM      3  C2  54E d   1      -2.301 166.698 398.379  0.00  0.00    -0.053 A 
ATOM      4  C4  54E d   1      -3.962 168.023 399.545  0.00  0.00    -0.004 A 
ATOM      5  C5  54E d   1      -2.935 168.562 400.327  0.00  0.00    -0.070 A 
ATOM      6  C6  54E d   1      -1.620 168.173 400.127  0.00  0.00    -0.074 A 
ATOM      7  C1  54E d   1      -1.284 167.229 399.163  0.00  0.00    -0.031 A 
ATOM      8  H1  54E d   1      -2.066 165.965 397.616  0.00  0.00     0.087 H 
ATOM      9  H2  54E d   1      -3.170 169.290 401.096  0.00  0.00     0.084 H 
ATOM     10  H3  54E d   1      -0.838 168.613 400.734  0.00  0.00     0.084 H 
ENDROOT
BRANCH   4  11
ATOM     11  C7  54E d   1      -5.378 168.434 399.764  0.00  0.00    -0.024 A 
ATOM     12  C12 54E d   1      -6.326 167.514 400.221  0.00  0.00    -0.072 A 
ATOM     13  C11 54E d   1      -7.669 167.855 400.292  0.00  0.00    -0.082 A 
ATOM     14  H9  54E d   1      -6.008 166.523 400.523  0.00  0.00     0.084 H 
ATOM     15  C10 54E d   1      -8.085 169.122 399.931  0.00  0.00    -0.083 A 
ATOM     16  H10 54E d   1      -8.394 167.125 400.632  0.00  0.00     0.083 H 
ATOM     17  C9  54E d   1      -7.157 170.051 399.499  0.00  0.00    -0.082 A 
ATOM     18  H11 54E d   1      -9.135 169.387 399.986  0.00  0.00     0.083 H 
ATOM     19  C8  54E d   1      -5.815 169.712 399.413  0.00  0.00    -0.072 A 
ATOM     20  H12 54E d   1      -7.480 171.049 399.226  0.00  0.00     0.083 H 
ATOM     21  H13 54E d   1      -5.097 170.448 399.069  0.00  0.00     0.084 H 
ENDBRANCH   4  11
BRANCH   7  22
ATOM     22  C   54E d   1       0.154 166.775 399.037  0.00  0.00     0.103 C 
ATOM     23  H4  54E d   1       0.267 165.874 399.657  0.00  0.00     0.082 H 
ATOM     24  H5  54E d   1       0.786 167.579 399.441  0.00  0.00     0.082 H 
BRANCH  22  25
ATOM     25  N   54E d   1       0.663 166.451 397.705  0.00  0.00    -0.075 N 
ATOM     26  H6  54E d   1       1.627 166.166 397.774  0.00  0.00     0.274 HD
ATOM     27  H7  54E d   1       0.594 167.263 397.112  0.00  0.00     0.274 HD
ATOM     28  H8  54E d   1       0.118 165.700 397.310  0.00  0.00     0.274 HD
ENDBRANCH  22  25
ENDBRANCH   7  22
TORSDOF 3
