REMARK  10 active torsions:
REMARK  status: ('A' for Active; 'I' for Inactive)
REMARK    1  A    between atoms: C1_1  and  N9_7 
REMARK    2  A    between atoms: C2_2  and  C12_8 
REMARK    3  A    between atoms: C14_10  and  C17_13 
REMARK    4  A    between atoms: C16_12  and  C30_17 
REMARK    5  A    between atoms: C17_13  and  C18_14 
REMARK    6  A    between atoms: C17_13  and  C22_15 
REMARK    7  A    between atoms: C17_13  and  C26_16 
REMARK    8  A    between atoms: C31_18  and  N40_24 
REMARK    9  A    between atoms: N40_24  and  S42_25 
REMARK   10  A    between atoms: S42_25  and  C43_26 
ROOT
ATOM      1  C12 P06 d   1     -20.746  10.463  39.463  0.00  0.00     0.066 A 
ATOM      2  S13 P06 d   1     -22.096  10.632  40.592  0.00  0.00    -0.069 SA
ATOM      3  C14 P06 d   1     -21.011  10.423  41.897  0.00  0.00     0.084 A 
ATOM      4  N15 P06 d   1     -19.793  10.256  41.500  0.00  0.00    -0.243 NA
ATOM      5  C16 P06 d   1     -19.576  10.265  40.200  0.00  0.00     0.090 A 
ENDROOT
BRANCH   5   6
ATOM      6  C30 P06 d   1     -18.210  10.067  39.647  0.00  0.00     0.035 A 
ATOM      7  C32 P06 d   1     -17.523   8.862  39.852  0.00  0.00     0.156 A 
ATOM      8  C31 P06 d   1     -16.243   8.696  39.338  0.00  0.00     0.082 A 
ATOM      9  F39 P06 d   1     -18.062   7.853  40.571  0.00  0.00    -0.203 F 
ATOM     10  C33 P06 d   1     -15.664   9.710  38.579  0.00  0.00    -0.053 A 
ATOM     11  C37 P06 d   1     -16.334  10.893  38.370  0.00  0.00    -0.080 A 
ATOM     12  H14 P06 d   1     -14.679   9.566  38.150  0.00  0.00     0.087 H 
ATOM     13  C35 P06 d   1     -17.593  11.075  38.898  0.00  0.00    -0.068 A 
ATOM     14  H16 P06 d   1     -15.871  11.682  37.789  0.00  0.00     0.083 H 
ATOM     15  H15 P06 d   1     -18.113  12.011  38.731  0.00  0.00     0.085 H 
BRANCH   8  16
ATOM     16  N40 P06 d   1     -15.609   7.461  39.536  0.00  0.00    -0.277 N 
ATOM     17  H17 P06 d   1     -16.191   6.650  39.476  0.00  0.00     0.179 HD
BRANCH  16  18
ATOM     18  S42 P06 d   1     -14.018   7.193  39.856  0.00  0.00     0.269 S 
ATOM     19  O54 P06 d   1     -13.410   8.419  40.209  0.00  0.00    -0.200 OA
ATOM     20  O55 P06 d   1     -14.001   6.041  40.674  0.00  0.00    -0.200 OA
BRANCH  18  21
ATOM     21  C43 P06 d   1     -13.476   6.727  38.257  0.00  0.00     0.156 A 
ATOM     22  C46 P06 d   1     -13.934   5.528  37.727  0.00  0.00     0.142 A 
ATOM     23  C44 P06 d   1     -13.544   5.125  36.450  0.00  0.00    -0.044 A 
ATOM     24  F53 P06 d   1     -14.753   4.738  38.446  0.00  0.00    -0.204 F 
ATOM     25  C47 P06 d   1     -12.708   5.924  35.694  0.00  0.00    -0.077 A 
ATOM     26  H18 P06 d   1     -13.898   4.182  36.049  0.00  0.00     0.088 H 
ATOM     27  C50 P06 d   1     -12.258   7.128  36.212  0.00  0.00    -0.044 A 
ATOM     28  H19 P06 d   1     -12.406   5.611  34.701  0.00  0.00     0.083 H 
ATOM     29  C49 P06 d   1     -12.645   7.534  37.488  0.00  0.00     0.142 A 
ATOM     30  H20 P06 d   1     -11.602   7.757  35.622  0.00  0.00     0.088 H 
ATOM     31  F52 P06 d   1     -12.208   8.713  37.963  0.00  0.00    -0.204 F 
ENDBRANCH  18  21
ENDBRANCH  16  18
ENDBRANCH   8  16
ENDBRANCH   5   6
BRANCH   1  32
ATOM     32  C2  P06 d   1     -20.992  10.543  38.005  0.00  0.00     0.097 A 
ATOM     33  N3  P06 d   1     -22.158  11.092  37.620  0.00  0.00    -0.062 NA
ATOM     34  C1  P06 d   1     -22.479  11.192  36.339  0.00  0.00     0.720 A 
ATOM     35  N6  P06 d   1     -21.657  10.751  35.374  0.00  0.00    -0.075 NA
ATOM     36  C7  P06 d   1     -20.489  10.185  35.681  0.00  0.00     0.023 A 
ATOM     37  C4  P06 d   1     -20.118  10.052  37.007  0.00  0.00    -0.036 A 
ATOM     38  H2  P06 d   1     -19.833   9.831  34.894  0.00  0.00     0.115 H 
ATOM     39  H1  P06 d   1     -19.179   9.582  37.275  0.00  0.00     0.089 H 
BRANCH  34  40
ATOM     40  N9  P06 d   1     -23.683  11.783  36.011  0.00  0.00    -0.231 N 
ATOM     41  H3  P06 d   1     -24.311  12.120  36.755  0.00  0.00     0.174 HD
ATOM     42  H4  P06 d   1     -23.953  11.887  35.023  0.00  0.00     0.174 HD
ENDBRANCH  34  40
ENDBRANCH   1  32
BRANCH   3  43
ATOM     43  C17 P06 d   1     -21.435  10.420  43.335  0.00  0.00     0.000 C 
BRANCH  43  44
ATOM     44  C18 P06 d   1     -20.499  11.318  44.138  0.00  0.00    -0.064 C 
ATOM     45  H5  P06 d   1     -20.807  11.318  45.194  0.00  0.00     0.028 H 
ATOM     46  H6  P06 d   1     -20.546  12.343  43.742  0.00  0.00     0.028 H 
ATOM     47  H7  P06 d   1     -19.469  10.940  44.057  0.00  0.00     0.028 H 
ENDBRANCH  43  44
BRANCH  43  48
ATOM     48  C22 P06 d   1     -22.884  10.898  43.455  0.00  0.00    -0.064 C 
ATOM     49  H8  P06 d   1     -23.538  10.236  42.869  0.00  0.00     0.028 H 
ATOM     50  H9  P06 d   1     -22.964  11.926  43.072  0.00  0.00     0.028 H 
ATOM     51  H10 P06 d   1     -23.191  10.876  44.511  0.00  0.00     0.028 H 
ENDBRANCH  43  48
BRANCH  43  52
ATOM     52  C26 P06 d   1     -21.322   8.974  43.820  0.00  0.00    -0.064 C 
ATOM     53  H11 P06 d   1     -20.278   8.638  43.731  0.00  0.00     0.028 H 
ATOM     54  H12 P06 d   1     -21.968   8.330  43.206  0.00  0.00     0.028 H 
ATOM     55  H13 P06 d   1     -21.638   8.914  44.872  0.00  0.00     0.028 H 
ENDBRANCH  43  52
ENDBRANCH   3  43
TORSDOF 10
