REMARK  12 active torsions:
REMARK  status: ('A' for Active; 'I' for Inactive)
REMARK    1  A    between atoms: N3_1  and  C2_14 
REMARK    2  A    between atoms: N9_15  and  C6_4 
REMARK    3  A    between atoms: N9_15  and  C10_7 
REMARK    4  A    between atoms: C18_21  and  C17_9 
REMARK    5  A    between atoms: N15_19  and  C26_12 
REMARK    6  A    between atoms: C2_14  and  C1_13 
REMARK    7  A    between atoms: C11_16  and  N9_15 
REMARK    8  A    between atoms: C31_31  and  N32_32 
REMARK    9  A    between atoms: N32_32  and  S33_33 
REMARK   10  A    between atoms: S33_33  and  C36_36 
REMARK   11  A    between atoms: C36_36  and  C37_37 
REMARK   12  A    between atoms: C37_37  and  C38_38 
ROOT
ATOM      1  C13 54J d   1      17.261 -74.267  91.972  0.00  0.00    -0.051 A 
ATOM      2  C17 54J d   1      17.196 -76.079  88.828  0.00  0.00     0.024 A 
ATOM      3  C24 54J d   1      17.083 -75.968  90.286  0.00  0.00     0.099 A 
ATOM      4  C11 54J d   1      16.780 -76.569  92.524  0.00  0.00     0.126 A 
ATOM      5  C12 54J d   1      16.994 -75.237  92.931  0.00  0.00    -0.036 A 
ATOM      6  C14 54J d   1      17.307 -74.622  90.615  0.00  0.00     0.069 A 
ATOM      7  N15 54J d   1      17.539 -73.948  89.423  0.00  0.00    -0.314 N 
ATOM      8  C16 54J d   1      17.470 -74.829  88.380  0.00  0.00    -0.001 A 
ATOM      9  N25 54J d   1      16.839 -76.856  91.239  0.00  0.00    -0.228 NA
ATOM     10  H14 54J d   1      17.433 -73.240  92.271  0.00  0.00     0.087 H 
ATOM     11  H21 54J d   1      16.951 -74.972  93.981  0.00  0.00     0.089 H 
ATOM     12  H22 54J d   1      17.615 -74.564  87.334  0.00  0.00     0.113 H 
ENDROOT
BRANCH   4  13
ATOM     13  N9  54J d   1      16.528 -77.631  93.409  0.00  0.00    -0.365 N 
BRANCH  13  14
ATOM     14  C6  54J d   1      16.091 -78.949  92.897  0.00  0.00     0.016 C 
ATOM     15  C5  54J d   1      17.339 -79.793  92.639  0.00  0.00    -0.023 C 
ATOM     16  C4  54J d   1      16.919 -81.171  92.106  0.00  0.00     0.085 C 
ATOM     17  H4  54J d   1      17.976 -79.290  91.896  0.00  0.00     0.038 H 
ATOM     18  H5  54J d   1      17.899 -79.917  93.578  0.00  0.00     0.038 H 
ATOM     19  N3  54J d   1      16.026 -81.828  93.080  0.00  0.00    -0.071 N 
ATOM     20  H2  54J d   1      16.390 -81.048  91.150  0.00  0.00     0.076 H 
ATOM     21  H3  54J d   1      17.814 -81.792  91.953  0.00  0.00     0.076 H 
ATOM     22  C8  54J d   1      14.803 -81.031  93.265  0.00  0.00     0.085 C 
ATOM     23  H1  54J d   1      16.508 -81.880  93.964  0.00  0.00     0.279 HD
ATOM     24  C7  54J d   1      15.181 -79.688  93.882  0.00  0.00    -0.023 C 
ATOM     25  H9  54J d   1      14.112 -81.564  93.934  0.00  0.00     0.076 H 
ATOM     26  H10 54J d   1      14.318 -80.867  92.292  0.00  0.00     0.076 H 
ATOM     27  H7  54J d   1      14.274 -79.095  94.068  0.00  0.00     0.038 H 
ATOM     28  H8  54J d   1      15.713 -79.851  94.831  0.00  0.00     0.038 H 
ATOM     29  H6  54J d   1      15.544 -78.802  91.954  0.00  0.00     0.072 H 
BRANCH  19  30
ATOM     30  C2  54J d   1      15.692 -83.199  92.658  0.00  0.00     0.080 C 
ATOM     31  H19 54J d   1      16.599 -83.692  92.277  0.00  0.00     0.075 H 
ATOM     32  H20 54J d   1      14.934 -83.159  91.862  0.00  0.00     0.075 H 
BRANCH  30  33
ATOM     33  C1  54J d   1      15.139 -84.003  93.842  0.00  0.00    -0.053 C 
ATOM     34  H16 54J d   1      14.895 -85.023  93.510  0.00  0.00     0.029 H 
ATOM     35  H17 54J d   1      14.231 -83.515  94.225  0.00  0.00     0.029 H 
ATOM     36  H18 54J d   1      15.895 -84.048  94.640  0.00  0.00     0.029 H 
ENDBRANCH  30  33
ENDBRANCH  19  30
ENDBRANCH  13  14
BRANCH  13  37
ATOM     37  C10 54J d   1      16.764 -77.458  94.851  0.00  0.00    -0.017 C 
ATOM     38  H11 54J d   1      17.081 -76.423  95.049  0.00  0.00     0.056 H 
ATOM     39  H12 54J d   1      17.552 -78.152  95.180  0.00  0.00     0.056 H 
ATOM     40  H13 54J d   1      15.836 -77.669  95.402  0.00  0.00     0.056 H 
ENDBRANCH  13  37
ENDBRANCH   4  13
BRANCH   2  41
ATOM     41  C18 54J d   1      17.010 -77.302  88.011  0.00  0.00     0.013 A 
ATOM     42  C19 54J d   1      17.458 -77.378  86.675  0.00  0.00     0.016 A 
ATOM     43  N20 54J d   1      17.239 -78.493  85.983  0.00  0.00    -0.253 NA
ATOM     44  H23 54J d   1      17.973 -76.540  86.219  0.00  0.00     0.116 H 
ATOM     45  C21 54J d   1      16.612 -79.518  86.537  0.00  0.00     0.086 A 
ATOM     46  N22 54J d   1      16.169 -79.494  87.776  0.00  0.00    -0.253 NA
ATOM     47  H15 54J d   1      16.457 -80.414  85.947  0.00  0.00     0.146 H 
ATOM     48  C23 54J d   1      16.338 -78.424  88.533  0.00  0.00     0.016 A 
ATOM     49  H24 54J d   1      15.962 -78.410  89.549  0.00  0.00     0.116 H 
ENDBRANCH   2  41
BRANCH   7  50
ATOM     50  C26 54J d   1      17.838 -72.587  89.262  0.00  0.00     0.119 A 
ATOM     51  C27 54J d   1      16.985 -71.778  88.517  0.00  0.00     0.146 A 
ATOM     52  F28 54J d   1      15.866 -72.305  87.985  0.00  0.00    -0.204 F 
ATOM     53  C29 54J d   1      17.272 -70.430  88.344  0.00  0.00    -0.041 A 
ATOM     54  C30 54J d   1      18.428 -69.879  88.887  0.00  0.00    -0.051 A 
ATOM     55  H25 54J d   1      16.590 -69.803  87.782  0.00  0.00     0.088 H 
ATOM     56  C31 54J d   1      19.306 -70.678  89.612  0.00  0.00     0.083 A 
ATOM     57  H26 54J d   1      18.645 -68.826  88.745  0.00  0.00     0.087 H 
ATOM     58  C39 54J d   1      19.009 -72.036  89.799  0.00  0.00     0.173 A 
ATOM     59  F40 54J d   1      19.866 -72.791  90.513  0.00  0.00    -0.201 F 
BRANCH  56  60
ATOM     60  N32 54J d   1      20.456 -70.104  90.169  0.00  0.00    -0.281 N 
ATOM     61  H27 54J d   1      20.370 -69.540  90.990  0.00  0.00     0.178 HD
BRANCH  60  62
ATOM     62  S33 54J d   1      21.950 -70.335  89.503  0.00  0.00     0.231 S 
ATOM     63  O34 54J d   1      22.831 -69.707  90.413  0.00  0.00    -0.206 OA
ATOM     64  O35 54J d   1      22.061 -71.734  89.269  0.00  0.00    -0.206 OA
BRANCH  62  65
ATOM     65  C36 54J d   1      21.852 -69.441  87.938  0.00  0.00     0.046 C 
ATOM     66  H28 54J d   1      21.814 -68.359  88.133  0.00  0.00     0.058 H 
ATOM     67  H29 54J d   1      20.946 -69.748  87.395  0.00  0.00     0.058 H 
BRANCH  65  68
ATOM     68  C37 54J d   1      23.086 -69.766  87.099  0.00  0.00    -0.055 C 
ATOM     69  H30 54J d   1      23.255 -70.853  87.095  0.00  0.00     0.033 H 
ATOM     70  H31 54J d   1      23.966 -69.260  87.522  0.00  0.00     0.033 H 
BRANCH  68  71
ATOM     71  C38 54J d   1      22.848 -69.276  85.670  0.00  0.00    -0.076 C 
ATOM     72  H32 54J d   1      23.730 -69.503  85.053  0.00  0.00     0.027 H 
ATOM     73  H33 54J d   1      22.677 -68.189  85.679  0.00  0.00     0.027 H 
ATOM     74  H34 54J d   1      21.966 -69.783  85.251  0.00  0.00     0.027 H 
ENDBRANCH  68  71
ENDBRANCH  65  68
ENDBRANCH  62  65
ENDBRANCH  60  62
ENDBRANCH  56  60
ENDBRANCH   7  50
TORSDOF 12
