REMARK WARNING: 32 MAX_TORS EXCEEDED!!!
REMARK  46 active torsions:
REMARK  status: ('A' for Active; 'I' for Inactive)
REMARK    1  A    between atoms: N_1  and  CA_2 
REMARK    2  A    between atoms: CA_2  and  C_3 
REMARK    3  A    between atoms: CA_2  and  CB_5 
REMARK       I    between atoms: C_3  and  N_9 
REMARK    4  A    between atoms: CB_5  and  CG_6 
REMARK    5  A    between atoms: N_9  and  CA_10 
REMARK    6  A    between atoms: CA_10  and  C_11 
REMARK    7  A    between atoms: CA_10  and  CB_13 
REMARK       I    between atoms: C_11  and  N_14 
REMARK    8  A    between atoms: N_14  and  CA_15 
REMARK    9  A    between atoms: CA_15  and  C_16 
REMARK   10  A    between atoms: CA_15  and  CB_18 
REMARK       I    between atoms: C_16  and  N_23 
REMARK   11  A    between atoms: CB_18  and  CG_19 
REMARK   12  A    between atoms: CG_19  and  CD_20 
REMARK   13  A    between atoms: N_23  and  CA_24 
REMARK   14  A    between atoms: CA_24  and  C_25 
REMARK   15  A    between atoms: CA_24  and  CB_27 
REMARK       I    between atoms: C_25  and  N_34 
REMARK   16  A    between atoms: CB_27  and  CG_28 
REMARK   17  A    between atoms: N_34  and  CA_35 
REMARK   18  A    between atoms: CA_35  and  C_36 
REMARK   19  A    between atoms: CA_35  and  CB_38 
REMARK       I    between atoms: C_36  and  N_45 
REMARK   20  A    between atoms: CB_38  and  CG_39 
REMARK   21  A    between atoms: CG_39  and  CD_40 
REMARK   22  A    between atoms: CD_40  and  NE_41 
REMARK       I    between atoms: NE_41  and  CZ_42 
REMARK       I    between atoms: CZ_42  and  NH1_43 
REMARK   23  A    between atoms: N_45  and  CA_46 
REMARK   24  A    between atoms: CA_46  and  C_47 
REMARK   25  A    between atoms: CA_46  and  CB_49 
REMARK       I    between atoms: C_47  and  N_55 
REMARK   26  A    between atoms: CB_49  and  CG_50 
REMARK   27  A    between atoms: N_55  and  CA_56 
REMARK   28  A    between atoms: CA_56  and  C_57 
REMARK   29  A    between atoms: CA_56  and  CB_59 
REMARK       I    between atoms: C_57  and  N_63 
REMARK   30  A    between atoms: CB_59  and  CG_60 
REMARK   31  A    between atoms: N_63  and  CA_64 
REMARK   32  A    between atoms: CA_64  and  C_65 
REMARK   33  A    between atoms: CA_64  and  CB_67 
REMARK       I    between atoms: C_65  and  N_69 
REMARK   34  A    between atoms: CB_67  and  OG_68 
REMARK   35  A    between atoms: N_69  and  CA_70 
REMARK   36  A    between atoms: CA_70  and  C_71 
REMARK       I    between atoms: C_71  and  N_73 
REMARK   37  A    between atoms: N_73  and  CA_74 
REMARK   38  A    between atoms: CA_74  and  C_75 
REMARK   39  A    between atoms: CA_74  and  CB_77 
REMARK       I    between atoms: C_75  and  N_85 
REMARK   40  A    between atoms: CB_77  and  CG_78 
REMARK   41  A    between atoms: CZ_83  and  OH_84 
REMARK   42  A    between atoms: N_85  and  CA_86 
REMARK   43  A    between atoms: CA_86  and  C_87 
REMARK   44  A    between atoms: CA_86  and  CB_89 
REMARK   45  A    between atoms: CB_89  and  CG_90 
REMARK   46  A    between atoms: CG_90  and  CD_91 
ROOT
ATOM      1  C   ARG d   1     -28.389  20.651  85.933  0.00  0.00     0.241 C 
ATOM      2  O   ARG d   1     -27.274  20.676  86.450  0.00  0.00    -0.271 OA
ATOM      3  N   HIS d   1     -28.746  21.501  84.970  0.00  0.00    -0.346 N 
ATOM      4  H40 HIS d   1     -29.663  21.447  84.575  0.00  0.00     0.163 HD
ENDROOT
BRANCH   3   5
ATOM      5  CA  HIS d   1     -27.809  22.510  84.488  0.00  0.00     0.094 C 
ATOM      6  H41 HIS d   1     -27.257  22.913  85.350  0.00  0.00     0.088 H 
BRANCH   5   7
ATOM      7  C   HIS d   1     -28.530  23.658  83.794  0.00  0.00     0.241 C 
ATOM      8  O   HIS d   1     -29.638  23.474  83.281  0.00  0.00    -0.271 OA
ATOM      9  N   ASP d   1     -27.887  24.825  83.790  0.00  0.00    -0.345 N 
ATOM     10  H47 ASP d   1     -27.084  24.927  84.377  0.00  0.00     0.163 HD
BRANCH   9  11
ATOM     11  CA  ASP d   1     -28.297  25.965  82.970  0.00  0.00     0.098 C 
ATOM     12  H48 ASP d   1     -29.379  26.130  83.080  0.00  0.00     0.088 H 
BRANCH  11  13
ATOM     13  C   ASP d   1     -27.956  25.665  81.515  0.00  0.00     0.241 C 
ATOM     14  O   ASP d   1     -26.925  25.042  81.243  0.00  0.00    -0.271 OA
ATOM     15  N   SER d   1     -28.805  26.115  80.588  0.00  0.00    -0.344 N 
ATOM     16  H51 SER d   1     -29.644  26.571  80.884  0.00  0.00     0.163 HD
BRANCH  15  17
ATOM     17  CA  SER d   1     -28.551  25.964  79.142  0.00  0.00     0.109 C 
ATOM     18  H52 SER d   1     -28.593  24.893  78.894  0.00  0.00     0.090 H 
BRANCH  17  19
ATOM     19  C   SER d   1     -27.187  26.500  78.762  0.00  0.00     0.242 C 
ATOM     20  O   SER d   1     -26.784  27.562  79.230  0.00  0.00    -0.271 OA
ATOM     21  N   GLY d   1     -26.477  25.753  77.922  0.00  0.00    -0.350 N 
ATOM     22  H56 GLY d   1     -26.848  24.874  77.621  0.00  0.00     0.163 HD
BRANCH  21  23
ATOM     23  CA  GLY d   1     -25.170  26.179  77.425  0.00  0.00     0.069 C 
ATOM     24  H57 GLY d   1     -25.172  27.278  77.376  0.00  0.00     0.078 H 
ATOM     25  H58 GLY d   1     -25.045  25.767  76.413  0.00  0.00     0.078 H 
BRANCH  23  26
ATOM     26  C   GLY d   1     -23.965  25.753  78.252  0.00  0.00     0.236 C 
ATOM     27  O   GLY d   1     -22.823  25.951  77.834  0.00  0.00    -0.272 OA
ATOM     28  N   TYR d   1     -24.198  25.176  79.428  0.00  0.00    -0.346 N 
ATOM     29  H59 TYR d   1     -25.136  24.991  79.722  0.00  0.00     0.163 HD
BRANCH  28  30
ATOM     30  CA  TYR d   1     -23.073  24.816  80.284  0.00  0.00     0.093 C 
ATOM     31  H60 TYR d   1     -22.502  25.736  80.479  0.00  0.00     0.088 H 
BRANCH  30  32
ATOM     32  C   TYR d   1     -22.136  23.825  79.572  0.00  0.00     0.241 C 
ATOM     33  O   TYR d   1     -22.586  22.801  79.049  0.00  0.00    -0.271 OA
ATOM     34  N   GLU d   1     -20.845  24.142  79.556  0.00  0.00    -0.345 N 
ATOM     35  H68 GLU d   1     -20.549  24.996  79.984  0.00  0.00     0.163 HD
BRANCH  34  36
ATOM     36  CA  GLU d   1     -19.846  23.279  78.932  0.00  0.00     0.097 C 
ATOM     37  H69 GLU d   1     -20.379  22.609  78.241  0.00  0.00     0.089 H 
BRANCH  36  38
ATOM     38  C   GLU d   1     -19.099  22.380  79.944  0.00  0.00     0.196 C 
ATOM     39  O   GLU d   1     -18.365  22.877  80.810  0.00  0.00    -0.646 OA
ATOM     40  OXT GLU d   1     -19.222  21.147  79.906  0.00  0.00    -0.646 OA
ENDBRANCH  36  38
BRANCH  36  41
ATOM     41  CB  GLU d   1     -18.872  24.124  78.100  0.00  0.00    -0.028 C 
ATOM     42  H70 GLU d   1     -17.995  23.508  77.855  0.00  0.00     0.037 H 
ATOM     43  H71 GLU d   1     -18.556  24.989  78.702  0.00  0.00     0.037 H 
BRANCH  41  44
ATOM     44  CG  GLU d   1     -19.491  24.640  76.788  0.00  0.00     0.018 C 
ATOM     45  H72 GLU d   1     -20.544  24.896  76.978  0.00  0.00     0.049 H 
ATOM     46  H73 GLU d   1     -19.439  23.835  76.040  0.00  0.00     0.049 H 
BRANCH  44  47
ATOM     47  CD  GLU d   1     -18.792  25.872  76.219  0.00  0.00     0.172 C 
ATOM     48  OE1 GLU d   1     -17.626  26.139  76.580  0.00  0.00    -0.648 OA
ATOM     49  OE2 GLU d   1     -19.415  26.578  75.398  0.00  0.00    -0.648 OA
ENDBRANCH  44  47
ENDBRANCH  41  44
ENDBRANCH  36  41
ENDBRANCH  34  36
ENDBRANCH  30  32
BRANCH  30  50
ATOM     50  CB  TYR d   1     -23.520  24.254  81.646  0.00  0.00    -0.014 C 
ATOM     51  H61 TYR d   1     -24.117  23.344  81.487  0.00  0.00     0.043 H 
ATOM     52  H62 TYR d   1     -24.130  25.006  82.169  0.00  0.00     0.043 H 
BRANCH  50  53
ATOM     53  CG  TYR d   1     -22.310  23.920  82.484  0.00  0.00    -0.056 A 
ATOM     54  CD1 TYR d   1     -21.696  24.899  83.270  0.00  0.00    -0.074 A 
ATOM     55  CE1 TYR d   1     -20.556  24.613  84.004  0.00  0.00    -0.051 A 
ATOM     56  H63 TYR d   1     -22.118  25.897  83.306  0.00  0.00     0.084 H 
ATOM     57  CZ  TYR d   1     -20.002  23.332  83.947  0.00  0.00     0.065 A 
ATOM     58  H65 TYR d   1     -20.097  25.379  84.619  0.00  0.00     0.087 H 
ATOM     59  CE2 TYR d   1     -20.581  22.343  83.163  0.00  0.00    -0.051 A 
ATOM     60  CD2 TYR d   1     -21.727  22.642  82.426  0.00  0.00    -0.074 A 
ATOM     61  H66 TYR d   1     -20.148  21.350  83.124  0.00  0.00     0.087 H 
ATOM     62  H64 TYR d   1     -22.174  21.878  81.800  0.00  0.00     0.084 H 
BRANCH  57  63
ATOM     63  OH  TYR d   1     -18.868  23.053  84.673  0.00  0.00    -0.361 OA
ATOM     64  H67 TYR d   1     -18.172  22.789  84.082  0.00  0.00     0.217 HD
ENDBRANCH  57  63
ENDBRANCH  50  53
ENDBRANCH  30  50
ENDBRANCH  28  30
ENDBRANCH  23  26
ENDBRANCH  21  23
ENDBRANCH  17  19
BRANCH  17  65
ATOM     65  CB  SER d   1     -29.604  26.705  78.317  0.00  0.00     0.044 C 
ATOM     66  H53 SER d   1     -29.375  26.583  77.248  0.00  0.00     0.077 H 
ATOM     67  H54 SER d   1     -29.578  27.773  78.578  0.00  0.00     0.077 H 
BRANCH  65  68
ATOM     68  OG  SER d   1     -30.896  26.199  78.572  0.00  0.00    -0.398 OA
ATOM     69  H55 SER d   1     -31.530  26.675  78.049  0.00  0.00     0.209 HD
ENDBRANCH  65  68
ENDBRANCH  17  65
ENDBRANCH  15  17
ENDBRANCH  11  13
BRANCH  11  70
ATOM     70  CB  ASP d   1     -27.535  27.230  83.383  0.00  0.00     0.043 C 
ATOM     71  H49 ASP d   1     -27.867  28.062  82.745  0.00  0.00     0.052 H 
ATOM     72  H50 ASP d   1     -26.460  27.056  83.229  0.00  0.00     0.052 H 
BRANCH  70  73
ATOM     73  CG  ASP d   1     -27.758  27.615  84.833  0.00  0.00     0.175 C 
ATOM     74  OD1 ASP d   1     -28.782  27.223  85.425  0.00  0.00    -0.648 OA
ATOM     75  OD2 ASP d   1     -26.899  28.331  85.383  0.00  0.00    -0.648 OA
ENDBRANCH  70  73
ENDBRANCH  11  70
ENDBRANCH   9  11
ENDBRANCH   5   7
BRANCH   5  76
ATOM     76  CB  HIS d   1     -26.805  21.872  83.505  0.00  0.00     0.004 C 
ATOM     77  H42 HIS d   1     -26.299  21.040  84.015  0.00  0.00     0.046 H 
ATOM     78  H43 HIS d   1     -26.064  22.633  83.221  0.00  0.00     0.046 H 
BRANCH  76  79
ATOM     79  CG  HIS d   1     -27.445  21.345  82.259  0.00  0.00     0.053 A 
ATOM     80  ND1 HIS d   1     -28.278  20.247  82.259  0.00  0.00    -0.247 NA
ATOM     81  CE1 HIS d   1     -28.714  20.026  81.031  0.00  0.00     0.064 A 
ATOM     82  NE2 HIS d   1     -28.193  20.944  80.235  0.00  0.00    -0.359 N 
ATOM     83  H45 HIS d   1     -29.387  19.225  80.727  0.00  0.00     0.143 H 
ATOM     84  CD2 HIS d   1     -27.399  21.784  80.981  0.00  0.00     0.002 A 
ATOM     85  H46 HIS d   1     -28.355  21.018  79.221  0.00  0.00     0.166 HD
ATOM     86  H44 HIS d   1     -26.839  22.642  80.612  0.00  0.00     0.114 H 
ENDBRANCH  76  79
ENDBRANCH   5  76
ENDBRANCH   3   5
BRANCH   1  87
ATOM     87  CA  ARG d   1     -29.418  19.614  86.349  0.00  0.00     0.089 C 
ATOM     88  H28 ARG d   1     -30.244  19.628  85.623  0.00  0.00     0.087 H 
BRANCH  87  89
ATOM     89  N   ARG d   1     -28.798  18.295  86.337  0.00  0.00    -0.346 N 
ATOM     90  C   PHE d   1     -28.476  17.667  85.211  0.00  0.00     0.241 C 
ATOM     91  O   PHE d   1     -28.704  18.123  84.088  0.00  0.00    -0.271 OA
ATOM     92  H27 ARG d   1     -28.608  17.845  87.210  0.00  0.00     0.163 HD
BRANCH  90  93
ATOM     93  CA  PHE d   1     -27.777  16.325  85.386  0.00  0.00     0.093 C 
ATOM     94  H19 PHE d   1     -28.030  15.938  86.384  0.00  0.00     0.088 H 
BRANCH  93  95
ATOM     95  N   PHE d   1     -28.216  15.334  84.400  0.00  0.00    -0.346 N 
ATOM     96  C   GLU d   1     -29.148  14.431  84.679  0.00  0.00     0.241 C 
ATOM     97  O   GLU d   1     -29.611  14.279  85.795  0.00  0.00    -0.271 OA
ATOM     98  H18 PHE d   1     -27.801  15.338  83.490  0.00  0.00     0.163 HD
BRANCH  96  99
ATOM     99  CA  GLU d   1     -29.642  13.553  83.518  0.00  0.00     0.090 C 
ATOM    100  H13 GLU d   1     -28.800  13.389  82.829  0.00  0.00     0.087 H 
BRANCH  99 101
ATOM    101  N   GLU d   1     -30.115  12.245  83.986  0.00  0.00    -0.346 N 
ATOM    102  C   ALA d   1     -29.814  11.123  83.336  0.00  0.00     0.240 C 
ATOM    103  O   ALA d   1     -29.023  11.101  82.403  0.00  0.00    -0.271 OA
ATOM    104  H12 GLU d   1     -30.676  12.195  84.812  0.00  0.00     0.163 HD
BRANCH 102 105
ATOM    105  CA  ALA d   1     -30.493   9.825  83.789  0.00  0.00     0.086 C 
ATOM    106  H8  ALA d   1     -29.735   9.036  83.677  0.00  0.00     0.086 H 
BRANCH 105 107
ATOM    107  N   ALA d   1     -30.941   9.757  85.177  0.00  0.00    -0.346 N 
ATOM    108  C   ASP d   1     -30.259   9.094  86.106  0.00  0.00     0.249 C 
ATOM    109  O   ASP d   1     -29.066   8.798  85.987  0.00  0.00    -0.271 OA
ATOM    110  H7  ALA d   1     -31.787  10.223  85.437  0.00  0.00     0.163 HD
BRANCH 108 111
ATOM    111  CA  ASP d   1     -31.036   8.704  87.363  0.00  0.00     0.185 C 
ATOM    112  H4  ASP d   1     -30.499   9.089  88.242  0.00  0.00     0.100 H 
BRANCH 111 113
ATOM    113  N   ASP d   1     -32.418   9.275  87.376  0.00  0.00    -0.066 N 
ATOM    114  H1  ASP d   1     -32.890   8.992  88.220  0.00  0.00     0.275 HD
ATOM    115  H2  ASP d   1     -32.929   8.937  86.576  0.00  0.00     0.275 HD
ATOM    116  H3  ASP d   1     -32.366  10.281  87.341  0.00  0.00     0.275 HD
ENDBRANCH 111 113
BRANCH 111 117
ATOM    117  CB  ASP d   1     -31.076   7.168  87.436  0.00  0.00     0.050 C 
ATOM    118  H5  ASP d   1     -30.054   6.801  87.612  0.00  0.00     0.052 H 
ATOM    119  H6  ASP d   1     -31.443   6.783  86.473  0.00  0.00     0.052 H 
BRANCH 117 120
ATOM    120  CG  ASP d   1     -31.975   6.636  88.540  0.00  0.00     0.175 C 
ATOM    121  OD1 ASP d   1     -31.770   6.978  89.730  0.00  0.00    -0.648 OA
ATOM    122  OD2 ASP d   1     -32.882   5.844  88.204  0.00  0.00    -0.648 OA
ENDBRANCH 117 120
ENDBRANCH 111 117
ENDBRANCH 108 111
ENDBRANCH 105 107
BRANCH 105 123
ATOM    123  CB  ALA d   1     -31.658   9.474  82.853  0.00  0.00    -0.049 C 
ATOM    124  H9  ALA d   1     -31.317   9.526  81.808  0.00  0.00     0.030 H 
ATOM    125  H10 ALA d   1     -32.480  10.189  83.007  0.00  0.00     0.030 H 
ATOM    126  H11 ALA d   1     -32.011   8.456  83.073  0.00  0.00     0.030 H 
ENDBRANCH 105 123
ENDBRANCH 102 105
ENDBRANCH  99 101
BRANCH  99 127
ATOM    127  CB  GLU d   1     -30.770  14.271  82.752  0.00  0.00    -0.029 C 
ATOM    128  H14 GLU d   1     -31.665  14.270  83.392  0.00  0.00     0.037 H 
ATOM    129  H15 GLU d   1     -30.974  13.696  81.836  0.00  0.00     0.037 H 
BRANCH 127 130
ATOM    130  CG  GLU d   1     -30.487  15.726  82.341  0.00  0.00     0.018 C 
ATOM    131  H16 GLU d   1     -30.232  16.295  83.247  0.00  0.00     0.049 H 
ATOM    132  H17 GLU d   1     -31.402  16.140  81.893  0.00  0.00     0.049 H 
BRANCH 130 133
ATOM    133  CD  GLU d   1     -29.341  15.892  81.332  0.00  0.00     0.172 C 
ATOM    134  OE1 GLU d   1     -28.192  15.453  81.584  0.00  0.00    -0.648 OA
ATOM    135  OE2 GLU d   1     -29.586  16.510  80.274  0.00  0.00    -0.648 OA
ENDBRANCH 130 133
ENDBRANCH 127 130
ENDBRANCH  99 127
ENDBRANCH  96  99
ENDBRANCH  93  95
BRANCH  93 136
ATOM    136  CB  PHE d   1     -26.261  16.528  85.321  0.00  0.00    -0.014 C 
ATOM    137  H20 PHE d   1     -25.991  17.355  85.994  0.00  0.00     0.043 H 
ATOM    138  H21 PHE d   1     -25.988  16.791  84.288  0.00  0.00     0.043 H 
BRANCH 136 139
ATOM    139  CG  PHE d   1     -25.482  15.318  85.722  0.00  0.00    -0.056 A 
ATOM    140  CD1 PHE d   1     -25.190  15.087  87.059  0.00  0.00    -0.077 A 
ATOM    141  CE1 PHE d   1     -24.461  13.955  87.449  0.00  0.00    -0.082 A 
ATOM    142  H22 PHE d   1     -25.530  15.790  87.811  0.00  0.00     0.084 H 
ATOM    143  CZ  PHE d   1     -24.037  13.043  86.481  0.00  0.00    -0.083 A 
ATOM    144  H24 PHE d   1     -24.228  13.789  88.495  0.00  0.00     0.083 H 
ATOM    145  CE2 PHE d   1     -24.328  13.272  85.142  0.00  0.00    -0.082 A 
ATOM    146  H26 PHE d   1     -23.482  12.159  86.773  0.00  0.00     0.083 H 
ATOM    147  CD2 PHE d   1     -25.049  14.405  84.767  0.00  0.00    -0.077 A 
ATOM    148  H25 PHE d   1     -23.994  12.569  84.388  0.00  0.00     0.083 H 
ATOM    149  H23 PHE d   1     -25.274  14.576  83.721  0.00  0.00     0.084 H 
ENDBRANCH 136 139
ENDBRANCH  93 136
ENDBRANCH  90  93
ENDBRANCH  87  89
BRANCH  87 150
ATOM    150  CB  ARG d   1     -29.991  19.905  87.741  0.00  0.00    -0.036 C 
ATOM    151  H29 ARG d   1     -29.156  20.167  88.407  0.00  0.00     0.036 H 
ATOM    152  H30 ARG d   1     -30.480  18.990  88.108  0.00  0.00     0.036 H 
BRANCH 150 153
ATOM    153  CG  ARG d   1     -31.014  21.044  87.790  0.00  0.00    -0.048 C 
ATOM    154  H31 ARG d   1     -31.800  20.855  87.044  0.00  0.00     0.035 H 
ATOM    155  H32 ARG d   1     -30.509  21.993  87.558  0.00  0.00     0.035 H 
BRANCH 153 156
ATOM    156  CD  ARG d   1     -31.654  21.141  89.184  0.00  0.00     0.009 C 
ATOM    157  H33 ARG d   1     -30.856  21.245  89.934  0.00  0.00     0.064 H 
ATOM    158  H34 ARG d   1     -32.221  20.219  89.378  0.00  0.00     0.064 H 
BRANCH 156 159
ATOM    159  NE  ARG d   1     -32.563  22.288  89.299  0.00  0.00    -0.227 N 
ATOM    160  CZ  ARG d   1     -32.186  23.558  89.428  0.00  0.00     0.665 C 
ATOM    161  NH1 ARG d   1     -30.896  23.897  89.481  0.00  0.00    -0.235 N 
ATOM    162  NH2 ARG d   1     -33.116  24.504  89.511  0.00  0.00    -0.235 N 
ATOM    163  H36 ARG d   1     -30.627  24.886  89.581  0.00  0.00     0.174 HD
ATOM    164  H37 ARG d   1     -30.169  23.169  89.422  0.00  0.00     0.174 HD
ATOM    165  H38 ARG d   1     -34.114  24.250  89.471  0.00  0.00     0.174 HD
ATOM    166  H39 ARG d   1     -32.839  25.491  89.615  0.00  0.00     0.174 HD
ATOM    167  H35 ARG d   1     -33.574  22.094  89.278  0.00  0.00     0.177 HD
ENDBRANCH 156 159
ENDBRANCH 153 156
ENDBRANCH 150 153
ENDBRANCH  87 150
ENDBRANCH   1  87
TORSDOF 46
