REMARK  4 active torsions:
REMARK  status: ('A' for Active; 'I' for Inactive)
REMARK    1  A    between atoms: C1'_3  and  N_5 
REMARK    2  A    between atoms: N_5  and  C1_6 
REMARK    3  A    between atoms: C1_6  and  C2_7 
REMARK    4  A    between atoms: C2_7  and  S_8 
ROOT
ATOM      1  C3' NHE d   1      -0.629  24.699 -11.496  0.00  0.00    -0.063 C 
ATOM      2  C2' NHE d   1      -1.619  25.801 -11.896  0.00  0.00    -0.038 C 
ATOM      3  C1' NHE d   1      -2.467  26.422 -10.772  0.00  0.00     0.102 C 
ATOM      4  C6' NHE d   1      -1.721  26.495  -9.430  0.00  0.00    -0.038 C 
ATOM      5  C5' NHE d   1      -0.804  25.310  -9.089  0.00  0.00    -0.063 C 
ATOM      6  C4' NHE d   1       0.164  25.008 -10.226  0.00  0.00    -0.065 C 
ATOM      7  H1  NHE d   1       0.083  24.557 -12.322  0.00  0.00     0.033 H 
ATOM      8  H2  NHE d   1      -1.193  23.769 -11.334  0.00  0.00     0.033 H 
ATOM      9  H3  NHE d   1      -2.311  25.372 -12.635  0.00  0.00     0.036 H 
ATOM     10  H4  NHE d   1      -1.041  26.613 -12.362  0.00  0.00     0.036 H 
ATOM     11  H5  NHE d   1      -3.369  25.808 -10.637  0.00  0.00     0.084 H 
ATOM     12  H6  NHE d   1      -2.475  26.574  -8.633  0.00  0.00     0.036 H 
ATOM     13  H7  NHE d   1      -1.102  27.404  -9.441  0.00  0.00     0.036 H 
ATOM     14  H14 NHE d   1      -1.424  24.421  -8.902  0.00  0.00     0.033 H 
ATOM     15  H15 NHE d   1      -0.228  25.553  -8.184  0.00  0.00     0.033 H 
ATOM     16  H16 NHE d   1       0.810  25.881 -10.400  0.00  0.00     0.033 H 
ATOM     17  H17 NHE d   1       0.784  24.140  -9.960  0.00  0.00     0.033 H 
ENDROOT
BRANCH   3  18
ATOM     18  N   NHE d   1      -2.857  27.772 -11.165  0.00  0.00    -0.070 N 
ATOM     19  H8  NHE d   1      -2.443  27.926 -12.071  0.00  0.00     0.277 HD
ATOM     20  H9  NHE d   1      -2.431  28.389 -10.491  0.00  0.00     0.277 HD
BRANCH  18  21
ATOM     21  C1  NHE d   1      -4.241  28.206 -11.282  0.00  0.00     0.097 C 
ATOM     22  H10 NHE d   1      -4.801  27.856 -10.402  0.00  0.00     0.077 H 
ATOM     23  H11 NHE d   1      -4.677  27.768 -12.192  0.00  0.00     0.077 H 
BRANCH  21  24
ATOM     24  C2  NHE d   1      -4.348  29.735 -11.365  0.00  0.00     0.068 C 
ATOM     25  H12 NHE d   1      -3.345  30.159 -11.209  0.00  0.00     0.062 H 
ATOM     26  H13 NHE d   1      -5.020  30.077 -10.564  0.00  0.00     0.062 H 
BRANCH  24  27
ATOM     27  S   NHE d   1      -4.938  30.309 -12.825  0.00  0.00     0.103 S 
ATOM     28  O1  NHE d   1      -3.911  31.091 -13.559  0.00  0.00    -0.595 OA
ATOM     29  O2  NHE d   1      -5.351  29.161 -13.672  0.00  0.00    -0.595 OA
ATOM     30  O3  NHE d   1      -6.099  31.202 -12.581  0.00  0.00    -0.595 OA
ENDBRANCH  24  27
ENDBRANCH  21  24
ENDBRANCH  18  21
ENDBRANCH   3  18
TORSDOF 4
