REMARK  8 active torsions:
REMARK  status: ('A' for Active; 'I' for Inactive)
REMARK    1  A    between atoms: C5_20  and  O1_4 
REMARK    2  A    between atoms: O1_4  and  C7_22 
REMARK    3  A    between atoms: C10_26  and  C12_6 
REMARK    4  A    between atoms: C13_7  and  N4_29 
REMARK    5  A    between atoms: N3_28  and  C14_8 
REMARK    6  A    between atoms: N4_29  and  C15_9 
REMARK    7  A    between atoms: C18_12  and  C23_17 
REMARK    8  A    between atoms: C22_16  and  C24_18 
ROOT
ATOM      1  C1  55J d   1     -19.280   9.437  -8.935  0.00  0.00     0.106 A 
ATOM      2  C2  55J d   1     -19.907   8.738  -9.971  0.00  0.00     0.081 A 
ATOM      3  C3  55J d   1     -19.674   9.025 -11.312  0.00  0.00    -0.051 A 
ATOM      4  C13 55J d   1     -20.608   8.032  -7.992  0.00  0.00     0.708 A 
ATOM      5  C4  55J d   1     -18.785  10.044 -11.609  0.00  0.00    -0.048 A 
ATOM      6  C5  55J d   1     -18.134  10.729 -10.581  0.00  0.00     0.078 A 
ATOM      7  C6  55J d   1     -18.367  10.449  -9.236  0.00  0.00    -0.020 A 
ATOM      8  N2  55J d   1     -19.744   8.984  -7.695  0.00  0.00    -0.062 NA
ATOM      9  N3  55J d   1     -20.762   7.840  -9.345  0.00  0.00    -0.183 N 
ATOM     10  H1  55J d   1     -20.172   8.469 -12.098  0.00  0.00     0.087 H 
ATOM     11  H11 55J d   1     -18.594  10.311 -12.642  0.00  0.00     0.087 H 
ATOM     12  H12 55J d   1     -17.858  10.997  -8.452  0.00  0.00     0.091 H 
ENDROOT
BRANCH   6  13
ATOM     13  O1  55J d   1     -17.140  11.635 -10.927  0.00  0.00    -0.311 OA
BRANCH  13  14
ATOM     14  C7  55J d   1     -17.408  12.990 -11.106  0.00  0.00     0.079 A 
ATOM     15  C11 55J d   1     -16.323  13.774 -11.466  0.00  0.00    -0.019 A 
ATOM     16  C10 55J d   1     -16.526  15.138 -11.628  0.00  0.00     0.105 A 
ATOM     17  H2  55J d   1     -15.344  13.335 -11.617  0.00  0.00     0.091 H 
ATOM     18  N1  55J d   1     -17.724  15.725 -11.474  0.00  0.00    -0.257 NA
ATOM     19  C9  55J d   1     -18.754  14.936 -11.121  0.00  0.00     0.006 A 
ATOM     20  C8  55J d   1     -18.652  13.572 -10.922  0.00  0.00    -0.033 A 
ATOM     21  H14 55J d   1     -19.725  15.398 -10.984  0.00  0.00     0.114 H 
ATOM     22  H13 55J d   1     -19.513  12.980 -10.633  0.00  0.00     0.090 H 
BRANCH  16  23
ATOM     23  C12 55J d   1     -15.402  16.035 -11.922  0.00  0.00     0.157 A 
ATOM     24  N5  55J d   1     -15.576  17.424 -12.129  0.00  0.00    -0.239 NA
ATOM     25  C21 55J d   1     -14.330  17.919 -12.342  0.00  0.00     0.035 A 
ATOM     26  C22 55J d   1     -13.477  16.865 -12.271  0.00  0.00     0.136 A 
ATOM     27  H10 55J d   1     -14.066  18.958 -12.533  0.00  0.00     0.118 H 
ATOM     28  N6  55J d   1     -14.125  15.686 -12.008  0.00  0.00    -0.334 N 
ATOM     29  H16 55J d   1     -13.715  14.747 -11.902  0.00  0.00     0.167 HD
BRANCH  26  30
ATOM     30  C24 55J d   1     -12.012  16.855 -12.450  0.00  0.00     0.434 C 
ATOM     31  F4  55J d   1     -11.660  16.349 -13.615  0.00  0.00    -0.165 F 
ATOM     32  F5  55J d   1     -11.483  18.067 -12.355  0.00  0.00    -0.165 F 
ATOM     33  F6  55J d   1     -11.413  16.103 -11.541  0.00  0.00    -0.165 F 
ENDBRANCH  26  30
ENDBRANCH  16  23
ENDBRANCH  13  14
ENDBRANCH   6  13
BRANCH   9  34
ATOM     34  C14 55J d   1     -21.705   6.935 -10.000  0.00  0.00     0.003 C 
ATOM     35  H3  55J d   1     -21.586   7.008 -11.091  0.00  0.00     0.058 H 
ATOM     36  H4  55J d   1     -22.733   7.214  -9.724  0.00  0.00     0.058 H 
ATOM     37  H5  55J d   1     -21.506   5.902  -9.678  0.00  0.00     0.058 H 
ENDBRANCH   9  34
BRANCH   4  38
ATOM     38  N4  55J d   1     -21.290   7.244  -7.119  0.00  0.00    -0.190 N 
ATOM     39  H15 55J d   1     -21.517   6.295  -7.450  0.00  0.00     0.184 HD
BRANCH  38  40
ATOM     40  C15 55J d   1     -21.726   7.565  -5.815  0.00  0.00     0.049 A 
ATOM     41  C16 55J d   1     -22.276   6.551  -5.042  0.00  0.00    -0.056 A 
ATOM     42  C17 55J d   1     -22.736   6.821  -3.765  0.00  0.00    -0.066 A 
ATOM     43  H6  55J d   1     -22.345   5.545  -5.440  0.00  0.00     0.086 H 
ATOM     44  C18 55J d   1     -22.658   8.099  -3.232  0.00  0.00     0.048 A 
ATOM     45  H7  55J d   1     -23.164   6.021  -3.172  0.00  0.00     0.084 H 
ATOM     46  C19 55J d   1     -22.104   9.109  -4.010  0.00  0.00    -0.066 A 
ATOM     47  C20 55J d   1     -21.644   8.851  -5.289  0.00  0.00    -0.056 A 
ATOM     48  H8  55J d   1     -22.031  10.113  -3.609  0.00  0.00     0.084 H 
ATOM     49  H9  55J d   1     -21.219   9.652  -5.883  0.00  0.00     0.086 H 
BRANCH  44  50
ATOM     50  C23 55J d   1     -23.233   8.390  -1.889  0.00  0.00     0.417 C 
ATOM     51  F1  55J d   1     -23.082   9.649  -1.475  0.00  0.00    -0.166 F 
ATOM     52  F2  55J d   1     -24.510   8.144  -1.853  0.00  0.00    -0.166 F 
ATOM     53  F3  55J d   1     -22.719   7.659  -0.942  0.00  0.00    -0.166 F 
ENDBRANCH  44  50
ENDBRANCH  38  40
ENDBRANCH   4  38
TORSDOF 8
