REMARK  4 active torsions:
REMARK  status: ('A' for Active; 'I' for Inactive)
REMARK       I    between atoms: N3_1  and  C9_6 
REMARK    1  A    between atoms: C9_6  and  C4_2 
REMARK    2  A    between atoms: C20_8  and  C23_29 
REMARK    3  A    between atoms: C19_13  and  C24_30 
REMARK    4  A    between atoms: C2_15  and  C1_14 
ROOT
ATOM      1  N3  57J d   1       6.036  29.958  22.937  0.00  0.00    -0.348 N 
ATOM      2  C9  57J d   1       5.650  29.564  24.215  0.00  0.00     0.253 C 
ATOM      3  C13 57J d   1       4.803  31.011  21.060  0.00  0.00    -0.020 C 
ATOM      4  C20 57J d   1       7.821  33.456  17.707  0.00  0.00    -0.053 A 
ATOM      5  C21 57J d   1       7.796  32.439  18.650  0.00  0.00    -0.044 A 
ATOM      6  C18 57J d   1       5.585  32.892  16.996  0.00  0.00    -0.061 A 
ATOM      7  C16 57J d   1       4.375  31.000  18.049  0.00  0.00     0.165 C 
ATOM      8  C19 57J d   1       6.723  33.678  16.868  0.00  0.00    -0.055 A 
ATOM      9  O1  57J d   1       5.860  28.421  24.614  0.00  0.00    -0.267 OA
ATOM     10  C10 57J d   1       6.737  29.035  22.029  0.00  0.00     0.001 C 
ATOM     11  C11 57J d   1       5.902  28.761  20.776  0.00  0.00    -0.020 C 
ATOM     12  C12 57J d   1       5.502  30.069  20.077  0.00  0.00     0.077 C 
ATOM     13  C14 57J d   1       5.654  31.232  22.318  0.00  0.00     0.001 C 
ATOM     14  C15 57J d   1       4.594  29.767  18.882  0.00  0.00     0.024 C 
ATOM     15  O2  57J d   1       3.323  31.220  17.477  0.00  0.00    -0.292 OA
ATOM     16  C17 57J d   1       5.543  31.870  17.939  0.00  0.00     0.044 A 
ATOM     17  C22 57J d   1       6.651  31.648  18.755  0.00  0.00     0.084 A 
ATOM     18  O3  57J d   1       6.729  30.640  19.664  0.00  0.00    -0.339 OA
ATOM     19  H1  57J d   1       3.838  30.572  21.352  0.00  0.00     0.040 H 
ATOM     20  H2  57J d   1       4.631  31.980  20.568  0.00  0.00     0.040 H 
ATOM     21  H3  57J d   1       8.650  32.262  19.294  0.00  0.00     0.088 H 
ATOM     22  H5  57J d   1       4.727  33.075  16.359  0.00  0.00     0.086 H 
ATOM     23  H12 57J d   1       6.922  28.086  22.553  0.00  0.00     0.064 H 
ATOM     24  H13 57J d   1       7.697  29.483  21.731  0.00  0.00     0.064 H 
ATOM     25  H14 57J d   1       4.991  28.215  21.064  0.00  0.00     0.040 H 
ATOM     26  H15 57J d   1       6.492  28.148  20.079  0.00  0.00     0.040 H 
ATOM     27  H16 57J d   1       6.565  31.783  22.041  0.00  0.00     0.064 H 
ATOM     28  H17 57J d   1       5.074  31.822  23.043  0.00  0.00     0.064 H 
ATOM     29  H18 57J d   1       5.064  28.991  18.260  0.00  0.00     0.049 H 
ATOM     30  H19 57J d   1       3.623  29.404  19.250  0.00  0.00     0.049 H 
ENDROOT
BRANCH   2  31
ATOM     31  C4  57J d   1       5.041  30.576  25.110  0.00  0.00     0.033 A 
ATOM     32  C3  57J d   1       3.788  30.265  25.688  0.00  0.00    -0.060 A 
ATOM     33  C2  57J d   1       3.195  31.111  26.596  0.00  0.00    -0.032 A 
ATOM     34  H9  57J d   1       3.287  29.345  25.411  0.00  0.00     0.086 H 
ATOM     35  C7  57J d   1       3.893  32.287  26.914  0.00  0.00     0.067 A 
ATOM     36  C6  57J d   1       5.164  32.586  26.356  0.00  0.00     0.013 A 
ATOM     37  N1  57J d   1       3.595  33.338  27.774  0.00  0.00    -0.277 N 
ATOM     38  C8  57J d   1       5.558  33.838  26.946  0.00  0.00     0.034 A 
ATOM     39  C5  57J d   1       5.750  31.708  25.445  0.00  0.00    -0.054 A 
ATOM     40  N2  57J d   1       4.596  34.270  27.789  0.00  0.00    -0.186 NA
ATOM     41  H4  57J d   1       6.492  34.359  26.743  0.00  0.00     0.118 H 
ATOM     42  H10 57J d   1       6.726  31.909  25.017  0.00  0.00     0.086 H 
ATOM     43  H11 57J d   1       2.730  33.406  28.329  0.00  0.00     0.189 HD
BRANCH  33  44
ATOM     44  C1  57J d   1       1.908  30.815  27.266  0.00  0.00    -0.049 C 
ATOM     45  H6  57J d   1       1.512  29.859  26.892  0.00  0.00     0.033 H 
ATOM     46  H7  57J d   1       1.189  31.619  27.051  0.00  0.00     0.033 H 
ATOM     47  H8  57J d   1       2.067  30.746  28.352  0.00  0.00     0.033 H 
ENDBRANCH  33  44
ENDBRANCH   2  31
BRANCH   4  48
ATOM     48  C23 57J d   1       9.024  34.319  17.597  0.00  0.00    -0.051 C 
ATOM     49  H20 57J d   1       9.776  33.995  18.331  0.00  0.00     0.033 H 
ATOM     50  H21 57J d   1       8.745  35.364  17.795  0.00  0.00     0.033 H 
ATOM     51  H22 57J d   1       9.443  34.237  16.583  0.00  0.00     0.033 H 
ENDBRANCH   4  48
BRANCH   8  52
ATOM     52  C24 57J d   1       6.778  34.744  15.833  0.00  0.00    -0.051 C 
ATOM     53  H23 57J d   1       7.751  35.255  15.884  0.00  0.00     0.033 H 
ATOM     54  H24 57J d   1       5.972  35.471  16.012  0.00  0.00     0.033 H 
ATOM     55  H25 57J d   1       6.652  34.295  14.837  0.00  0.00     0.033 H 
ENDBRANCH   8  52
TORSDOF 4
