REMARK  7 active torsions:
REMARK  status: ('A' for Active; 'I' for Inactive)
REMARK       I    between atoms: N3_1  and  C9_6 
REMARK    1  A    between atoms: C9_6  and  C4_2 
REMARK    2  A    between atoms: C18_11  and  C20_8 
REMARK    3  A    between atoms: C18_11  and  C21_9 
REMARK    4  A    between atoms: C18_11  and  C19_13 
REMARK    5  A    between atoms: O3_28  and  C18_11 
REMARK    6  A    between atoms: C2_15  and  C1_14 
REMARK       I    between atoms: C17_26  and  N4_25 
REMARK    7  A    between atoms: C17_26  and  O3_28 
ROOT
ATOM      1  N3  57K d   1       5.957  29.865  22.941  0.00  0.00    -0.348 N 
ATOM      2  C9  57K d   1       5.717  29.445  24.244  0.00  0.00     0.253 C 
ATOM      3  C13 57K d   1       5.853  28.919  20.655  0.00  0.00    -0.041 C 
ATOM      4  C16 57K d   1       4.784  30.297  18.747  0.00  0.00    -0.004 A 
ATOM      5  O1  57K d   1       6.018  28.308  24.611  0.00  0.00    -0.267 OA
ATOM      6  C10 57K d   1       5.621  31.206  22.456  0.00  0.00    -0.001 C 
ATOM      7  C11 57K d   1       4.813  31.130  21.158  0.00  0.00    -0.041 C 
ATOM      8  C12 57K d   1       5.530  30.296  20.117  0.00  0.00    -0.013 A 
ATOM      9  C14 57K d   1       6.654  29.018  21.958  0.00  0.00    -0.001 C 
ATOM     10  C15 57K d   1       6.725  31.017  19.428  0.00  0.00    -0.004 A 
ATOM     11  N4  57K d   1       5.975  30.965  18.124  0.00  0.00    -0.227 NA
ATOM     12  C17 57K d   1       5.752  32.129  17.356  0.00  0.00     0.341 C 
ATOM     13  O2  57K d   1       4.757  32.325  16.671  0.00  0.00    -0.245 OA
ATOM     14  H1  57K d   1       6.445  28.370  19.908  0.00  0.00     0.036 H 
ATOM     15  H2  57K d   1       4.915  28.378  20.849  0.00  0.00     0.036 H 
ATOM     16  H10 57K d   1       3.866  30.903  18.732  0.00  0.00     0.057 H 
ATOM     17  H11 57K d   1       4.568  29.295  18.349  0.00  0.00     0.057 H 
ATOM     18  H21 57K d   1       6.550  31.765  22.270  0.00  0.00     0.064 H 
ATOM     19  H22 57K d   1       5.026  31.727  23.221  0.00  0.00     0.064 H 
ATOM     20  H23 57K d   1       4.668  32.147  20.765  0.00  0.00     0.036 H 
ATOM     21  H24 57K d   1       3.834  30.675  21.370  0.00  0.00     0.036 H 
ATOM     22  H25 57K d   1       6.783  28.010  22.379  0.00  0.00     0.064 H 
ATOM     23  H26 57K d   1       7.640  29.454  21.742  0.00  0.00     0.064 H 
ATOM     24  H27 57K d   1       7.663  30.443  19.433  0.00  0.00     0.057 H 
ATOM     25  H28 57K d   1       6.915  32.035  19.800  0.00  0.00     0.057 H 
ENDROOT
BRANCH  12  26
ATOM     26  O3  57K d   1       6.826  32.953  17.399  0.00  0.00    -0.298 OA
BRANCH  26  27
ATOM     27  C18 57K d   1       6.895  34.092  16.556  0.00  0.00     0.061 C 
BRANCH  27  28
ATOM     28  C20 57K d   1       8.260  34.688  16.935  0.00  0.00    -0.048 C 
ATOM     29  H3  57K d   1       8.441  35.596  16.341  0.00  0.00     0.031 H 
ATOM     30  H4  57K d   1       9.051  33.952  16.730  0.00  0.00     0.031 H 
ATOM     31  H5  57K d   1       8.264  34.943  18.005  0.00  0.00     0.031 H 
ENDBRANCH  27  28
BRANCH  27  32
ATOM     32  C21 57K d   1       6.887  33.703  15.080  0.00  0.00    -0.048 C 
ATOM     33  H6  57K d   1       5.907  33.278  14.818  0.00  0.00     0.031 H 
ATOM     34  H7  57K d   1       7.673  32.956  14.893  0.00  0.00     0.031 H 
ATOM     35  H8  57K d   1       7.076  34.595  14.465  0.00  0.00     0.031 H 
ENDBRANCH  27  32
BRANCH  27  36
ATOM     36  C19 57K d   1       5.773  35.077  16.879  0.00  0.00    -0.048 C 
ATOM     37  H12 57K d   1       5.808  35.335  17.948  0.00  0.00     0.031 H 
ATOM     38  H13 57K d   1       4.802  34.616  16.645  0.00  0.00     0.031 H 
ATOM     39  H14 57K d   1       5.901  35.989  16.277  0.00  0.00     0.031 H 
ENDBRANCH  27  36
ENDBRANCH  26  27
ENDBRANCH  12  26
BRANCH   2  40
ATOM     40  C4  57K d   1       5.072  30.396  25.181  0.00  0.00     0.033 A 
ATOM     41  C3  57K d   1       5.762  31.561  25.590  0.00  0.00    -0.060 A 
ATOM     42  C2  57K d   1       5.212  32.427  26.506  0.00  0.00    -0.032 A 
ATOM     43  H18 57K d   1       6.740  31.775  25.175  0.00  0.00     0.086 H 
ATOM     44  C7  57K d   1       3.954  32.084  27.024  0.00  0.00     0.067 A 
ATOM     45  C6  57K d   1       3.268  30.908  26.628  0.00  0.00     0.013 A 
ATOM     46  N1  57K d   1       3.161  32.693  27.989  0.00  0.00    -0.277 N 
ATOM     47  C8  57K d   1       2.066  30.885  27.418  0.00  0.00     0.034 A 
ATOM     48  C5  57K d   1       3.840  30.050  25.689  0.00  0.00    -0.054 A 
ATOM     49  N2  57K d   1       2.027  31.964  28.229  0.00  0.00    -0.186 NA
ATOM     50  H9  57K d   1       1.301  30.112  27.369  0.00  0.00     0.118 H 
ATOM     51  H19 57K d   1       3.334  29.145  25.371  0.00  0.00     0.086 H 
ATOM     52  H20 57K d   1       3.396  33.577  28.462  0.00  0.00     0.189 HD
BRANCH  42  53
ATOM     53  C1  57K d   1       5.864  33.670  26.974  0.00  0.00    -0.049 C 
ATOM     54  H15 57K d   1       6.835  33.786  26.471  0.00  0.00     0.033 H 
ATOM     55  H16 57K d   1       6.018  33.616  28.062  0.00  0.00     0.033 H 
ATOM     56  H17 57K d   1       5.223  34.532  26.737  0.00  0.00     0.033 H 
ENDBRANCH  42  53
ENDBRANCH   2  40
TORSDOF 7
