REMARK  9 active torsions:
REMARK  status: ('A' for Active; 'I' for Inactive)
REMARK       I    between atoms: N3_1  and  C9_6 
REMARK    1  A    between atoms: C9_6  and  C4_2 
REMARK    2  A    between atoms: C20_8  and  C21_9 
REMARK    3  A    between atoms: O3_28  and  C20_8 
REMARK    4  A    between atoms: C21_9  and  C22_29 
REMARK    5  A    between atoms: C21_9  and  C23_30 
REMARK    6  A    between atoms: C21_9  and  C24_31 
REMARK    7  A    between atoms: C17_26  and  C18_11 
REMARK       I    between atoms: N4_25  and  C19_13 
REMARK    8  A    between atoms: C19_13  and  O3_28 
REMARK    9  A    between atoms: C2_15  and  C1_14 
ROOT
ATOM      1  N3  57L d   1       8.748  -9.616 -17.396  0.00  0.00    -0.348 N 
ATOM      2  C9  57L d   1       8.269  -9.972 -16.135  0.00  0.00     0.253 C 
ATOM      3  C13 57L d   1      10.700  -9.966 -18.868  0.00  0.00    -0.041 C 
ATOM      4  C16 57L d   1       9.640  -8.269 -22.093  0.00  0.00     0.001 C 
ATOM      5  C19 57L d   1       9.423 -10.256 -23.638  0.00  0.00     0.363 C 
ATOM      6  O1  57L d   1       9.034 -10.257 -15.218  0.00  0.00    -0.267 OA
ATOM      7  C10 57L d   1       7.871  -9.328 -18.536  0.00  0.00    -0.001 C 
ATOM      8  C11 57L d   1       8.396 -10.005 -19.800  0.00  0.00    -0.041 C 
ATOM      9  C12 57L d   1       9.858  -9.665 -20.098  0.00  0.00    -0.015 C 
ATOM     10  C14 57L d   1      10.158  -9.269 -17.619  0.00  0.00    -0.001 C 
ATOM     11  C15 57L d   1       9.994  -8.218 -20.595  0.00  0.00    -0.041 C 
ATOM     12  N4  57L d   1       9.865  -9.674 -22.469  0.00  0.00    -0.323 N 
ATOM     13  C17 57L d   1      10.308 -10.504 -21.328  0.00  0.00     0.021 C 
ATOM     14  O2  57L d   1       9.384 -11.465 -23.860  0.00  0.00    -0.238 OA
ATOM     15  H1  57L d   1      11.729  -9.621 -19.049  0.00  0.00     0.036 H 
ATOM     16  H2  57L d   1      10.702 -11.052 -18.696  0.00  0.00     0.036 H 
ATOM     17  H9  57L d   1      10.295  -7.601 -22.672  0.00  0.00     0.064 H 
ATOM     18  H10 57L d   1       8.590  -7.985 -22.256  0.00  0.00     0.064 H 
ATOM     19  H17 57L d   1       7.832  -8.241 -18.697  0.00  0.00     0.064 H 
ATOM     20  H18 57L d   1       6.860  -9.702 -18.318  0.00  0.00     0.064 H 
ATOM     21  H19 57L d   1       7.780  -9.682 -20.652  0.00  0.00     0.036 H 
ATOM     22  H20 57L d   1       8.308 -11.095 -19.676  0.00  0.00     0.036 H 
ATOM     23  H21 57L d   1      10.749  -9.583 -16.746  0.00  0.00     0.064 H 
ATOM     24  H22 57L d   1      10.245  -8.180 -17.748  0.00  0.00     0.064 H 
ATOM     25  H23 57L d   1       9.297  -7.559 -20.056  0.00  0.00     0.036 H 
ATOM     26  H24 57L d   1      11.024  -7.857 -20.454  0.00  0.00     0.036 H 
ATOM     27  H25 57L d   1       9.810 -11.485 -21.328  0.00  0.00     0.073 H 
ENDROOT
BRANCH  13  28
ATOM     28  C18 57L d   1      11.821 -10.708 -21.413  0.00  0.00    -0.056 C 
ATOM     29  H6  57L d   1      12.061 -11.307 -22.304  0.00  0.00     0.030 H 
ATOM     30  H7  57L d   1      12.171 -11.234 -20.512  0.00  0.00     0.030 H 
ATOM     31  H8  57L d   1      12.319  -9.730 -21.484  0.00  0.00     0.030 H 
ENDBRANCH  13  28
BRANCH   5  32
ATOM     32  O3  57L d   1       9.046  -9.341 -24.578  0.00  0.00    -0.303 OA
BRANCH  32  33
ATOM     33  C20 57L d   1       8.610  -9.891 -25.809  0.00  0.00     0.036 C 
ATOM     34  H3  57L d   1       9.417 -10.479 -26.270  0.00  0.00     0.076 H 
ATOM     35  H4  57L d   1       7.733 -10.535 -25.648  0.00  0.00     0.076 H 
BRANCH  33  36
ATOM     36  C21 57L d   1       8.237  -8.700 -26.711  0.00  0.00    -0.029 C 
BRANCH  36  37
ATOM     37  C22 57L d   1       9.451  -7.812 -26.959  0.00  0.00    -0.068 C 
ATOM     38  H26 57L d   1       9.163  -6.969 -27.604  0.00  0.00     0.028 H 
ATOM     39  H27 57L d   1      10.240  -8.399 -27.453  0.00  0.00     0.028 H 
ATOM     40  H28 57L d   1       9.826  -7.428 -25.999  0.00  0.00     0.028 H 
ENDBRANCH  36  37
BRANCH  36  41
ATOM     41  C23 57L d   1       7.744  -9.286 -28.035  0.00  0.00    -0.068 C 
ATOM     42  H29 57L d   1       6.868  -9.925 -27.849  0.00  0.00     0.028 H 
ATOM     43  H30 57L d   1       8.545  -9.885 -28.492  0.00  0.00     0.028 H 
ATOM     44  H31 57L d   1       7.464  -8.469 -28.716  0.00  0.00     0.028 H 
ENDBRANCH  36  41
BRANCH  36  45
ATOM     45  C24 57L d   1       7.123  -7.876 -26.077  0.00  0.00    -0.068 C 
ATOM     46  H32 57L d   1       7.476  -7.454 -25.125  0.00  0.00     0.028 H 
ATOM     47  H33 57L d   1       6.251  -8.520 -25.892  0.00  0.00     0.028 H 
ATOM     48  H34 57L d   1       6.838  -7.059 -26.757  0.00  0.00     0.028 H 
ENDBRANCH  36  45
ENDBRANCH  33  36
ENDBRANCH  32  33
ENDBRANCH   5  32
BRANCH   2  49
ATOM     49  C4  57L d   1       6.798  -9.994 -15.948  0.00  0.00     0.033 A 
ATOM     50  C3  57L d   1       6.207 -11.209 -15.532  0.00  0.00    -0.060 A 
ATOM     51  C2  57L d   1       4.852 -11.296 -15.305  0.00  0.00    -0.032 A 
ATOM     52  H14 57L d   1       6.830 -12.085 -15.390  0.00  0.00     0.086 H 
ATOM     53  C7  57L d   1       4.100 -10.128 -15.514  0.00  0.00     0.067 A 
ATOM     54  C6  57L d   1       4.696  -8.903 -15.912  0.00  0.00     0.013 A 
ATOM     55  N1  57L d   1       2.736  -9.874 -15.401  0.00  0.00    -0.277 N 
ATOM     56  C8  57L d   1       3.609  -7.965 -16.016  0.00  0.00     0.034 A 
ATOM     57  C5  57L d   1       6.074  -8.835 -16.119  0.00  0.00    -0.054 A 
ATOM     58  N2  57L d   1       2.445  -8.572 -15.704  0.00  0.00    -0.186 NA
ATOM     59  H5  57L d   1       3.711  -6.920 -16.304  0.00  0.00     0.118 H 
ATOM     60  H15 57L d   1       6.556  -7.907 -16.403  0.00  0.00     0.086 H 
ATOM     61  H16 57L d   1       2.035 -10.576 -15.125  0.00  0.00     0.189 HD
BRANCH  51  62
ATOM     62  C1  57L d   1       4.178 -12.525 -14.828  0.00  0.00    -0.049 C 
ATOM     63  H11 57L d   1       4.918 -13.332 -14.722  0.00  0.00     0.033 H 
ATOM     64  H12 57L d   1       3.408 -12.826 -15.554  0.00  0.00     0.033 H 
ATOM     65  H13 57L d   1       3.707 -12.330 -13.853  0.00  0.00     0.033 H 
ENDBRANCH  51  62
ENDBRANCH   2  49
TORSDOF 9
