REMARK  2 active torsions:
REMARK  status: ('A' for Active; 'I' for Inactive)
REMARK    1  A    between atoms: C5_4  and  C6_3 
REMARK    2  A    between atoms: C4_5  and  O_9 
ROOT
ATOM      1  C2  54G d   1       9.549 131.840 362.571  0.00  0.00    -0.080 A 
ATOM      2  C7  54G d   1      11.005 133.284 363.779  0.00  0.00    -0.064 A 
ATOM      3  C5  54G d   1      12.084 132.900 362.979  0.00  0.00     0.073 A 
ATOM      4  C4  54G d   1      11.868 131.940 361.971  0.00  0.00     0.082 A 
ATOM      5  C3  54G d   1      10.599 131.426 361.775  0.00  0.00    -0.050 A 
ATOM      6  C1  54G d   1       9.729 132.766 363.586  0.00  0.00    -0.082 A 
ATOM      7  H1  54G d   1       8.560 131.431 362.398  0.00  0.00     0.083 H 
ATOM      8  H2  54G d   1      11.167 134.005 364.572  0.00  0.00     0.085 H 
ATOM      9  H3  54G d   1      10.428 130.695 360.993  0.00  0.00     0.087 H 
ATOM     10  H5  54G d   1       8.900 133.077 364.211  0.00  0.00     0.083 H 
ENDROOT
BRANCH   3  11
ATOM     11  C6  54G d   1      13.431 133.522 363.140  0.00  0.00     0.212 C 
ATOM     12  O1  54G d   1      13.512 134.509 363.976  0.00  0.00    -0.644 OA
ATOM     13  O2  54G d   1      14.385 133.067 362.562  0.00  0.00    -0.644 OA
ENDBRANCH   3  11
BRANCH   4  14
ATOM     14  O   54G d   1      12.855 131.552 361.126  0.00  0.00    -0.360 OA
ATOM     15  H4  54G d   1      13.668 131.977 361.373  0.00  0.00     0.217 HD
ENDBRANCH   4  14
TORSDOF 2
