REMARK  6 active torsions:
REMARK  status: ('A' for Active; 'I' for Inactive)
REMARK       I    between atoms: C23_2  and  N25_3 
REMARK    1  A    between atoms: C23_2  and  C19_5 
REMARK    2  A    between atoms: N25_3  and  O26_4 
REMARK    3  A    between atoms: N18_9  and  S13_10 
REMARK    4  A    between atoms: S13_10  and  N10_13 
REMARK    5  A    between atoms: N07_18  and  C04_19 
REMARK    6  A    between atoms: C03_22  and  C15_23 
ROOT
ATOM      1  C04 LTQ d   1      14.221  22.012  -0.385  0.00  0.00     0.036 A 
ATOM      2  C05 LTQ d   1      15.175  21.619   0.563  0.00  0.00    -0.055 A 
ATOM      3  C06 LTQ d   1      15.262  22.238   1.816  0.00  0.00    -0.061 A 
ATOM      4  C03 LTQ d   1      13.354  23.069  -0.044  0.00  0.00    -0.034 A 
ATOM      5  C02 LTQ d   1      13.415  23.696   1.192  0.00  0.00    -0.055 A 
ATOM      6  C01 LTQ d   1      14.357  23.267   2.127  0.00  0.00     0.045 A 
ATOM      7  C14 LTQ d   1      14.500  23.875   3.244  0.00  0.00     0.099 C 
ATOM      8  N27 LTQ d   1      14.602  24.455   4.258  0.00  0.00    -0.191 NA
ATOM      9  H16 LTQ d   1      15.862  20.817   0.321  0.00  0.00     0.087 H 
ATOM     10  H17 LTQ d   1      16.014  21.929   2.533  0.00  0.00     0.085 H 
ATOM     11  H21 LTQ d   1      12.739  24.509   1.428  0.00  0.00     0.086 H 
ENDROOT
BRANCH   4  12
ATOM     12  C15 LTQ d   1      12.301  23.628  -0.937  0.00  0.00    -0.049 C 
ATOM     13  H18 LTQ d   1      11.775  24.443  -0.418  0.00  0.00     0.033 H 
ATOM     14  H19 LTQ d   1      11.584  22.836  -1.198  0.00  0.00     0.033 H 
ATOM     15  H20 LTQ d   1      12.767  24.018  -1.854  0.00  0.00     0.033 H 
ENDBRANCH   4  12
BRANCH   1  16
ATOM     16  N07 LTQ d   1      14.310  21.363  -1.645  0.00  0.00    -0.377 N 
ATOM     17  C12 LTQ d   1      14.557  19.932  -1.808  0.00  0.00     0.011 C 
ATOM     18  C11 LTQ d   1      13.983  19.415  -3.110  0.00  0.00     0.021 C 
ATOM     19  H10 LTQ d   1      15.642  19.753  -1.800  0.00  0.00     0.066 H 
ATOM     20  H11 LTQ d   1      14.090  19.391  -0.972  0.00  0.00     0.066 H 
ATOM     21  N10 LTQ d   1      14.430  20.246  -4.254  0.00  0.00    -0.291 N 
ATOM     22  H8  LTQ d   1      14.319  18.379  -3.265  0.00  0.00     0.068 H 
ATOM     23  H9  LTQ d   1      12.885  19.440  -3.054  0.00  0.00     0.068 H 
ATOM     24  C09 LTQ d   1      14.271  21.698  -4.181  0.00  0.00     0.021 C 
ATOM     25  C08 LTQ d   1      14.455  22.261  -2.775  0.00  0.00     0.011 C 
ATOM     26  H12 LTQ d   1      13.260  21.955  -4.529  0.00  0.00     0.068 H 
ATOM     27  H13 LTQ d   1      15.016  22.163  -4.843  0.00  0.00     0.068 H 
ATOM     28  H14 LTQ d   1      13.715  23.065  -2.648  0.00  0.00     0.066 H 
ATOM     29  H15 LTQ d   1      15.469  22.685  -2.725  0.00  0.00     0.066 H 
BRANCH  21  30
ATOM     30  S13 LTQ d   1      14.791  19.647  -5.659  0.00  0.00     0.320 S 
ATOM     31  O16 LTQ d   1      15.434  18.341  -5.497  0.00  0.00    -0.182 OA
ATOM     32  O17 LTQ d   1      15.558  20.613  -6.386  0.00  0.00    -0.182 OA
BRANCH  30  33
ATOM     33  N18 LTQ d   1      13.392  19.617  -6.461  0.00  0.00    -0.270 N 
ATOM     34  C19 LTQ d   1      12.530  18.411  -6.489  0.00  0.00     0.111 C 
ATOM     35  C20 LTQ d   1      11.769  18.383  -7.810  0.00  0.00     0.006 C 
ATOM     36  H3  LTQ d   1      13.174  17.521  -6.436  0.00  0.00     0.090 H 
ATOM     37  S21 LTQ d   1      11.430  20.114  -8.145  0.00  0.00    -0.146 SA
ATOM     38  H4  LTQ d   1      10.834  17.812  -7.712  0.00  0.00     0.052 H 
ATOM     39  H5  LTQ d   1      12.385  17.943  -8.608  0.00  0.00     0.052 H 
ATOM     40  C22 LTQ d   1      12.793  20.743  -7.202  0.00  0.00     0.048 C 
ATOM     41  H6  LTQ d   1      12.437  21.508  -6.496  0.00  0.00     0.081 H 
ATOM     42  H7  LTQ d   1      13.541  21.186  -7.876  0.00  0.00     0.081 H 
BRANCH  34  43
ATOM     43  C23 LTQ d   1      11.574  18.374  -5.303  0.00  0.00     0.265 C 
ATOM     44  O24 LTQ d   1      10.825  19.311  -4.984  0.00  0.00    -0.269 OA
ATOM     45  N25 LTQ d   1      11.592  17.308  -4.539  0.00  0.00    -0.236 N 
ATOM     46  H1  LTQ d   1      12.187  16.522  -4.707  0.00  0.00     0.197 HD
BRANCH  45  47
ATOM     47  O26 LTQ d   1      10.703  17.379  -3.473  0.00  0.00    -0.287 OA
ATOM     48  H2  LTQ d   1      10.762  16.582  -2.959  0.00  0.00     0.244 HD
ENDBRANCH  45  47
ENDBRANCH  34  43
ENDBRANCH  30  33
ENDBRANCH  21  30
ENDBRANCH   1  16
TORSDOF 6
