REMARK  6 active torsions:
REMARK  status: ('A' for Active; 'I' for Inactive)
REMARK    1  A    between atoms: C2_3  and  N1_4 
REMARK    2  A    between atoms: C6_6  and  C8_7 
REMARK    3  A    between atoms: C11_12  and  N13_13 
REMARK       I    between atoms: N13_13  and  C14_14 
REMARK       I    between atoms: C14_14  and  N15_16 
REMARK    4  A    between atoms: N15_16  and  C16_17 
REMARK    5  A    between atoms: C24_20  and  N25_21 
REMARK    6  A    between atoms: C21_23  and  C20_24 
ROOT
ATOM      1  N13 NSC d   1       3.608  -4.209   5.852  0.00  0.00    -0.309 N 
ATOM      2  C14 NSC d   1       3.468  -3.969   7.280  0.00  0.00     0.325 C 
ATOM      3  O28 NSC d   1       4.367  -3.623   7.941  0.00  0.00    -0.247 OA
ATOM      4  N15 NSC d   1       2.123  -4.212   7.813  0.00  0.00    -0.309 N 
ATOM      5  H10 NSC d   1       2.773  -4.511   5.391  0.00  0.00     0.170 HD
ATOM      6  H11 NSC d   1       1.881  -4.087   8.775  0.00  0.00     0.170 HD
ENDROOT
BRANCH   1   7
ATOM      7  C11 NSC d   1       4.770  -4.079   4.990  0.00  0.00     0.037 A 
ATOM      8  C12 NSC d   1       5.415  -3.061   4.990  0.00  0.00    -0.043 A 
ATOM      9  C3  NSC d   1       6.576  -2.864   4.113  0.00  0.00     0.021 A 
ATOM     10  H1  NSC d   1       5.127  -2.261   5.662  0.00  0.00     0.088 H 
ATOM     11  C2  NSC d   1       7.502  -1.776   3.938  0.00  0.00     0.040 A 
ATOM     12  C4  NSC d   1       6.825  -4.184   3.156  0.00  0.00     0.069 A 
ATOM     13  C7  NSC d   1       8.558  -1.937   2.945  0.00  0.00    -0.033 A 
ATOM     14  C6  NSC d   1       8.650  -3.128   2.192  0.00  0.00     0.033 A 
ATOM     15  H4  NSC d   1       9.275  -1.140   2.784  0.00  0.00     0.090 H 
ATOM     16  N5  NSC d   1       7.806  -4.055   2.392  0.00  0.00    -0.253 NA
ATOM     17  C9  NSC d   1       5.763  -5.169   3.509  0.00  0.00    -0.052 A 
ATOM     18  C10 NSC d   1       4.883  -4.981   4.366  0.00  0.00    -0.055 A 
ATOM     19  H8  NSC d   1       5.758  -6.116   2.981  0.00  0.00     0.087 H 
ATOM     20  H9  NSC d   1       4.161  -5.776   4.513  0.00  0.00     0.087 H 
BRANCH  11  21
ATOM     21  N1  NSC d   1       7.421  -0.529   4.692  0.00  0.00    -0.398 N 
ATOM     22  H2  NSC d   1       8.111   0.218   4.527  0.00  0.00     0.156 HD
ATOM     23  H3  NSC d   1       6.674  -0.396   5.389  0.00  0.00     0.156 HD
ENDBRANCH  11  21
BRANCH  14  24
ATOM     24  C8  NSC d   1       9.742  -3.337   1.133  0.00  0.00    -0.035 C 
ATOM     25  H5  NSC d   1       9.623  -4.330   0.674  0.00  0.00     0.035 H 
ATOM     26  H6  NSC d   1      10.732  -3.269   1.608  0.00  0.00     0.035 H 
ATOM     27  H7  NSC d   1       9.654  -2.562   0.358  0.00  0.00     0.035 H 
ENDBRANCH  14  24
ENDBRANCH   1   7
BRANCH   4  28
ATOM     28  C16 NSC d   1       1.165  -4.658   6.789  0.00  0.00     0.037 A 
ATOM     29  C17 NSC d   1       0.789  -6.000   6.723  0.00  0.00    -0.043 A 
ATOM     30  C18 NSC d   1      -0.105  -6.443   5.752  0.00  0.00     0.021 A 
ATOM     31  H12 NSC d   1       1.198  -6.706   7.436  0.00  0.00     0.088 H 
ATOM     32  C24 NSC d   1      -0.508  -7.755   5.656  0.00  0.00     0.040 A 
ATOM     33  C19 NSC d   1      -0.614  -5.535   4.844  0.00  0.00     0.069 A 
ATOM     34  C23 NSC d   1      -1.392  -8.118   4.671  0.00  0.00    -0.033 A 
ATOM     35  C21 NSC d   1      -1.872  -7.169   3.783  0.00  0.00     0.033 A 
ATOM     36  H15 NSC d   1      -1.715  -9.149   4.588  0.00  0.00     0.090 H 
ATOM     37  N22 NSC d   1      -1.472  -5.904   3.889  0.00  0.00    -0.253 NA
ATOM     38  C26 NSC d   1      -0.227  -4.211   4.905  0.00  0.00    -0.052 A 
ATOM     39  C27 NSC d   1       0.656  -3.764   5.874  0.00  0.00    -0.055 A 
ATOM     40  H19 NSC d   1      -0.622  -3.508   4.181  0.00  0.00     0.087 H 
ATOM     41  H20 NSC d   1       0.944  -2.720   5.912  0.00  0.00     0.087 H 
BRANCH  32  42
ATOM     42  N25 NSC d   1       0.003  -8.740   6.591  0.00  0.00    -0.398 N 
ATOM     43  H13 NSC d   1      -0.298  -9.722   6.520  0.00  0.00     0.156 HD
ATOM     44  H14 NSC d   1       0.667  -8.457   7.326  0.00  0.00     0.156 HD
ENDBRANCH  32  42
BRANCH  35  45
ATOM     45  C20 NSC d   1      -2.855  -7.560   2.684  0.00  0.00    -0.035 C 
ATOM     46  H16 NSC d   1      -3.113  -6.671   2.090  0.00  0.00     0.035 H 
ATOM     47  H17 NSC d   1      -3.767  -7.975   3.138  0.00  0.00     0.035 H 
ATOM     48  H18 NSC d   1      -2.394  -8.316   2.031  0.00  0.00     0.035 H 
ENDBRANCH  35  45
ENDBRANCH   4  28
TORSDOF 6
