REMARK  9 active torsions:
REMARK  status: ('A' for Active; 'I' for Inactive)
REMARK    1  A    between atoms: CAL_12  and  CAA_1 
REMARK    2  A    between atoms: CAR_18  and  OAD_4 
REMARK    3  A    between atoms: CAM_13  and  CAL_12 
REMARK    4  A    between atoms: CAN_14  and  CAM_13 
REMARK    5  A    between atoms: NAP_16  and  CAN_14 
REMARK    6  A    between atoms: CAO_15  and  NAQ_17 
REMARK    7  A    between atoms: CAR_18  and  CAO_15 
REMARK    8  A    between atoms: CAR_18  and  PAS_19 
REMARK    9  A    between atoms: CAR_18  and  PAT_20 
ROOT
ATOM      1  CAI 4GA d   1     -14.390  37.905 -12.846  0.00  0.00    -0.005 A 
ATOM      2  CAJ 4GA d   1     -14.445  36.603 -13.113  0.00  0.00    -0.004 A 
ATOM      3  CAK 4GA d   1     -16.254  37.154 -12.080  0.00  0.00     0.044 A 
ATOM      4  NAP 4GA d   1     -15.503  38.243 -12.197  0.00  0.00    -0.352 N 
ATOM      5  NAQ 4GA d   1     -15.588  36.136 -12.622  0.00  0.00    -0.347 N 
ATOM      6  H5  4GA d   1     -13.576  38.578 -13.112  0.00  0.00     0.113 H 
ATOM      7  H6  4GA d   1     -13.688  36.023 -13.640  0.00  0.00     0.113 H 
ATOM      8  H7  4GA d   1     -17.241  37.102 -11.622  0.00  0.00     0.141 H 
ENDROOT
BRANCH   5   9
ATOM      9  CAO 4GA d   1     -15.917  34.711 -12.396  0.00  0.00     0.054 C 
ATOM     10  H14 4GA d   1     -16.550  34.621 -11.501  0.00  0.00     0.071 H 
ATOM     11  H15 4GA d   1     -14.987  34.142 -12.246  0.00  0.00     0.071 H 
BRANCH   9  12
ATOM     12  CAR 4GA d   1     -16.667  34.145 -13.604  0.00  0.00     0.301 C 
BRANCH  12  13
ATOM     13  OAD 4GA d   1     -15.823  34.376 -14.734  0.00  0.00    -0.364 OA
ATOM     14  H4  4GA d   1     -15.648  35.306 -14.812  0.00  0.00     0.212 HD
ENDBRANCH  12  13
BRANCH  12  15
ATOM     15  PAS 4GA d   1     -18.319  35.011 -13.699  0.00  0.00     0.311 P 
ATOM     16  OAB 4GA d   1     -18.575  35.679 -12.256  0.00  0.00    -0.637 OA
ATOM     17  OAE 4GA d   1     -19.431  33.853 -13.829  0.00  0.00    -0.637 OA
ATOM     18  OAF 4GA d   1     -18.397  35.997 -14.802  0.00  0.00    -0.637 OA
ENDBRANCH  12  15
BRANCH  12  19
ATOM     19  PAT 4GA d   1     -16.943  32.336 -13.237  0.00  0.00     0.311 P 
ATOM     20  OAC 4GA d   1     -18.315  31.879 -13.553  0.00  0.00    -0.637 OA
ATOM     21  OAG 4GA d   1     -16.570  32.149 -11.682  0.00  0.00    -0.637 OA
ATOM     22  OAH 4GA d   1     -15.821  31.544 -14.079  0.00  0.00    -0.637 OA
ENDBRANCH  12  19
ENDBRANCH   9  12
ENDBRANCH   5   9
BRANCH   4  23
ATOM     23  CAN 4GA d   1     -15.778  39.542 -11.539  0.00  0.00     0.000 C 
ATOM     24  H12 4GA d   1     -15.500  39.472 -10.477  0.00  0.00     0.064 H 
ATOM     25  H13 4GA d   1     -15.176  40.324 -12.025  0.00  0.00     0.064 H 
BRANCH  23  26
ATOM     26  CAM 4GA d   1     -17.259  39.916 -11.643  0.00  0.00    -0.050 C 
ATOM     27  H10 4GA d   1     -17.489  40.209 -12.678  0.00  0.00     0.035 H 
ATOM     28  H11 4GA d   1     -17.875  39.049 -11.362  0.00  0.00     0.035 H 
BRANCH  26  29
ATOM     29  CAL 4GA d   1     -17.568  41.084 -10.704  0.00  0.00    -0.067 C 
ATOM     30  H8  4GA d   1     -18.135  40.716  -9.836  0.00  0.00     0.032 H 
ATOM     31  H9  4GA d   1     -16.626  41.538 -10.361  0.00  0.00     0.032 H 
BRANCH  29  32
ATOM     32  CAA 4GA d   1     -18.398  42.133 -11.447  0.00  0.00    -0.076 C 
ATOM     33  H1  4GA d   1     -18.619  42.972 -10.771  0.00  0.00     0.027 H 
ATOM     34  H2  4GA d   1     -19.340  41.680 -11.790  0.00  0.00     0.027 H 
ATOM     35  H3  4GA d   1     -17.831  42.501 -12.315  0.00  0.00     0.027 H 
ENDBRANCH  29  32
ENDBRANCH  26  29
ENDBRANCH  23  26
ENDBRANCH   4  23
TORSDOF 9
