REMARK  27 active torsions:
REMARK  status: ('A' for Active; 'I' for Inactive)
REMARK    1  A    between atoms: C_2  and  CA_3 
REMARK       I    between atoms: C_2  and  N_7 
REMARK    2  A    between atoms: CA_3  and  N_4 
REMARK    3  A    between atoms: N_4  and  C4_5 
REMARK    4  A    between atoms: N_4  and  C5_6 
REMARK    5  A    between atoms: CA_8  and  C_9 
REMARK       I    between atoms: C_9  and  N_14 
REMARK    6  A    between atoms: N_14  and  CA_15 
REMARK    7  A    between atoms: CA_15  and  C_16 
REMARK    8  A    between atoms: CA_15  and  CB_18 
REMARK       I    between atoms: C_16  and  N_25 
REMARK    9  A    between atoms: CB_18  and  CG_19 
REMARK   10  A    between atoms: CG_19  and  CD_20 
REMARK   11  A    between atoms: CD_20  and  NE_21 
REMARK       I    between atoms: NE_21  and  CZ_22 
REMARK       I    between atoms: CZ_22  and  NH1_23 
REMARK       I    between atoms: CZ_22  and  NH2_24 
REMARK   12  A    between atoms: N_25  and  CA_26 
REMARK   13  A    between atoms: CA_26  and  C_27 
REMARK   14  A    between atoms: CA_26  and  CB_29 
REMARK       I    between atoms: C_27  and  N_36 
REMARK   15  A    between atoms: CB_29  and  CG_30 
REMARK   16  A    between atoms: CG_30  and  CD_31 
REMARK   17  A    between atoms: CD_31  and  NE_32 
REMARK       I    between atoms: NE_32  and  CZ_33 
REMARK       I    between atoms: CZ_33  and  NH1_34 
REMARK       I    between atoms: CZ_33  and  NH2_35 
REMARK   18  A    between atoms: N_36  and  CA_37 
REMARK   19  A    between atoms: CA_37  and  C_38 
REMARK   20  A    between atoms: CA_37  and  CB_40 
REMARK       I    between atoms: C_38  and  N_47 
REMARK   21  A    between atoms: CB_40  and  CG_41 
REMARK   22  A    between atoms: CG_41  and  CD_42 
REMARK   23  A    between atoms: CD_42  and  NE_43 
REMARK       I    between atoms: NE_43  and  CZ_44 
REMARK       I    between atoms: CZ_44  and  NH1_45 
REMARK       I    between atoms: CZ_44  and  NH2_46 
REMARK   24  A    between atoms: N_47  and  CA_48 
REMARK   25  A    between atoms: CA_48  and  C_49 
REMARK   26  A    between atoms: CA_48  and  CB_51 
REMARK   27  A    between atoms: CB_51  and  OG_52 
ROOT
ATOM      1  CA  ARG d   1      -9.082  19.111 -32.377  0.00  0.00     0.089 C 
ATOM      2  H31 ARG d   1      -9.059  18.390 -33.207  0.00  0.00     0.087 H 
ENDROOT
BRANCH   1   3
ATOM      3  N   ARG d   1     -10.408  19.708 -32.310  0.00  0.00    -0.346 N 
ATOM      4  C   ARG d   1     -11.484  18.971 -32.058  0.00  0.00     0.241 C 
ATOM      5  O   ARG d   1     -11.456  17.746 -32.002  0.00  0.00    -0.271 OA
ATOM      6  H30 ARG d   1     -10.511  20.692 -32.456  0.00  0.00     0.163 HD
BRANCH   4   7
ATOM      7  CA  ARG d   1     -12.778  19.723 -31.835  0.00  0.00     0.089 C 
ATOM      8  H18 ARG d   1     -12.671  20.750 -32.214  0.00  0.00     0.087 H 
BRANCH   7   9
ATOM      9  N   ARG d   1     -13.883  19.080 -32.531  0.00  0.00    -0.346 N 
ATOM     10  C   PRO d   1     -14.838  19.774 -33.140  0.00  0.00     0.241 C 
ATOM     11  O   PRO d   1     -14.856  21.002 -33.219  0.00  0.00    -0.271 OA
ATOM     12  H17 ARG d   1     -13.925  18.081 -32.551  0.00  0.00     0.163 HD
BRANCH  10  13
ATOM     13  CA  PRO d   1     -15.960  18.980 -33.791  0.00  0.00     0.091 C 
ATOM     14  N   PRO d   1     -17.235  19.688 -33.643  0.00  0.00    -0.337 N 
ATOM     15  C   DMG d   1     -17.649  20.081 -32.434  0.00  0.00     0.246 C 
ATOM     16  CD  PRO d   1     -17.879  19.959 -34.936  0.00  0.00    -0.001 C 
ATOM     17  O   DMG d   1     -17.077  19.730 -31.366  0.00  0.00    -0.272 OA
ATOM     18  CG  PRO d   1     -17.072  19.153 -35.900  0.00  0.00    -0.048 C 
ATOM     19  H15 PRO d   1     -17.832  21.030 -35.182  0.00  0.00     0.064 H 
ATOM     20  H16 PRO d   1     -18.929  19.630 -34.930  0.00  0.00     0.064 H 
ATOM     21  CB  PRO d   1     -15.748  18.945 -35.304  0.00  0.00    -0.036 C 
ATOM     22  H13 PRO d   1     -17.560  18.183 -36.079  0.00  0.00     0.035 H 
ATOM     23  H14 PRO d   1     -16.974  19.695 -36.852  0.00  0.00     0.035 H 
ATOM     24  H11 PRO d   1     -15.339  17.971 -35.611  0.00  0.00     0.036 H 
ATOM     25  H12 PRO d   1     -15.059  19.745 -35.613  0.00  0.00     0.036 H 
ATOM     26  H10 PRO d   1     -16.009  17.968 -33.364  0.00  0.00     0.087 H 
BRANCH  15  27
ATOM     27  CA  DMG d   1     -18.871  20.992 -32.374  0.00  0.00     0.155 C 
ATOM     28  H1  DMG d   1     -19.787  20.391 -32.278  0.00  0.00     0.090 H 
ATOM     29  H2  DMG d   1     -18.930  21.607 -33.284  0.00  0.00     0.090 H 
BRANCH  27  30
ATOM     30  N   DMG d   1     -18.706  21.840 -31.209  0.00  0.00    -0.070 N 
ATOM     31  H3  DMG d   1     -18.434  21.267 -30.426  0.00  0.00     0.279 HD
BRANCH  30  32
ATOM     32  C4  DMG d   1     -17.687  22.826 -31.448  0.00  0.00     0.066 C 
ATOM     33  H4  DMG d   1     -17.574  23.460 -30.556  0.00  0.00     0.068 H 
ATOM     34  H5  DMG d   1     -17.974  23.450 -32.307  0.00  0.00     0.068 H 
ATOM     35  H6  DMG d   1     -16.733  22.323 -31.663  0.00  0.00     0.068 H 
ENDBRANCH  30  32
BRANCH  30  36
ATOM     36  C5  DMG d   1     -19.938  22.511 -30.896  0.00  0.00     0.066 C 
ATOM     37  H7  DMG d   1     -20.725  21.765 -30.711  0.00  0.00     0.068 H 
ATOM     38  H8  DMG d   1     -20.231  23.152 -31.741  0.00  0.00     0.068 H 
ATOM     39  H9  DMG d   1     -19.800  23.129 -29.997  0.00  0.00     0.068 H 
ENDBRANCH  30  36
ENDBRANCH  27  30
ENDBRANCH  15  27
ENDBRANCH  10  13
ENDBRANCH   7   9
BRANCH   7  40
ATOM     40  CB  ARG d   1     -13.044  19.763 -30.323  0.00  0.00    -0.036 C 
ATOM     41  H19 ARG d   1     -12.107  20.044 -29.821  0.00  0.00     0.036 H 
ATOM     42  H20 ARG d   1     -13.342  18.753 -30.004  0.00  0.00     0.036 H 
BRANCH  40  43
ATOM     43  CG  ARG d   1     -14.120  20.730 -29.880  0.00  0.00    -0.048 C 
ATOM     44  H21 ARG d   1     -14.322  20.575 -28.810  0.00  0.00     0.035 H 
ATOM     45  H22 ARG d   1     -15.036  20.536 -30.458  0.00  0.00     0.035 H 
BRANCH  43  46
ATOM     46  CD  ARG d   1     -13.696  22.166 -30.098  0.00  0.00     0.009 C 
ATOM     47  H23 ARG d   1     -13.709  22.382 -31.177  0.00  0.00     0.064 H 
ATOM     48  H24 ARG d   1     -12.676  22.300 -29.709  0.00  0.00     0.064 H 
BRANCH  46  49
ATOM     49  NE  ARG d   1     -14.586  23.097 -29.419  0.00  0.00    -0.227 N 
ATOM     50  CZ  ARG d   1     -14.952  24.289 -29.887  0.00  0.00     0.665 C 
ATOM     51  NH1 ARG d   1     -14.541  24.719 -31.077  0.00  0.00    -0.235 N 
ATOM     52  NH2 ARG d   1     -15.765  25.047 -29.166  0.00  0.00    -0.235 N 
ATOM     53  H26 ARG d   1     -14.836  25.644 -31.420  0.00  0.00     0.174 HD
ATOM     54  H27 ARG d   1     -13.928  24.127 -31.655  0.00  0.00     0.174 HD
ATOM     55  H28 ARG d   1     -16.089  24.723 -28.244  0.00  0.00     0.174 HD
ATOM     56  H29 ARG d   1     -16.073  25.961 -29.528  0.00  0.00     0.174 HD
ATOM     57  H25 ARG d   1     -14.963  22.811 -28.504  0.00  0.00     0.177 HD
ENDBRANCH  46  49
ENDBRANCH  43  46
ENDBRANCH  40  43
ENDBRANCH   7  40
ENDBRANCH   4   7
ENDBRANCH   1   3
BRANCH   1  58
ATOM     58  C   ARG d   1      -8.784  18.380 -31.074  0.00  0.00     0.241 C 
ATOM     59  O   ARG d   1      -9.052  18.896 -29.985  0.00  0.00    -0.271 OA
ATOM     60  N   ARG d   1      -8.229  17.182 -31.177  0.00  0.00    -0.346 N 
ATOM     61  H43 ARG d   1      -8.060  16.785 -32.079  0.00  0.00     0.163 HD
BRANCH  60  62
ATOM     62  CA  ARG d   1      -7.865  16.445 -29.978  0.00  0.00     0.089 C 
ATOM     63  H44 ARG d   1      -8.758  16.317 -29.349  0.00  0.00     0.087 H 
BRANCH  62  64
ATOM     64  C   ARG d   1      -6.828  17.250 -29.209  0.00  0.00     0.241 C 
ATOM     65  O   ARG d   1      -5.940  17.848 -29.810  0.00  0.00    -0.271 OA
ATOM     66  N   SER d   1      -6.953  17.274 -27.885  0.00  0.00    -0.343 N 
ATOM     67  H56 SER d   1      -7.653  16.706 -27.452  0.00  0.00     0.163 HD
BRANCH  66  68
ATOM     68  CA  SER d   1      -6.093  18.110 -27.045  0.00  0.00     0.116 C 
ATOM     69  H57 SER d   1      -6.151  19.142 -27.421  0.00  0.00     0.093 H 
BRANCH  68  70
ATOM     70  C   SER d   1      -4.635  17.661 -27.118  0.00  0.00     0.198 C 
ATOM     71  O   SER d   1      -4.342  16.528 -27.505  0.00  0.00    -0.646 OA
ATOM     72  OXT SER d   1      -3.723  18.423 -26.791  0.00  0.00    -0.646 OA
ENDBRANCH  68  70
BRANCH  68  73
ATOM     73  CB  SER d   1      -6.584  18.103 -25.590  0.00  0.00     0.045 C 
ATOM     74  H58 SER d   1      -7.459  17.442 -25.513  0.00  0.00     0.077 H 
ATOM     75  H59 SER d   1      -6.871  19.126 -25.306  0.00  0.00     0.077 H 
BRANCH  73  76
ATOM     76  OG  SER d   1      -5.580  17.643 -24.697  0.00  0.00    -0.398 OA
ATOM     77  H60 SER d   1      -5.919  17.652 -23.809  0.00  0.00     0.209 HD
ENDBRANCH  73  76
ENDBRANCH  68  73
ENDBRANCH  66  68
ENDBRANCH  62  64
BRANCH  62  78
ATOM     78  CB  ARG d   1      -7.324  15.071 -30.339  0.00  0.00    -0.036 C 
ATOM     79  H45 ARG d   1      -6.975  14.579 -29.419  0.00  0.00     0.036 H 
ATOM     80  H46 ARG d   1      -6.478  15.197 -31.031  0.00  0.00     0.036 H 
BRANCH  78  81
ATOM     81  CG  ARG d   1      -8.354  14.189 -30.995  0.00  0.00    -0.048 C 
ATOM     82  H47 ARG d   1      -8.530  14.549 -32.019  0.00  0.00     0.035 H 
ATOM     83  H48 ARG d   1      -9.290  14.247 -30.420  0.00  0.00     0.035 H 
BRANCH  81  84
ATOM     84  CD  ARG d   1      -7.904  12.746 -31.054  0.00  0.00     0.009 C 
ATOM     85  H49 ARG d   1      -8.693  12.144 -31.528  0.00  0.00     0.064 H 
ATOM     86  H50 ARG d   1      -7.731  12.383 -30.030  0.00  0.00     0.064 H 
BRANCH  84  87
ATOM     87  NE  ARG d   1      -6.673  12.603 -31.822  0.00  0.00    -0.227 N 
ATOM     88  CZ  ARG d   1      -6.613  12.570 -33.151  0.00  0.00     0.665 C 
ATOM     89  NH1 ARG d   1      -7.718  12.675 -33.879  0.00  0.00    -0.235 N 
ATOM     90  NH2 ARG d   1      -5.442  12.441 -33.757  0.00  0.00    -0.235 N 
ATOM     91  H52 ARG d   1      -7.662  12.648 -34.907  0.00  0.00     0.174 HD
ATOM     92  H53 ARG d   1      -8.632  12.783 -33.416  0.00  0.00     0.174 HD
ATOM     93  H54 ARG d   1      -4.580  12.359 -33.199  0.00  0.00     0.174 HD
ATOM     94  H55 ARG d   1      -5.394  12.423 -34.786  0.00  0.00     0.174 HD
ATOM     95  H51 ARG d   1      -5.789  12.522 -31.300  0.00  0.00     0.177 HD
ENDBRANCH  84  87
ENDBRANCH  81  84
ENDBRANCH  78  81
ENDBRANCH  62  78
ENDBRANCH  60  62
ENDBRANCH   1  58
BRANCH   1  96
ATOM     96  CB  ARG d   1      -8.015  20.183 -32.624  0.00  0.00    -0.036 C 
ATOM     97  H32 ARG d   1      -8.012  20.876 -31.770  0.00  0.00     0.036 H 
ATOM     98  H33 ARG d   1      -8.277  20.732 -33.541  0.00  0.00     0.036 H 
BRANCH  96  99
ATOM     99  CG  ARG d   1      -6.611  19.609 -32.787  0.00  0.00    -0.048 C 
ATOM    100  H34 ARG d   1      -6.617  18.915 -33.640  0.00  0.00     0.035 H 
ATOM    101  H35 ARG d   1      -6.352  19.061 -31.869  0.00  0.00     0.035 H 
BRANCH  99 102
ATOM    102  CD  ARG d   1      -5.542  20.663 -33.034  0.00  0.00     0.009 C 
ATOM    103  H36 ARG d   1      -4.934  20.782 -32.125  0.00  0.00     0.064 H 
ATOM    104  H37 ARG d   1      -6.026  21.620 -33.279  0.00  0.00     0.064 H 
BRANCH 102 105
ATOM    105  NE  ARG d   1      -4.677  20.263 -34.144  0.00  0.00    -0.227 N 
ATOM    106  CZ  ARG d   1      -4.855  20.630 -35.409  0.00  0.00     0.665 C 
ATOM    107  NH1 ARG d   1      -4.018  20.199 -36.346  0.00  0.00    -0.235 N 
ATOM    108  NH2 ARG d   1      -5.861  21.429 -35.746  0.00  0.00    -0.235 N 
ATOM    109  H39 ARG d   1      -4.154  20.482 -37.327  0.00  0.00     0.174 HD
ATOM    110  H40 ARG d   1      -3.233  19.582 -36.092  0.00  0.00     0.174 HD
ATOM    111  H41 ARG d   1      -6.514  21.767 -35.025  0.00  0.00     0.174 HD
ATOM    112  H42 ARG d   1      -5.988  21.710 -36.729  0.00  0.00     0.174 HD
ATOM    113  H38 ARG d   1      -3.874  19.654 -33.930  0.00  0.00     0.177 HD
ENDBRANCH 102 105
ENDBRANCH  99 102
ENDBRANCH  96  99
ENDBRANCH   1  96
TORSDOF 27
