REMARK  12 active torsions:
REMARK  status: ('A' for Active; 'I' for Inactive)
REMARK    1  A    between atoms: S48_2  and  C08_1 
REMARK    2  A    between atoms: C50_3  and  S48_2 
REMARK    3  A    between atoms: C52_4  and  C50_3 
REMARK    4  A    between atoms: C53_5  and  C52_4 
REMARK    5  A    between atoms: C52_4  and  C51_31 
REMARK    6  A    between atoms: C54_6  and  C53_5 
REMARK    7  A    between atoms: C55_7  and  C54_6 
REMARK    8  A    between atoms: C64_14  and  C55_7 
REMARK    9  A    between atoms: C64_14  and  C63_13 
REMARK   10  A    between atoms: C76_26  and  C64_14 
REMARK   11  A    between atoms: C66_16  and  C67_17 
REMARK   12  A    between atoms: C68_18  and  C69_19 
ROOT
ATOM      1  C56 55X d   1     -18.273   8.031 145.918  0.00  0.00    -0.048 C 
ATOM      2  C57 55X d   1     -16.867   8.118 146.539  0.00  0.00    -0.005 C 
ATOM      3  C60 55X d   1     -20.688   8.000 144.149  0.00  0.00    -0.060 C 
ATOM      4  C61 55X d   1     -21.415   4.628 141.668  0.00  0.00    -0.060 C 
ATOM      5  C62 55X d   1     -22.953   4.579 141.669  0.00  0.00    -0.060 C 
ATOM      6  C65 55X d   1     -17.253   6.388 144.354  0.00  0.00    -0.068 C 
ATOM      7  C66 55X d   1     -18.234   7.420 144.502  0.00  0.00    -0.016 C 
ATOM      8  C68 55X d   1     -22.169   6.534 142.798  0.00  0.00    -0.036 C 
ATOM      9  C70 55X d   1     -16.163   6.905 146.440  0.00  0.00     0.149 C 
ATOM     10  O71 55X d   1     -15.305   6.608 147.270  0.00  0.00    -0.293 OA
ATOM     11  C72 55X d   1     -18.733   4.918 143.092  0.00  0.00    -0.058 C 
ATOM     12  C73 55X d   1     -19.732   6.036 142.967  0.00  0.00    -0.045 C 
ATOM     13  C74 55X d   1     -19.648   6.868 144.234  0.00  0.00    -0.040 C 
ATOM     14  C75 55X d   1     -21.128   5.453 142.911  0.00  0.00    -0.043 C 
ATOM     15  C76 55X d   1     -23.407   5.650 142.683  0.00  0.00    -0.044 C 
ATOM     16  C77 55X d   1     -22.093   7.396 144.045  0.00  0.00    -0.057 C 
ATOM     17  C58 55X d   1     -16.414   6.006 145.405  0.00  0.00    -0.036 C 
ATOM     18  C59 55X d   1     -17.333   5.491 143.277  0.00  0.00    -0.043 C 
ATOM     19  H11 55X d   1     -18.700   9.043 145.858  0.00  0.00     0.035 H 
ATOM     20  H12 55X d   1     -18.908   7.403 146.560  0.00  0.00     0.035 H 
ATOM     21  H13 55X d   1     -16.966   8.384 147.602  0.00  0.00     0.044 H 
ATOM     22  H14 55X d   1     -16.298   8.901 146.017  0.00  0.00     0.044 H 
ATOM     23  H15 55X d   1     -20.487   8.617 143.260  0.00  0.00     0.033 H 
ATOM     24  H16 55X d   1     -20.624   8.626 145.052  0.00  0.00     0.033 H 
ATOM     25  H17 55X d   1     -21.031   5.121 140.763  0.00  0.00     0.033 H 
ATOM     26  H18 55X d   1     -20.982   3.620 141.748  0.00  0.00     0.033 H 
ATOM     27  H19 55X d   1     -23.304   3.584 141.980  0.00  0.00     0.033 H 
ATOM     28  H20 55X d   1     -23.344   4.810 140.667  0.00  0.00     0.033 H 
ATOM     29  H31 55X d   1     -18.758   4.303 142.180  0.00  0.00     0.034 H 
ATOM     30  H32 55X d   1     -18.990   4.295 143.961  0.00  0.00     0.034 H 
ATOM     31  H33 55X d   1     -19.526   6.646 142.075  0.00  0.00     0.041 H 
ATOM     32  H34 55X d   1     -19.913   6.220 145.082  0.00  0.00     0.042 H 
ATOM     33  H35 55X d   1     -21.287   4.848 143.815  0.00  0.00     0.041 H 
ATOM     34  H36 55X d   1     -23.646   5.200 143.658  0.00  0.00     0.041 H 
ATOM     35  H37 55X d   1     -22.838   8.203 143.981  0.00  0.00     0.034 H 
ATOM     36  H38 55X d   1     -22.296   6.779 144.933  0.00  0.00     0.034 H 
ATOM     37  H39 55X d   1     -15.961   5.016 145.415  0.00  0.00     0.089 H 
ATOM     38  H40 55X d   1     -16.634   4.661 143.458  0.00  0.00     0.039 H 
ATOM     39  H41 55X d   1     -17.045   6.020 142.357  0.00  0.00     0.039 H 
ENDROOT
BRANCH  15  40
ATOM     40  C64 55X d   1     -24.656   6.373 142.149  0.00  0.00    -0.053 C 
ATOM     41  H24 55X d   1     -24.357   7.041 141.328  0.00  0.00     0.040 H 
BRANCH  40  42
ATOM     42  C55 55X d   1     -25.657   5.340 141.624  0.00  0.00    -0.062 C 
ATOM     43  H9  55X d   1     -26.402   5.852 140.997  0.00  0.00     0.033 H 
ATOM     44  H10 55X d   1     -25.118   4.596 141.020  0.00  0.00     0.033 H 
BRANCH  42  45
ATOM     45  C54 55X d   1     -26.381   4.621 142.769  0.00  0.00    -0.064 C 
ATOM     46  H7  55X d   1     -25.652   4.278 143.518  0.00  0.00     0.033 H 
ATOM     47  H8  55X d   1     -27.102   5.303 143.244  0.00  0.00     0.033 H 
BRANCH  45  48
ATOM     48  C53 55X d   1     -27.115   3.421 142.167  0.00  0.00    -0.055 C 
ATOM     49  H5  55X d   1     -27.831   3.781 141.414  0.00  0.00     0.034 H 
ATOM     50  H6  55X d   1     -26.381   2.757 141.687  0.00  0.00     0.034 H 
BRANCH  48  51
ATOM     51  C52 55X d   1     -27.873   2.632 143.236  0.00  0.00     0.011 C 
ATOM     52  H4  55X d   1     -28.005   3.251 144.136  0.00  0.00     0.052 H 
BRANCH  51  53
ATOM     53  C50 55X d   1     -29.238   2.237 142.667  0.00  0.00     0.189 C 
ATOM     54  O49 55X d   1     -29.363   1.941 141.479  0.00  0.00    -0.285 OA
BRANCH  53  55
ATOM     55  S48 55X d   1     -30.560   2.248 143.812  0.00  0.00    -0.097 SA
BRANCH  55  56
ATOM     56  C08 55X d   1     -31.843   3.080 142.806  0.00  0.00    -0.028 C 
ATOM     57  H1  55X d   1     -32.768   3.171 143.394  0.00  0.00     0.042 H 
ATOM     58  H2  55X d   1     -32.040   2.487 141.900  0.00  0.00     0.042 H 
ATOM     59  H3  55X d   1     -31.491   4.082 142.519  0.00  0.00     0.042 H 
ENDBRANCH  55  56
ENDBRANCH  53  55
ENDBRANCH  51  53
BRANCH  51  60
ATOM     60  C51 55X d   1     -27.091   1.366 143.588  0.00  0.00    -0.066 C 
ATOM     61  H42 55X d   1     -27.637   0.800 144.357  0.00  0.00     0.028 H 
ATOM     62  H43 55X d   1     -26.098   1.643 143.973  0.00  0.00     0.028 H 
ATOM     63  H44 55X d   1     -26.975   0.745 142.688  0.00  0.00     0.028 H 
ENDBRANCH  51  60
ENDBRANCH  48  51
ENDBRANCH  45  48
ENDBRANCH  42  45
ENDBRANCH  40  42
BRANCH  40  64
ATOM     64  C63 55X d   1     -25.329   7.202 143.247  0.00  0.00    -0.072 C 
ATOM     65  H21 55X d   1     -24.618   7.948 143.631  0.00  0.00     0.028 H 
ATOM     66  H22 55X d   1     -25.643   6.539 144.066  0.00  0.00     0.028 H 
ATOM     67  H23 55X d   1     -26.209   7.715 142.832  0.00  0.00     0.028 H 
ENDBRANCH  40  64
ENDBRANCH  15  40
BRANCH   8  68
ATOM     68  C69 55X d   1     -21.967   7.394 141.539  0.00  0.00    -0.068 C 
ATOM     69  H28 55X d   1     -21.067   8.015 141.660  0.00  0.00     0.028 H 
ATOM     70  H29 55X d   1     -22.844   8.042 141.393  0.00  0.00     0.028 H 
ATOM     71  H30 55X d   1     -21.845   6.739 140.663  0.00  0.00     0.028 H 
ENDBRANCH   8  68
BRANCH   7  72
ATOM     72  C67 55X d   1     -17.908   8.530 143.504  0.00  0.00    -0.065 C 
ATOM     73  H25 55X d   1     -17.876   8.111 142.487  0.00  0.00     0.028 H 
ATOM     74  H26 55X d   1     -16.930   8.969 143.750  0.00  0.00     0.028 H 
ATOM     75  H27 55X d   1     -18.683   9.309 143.556  0.00  0.00     0.028 H 
ENDBRANCH   7  72
TORSDOF 12
