REMARK  6 active torsions:
REMARK  status: ('A' for Active; 'I' for Inactive)
REMARK    1  A    between atoms: CAL_2  and  CAN_4 
REMARK    2  A    between atoms: CAN_4  and  OAK_7 
REMARK    3  A    between atoms: CAG_5  and  CAA_6 
REMARK    4  A    between atoms: OAK_7  and  CAP_8 
REMARK    5  A    between atoms: CAO_12  and  OAF_13 
REMARK    6  A    between atoms: CAQ_14  and  CAM_15 
ROOT
ATOM      1  CAP 0GA d   1      49.931 -45.660  -2.894  0.00  0.00     0.110 A 
ATOM      2  CAI 0GA d   1      50.922 -45.229  -3.775  0.00  0.00    -0.047 A 
ATOM      3  CAH 0GA d   1      51.899 -44.370  -3.298  0.00  0.00    -0.079 A 
ATOM      4  CAJ 0GA d   1      51.865 -43.941  -1.976  0.00  0.00    -0.064 A 
ATOM      5  CAO 0GA d   1      49.913 -45.248  -1.598  0.00  0.00     0.116 A 
ATOM      6  CAQ 0GA d   1      50.867 -44.368  -1.124  0.00  0.00     0.076 A 
ATOM      7  H5  0GA d   1      50.928 -45.558  -4.808  0.00  0.00     0.087 H 
ATOM      8  H6  0GA d   1      52.691 -44.032  -3.957  0.00  0.00     0.083 H 
ATOM      9  H7  0GA d   1      52.630 -43.265  -1.611  0.00  0.00     0.085 H 
ENDROOT
BRANCH   1  10
ATOM     10  OAK 0GA d   1      48.916 -46.492  -3.236  0.00  0.00    -0.301 OA
BRANCH  10  11
ATOM     11  CAN 0GA d   1      48.652 -46.791  -4.597  0.00  0.00     0.148 C 
ATOM     12  CAG 0GA d   1      48.966 -47.978  -5.089  0.00  0.00    -0.067 C 
ATOM     13  H1  0GA d   1      48.755 -48.194  -6.135  0.00  0.00     0.080 H 
BRANCH  11  14
ATOM     14  CAL 0GA d   1      48.045 -45.760  -5.395  0.00  0.00     0.234 C 
ATOM     15  OAD 0GA d   1      48.288 -45.743  -6.598  0.00  0.00    -0.642 OA
ATOM     16  OAB 0GA d   1      47.327 -44.911  -4.846  0.00  0.00    -0.642 OA
ENDBRANCH  11  14
BRANCH  12  17
ATOM     17  CAA 0GA d   1      49.609 -49.038  -4.234  0.00  0.00    -0.057 C 
ATOM     18  H2  0GA d   1      49.783 -49.941  -4.838  0.00  0.00     0.032 H 
ATOM     19  H3  0GA d   1      48.945 -49.283  -3.392  0.00  0.00     0.032 H 
ATOM     20  H4  0GA d   1      50.569 -48.665  -3.847  0.00  0.00     0.032 H 
ENDBRANCH  12  17
ENDBRANCH  10  11
ENDBRANCH   1  10
BRANCH   5  21
ATOM     21  OAF 0GA d   1      48.875 -45.711  -0.831  0.00  0.00    -0.357 OA
ATOM     22  H8  0GA d   1      48.956 -45.367   0.051  0.00  0.00     0.217 HD
ENDBRANCH   5  21
BRANCH   6  23
ATOM     23  CAM 0GA d   1      50.815 -43.923   0.302  0.00  0.00     0.212 C 
ATOM     24  OAC 0GA d   1      49.957 -44.436   1.034  0.00  0.00    -0.644 OA
ATOM     25  OAE 0GA d   1      51.618 -43.096   0.771  0.00  0.00    -0.644 OA
ENDBRANCH   6  23
TORSDOF 6
