REMARK  9 active torsions:
REMARK  status: ('A' for Active; 'I' for Inactive)
REMARK    1  A    between atoms: C17_8  and  C15_7 
REMARK    2  A    between atoms: C17_8  and  C19_9 
REMARK    3  A    between atoms: O18_26  and  C17_8 
REMARK    4  A    between atoms: C21_11  and  O26_28 
REMARK    5  A    between atoms: C22_12  and  O25_27 
REMARK    6  A    between atoms: O26_28  and  C27_15 
REMARK    7  A    between atoms: O25_27  and  C28_16 
REMARK    8  A    between atoms: C4_17  and  C7_20 
REMARK    9  A    between atoms: C6_19  and  O18_26 
ROOT
ATOM      1  C1  55M d   1       3.397   0.552  14.394  0.00  0.00     0.087 A 
ATOM      2  C2  55M d   1       3.201  -0.532  15.197  0.00  0.00     0.080 A 
ATOM      3  C3  55M d   1       1.948  -1.111  15.316  0.00  0.00    -0.025 A 
ATOM      4  C4  55M d   1       0.929  -0.519  14.586  0.00  0.00     0.072 A 
ATOM      5  N5  55M d   1       1.151   0.561  13.827  0.00  0.00    -0.223 NA
ATOM      6  C6  55M d   1       2.332   1.125  13.698  0.00  0.00     0.185 A 
ATOM      7  S8  55M d   1       5.055   1.134  14.363  0.00  0.00    -0.076 SA
ATOM      8  C9  55M d   1       5.345  -0.193  15.490  0.00  0.00     0.041 A 
ATOM      9  N10 55M d   1       4.345  -0.866  15.765  0.00  0.00    -0.253 NA
ATOM     10  H1  55M d   1       1.774  -1.977  15.944  0.00  0.00     0.090 H 
ATOM     11  H20 55M d   1       6.328  -0.403  15.910  0.00  0.00     0.126 H 
ENDROOT
BRANCH   4  12
ATOM     12  C7  55M d   1      -0.451  -1.009  14.699  0.00  0.00    -0.004 A 
ATOM     13  C20 55M d   1      -1.453  -0.294  14.071  0.00  0.00    -0.036 A 
ATOM     14  C21 55M d   1      -2.780  -0.655  14.198  0.00  0.00     0.102 A 
ATOM     15  H11 55M d   1      -1.192   0.567  13.467  0.00  0.00     0.089 H 
ATOM     16  C22 55M d   1      -3.106  -1.724  14.995  0.00  0.00     0.101 A 
ATOM     17  C23 55M d   1      -2.093  -2.407  15.670  0.00  0.00    -0.047 A 
ATOM     18  C24 55M d   1      -0.775  -2.051  15.554  0.00  0.00    -0.068 A 
ATOM     19  H12 55M d   1      -2.357  -3.245  16.305  0.00  0.00     0.087 H 
ATOM     20  H13 55M d   1      -0.007  -2.570  16.116  0.00  0.00     0.085 H 
BRANCH  14  21
ATOM     21  O26 55M d   1      -3.804  -0.012  13.572  0.00  0.00    -0.353 OA
BRANCH  21  22
ATOM     22  C27 55M d   1      -3.715   1.243  12.999  0.00  0.00     0.010 C 
ATOM     23  H14 55M d   1      -4.688   1.518  12.565  0.00  0.00     0.066 H 
ATOM     24  H15 55M d   1      -2.951   1.232  12.208  0.00  0.00     0.066 H 
ATOM     25  H16 55M d   1      -3.436   1.978  13.768  0.00  0.00     0.066 H 
ENDBRANCH  21  22
ENDBRANCH  14  21
BRANCH  16  26
ATOM     26  O25 55M d   1      -4.446  -2.054  15.116  0.00  0.00    -0.353 OA
BRANCH  26  27
ATOM     27  C28 55M d   1      -4.892  -2.851  16.188  0.00  0.00     0.010 C 
ATOM     28  H17 55M d   1      -5.979  -2.999  16.107  0.00  0.00     0.066 H 
ATOM     29  H18 55M d   1      -4.660  -2.349  17.139  0.00  0.00     0.066 H 
ATOM     30  H19 55M d   1      -4.385  -3.827  16.155  0.00  0.00     0.066 H 
ENDBRANCH  26  27
ENDBRANCH  16  26
ENDBRANCH   4  12
BRANCH   6  31
ATOM     31  O18 55M d   1       2.508   2.231  12.917  0.00  0.00    -0.328 OA
BRANCH  31  32
ATOM     32  C17 55M d   1       1.367   2.957  12.479  0.00  0.00     0.049 C 
ATOM     33  H7  55M d   1       0.561   2.816  13.215  0.00  0.00     0.084 H 
BRANCH  32  34
ATOM     34  C15 55M d   1       1.745   4.471  12.471  0.00  0.00    -0.005 C 
ATOM     35  C11 55M d   1       2.035   5.043  13.859  0.00  0.00     0.001 C 
ATOM     36  N12 55M d   1       3.408   5.254  13.843  0.00  0.00    -0.361 N 
ATOM     37  H2  55M d   1       1.757   4.326  14.646  0.00  0.00     0.064 H 
ATOM     38  H3  55M d   1       1.494   5.988  14.016  0.00  0.00     0.064 H 
ATOM     39  C13 55M d   1       4.005   5.118  12.683  0.00  0.00     0.218 C 
ATOM     40  H21 55M d   1       3.914   5.496  14.671  0.00  0.00     0.162 HD
ATOM     41  C14 55M d   1       3.006   4.734  11.639  0.00  0.00     0.016 C 
ATOM     42  O16 55M d   1       5.133   5.289  12.466  0.00  0.00    -0.274 OA
ATOM     43  H4  55M d   1       3.322   3.829  11.099  0.00  0.00     0.048 H 
ATOM     44  H5  55M d   1       2.846   5.552  10.921  0.00  0.00     0.048 H 
ATOM     45  H6  55M d   1       0.901   5.022  12.031  0.00  0.00     0.047 H 
ENDBRANCH  32  34
BRANCH  32  46
ATOM     46  C19 55M d   1       0.841   2.413  11.114  0.00  0.00    -0.051 C 
ATOM     47  H8  55M d   1       0.601   1.344  11.213  0.00  0.00     0.030 H 
ATOM     48  H9  55M d   1       1.615   2.545  10.344  0.00  0.00     0.030 H 
ATOM     49  H10 55M d   1      -0.064   2.966  10.823  0.00  0.00     0.030 H 
ENDBRANCH  32  46
ENDBRANCH  31  32
ENDBRANCH   6  31
TORSDOF 9
