REMARK  9 active torsions:
REMARK  status: ('A' for Active; 'I' for Inactive)
REMARK    1  A    between atoms: C13_5  and  C21_9 
REMARK    2  A    between atoms: C16_10  and  C20_8 
REMARK    3  A    between atoms: C02_14  and  S01_13 
REMARK    4  A    between atoms: S01_13  and  C33_27 
REMARK    5  A    between atoms: C04_16  and  C02_14 
REMARK    6  A    between atoms: C04_16  and  C03_15 
REMARK    7  A    between atoms: C04_16  and  C05_17 
REMARK    8  A    between atoms: C33_27  and  C32_26 
REMARK    9  A    between atoms: C32_26  and  N34_28 
REMARK       I    between atoms: N34_28  and  C35_29 
ROOT
ATOM      1  C10 5TW d   1      -1.758   7.098  21.816  0.00  0.00    -0.036 C 
ATOM      2  C19 5TW d   1      -8.695   5.266  18.906  0.00  0.00    -0.060 C 
ATOM      3  C11 5TW d   1      -2.806   7.306  20.913  0.00  0.00    -0.068 C 
ATOM      4  C12 5TW d   1      -2.945   6.374  19.869  0.00  0.00    -0.043 C 
ATOM      5  C13 5TW d   1      -3.794   8.319  21.104  0.00  0.00    -0.016 C 
ATOM      6  C18 5TW d   1      -7.185   5.415  18.633  0.00  0.00    -0.060 C 
ATOM      7  C17 5TW d   1      -6.776   6.278  19.813  0.00  0.00    -0.043 C 
ATOM      8  C16 5TW d   1      -7.852   7.332  19.781  0.00  0.00    -0.036 C 
ATOM      9  C15 5TW d   1      -7.659   8.235  20.988  0.00  0.00    -0.057 C 
ATOM     10  C14 5TW d   1      -6.260   8.854  20.960  0.00  0.00    -0.060 C 
ATOM     11  C05 5TW d   1      -9.071   6.418  19.861  0.00  0.00    -0.036 C 
ATOM     12  C07 5TW d   1      -3.763   8.967  22.502  0.00  0.00    -0.048 C 
ATOM     13  C08 5TW d   1      -2.319   9.177  22.989  0.00  0.00    -0.005 C 
ATOM     14  C09 5TW d   1      -1.529   8.023  22.836  0.00  0.00     0.149 C 
ATOM     15  O22 5TW d   1      -0.608   7.807  23.622  0.00  0.00    -0.293 OA
ATOM     16  C23 5TW d   1      -5.207   7.733  20.967  0.00  0.00    -0.040 C 
ATOM     17  C24 5TW d   1      -5.388   6.878  19.727  0.00  0.00    -0.045 C 
ATOM     18  C25 5TW d   1      -4.351   5.785  19.778  0.00  0.00    -0.058 C 
ATOM     19  H1  5TW d   1      -1.123   6.218  21.724  0.00  0.00     0.089 H 
ATOM     20  H2  5TW d   1      -8.904   4.295  19.378  0.00  0.00     0.033 H 
ATOM     21  H3  5TW d   1      -9.263   5.347  17.967  0.00  0.00     0.033 H 
ATOM     22  H4  5TW d   1      -2.231   5.553  20.034  0.00  0.00     0.039 H 
ATOM     23  H5  5TW d   1      -2.713   6.876  18.918  0.00  0.00     0.039 H 
ATOM     24  H6  5TW d   1      -6.993   5.920  17.675  0.00  0.00     0.033 H 
ATOM     25  H7  5TW d   1      -6.672   4.442  18.644  0.00  0.00     0.033 H 
ATOM     26  H8  5TW d   1      -6.833   5.694  20.743  0.00  0.00     0.041 H 
ATOM     27  H15 5TW d   1      -7.777   7.644  21.908  0.00  0.00     0.034 H 
ATOM     28  H16 5TW d   1      -8.412   9.036  20.968  0.00  0.00     0.034 H 
ATOM     29  H17 5TW d   1      -6.123   9.492  21.845  0.00  0.00     0.033 H 
ATOM     30  H18 5TW d   1      -6.145   9.460  20.049  0.00  0.00     0.033 H 
ATOM     31  H23 5TW d   1      -9.186   6.055  20.893  0.00  0.00     0.042 H 
ATOM     32  H24 5TW d   1      -4.289   8.312  23.212  0.00  0.00     0.035 H 
ATOM     33  H25 5TW d   1      -4.271   9.942  22.456  0.00  0.00     0.035 H 
ATOM     34  H26 5TW d   1      -2.342   9.451  24.054  0.00  0.00     0.044 H 
ATOM     35  H27 5TW d   1      -1.866   9.995  22.409  0.00  0.00     0.044 H 
ATOM     36  H28 5TW d   1      -5.386   7.095  21.845  0.00  0.00     0.042 H 
ATOM     37  H29 5TW d   1      -5.277   7.475  18.810  0.00  0.00     0.041 H 
ATOM     38  H30 5TW d   1      -4.535   5.154  20.660  0.00  0.00     0.034 H 
ATOM     39  H31 5TW d   1      -4.427   5.173  18.867  0.00  0.00     0.034 H 
ENDROOT
BRANCH  11  40
ATOM     40  C04 5TW d   1     -10.416   7.009  19.406  0.00  0.00     0.015 C 
ATOM     41  H22 5TW d   1     -10.354   7.277  18.341  0.00  0.00     0.053 H 
BRANCH  40  42
ATOM     42  C02 5TW d   1     -11.486   5.936  19.624  0.00  0.00     0.190 C 
ATOM     43  O06 5TW d   1     -11.794   5.577  20.760  0.00  0.00    -0.285 OA
BRANCH  42  44
ATOM     44  S01 5TW d   1     -12.206   5.272  18.175  0.00  0.00    -0.091 SA
BRANCH  44  45
ATOM     45  C33 5TW d   1     -13.374   4.083  18.930  0.00  0.00    -0.002 C 
ATOM     46  H34 5TW d   1     -14.161   3.848  18.198  0.00  0.00     0.052 H 
ATOM     47  H35 5TW d   1     -13.826   4.548  19.818  0.00  0.00     0.052 H 
BRANCH  45  48
ATOM     48  C32 5TW d   1     -12.692   2.779  19.353  0.00  0.00     0.003 C 
ATOM     49  H32 5TW d   1     -11.934   2.994  20.121  0.00  0.00     0.065 H 
ATOM     50  H33 5TW d   1     -12.208   2.319  18.479  0.00  0.00     0.065 H 
BRANCH  48  51
ATOM     51  N34 5TW d   1     -13.698   1.852  19.902  0.00  0.00    -0.367 N 
ATOM     52  C35 5TW d   1     -14.342   0.927  19.164  0.00  0.00     0.168 C 
ATOM     53  O36 5TW d   1     -14.150   0.775  17.959  0.00  0.00    -0.284 OA
ATOM     54  H37 5TW d   1     -15.068   0.283  19.659  0.00  0.00     0.179 H 
ATOM     55  H36 5TW d   1     -13.915   1.913  20.876  0.00  0.00     0.161 HD
ENDBRANCH  48  51
ENDBRANCH  45  48
ENDBRANCH  44  45
ENDBRANCH  42  44
ENDBRANCH  40  42
BRANCH  40  56
ATOM     56  C03 5TW d   1     -10.827   8.241  20.215  0.00  0.00    -0.065 C 
ATOM     57  H19 5TW d   1     -11.792   8.617  19.845  0.00  0.00     0.028 H 
ATOM     58  H20 5TW d   1     -10.062   9.024  20.105  0.00  0.00     0.028 H 
ATOM     59  H21 5TW d   1     -10.922   7.968  21.276  0.00  0.00     0.028 H 
ENDBRANCH  40  56
ENDBRANCH  11  40
BRANCH   8  60
ATOM     60  C20 5TW d   1      -7.801   8.145  18.474  0.00  0.00    -0.068 C 
ATOM     61  H9  5TW d   1      -8.597   8.904  18.483  0.00  0.00     0.028 H 
ATOM     62  H10 5TW d   1      -7.946   7.471  17.617  0.00  0.00     0.028 H 
ATOM     63  H11 5TW d   1      -6.823   8.641  18.389  0.00  0.00     0.028 H 
ENDBRANCH   8  60
BRANCH   5  64
ATOM     64  C21 5TW d   1      -3.565   9.396  20.046  0.00  0.00    -0.065 C 
ATOM     65  H12 5TW d   1      -2.550   9.807  20.155  0.00  0.00     0.028 H 
ATOM     66  H13 5TW d   1      -4.303  10.201  20.177  0.00  0.00     0.028 H 
ATOM     67  H14 5TW d   1      -3.676   8.956  19.044  0.00  0.00     0.028 H 
ENDBRANCH   5  64
TORSDOF 9
