REMARK  8 active torsions:
REMARK  status: ('A' for Active; 'I' for Inactive)
REMARK    1  A    between atoms: C20_4  and  C21_5 
REMARK    2  A    between atoms: N19_22  and  C20_4 
REMARK    3  A    between atoms: C21_5  and  C22_6 
REMARK    4  A    between atoms: C22_6  and  N23_23 
REMARK    5  A    between atoms: N02_8  and  C01_7 
REMARK    6  A    between atoms: N02_8  and  C03_9 
REMARK    7  A    between atoms: C04_10  and  N02_8 
REMARK    8  A    between atoms: C18_21  and  N19_22 
ROOT
ATOM      1  C10 55U d   1       1.332  -1.059  15.910  0.00  0.00     0.071 A 
ATOM      2  C15 55U d   1       6.189   0.284  15.942  0.00  0.00    -0.065 A 
ATOM      3  C17 55U d   1       3.860   0.019  15.370  0.00  0.00     0.038 A 
ATOM      4  C04 55U d   1      -2.627  -2.461  16.390  0.00  0.00     0.029 A 
ATOM      5  C05 55U d   1      -2.345  -1.484  15.407  0.00  0.00    -0.057 A 
ATOM      6  C06 55U d   1      -1.028  -0.997  15.273  0.00  0.00    -0.069 A 
ATOM      7  C07 55U d   1       0.018  -1.499  16.092  0.00  0.00    -0.007 A 
ATOM      8  C08 55U d   1      -0.258  -2.518  17.010  0.00  0.00    -0.069 A 
ATOM      9  C09 55U d   1      -1.567  -3.001  17.143  0.00  0.00    -0.057 A 
ATOM     10  C11 55U d   1       2.431  -1.346  16.755  0.00  0.00    -0.026 A 
ATOM     11  C12 55U d   1       3.689  -0.853  16.439  0.00  0.00     0.072 A 
ATOM     12  N13 55U d   1       4.764  -1.124  17.253  0.00  0.00    -0.260 NA
ATOM     13  C14 55U d   1       6.009  -0.574  17.026  0.00  0.00     0.003 A 
ATOM     14  C16 55U d   1       5.125   0.564  15.117  0.00  0.00    -0.066 A 
ATOM     15  C18 55U d   1       2.729   0.365  14.616  0.00  0.00     0.136 A 
ATOM     16  N24 55U d   1       1.517  -0.187  14.880  0.00  0.00    -0.230 NA
ATOM     17  H1  55U d   1       7.160   0.727  15.751  0.00  0.00     0.085 H 
ATOM     18  H14 55U d   1      -3.134  -1.113  14.762  0.00  0.00     0.086 H 
ATOM     19  H15 55U d   1      -0.812  -0.231  14.537  0.00  0.00     0.085 H 
ATOM     20  H16 55U d   1       0.539  -2.933  17.617  0.00  0.00     0.085 H 
ATOM     21  H17 55U d   1      -1.767  -3.807  17.840  0.00  0.00     0.086 H 
ATOM     22  H18 55U d   1       2.290  -1.948  17.645  0.00  0.00     0.090 H 
ATOM     23  H19 55U d   1       6.839  -0.807  17.684  0.00  0.00     0.114 H 
ATOM     24  H20 55U d   1       5.267   1.214  14.261  0.00  0.00     0.085 H 
ENDROOT
BRANCH  15  25
ATOM     25  N19 55U d   1       2.664   1.269  13.492  0.00  0.00    -0.374 N 
ATOM     26  H21 55U d   1       3.638   1.581  13.366  0.00  0.00     0.161 HD
BRANCH  25  27
ATOM     27  C20 55U d   1       1.937   1.962  12.453  0.00  0.00    -0.004 C 
ATOM     28  H2  55U d   1       2.675   2.331  11.726  0.00  0.00     0.064 H 
ATOM     29  H3  55U d   1       1.279   1.227  11.966  0.00  0.00     0.064 H 
BRANCH  27  30
ATOM     30  C21 55U d   1       1.071   3.147  12.864  0.00  0.00    -0.028 C 
ATOM     31  H4  55U d   1       0.045   2.769  12.983  0.00  0.00     0.037 H 
ATOM     32  H5  55U d   1       1.102   3.870  12.036  0.00  0.00     0.037 H 
BRANCH  30  33
ATOM     33  C22 55U d   1       1.415   3.913  14.138  0.00  0.00     0.081 C 
ATOM     34  H6  55U d   1       2.488   3.776  14.337  0.00  0.00     0.075 H 
ATOM     35  H7  55U d   1       0.831   3.480  14.963  0.00  0.00     0.075 H 
BRANCH  33  36
ATOM     36  N23 55U d   1       1.142   5.351  14.097  0.00  0.00    -0.079 N 
ATOM     37  H22 55U d   1       1.400   5.767  14.978  0.00  0.00     0.274 HD
ATOM     38  H23 55U d   1       0.160   5.502  13.929  0.00  0.00     0.274 HD
ATOM     39  H24 55U d   1       1.678   5.774  13.356  0.00  0.00     0.274 HD
ENDBRANCH  33  36
ENDBRANCH  30  33
ENDBRANCH  27  30
ENDBRANCH  25  27
ENDBRANCH  15  25
BRANCH   4  40
ATOM     40  N02 55U d   1      -3.996  -2.914  16.679  0.00  0.00    -0.390 N 
BRANCH  40  41
ATOM     41  C01 55U d   1      -5.116  -2.500  15.843  0.00  0.00    -0.019 C 
ATOM     42  H8  55U d   1      -6.045  -2.946  16.228  0.00  0.00     0.056 H 
ATOM     43  H9  55U d   1      -4.947  -2.839  14.810  0.00  0.00     0.056 H 
ATOM     44  H10 55U d   1      -5.201  -1.403  15.860  0.00  0.00     0.056 H 
ENDBRANCH  40  41
BRANCH  40  45
ATOM     45  C03 55U d   1      -4.296  -3.607  17.926  0.00  0.00    -0.019 C 
ATOM     46  H11 55U d   1      -3.357  -3.854  18.443  0.00  0.00     0.056 H 
ATOM     47  H12 55U d   1      -4.848  -4.533  17.707  0.00  0.00     0.056 H 
ATOM     48  H13 55U d   1      -4.909  -2.957  18.568  0.00  0.00     0.056 H 
ENDBRANCH  40  45
ENDBRANCH   4  40
TORSDOF 8
