REMARK  6 active torsions:
REMARK  status: ('A' for Active; 'I' for Inactive)
REMARK    1  A    between atoms: N1_1  and  C11_24 
REMARK    2  A    between atoms: C4_3  and  C9_21 
REMARK    3  A    between atoms: C1_14  and  C13_9 
REMARK    4  A    between atoms: C1_14  and  C_15 
REMARK    5  A    between atoms: O_16  and  C1_14 
REMARK    6  A    between atoms: O_16  and  C2_17 
ROOT
ATOM      1  C4  55Y d   1      -7.041 -13.707 -16.425  0.00  0.00    -0.018 A 
ATOM      2  C5  55Y d   1      -7.753 -12.612 -16.324  0.00  0.00    -0.043 A 
ATOM      3  C6  55Y d   1      -7.131 -11.367 -15.990  0.00  0.00     0.079 A 
ATOM      4  C7  55Y d   1      -5.396 -10.009 -15.445  0.00  0.00    -0.012 A 
ATOM      5  C8  55Y d   1      -5.740 -11.311 -15.771  0.00  0.00     0.035 A 
ATOM      6  C2  55Y d   1      -4.990 -12.482 -15.937  0.00  0.00     0.083 A 
ATOM      7  S   55Y d   1      -6.745  -8.998 -15.472  0.00  0.00     0.001 SA
ATOM      8  N   55Y d   1      -7.703 -10.204 -15.856  0.00  0.00    -0.211 NA
ATOM      9  C3  55Y d   1      -5.611 -13.623 -16.237  0.00  0.00    -0.039 A 
ATOM     10  H1  55Y d   1      -8.823 -12.649 -16.495  0.00  0.00     0.088 H 
ATOM     11  H2  55Y d   1      -4.386  -9.681 -15.203  0.00  0.00     0.098 H 
ATOM     12  H10 55Y d   1      -5.019 -14.525 -16.344  0.00  0.00     0.089 H 
ENDROOT
BRANCH   6  13
ATOM     13  O   55Y d   1      -3.654 -12.325 -15.800  0.00  0.00    -0.342 OA
BRANCH  13  14
ATOM     14  C1  55Y d   1      -2.784 -13.323 -16.117  0.00  0.00     0.072 C 
ATOM     15  H6  55Y d   1      -3.184 -13.931 -16.942  0.00  0.00     0.088 H 
BRANCH  14  16
ATOM     16  C13 55Y d   1      -1.454 -12.598 -16.535  0.00  0.00     0.106 A 
ATOM     17  C14 55Y d   1      -1.728 -11.757 -17.818  0.00  0.00     0.018 A 
ATOM     18  N3  55Y d   1      -1.578 -10.481 -17.372  0.00  0.00    -0.202 NA
ATOM     19  H5  55Y d   1      -1.977 -12.104 -18.820  0.00  0.00     0.112 H 
ATOM     20  C15 55Y d   1      -1.209 -10.462 -16.058  0.00  0.00     0.387 A 
ATOM     21  O1  55Y d   1      -1.054  -9.520 -15.408  0.00  0.00    -0.236 OA
ATOM     22  O2  55Y d   1      -1.117 -11.681 -15.579  0.00  0.00    -0.289 OA
ATOM     23  H4  55Y d   1      -0.647 -13.328 -16.694  0.00  0.00     0.097 H 
ENDBRANCH  14  16
BRANCH  14  24
ATOM     24  C   55Y d   1      -2.474 -14.188 -14.958  0.00  0.00    -0.049 C 
ATOM     25  H7  55Y d   1      -3.386 -14.713 -14.638  0.00  0.00     0.031 H 
ATOM     26  H8  55Y d   1      -2.097 -13.570 -14.130  0.00  0.00     0.031 H 
ATOM     27  H9  55Y d   1      -1.709 -14.924 -15.244  0.00  0.00     0.031 H 
ENDBRANCH  14  24
ENDBRANCH  13  14
ENDBRANCH   6  13
BRANCH   1  28
ATOM     28  C9  55Y d   1      -7.646 -14.986 -16.699  0.00  0.00     0.011 A 
ATOM     29  C10 55Y d   1      -8.944 -15.260 -17.019  0.00  0.00     0.010 A 
ATOM     30  N1  55Y d   1      -9.028 -16.572 -17.242  0.00  0.00    -0.285 N 
ATOM     31  H3  55Y d   1      -9.759 -14.541 -17.081  0.00  0.00     0.115 H 
ATOM     32  N2  55Y d   1      -7.942 -17.158 -17.116  0.00  0.00    -0.185 NA
ATOM     33  C12 55Y d   1      -7.082 -16.221 -16.773  0.00  0.00     0.034 A 
ATOM     34  H11 55Y d   1      -6.030 -16.415 -16.570  0.00  0.00     0.118 H 
BRANCH  30  35
ATOM     35  C11 55Y d   1     -10.257 -17.283 -17.636  0.00  0.00     0.002 C 
ATOM     36  H12 55Y d   1     -10.039 -18.355 -17.752  0.00  0.00     0.059 H 
ATOM     37  H13 55Y d   1     -10.625 -16.878 -18.590  0.00  0.00     0.059 H 
ATOM     38  H14 55Y d   1     -11.024 -17.147 -16.860  0.00  0.00     0.059 H 
ENDBRANCH  30  35
ENDBRANCH   1  28
TORSDOF 6
