REMARK  8 active torsions:
REMARK  status: ('A' for Active; 'I' for Inactive)
REMARK    1  A    between atoms: C5_3  and  N_24 
REMARK    2  A    between atoms: N_24  and  C6_4 
REMARK    3  A    between atoms: C11_5  and  C12_10 
REMARK    4  A    between atoms: O2_26  and  C11_5 
REMARK    5  A    between atoms: C10_9  and  O2_26 
REMARK    6  A    between atoms: S_17  and  C1_19 
REMARK    7  A    between atoms: S_17  and  C2_21 
REMARK    8  A    between atoms: C1_19  and  C_20 
ROOT
ATOM      1  C6  55S d   1       7.859  44.073  49.921  0.00  0.00     0.731 A 
ATOM      2  C7  55S d   1       9.466  45.276  50.933  0.00  0.00     0.201 A 
ATOM      3  C8  55S d   1      10.442  46.733  52.172  0.00  0.00     0.067 A 
ATOM      4  C9  55S d   1       8.533  45.996  51.658  0.00  0.00     0.136 A 
ATOM      5  C10 55S d   1       7.199  45.669  51.447  0.00  0.00     0.214 A 
ATOM      6  N1  55S d   1       9.176  44.291  50.076  0.00  0.00    -0.040 NA
ATOM      7  N2  55S d   1      10.667  45.746  51.289  0.00  0.00    -0.222 NA
ATOM      8  N3  55S d   1       9.159  46.889  52.430  0.00  0.00    -0.344 N 
ATOM      9  N4  55S d   1       6.877  44.726  50.572  0.00  0.00    -0.036 NA
ATOM     10  H6  55S d   1      11.229  47.335  52.623  0.00  0.00     0.143 H 
ATOM     11  H11 55S d   1       8.730  47.557  53.087  0.00  0.00     0.167 HD
ENDROOT
BRANCH   1  12
ATOM     12  N   55S d   1       7.541  43.099  49.059  0.00  0.00    -0.188 N 
ATOM     13  H19 55S d   1       8.272  42.853  48.376  0.00  0.00     0.184 HD
BRANCH  12  14
ATOM     14  C5  55S d   1       6.311  42.345  48.957  0.00  0.00     0.049 A 
ATOM     15  C4  55S d   1       5.913  41.783  47.741  0.00  0.00    -0.055 A 
ATOM     16  C3  55S d   1       4.727  41.075  47.659  0.00  0.00    -0.060 A 
ATOM     17  H1  55S d   1       6.534  41.902  46.861  0.00  0.00     0.087 H 
ATOM     18  C2  55S d   1       3.931  40.928  48.784  0.00  0.00     0.059 A 
ATOM     19  H10 55S d   1       4.421  40.636  46.716  0.00  0.00     0.085 H 
ATOM     20  C19 55S d   1       4.318  41.479  49.995  0.00  0.00    -0.060 A 
ATOM     21  C18 55S d   1       5.499  42.185  50.086  0.00  0.00    -0.055 A 
ATOM     22  H17 55S d   1       3.692  41.355  50.871  0.00  0.00     0.085 H 
ATOM     23  H18 55S d   1       5.799  42.617  51.034  0.00  0.00     0.087 H 
BRANCH  18  24
ATOM     24  S   55S d   1       2.427  39.997  48.693  0.00  0.00     0.175 S 
ATOM     25  O1  55S d   1       2.324  39.197  49.885  0.00  0.00    -0.223 OA
ATOM     26  O   55S d   1       2.380  39.334  47.416  0.00  0.00    -0.223 OA
BRANCH  24  27
ATOM     27  C1  55S d   1       1.151  41.239  48.738  0.00  0.00     0.030 C 
ATOM     28  H12 55S d   1       0.771  41.361  47.713  0.00  0.00     0.056 H 
ATOM     29  H13 55S d   1       1.615  42.179  49.072  0.00  0.00     0.056 H 
BRANCH  27  30
ATOM     30  C   55S d   1      -0.029  40.973  49.631  0.00  0.00    -0.064 C 
ATOM     31  H14 55S d   1      -0.736  41.813  49.564  0.00  0.00     0.028 H 
ATOM     32  H15 55S d   1       0.315  40.864  50.670  0.00  0.00     0.028 H 
ATOM     33  H16 55S d   1      -0.529  40.047  49.312  0.00  0.00     0.028 H 
ENDBRANCH  27  30
ENDBRANCH  24  27
ENDBRANCH  18  24
ENDBRANCH  12  14
ENDBRANCH   1  12
BRANCH   5  34
ATOM     34  O2  55S d   1       6.235  46.386  52.135  0.00  0.00    -0.332 OA
BRANCH  34  35
ATOM     35  C11 55S d   1       4.856  46.126  51.789  0.00  0.00     0.031 C 
ATOM     36  H4  55S d   1       4.561  46.772  50.949  0.00  0.00     0.075 H 
ATOM     37  H5  55S d   1       4.744  45.071  51.498  0.00  0.00     0.075 H 
BRANCH  35  38
ATOM     38  C12 55S d   1       3.981  46.414  52.973  0.00  0.00    -0.033 C 
ATOM     39  C13 55S d   1       2.551  45.935  52.696  0.00  0.00    -0.060 C 
ATOM     40  C14 55S d   1       1.637  46.144  53.905  0.00  0.00    -0.065 C 
ATOM     41  H8  55S d   1       2.146  46.498  51.842  0.00  0.00     0.033 H 
ATOM     42  H9  55S d   1       2.576  44.863  52.450  0.00  0.00     0.033 H 
ATOM     43  C15 55S d   1       2.208  45.488  55.144  0.00  0.00    -0.065 C 
ATOM     44  H2  55S d   1       0.651  45.706  53.689  0.00  0.00     0.033 H 
ATOM     45  H3  55S d   1       1.527  47.223  54.089  0.00  0.00     0.033 H 
ATOM     46  C16 55S d   1       3.612  46.000  55.434  0.00  0.00    -0.065 C 
ATOM     47  H24 55S d   1       2.247  44.400  54.989  0.00  0.00     0.033 H 
ATOM     48  H25 55S d   1       1.558  45.714  56.002  0.00  0.00     0.033 H 
ATOM     49  C17 55S d   1       4.532  45.772  54.244  0.00  0.00    -0.060 C 
ATOM     50  H22 55S d   1       3.564  47.077  55.651  0.00  0.00     0.033 H 
ATOM     51  H23 55S d   1       4.016  45.468  56.308  0.00  0.00     0.033 H 
ATOM     52  H20 55S d   1       5.517  46.209  54.466  0.00  0.00     0.033 H 
ATOM     53  H21 55S d   1       4.640  44.690  54.079  0.00  0.00     0.033 H 
ATOM     54  H7  55S d   1       3.957  47.503  53.125  0.00  0.00     0.043 H 
ENDBRANCH  35  38
ENDBRANCH  34  35
ENDBRANCH   5  34
TORSDOF 8
