REMARK  29 active torsions:
REMARK  status: ('A' for Active; 'I' for Inactive)
REMARK    1  A    between atoms: C6_3  and  N6_59 
REMARK    2  A    between atoms: CBS_9  and  OAJ_10 
REMARK    3  A    between atoms: CAR_14  and  CBT_13 
REMARK    4  A    between atoms: CAQ_15  and  CAR_14 
REMARK    5  A    between atoms: CBP_16  and  CAQ_15 
REMARK    6  A    between atoms: SBO_18  and  CBP_16 
REMARK    7  A    between atoms: CBA_19  and  SBO_18 
REMARK    8  A    between atoms: CAY_20  and  CBA_19 
REMARK    9  A    between atoms: NBH_21  and  CAY_20 
REMARK       I    between atoms: CBQ_22  and  NBH_21 
REMARK   10  A    between atoms: CBB_24  and  CBQ_22 
REMARK   11  A    between atoms: CAZ_25  and  CBB_24 
REMARK   12  A    between atoms: NBI_26  and  CAZ_25 
REMARK       I    between atoms: CBR_27  and  NBI_26 
REMARK   13  A    between atoms: CBX_29  and  CBR_27 
REMARK   14  A    between atoms: CBX_29  and  OAK_30 
REMARK   15  A    between atoms: CCD_31  and  CBX_29 
REMARK   16  A    between atoms: CCD_31  and  CAA_32 
REMARK   17  A    between atoms: CCD_31  and  CAB_33 
REMARK   18  A    between atoms: CBD_34  and  CCD_31 
REMARK   19  A    between atoms: OBK_35  and  CBD_34 
REMARK   20  A    between atoms: PCG_36  and  OBK_35 
REMARK   21  A    between atoms: OBN_39  and  PCG_36 
REMARK   22  A    between atoms: PCF_40  and  OBN_39 
REMARK   23  A    between atoms: O5'_43  and  PCF_40 
REMARK   24  A    between atoms: C5'_44  and  O5'_43 
REMARK   25  A    between atoms: C4'_45  and  C5'_44 
REMARK   26  A    between atoms: C3'_47  and  O3'_48 
REMARK   27  A    between atoms: O3'_48  and  PCE_49 
REMARK   28  A    between atoms: C2'_53  and  O2'_54 
REMARK   29  A    between atoms: C1'_55  and  N9_56 
ROOT
ATOM      1  CCD WCA d   1     100.941 147.601  83.154  0.00  0.00     0.009 C 
ENDROOT
BRANCH   1   2
ATOM      2  CBX WCA d   1      99.549 147.141  83.608  0.00  0.00     0.120 C 
ATOM      3  H21 WCA d   1      99.629 146.657  84.593  0.00  0.00     0.099 H 
BRANCH   2   4
ATOM      4  CBR WCA d   1      98.919 146.206  82.644  0.00  0.00     0.247 C 
ATOM      5  NBI WCA d   1      97.912 146.658  81.804  0.00  0.00    -0.358 N 
ATOM      6  H20 WCA d   1      97.654 147.624  81.800  0.00  0.00     0.162 HD
ATOM      7  OAF WCA d   1      99.207 145.043  82.573  0.00  0.00    -0.271 OA
BRANCH   5   8
ATOM      8  CAZ WCA d   1      97.239 145.718  80.934  0.00  0.00     0.003 C 
ATOM      9  H18 WCA d   1      97.447 145.962  79.882  0.00  0.00     0.064 H 
ATOM     10  H19 WCA d   1      97.581 144.695  81.148  0.00  0.00     0.064 H 
BRANCH   8  11
ATOM     11  CBB WCA d   1      95.689 145.844  81.224  0.00  0.00     0.024 C 
ATOM     12  H16 WCA d   1      95.154 145.035  80.704  0.00  0.00     0.049 H 
ATOM     13  H17 WCA d   1      95.513 145.763  82.307  0.00  0.00     0.049 H 
BRANCH  11  14
ATOM     14  CBQ WCA d   1      95.177 147.180  80.732  0.00  0.00     0.219 C 
ATOM     15  NBH WCA d   1      93.823 147.120  80.164  0.00  0.00    -0.360 N 
ATOM     16  H15 WCA d   1      93.350 146.239  80.167  0.00  0.00     0.162 HD
ATOM     17  OAE WCA d   1      95.759 148.266  80.764  0.00  0.00    -0.274 OA
BRANCH  15  18
ATOM     18  CAY WCA d   1      93.124 148.277  79.593  0.00  0.00     0.003 C 
ATOM     19  H13 WCA d   1      93.850 148.984  79.164  0.00  0.00     0.065 H 
ATOM     20  H14 WCA d   1      92.425 147.948  78.809  0.00  0.00     0.065 H 
BRANCH  18  21
ATOM     21  CBA WCA d   1      92.355 148.941  80.741  0.00  0.00    -0.002 C 
ATOM     22  H11 WCA d   1      91.823 148.178  81.329  0.00  0.00     0.052 H 
ATOM     23  H12 WCA d   1      93.051 149.487  81.394  0.00  0.00     0.052 H 
BRANCH  21  24
ATOM     24  SBO WCA d   1      91.158 150.102  79.991  0.00  0.00    -0.091 SA
BRANCH  24  25
ATOM     25  CBP WCA d   1      92.188 151.433  79.431  0.00  0.00     0.186 C 
ATOM     26  OAD WCA d   1      93.396 151.465  79.617  0.00  0.00    -0.286 OA
BRANCH  25  27
ATOM     27  CAQ WCA d   1      91.407 152.453  78.703  0.00  0.00     0.004 C 
ATOM     28  H9  WCA d   1      90.850 151.948  77.900  0.00  0.00     0.046 H 
ATOM     29  H10 WCA d   1      90.699 152.910  79.410  0.00  0.00     0.046 H 
BRANCH  27  30
ATOM     30  CAR WCA d   1      92.207 153.531  78.096  0.00  0.00    -0.034 C 
ATOM     31  H7  WCA d   1      92.636 154.138  78.907  0.00  0.00     0.040 H 
ATOM     32  H8  WCA d   1      93.019 153.070  77.515  0.00  0.00     0.040 H 
BRANCH  30  33
ATOM     33  CBT WCA d   1      91.458 154.421  77.207  0.00  0.00    -0.058 A 
ATOM     34  CAV WCA d   1      92.292 155.207  76.434  0.00  0.00    -0.074 A 
ATOM     35  CAT WCA d   1      91.774 156.087  75.559  0.00  0.00    -0.051 A 
ATOM     36  H2  WCA d   1      93.367 155.114  76.534  0.00  0.00     0.084 H 
ATOM     37  CBS WCA d   1      90.391 156.144  75.434  0.00  0.00     0.065 A 
ATOM     38  H3  WCA d   1      92.415 156.732  74.969  0.00  0.00     0.087 H 
ATOM     39  CAU WCA d   1      89.542 155.333  76.183  0.00  0.00    -0.051 A 
ATOM     40  CAW WCA d   1      90.063 154.437  77.098  0.00  0.00    -0.074 A 
ATOM     41  H5  WCA d   1      88.469 155.405  76.048  0.00  0.00     0.087 H 
ATOM     42  H6  WCA d   1      89.431 153.788  77.693  0.00  0.00     0.084 H 
BRANCH  37  43
ATOM     43  OAJ WCA d   1      89.937 157.022  74.425  0.00  0.00    -0.361 OA
ATOM     44  H4  WCA d   1      88.987 157.008  74.399  0.00  0.00     0.217 HD
ENDBRANCH  37  43
ENDBRANCH  30  33
ENDBRANCH  27  30
ENDBRANCH  25  27
ENDBRANCH  24  25
ENDBRANCH  21  24
ENDBRANCH  18  21
ENDBRANCH  15  18
ENDBRANCH  11  14
ENDBRANCH   8  11
ENDBRANCH   5   8
ENDBRANCH   2   4
BRANCH   2  45
ATOM     45  OAK WCA d   1      98.710 148.279  83.682  0.00  0.00    -0.385 OA
ATOM     46  H22 WCA d   1      99.081 148.905  84.293  0.00  0.00     0.210 HD
ENDBRANCH   2  45
ENDBRANCH   1   2
BRANCH   1  47
ATOM     47  CAA WCA d   1     100.918 148.348  81.808  0.00  0.00    -0.065 C 
ATOM     48  H23 WCA d   1     101.941 148.650  81.539  0.00  0.00     0.028 H 
ATOM     49  H24 WCA d   1     100.283 149.242  81.895  0.00  0.00     0.028 H 
ATOM     50  H25 WCA d   1     100.514 147.686  81.028  0.00  0.00     0.028 H 
ENDBRANCH   1  47
BRANCH   1  51
ATOM     51  CAB WCA d   1     101.925 146.421  83.006  0.00  0.00    -0.065 C 
ATOM     52  H26 WCA d   1     101.970 145.860  83.951  0.00  0.00     0.028 H 
ATOM     53  H27 WCA d   1     102.926 146.806  82.761  0.00  0.00     0.028 H 
ATOM     54  H28 WCA d   1     101.581 145.756  82.201  0.00  0.00     0.028 H 
ENDBRANCH   1  51
BRANCH   1  55
ATOM     55  CBD WCA d   1     101.539 148.583  84.189  0.00  0.00     0.041 C 
ATOM     56  H29 WCA d   1     100.905 149.478  84.272  0.00  0.00     0.076 H 
ATOM     57  H30 WCA d   1     102.554 148.880  83.887  0.00  0.00     0.076 H 
BRANCH  55  58
ATOM     58  OBK WCA d   1     101.581 147.882  85.457  0.00  0.00    -0.289 OA
BRANCH  58  59
ATOM     59  PCG WCA d   1     102.862 147.828  86.404  0.00  0.00     0.417 P 
ATOM     60  OAP WCA d   1     102.713 146.604  87.253  0.00  0.00    -0.624 OA
ATOM     61  OAI WCA d   1     104.115 148.072  85.659  0.00  0.00    -0.624 OA
BRANCH  59  62
ATOM     62  OBN WCA d   1     102.775 149.084  87.390  0.00  0.00    -0.180 OA
BRANCH  62  63
ATOM     63  PCF WCA d   1     101.664 150.109  87.823  0.00  0.00     0.417 P 
ATOM     64  OAO WCA d   1     102.354 151.042  88.844  0.00  0.00    -0.624 OA
ATOM     65  OAH WCA d   1     100.400 149.385  88.227  0.00  0.00    -0.624 OA
BRANCH  63  66
ATOM     66  O5' WCA d   1     101.359 150.969  86.481  0.00  0.00    -0.287 OA
BRANCH  66  67
ATOM     67  C5' WCA d   1     102.374 151.730  85.877  0.00  0.00     0.058 C 
ATOM     68  H31 WCA d   1     102.971 151.083  85.217  0.00  0.00     0.079 H 
ATOM     69  H32 WCA d   1     103.022 152.157  86.656  0.00  0.00     0.079 H 
BRANCH  67  70
ATOM     70  C4' WCA d   1     101.770 152.840  85.071  0.00  0.00     0.090 C 
ATOM     71  O4' WCA d   1     101.167 151.912  83.909  0.00  0.00    -0.353 OA
ATOM     72  C1' WCA d   1     100.161 152.693  83.497  0.00  0.00     0.140 C 
ATOM     73  C2' WCA d   1      99.453 153.173  84.809  0.00  0.00     0.106 C 
ATOM     74  H37 WCA d   1     100.534 153.546  82.912  0.00  0.00     0.122 H 
ATOM     75  C3' WCA d   1     100.718 153.551  85.676  0.00  0.00     0.107 C 
ATOM     76  H35 WCA d   1      98.895 152.343  85.267  0.00  0.00     0.093 H 
ATOM     77  H34 WCA d   1     100.593 153.354  86.751  0.00  0.00     0.092 H 
ATOM     78  H33 WCA d   1     102.533 153.548  84.715  0.00  0.00     0.090 H 
BRANCH  72  79
ATOM     79  N9  WCA d   1      99.238 151.914  82.712  0.00  0.00    -0.294 N 
ATOM     80  C4  WCA d   1      99.409 151.801  81.334  0.00  0.00     0.167 A 
ATOM     81  C5  WCA d   1      98.324 151.058  80.867  0.00  0.00     0.149 A 
ATOM     82  N3  WCA d   1     100.372 152.306  80.516  0.00  0.00    -0.222 NA
ATOM     83  C6  WCA d   1      98.295 150.783  79.456  0.00  0.00     0.155 A 
ATOM     84  N7  WCA d   1      97.518 150.719  81.955  0.00  0.00    -0.236 NA
ATOM     85  N1  WCA d   1      99.277 151.318  78.683  0.00  0.00    -0.222 NA
ATOM     86  C2  WCA d   1     100.253 152.043  79.167  0.00  0.00     0.091 A 
ATOM     87  H38 WCA d   1     100.992 152.450  78.486  0.00  0.00     0.146 H 
ATOM     88  C8  WCA d   1      98.086 151.277  83.061  0.00  0.00     0.071 A 
ATOM     89  H1  WCA d   1      97.680 151.222  84.070  0.00  0.00     0.144 H 
BRANCH  83  90
ATOM     90  N6  WCA d   1      97.211 150.018  78.969  0.00  0.00    -0.382 N 
ATOM     91  H39 WCA d   1      97.147 149.796  77.965  0.00  0.00     0.157 HD
ATOM     92  H40 WCA d   1      96.485 149.683  79.618  0.00  0.00     0.157 HD
ENDBRANCH  83  90
ENDBRANCH  72  79
BRANCH  73  93
ATOM     93  O2' WCA d   1      98.572 154.254  84.660  0.00  0.00    -0.388 OA
ATOM     94  H36 WCA d   1      99.022 154.971  84.230  0.00  0.00     0.210 HD
ENDBRANCH  73  93
BRANCH  75  95
ATOM     95  O3' WCA d   1     101.045 154.951  85.358  0.00  0.00    -0.272 OA
BRANCH  95  96
ATOM     96  PCE WCA d   1     101.585 155.942  86.537  0.00  0.00     0.422 P 
ATOM     97  OAM WCA d   1     100.500 155.917  87.590  0.00  0.00    -0.617 OA
ATOM     98  OAN WCA d   1     101.740 157.279  85.841  0.00  0.00    -0.617 OA
ATOM     99  OAG WCA d   1     102.878 155.341  86.995  0.00  0.00    -0.617 OA
ENDBRANCH  95  96
ENDBRANCH  75  95
ENDBRANCH  67  70
ENDBRANCH  66  67
ENDBRANCH  63  66
ENDBRANCH  62  63
ENDBRANCH  59  62
ENDBRANCH  58  59
ENDBRANCH  55  58
ENDBRANCH   1  55
TORSDOF 29
