REMARK  12 active torsions:
REMARK  status: ('A' for Active; 'I' for Inactive)
REMARK    1  A    between atoms: C2_2  and  C15_10 
REMARK    2  A    between atoms: N7_32  and  C5_5 
REMARK    3  A    between atoms: C9_29  and  C12_8 
REMARK    4  A    between atoms: C21_13  and  C25_37 
REMARK    5  A    between atoms: C23_14  and  N24_35 
REMARK    6  A    between atoms: O28_15  and  C30_17 
REMARK    7  A    between atoms: P27_26  and  O28_15 
REMARK    8  A    between atoms: C31_18  and  C38_25 
REMARK    9  A    between atoms: C35_22  and  C37_24 
REMARK   10  A    between atoms: P27_26  and  C36_23 
REMARK   11  A    between atoms: N26_27  and  P27_26 
REMARK   12  A    between atoms: C10_28  and  N26_27 
ROOT
ATOM      1  C8  55W d   1     -29.094 -23.685  13.715  0.00  0.00     0.025 A 
ATOM      2  C10 55W d   1     -31.066 -24.413  14.200  0.00  0.00     0.170 A 
ATOM      3  C9  55W d   1     -30.263 -24.103  13.144  0.00  0.00     0.105 A 
ATOM      4  N11 55W d   1     -30.429 -24.150  15.340  0.00  0.00    -0.148 NA
ATOM      5  N7  55W d   1     -29.280 -23.748  15.040  0.00  0.00    -0.242 N 
ATOM      6  H5  55W d   1     -28.192 -23.365  13.196  0.00  0.00     0.116 H 
ENDROOT
BRANCH   5   7
ATOM      7  C5  55W d   1     -28.325 -23.374  16.052  0.00  0.00     0.058 A 
ATOM      8  C3  55W d   1     -26.962 -23.446  15.834  0.00  0.00    -0.054 A 
ATOM      9  C1  55W d   1     -26.115 -23.058  16.845  0.00  0.00    -0.069 A 
ATOM     10  H2  55W d   1     -26.570 -23.800  14.887  0.00  0.00     0.087 H 
ATOM     11  C2  55W d   1     -26.605 -22.579  18.049  0.00  0.00    -0.005 A 
ATOM     12  H1  55W d   1     -25.043 -23.128  16.697  0.00  0.00     0.085 H 
ATOM     13  C4  55W d   1     -27.961 -22.516  18.247  0.00  0.00    -0.069 A 
ATOM     14  C6  55W d   1     -28.834 -22.896  17.246  0.00  0.00    -0.054 A 
ATOM     15  H3  55W d   1     -28.350 -22.165  19.196  0.00  0.00     0.085 H 
ATOM     16  H4  55W d   1     -29.905 -22.820  17.395  0.00  0.00     0.087 H 
BRANCH  11  17
ATOM     17  C15 55W d   1     -25.724 -22.230  19.159  0.00  0.00     0.091 A 
ATOM     18  C16 55W d   1     -24.393 -22.524  19.293  0.00  0.00    -0.006 A 
ATOM     19  C17 55W d   1     -24.067 -22.059  20.543  0.00  0.00     0.155 A 
ATOM     20  H6  55W d   1     -23.741 -23.015  18.572  0.00  0.00     0.093 H 
ATOM     21  N18 55W d   1     -25.169 -21.583  21.082  0.00  0.00    -0.199 N 
ATOM     22  N20 55W d   1     -22.870 -22.054  21.212  0.00  0.00    -0.234 NA
ATOM     23  C23 55W d   1     -25.178 -21.028  22.298  0.00  0.00     0.126 A 
ATOM     24  N19 55W d   1     -26.149 -21.678  20.310  0.00  0.00    -0.164 NA
ATOM     25  C22 55W d   1     -24.026 -21.002  23.019  0.00  0.00    -0.016 A 
ATOM     26  C21 55W d   1     -22.872 -21.522  22.482  0.00  0.00     0.036 A 
ATOM     27  H22 55W d   1     -24.017 -20.571  24.019  0.00  0.00     0.092 H 
BRANCH  23  28
ATOM     28  N24 55W d   1     -26.372 -20.529  22.776  0.00  0.00    -0.384 N 
ATOM     29  H20 55W d   1     -26.412 -20.095  23.709  0.00  0.00     0.157 HD
ATOM     30  H21 55W d   1     -27.223 -20.590  22.200  0.00  0.00     0.157 HD
ENDBRANCH  23  28
BRANCH  26  31
ATOM     31  C25 55W d   1     -21.603 -21.482  23.281  0.00  0.00    -0.035 C 
ATOM     32  H23 55W d   1     -20.789 -21.938  22.699  0.00  0.00     0.035 H 
ATOM     33  H24 55W d   1     -21.742 -22.041  24.218  0.00  0.00     0.035 H 
ATOM     34  H25 55W d   1     -21.348 -20.437  23.512  0.00  0.00     0.035 H 
ENDBRANCH  26  31
ENDBRANCH  11  17
ENDBRANCH   5   7
BRANCH   3  35
ATOM     35  C12 55W d   1     -30.568 -24.168  11.701  0.00  0.00     0.214 C 
ATOM     36  O14 55W d   1     -29.772 -23.943  10.835  0.00  0.00    -0.644 OA
ATOM     37  O13 55W d   1     -31.840 -24.381  11.373  0.00  0.00    -0.644 OA
ENDBRANCH   3  35
BRANCH   2  38
ATOM     38  N26 55W d   1     -32.390 -24.828  14.214  0.00  0.00    -0.295 N 
ATOM     39  H19 55W d   1     -32.736 -25.233  13.332  0.00  0.00     0.171 HD
BRANCH  38  40
ATOM     40  P27 55W d   1     -33.480 -24.765  15.433  0.00  0.00     0.326 P 
ATOM     41  O29 55W d   1     -32.970 -25.515  16.574  0.00  0.00    -0.261 OA
BRANCH  40  42
ATOM     42  O28 55W d   1     -34.998 -25.029  15.035  0.00  0.00    -0.320 OA
BRANCH  42  43
ATOM     43  C30 55W d   1     -36.104 -24.370  15.679  0.00  0.00     0.013 C 
ATOM     44  H7  55W d   1     -37.048 -24.716  15.232  0.00  0.00     0.066 H 
ATOM     45  H8  55W d   1     -36.012 -23.282  15.544  0.00  0.00     0.066 H 
ATOM     46  H9  55W d   1     -36.098 -24.608  16.753  0.00  0.00     0.066 H 
ENDBRANCH  42  43
ENDBRANCH  40  42
BRANCH  40  47
ATOM     47  C36 55W d   1     -33.524 -22.970  15.872  0.00  0.00     0.056 A 
ATOM     48  C34 55W d   1     -33.167 -22.527  17.157  0.00  0.00    -0.065 A 
ATOM     49  C32 55W d   1     -33.222 -21.176  17.499  0.00  0.00    -0.076 A 
ATOM     50  H12 55W d   1     -32.843 -23.250  17.897  0.00  0.00     0.085 H 
ATOM     51  C31 55W d   1     -33.636 -20.229  16.566  0.00  0.00    -0.061 A 
ATOM     52  H10 55W d   1     -32.941 -20.861  18.497  0.00  0.00     0.084 H 
ATOM     53  C33 55W d   1     -33.992 -20.644  15.287  0.00  0.00    -0.070 A 
ATOM     54  C35 55W d   1     -33.945 -22.008  14.926  0.00  0.00    -0.044 A 
ATOM     55  H11 55W d   1     -34.310 -19.909  14.556  0.00  0.00     0.085 H 
BRANCH  51  56
ATOM     56  C38 55W d   1     -33.685 -18.758  16.935  0.00  0.00    -0.051 C 
ATOM     57  H16 55W d   1     -33.370 -18.632  17.981  0.00  0.00     0.033 H 
ATOM     58  H17 55W d   1     -34.712 -18.384  16.814  0.00  0.00     0.033 H 
ATOM     59  H18 55W d   1     -33.008 -18.192  16.277  0.00  0.00     0.033 H 
ENDBRANCH  51  56
BRANCH  54  60
ATOM     60  C37 55W d   1     -34.385 -22.340  13.506  0.00  0.00    -0.050 C 
ATOM     61  H13 55W d   1     -34.661 -21.413  12.982  0.00  0.00     0.033 H 
ATOM     62  H14 55W d   1     -35.253 -23.015  13.539  0.00  0.00     0.033 H 
ATOM     63  H15 55W d   1     -33.559 -22.832  12.972  0.00  0.00     0.033 H 
ENDBRANCH  54  60
ENDBRANCH  40  47
ENDBRANCH  38  40
ENDBRANCH   2  38
TORSDOF 12
