REMARK  23 active torsions:
REMARK  status: ('A' for Active; 'I' for Inactive)
REMARK    1  A    between atoms: N_1  and  CA_2 
REMARK    2  A    between atoms: CA_2  and  C_3 
REMARK    3  A    between atoms: CA_2  and  CB_5 
REMARK       I    between atoms: C_3  and  N_6 
REMARK    4  A    between atoms: N_6  and  CA_7 
REMARK    5  A    between atoms: CA_7  and  C_8 
REMARK       I    between atoms: C_8  and  N_10 
REMARK    6  A    between atoms: N_10  and  CA_11 
REMARK    7  A    between atoms: CA_11  and  C_12 
REMARK    8  A    between atoms: CA_11  and  CB_14 
REMARK       I    between atoms: C_12  and  N_22 
REMARK    9  A    between atoms: CB_14  and  CG_15 
REMARK   10  A    between atoms: CZ_20  and  OH_21 
REMARK   11  A    between atoms: N_22  and  CA_23 
REMARK   12  A    between atoms: CA_23  and  C_24 
REMARK   13  A    between atoms: CA_23  and  CB_26 
REMARK       I    between atoms: C_24  and  N_27 
REMARK   14  A    between atoms: N_27  and  CA_28 
REMARK   15  A    between atoms: CA_28  and  C_29 
REMARK   16  A    between atoms: CA_28  and  CB_31 
REMARK       I    between atoms: C_29  and  N_35 
REMARK   17  A    between atoms: CB_31  and  CG_32 
REMARK       I    between atoms: CG_32  and  ND2_34 
REMARK   18  A    between atoms: N_35  and  CA_36 
REMARK   19  A    between atoms: CA_36  and  C_37 
REMARK   20  A    between atoms: CA_36  and  CB_39 
REMARK       I    between atoms: C_37  and  N_40 
REMARK   21  A    between atoms: N_40  and  CA_41 
REMARK   22  A    between atoms: CA_41  and  C_42 
REMARK   23  A    between atoms: CA_41  and  CB_44 
ROOT
ATOM      1  CA  ASP d   1       3.477  24.603  10.363  0.00  0.00     0.086 C 
ATOM      2  H21 ASP d   1       4.148  25.321   9.868  0.00  0.00     0.086 H 
ENDROOT
BRANCH   1   3
ATOM      3  N   ASP d   1       3.783  23.271   9.841  0.00  0.00    -0.346 N 
ATOM      4  C   TYR d   1       5.039  22.853   9.694  0.00  0.00     0.241 C 
ATOM      5  O   TYR d   1       6.000  23.526  10.050  0.00  0.00    -0.271 OA
ATOM      6  H20 ASP d   1       3.032  22.661   9.589  0.00  0.00     0.163 HD
BRANCH   4   7
ATOM      7  CA  TYR d   1       5.249  21.460   9.085  0.00  0.00     0.093 C 
ATOM      8  H12 TYR d   1       4.369  21.215   8.473  0.00  0.00     0.088 H 
BRANCH   7   9
ATOM      9  N   TYR d   1       6.430  21.407   8.219  0.00  0.00    -0.346 N 
ATOM     10  C   GLY d   1       6.347  21.135   6.919  0.00  0.00     0.236 C 
ATOM     11  O   GLY d   1       5.281  20.886   6.368  0.00  0.00    -0.272 OA
ATOM     12  H11 TYR d   1       7.330  21.581   8.619  0.00  0.00     0.163 HD
BRANCH  10  13
ATOM     13  CA  GLY d   1       7.642  21.155   6.108  0.00  0.00     0.069 C 
ATOM     14  H9  GLY d   1       7.443  20.658   5.147  0.00  0.00     0.078 H 
ATOM     15  H10 GLY d   1       7.908  22.207   5.928  0.00  0.00     0.078 H 
BRANCH  13  16
ATOM     16  N   GLY d   1       8.790  20.506   6.712  0.00  0.00    -0.351 N 
ATOM     17  C   GLU d   1       9.864  21.212   7.058  0.00  0.00     0.248 C 
ATOM     18  O   GLU d   1       9.995  22.405   6.762  0.00  0.00    -0.271 OA
ATOM     19  H8  GLY d   1       8.774  19.519   6.870  0.00  0.00     0.163 HD
BRANCH  17  20
ATOM     20  CA  GLU d   1      10.954  20.480   7.866  0.00  0.00     0.172 C 
ATOM     21  H4  GLU d   1      11.869  21.089   7.832  0.00  0.00     0.098 H 
BRANCH  20  22
ATOM     22  N   GLU d   1      10.561  20.326   9.264  0.00  0.00    -0.067 N 
ATOM     23  H1  GLU d   1      11.290  19.846   9.767  0.00  0.00     0.275 HD
ATOM     24  H2  GLU d   1       9.708  19.791   9.316  0.00  0.00     0.275 HD
ATOM     25  H3  GLU d   1      10.413  21.235   9.674  0.00  0.00     0.275 HD
ENDBRANCH  20  22
BRANCH  20  26
ATOM     26  CB  GLU d   1      11.266  19.112   7.253  0.00  0.00    -0.042 C 
ATOM     27  H5  GLU d   1      11.560  19.240   6.201  0.00  0.00     0.030 H 
ATOM     28  H6  GLU d   1      10.372  18.473   7.308  0.00  0.00     0.030 H 
ATOM     29  H7  GLU d   1      12.089  18.640   7.809  0.00  0.00     0.030 H 
ENDBRANCH  20  26
ENDBRANCH  17  20
ENDBRANCH  13  16
ENDBRANCH  10  13
ENDBRANCH   7   9
BRANCH   7  30
ATOM     30  CB  TYR d   1       5.358  20.428  10.217  0.00  0.00    -0.014 C 
ATOM     31  H13 TYR d   1       4.415  20.442  10.783  0.00  0.00     0.043 H 
ATOM     32  H14 TYR d   1       6.186  20.730  10.876  0.00  0.00     0.043 H 
BRANCH  30  33
ATOM     33  CG  TYR d   1       5.613  19.006   9.764  0.00  0.00    -0.056 A 
ATOM     34  CD1 TYR d   1       4.579  18.211   9.278  0.00  0.00    -0.074 A 
ATOM     35  CE1 TYR d   1       4.810  16.910   8.867  0.00  0.00    -0.051 A 
ATOM     36  H15 TYR d   1       3.576  18.618   9.220  0.00  0.00     0.084 H 
ATOM     37  CZ  TYR d   1       6.090  16.386   8.943  0.00  0.00     0.065 A 
ATOM     38  H17 TYR d   1       3.994  16.305   8.488  0.00  0.00     0.087 H 
ATOM     39  CE2 TYR d   1       7.129  17.156   9.421  0.00  0.00    -0.051 A 
ATOM     40  CD2 TYR d   1       6.887  18.456   9.832  0.00  0.00    -0.074 A 
ATOM     41  H18 TYR d   1       8.131  16.746   9.475  0.00  0.00     0.087 H 
ATOM     42  H16 TYR d   1       7.706  19.055  10.213  0.00  0.00     0.084 H 
BRANCH  37  43
ATOM     43  OH  TYR d   1       6.342  15.093   8.539  0.00  0.00    -0.361 OA
ATOM     44  H19 TYR d   1       5.535  14.694   8.237  0.00  0.00     0.217 HD
ENDBRANCH  37  43
ENDBRANCH  30  33
ENDBRANCH   7  30
ENDBRANCH   4   7
ENDBRANCH   1   3
BRANCH   1  45
ATOM     45  C   ASP d   1       3.711  24.694  11.863  0.00  0.00     0.240 C 
ATOM     46  O   ASP d   1       3.699  25.785  12.430  0.00  0.00    -0.271 OA
ATOM     47  N   ASN d   1       3.918  23.545  12.502  0.00  0.00    -0.346 N 
ATOM     48  H25 ASN d   1       3.853  22.687  11.992  0.00  0.00     0.163 HD
BRANCH  47  49
ATOM     49  CA  ASN d   1       4.238  23.500  13.926  0.00  0.00     0.097 C 
ATOM     50  H26 ASN d   1       4.106  24.514  14.331  0.00  0.00     0.088 H 
BRANCH  49  51
ATOM     51  C   ASN d   1       5.699  23.082  14.187  0.00  0.00     0.241 C 
ATOM     52  O   ASN d   1       6.011  22.477  15.214  0.00  0.00    -0.271 OA
ATOM     53  N   SER d   1       6.573  23.411  13.233  0.00  0.00    -0.346 N 
ATOM     54  H31 SER d   1       6.207  23.752  12.367  0.00  0.00     0.163 HD
BRANCH  53  55
ATOM     55  CA  SER d   1       8.036  23.309  13.363  0.00  0.00     0.086 C 
ATOM     56  H32 SER d   1       8.459  23.499  12.366  0.00  0.00     0.086 H 
BRANCH  55  57
ATOM     57  C   SER d   1       8.572  21.959  13.828  0.00  0.00     0.240 C 
ATOM     58  O   SER d   1       9.437  21.905  14.699  0.00  0.00    -0.271 OA
ATOM     59  N   CYS d   1       8.087  20.872  13.241  0.00  0.00    -0.345 N 
ATOM     60  H36 CYS d   1       7.424  20.962  12.498  0.00  0.00     0.163 HD
BRANCH  59  61
ATOM     61  CA  CYS d   1       8.515  19.545  13.674  0.00  0.00     0.093 C 
ATOM     62  H37 CYS d   1       9.217  19.671  14.511  0.00  0.00     0.089 H 
BRANCH  61  63
ATOM     63  C   CYS d   1       9.242  18.792  12.559  0.00  0.00     0.196 C 
ATOM     64  O   CYS d   1      10.132  17.979  12.821  0.00  0.00    -0.646 OA
ATOM     65  OXT CYS d   1       8.953  18.982  11.375  0.00  0.00    -0.646 OA
ENDBRANCH  61  63
BRANCH  61  66
ATOM     66  CB  CYS d   1       7.312  18.734  14.175  0.00  0.00    -0.048 C 
ATOM     67  H38 CYS d   1       7.650  17.738  14.497  0.00  0.00     0.030 H 
ATOM     68  H39 CYS d   1       6.578  18.627  13.363  0.00  0.00     0.030 H 
ATOM     69  H40 CYS d   1       6.846  19.256  15.024  0.00  0.00     0.030 H 
ENDBRANCH  61  66
ENDBRANCH  59  61
ENDBRANCH  55  57
BRANCH  55  70
ATOM     70  CB  SER d   1       8.552  24.391  14.321  0.00  0.00    -0.049 C 
ATOM     71  H33 SER d   1       9.645  24.308  14.413  0.00  0.00     0.030 H 
ATOM     72  H34 SER d   1       8.090  24.256  15.310  0.00  0.00     0.030 H 
ATOM     73  H35 SER d   1       8.291  25.384  13.927  0.00  0.00     0.030 H 
ENDBRANCH  55  70
ENDBRANCH  53  55
ENDBRANCH  49  51
BRANCH  49  74
ATOM     74  CB  ASN d   1       3.265  22.567  14.658  0.00  0.00     0.036 C 
ATOM     75  H27 ASN d   1       2.264  23.022  14.641  0.00  0.00     0.051 H 
ATOM     76  H28 ASN d   1       3.601  22.459  15.700  0.00  0.00     0.051 H 
BRANCH  74  77
ATOM     77  CG  ASN d   1       3.178  21.182  14.031  0.00  0.00     0.217 C 
ATOM     78  OD1 ASN d   1       3.365  21.011  12.824  0.00  0.00    -0.274 OA
ATOM     79  ND2 ASN d   1       2.883  20.185  14.856  0.00  0.00    -0.370 N 
ATOM     80  H29 ASN d   1       2.811  19.251  14.506  0.00  0.00     0.159 HD
ATOM     81  H30 ASN d   1       2.733  20.368  15.828  0.00  0.00     0.159 HD
ENDBRANCH  74  77
ENDBRANCH  49  74
ENDBRANCH  47  49
ENDBRANCH   1  45
BRANCH   1  82
ATOM     82  CB  ASP d   1       2.035  24.997  10.046  0.00  0.00    -0.049 C 
ATOM     83  H22 ASP d   1       1.832  26.000  10.449  0.00  0.00     0.030 H 
ATOM     84  H23 ASP d   1       1.347  24.272  10.505  0.00  0.00     0.030 H 
ATOM     85  H24 ASP d   1       1.888  25.003   8.956  0.00  0.00     0.030 H 
ENDBRANCH   1  82
TORSDOF 23
