REMARK  10 active torsions:
REMARK  status: ('A' for Active; 'I' for Inactive)
REMARK    1  A    between atoms: NBF_12  and  C4_1 
REMARK    2  A    between atoms: C6_3  and  NAT_13 
REMARK    3  A    between atoms: NBE_8  and  CAC_9 
REMARK    4  A    between atoms: NAT_13  and  CBA_14 
REMARK    5  A    between atoms: CAX_16  and  CAB_17 
REMARK    6  A    between atoms: C2_20  and  OAV_21 
REMARK    7  A    between atoms: OAV_21  and  CAZ_22 
REMARK    8  A    between atoms: CAY_27  and  NAS_28 
REMARK       I    between atoms: NAS_28  and  CAW_29 
REMARK    9  A    between atoms: CAW_29  and  CAE_31 
REMARK   10  A    between atoms: CAE_31  and  CAA_32 
ROOT
ATOM      1  C4  563 d   1     -13.112 -39.756   4.668  0.00  0.00     0.137 A 
ATOM      2  C5  563 d   1     -13.150 -38.593   5.482  0.00  0.00     0.006 A 
ATOM      3  C6  563 d   1     -11.968 -38.036   6.025  0.00  0.00     0.137 A 
ATOM      4  N1  563 d   1     -10.811 -38.667   5.710  0.00  0.00    -0.189 NA
ATOM      5  N3  563 d   1     -11.900 -40.304   4.441  0.00  0.00    -0.189 NA
ATOM      6  C2  563 d   1     -10.771 -39.774   4.933  0.00  0.00     0.277 A 
ATOM      7  H1  563 d   1     -14.104 -38.122   5.692  0.00  0.00     0.095 H 
ENDROOT
BRANCH   6   8
ATOM      8  OAV 563 d   1      -9.629 -40.463   4.607  0.00  0.00    -0.277 OA
BRANCH   8   9
ATOM      9  CAZ 563 d   1      -8.328 -40.127   4.884  0.00  0.00     0.079 A 
ATOM     10  CAI 563 d   1      -7.895 -39.740   6.142  0.00  0.00    -0.048 A 
ATOM     11  CAG 563 d   1      -6.548 -39.435   6.370  0.00  0.00    -0.054 A 
ATOM     12  H17 563 d   1      -8.606 -39.673   6.957  0.00  0.00     0.087 H 
ATOM     13  CAY 563 d   1      -5.596 -39.542   5.358  0.00  0.00     0.034 A 
ATOM     14  H18 563 d   1      -6.238 -39.108   7.356  0.00  0.00     0.087 H 
ATOM     15  CAF 563 d   1      -6.025 -39.942   4.090  0.00  0.00    -0.054 A 
ATOM     16  CAH 563 d   1      -7.377 -40.240   3.864  0.00  0.00    -0.048 A 
ATOM     17  H20 563 d   1      -5.311 -40.022   3.278  0.00  0.00     0.087 H 
ATOM     18  H19 563 d   1      -7.691 -40.565   2.879  0.00  0.00     0.087 H 
BRANCH  13  19
ATOM     19  NAS 563 d   1      -4.302 -39.220   5.565  0.00  0.00    -0.327 N 
ATOM     20  CAW 563 d   1      -3.380 -40.019   6.177  0.00  0.00     0.221 C 
ATOM     21  OAD 563 d   1      -2.211 -39.639   6.285  0.00  0.00    -0.273 OA
ATOM     22  H21 563 d   1      -3.994 -38.324   5.244  0.00  0.00     0.169 HD
BRANCH  20  23
ATOM     23  CAE 563 d   1      -3.800 -41.413   6.738  0.00  0.00     0.006 C 
ATOM     24  H22 563 d   1      -4.192 -41.989   5.887  0.00  0.00     0.046 H 
ATOM     25  H23 563 d   1      -4.609 -41.230   7.460  0.00  0.00     0.046 H 
BRANCH  23  26
ATOM     26  CAA 563 d   1      -2.772 -42.322   7.449  0.00  0.00    -0.068 C 
ATOM     27  H24 563 d   1      -3.264 -43.253   7.768  0.00  0.00     0.028 H 
ATOM     28  H25 563 d   1      -2.369 -41.801   8.330  0.00  0.00     0.028 H 
ATOM     29  H26 563 d   1      -1.952 -42.560   6.756  0.00  0.00     0.028 H 
ENDBRANCH  23  26
ENDBRANCH  20  23
ENDBRANCH  13  19
ENDBRANCH   8   9
ENDBRANCH   6   8
BRANCH   3  30
ATOM     30  NAT 563 d   1     -12.075 -36.894   6.815  0.00  0.00    -0.324 N 
ATOM     31  H11 563 d   1     -13.016 -36.488   6.921  0.00  0.00     0.169 HD
BRANCH  30  32
ATOM     32  CBA 563 d   1     -11.048 -36.258   7.465  0.00  0.00     0.151 A 
ATOM     33  CAJ 563 d   1      -9.814 -36.677   7.738  0.00  0.00    -0.014 A 
ATOM     34  CAX 563 d   1      -9.221 -35.677   8.407  0.00  0.00     0.027 A 
ATOM     35  H12 563 d   1      -9.375 -37.637   7.472  0.00  0.00     0.092 H 
ATOM     36  NAU 563 d   1     -10.056 -34.684   8.537  0.00  0.00    -0.281 N 
ATOM     37  NAP 563 d   1     -11.114 -35.023   7.999  0.00  0.00    -0.157 NA
ATOM     38  H16 563 d   1      -9.868 -33.784   9.002  0.00  0.00     0.189 HD
BRANCH  34  39
ATOM     39  CAB 563 d   1      -7.784 -35.661   8.949  0.00  0.00    -0.036 C 
ATOM     40  H13 563 d   1      -7.592 -34.701   9.451  0.00  0.00     0.035 H 
ATOM     41  H14 563 d   1      -7.077 -35.787   8.116  0.00  0.00     0.035 H 
ATOM     42  H15 563 d   1      -7.654 -36.483   9.668  0.00  0.00     0.035 H 
ENDBRANCH  34  39
ENDBRANCH  30  32
ENDBRANCH   3  30
BRANCH   1  43
ATOM     43  NBF 563 d   1     -14.221 -40.364   4.125  0.00  0.00    -0.340 N 
ATOM     44  CAN 563 d   1     -14.072 -41.414   3.044  0.00  0.00    -0.009 C 
ATOM     45  CAL 563 d   1     -15.283 -41.923   2.483  0.00  0.00    -0.028 C 
ATOM     46  H2  563 d   1     -13.095 -41.762   2.712  0.00  0.00     0.113 H 
ATOM     47  NBE 563 d   1     -16.502 -41.110   2.796  0.00  0.00    -0.294 NA
ATOM     48  H3  563 d   1     -15.317 -42.828   1.878  0.00  0.00     0.104 H 
ATOM     49  CAM 563 d   1     -16.661 -40.977   4.228  0.00  0.00    -0.002 C 
ATOM     50  CAO 563 d   1     -15.557 -40.051   4.704  0.00  0.00     0.012 C 
ATOM     51  H7  563 d   1     -16.567 -41.960   4.713  0.00  0.00     0.058 H 
ATOM     52  H8  563 d   1     -17.645 -40.545   4.462  0.00  0.00     0.058 H 
ATOM     53  H9  563 d   1     -15.487 -40.128   5.799  0.00  0.00     0.066 H 
ATOM     54  H10 563 d   1     -15.823 -39.021   4.425  0.00  0.00     0.066 H 
BRANCH  47  55
ATOM     55  CAC 563 d   1     -17.752 -41.730   2.271  0.00  0.00    -0.029 C 
ATOM     56  H4  563 d   1     -18.612 -41.094   2.528  0.00  0.00     0.048 H 
ATOM     57  H5  563 d   1     -17.884 -42.725   2.720  0.00  0.00     0.048 H 
ATOM     58  H6  563 d   1     -17.682 -41.828   1.178  0.00  0.00     0.048 H 
ENDBRANCH  47  55
ENDBRANCH   1  43
TORSDOF 10
