REMARK  10 active torsions:
REMARK  status: ('A' for Active; 'I' for Inactive)
REMARK    1  A    between atoms: NBF_12  and  C4_1 
REMARK    2  A    between atoms: C6_3  and  NAT_13 
REMARK    3  A    between atoms: NBE_8  and  CAC_9 
REMARK    4  A    between atoms: NAT_13  and  CBA_14 
REMARK    5  A    between atoms: CAX_16  and  CAB_17 
REMARK    6  A    between atoms: C2_20  and  OAV_21 
REMARK    7  A    between atoms: OAV_21  and  CAZ_22 
REMARK    8  A    between atoms: CAY_27  and  NAS_28 
REMARK       I    between atoms: NAS_28  and  CAW_29 
REMARK    9  A    between atoms: CAW_29  and  CAK_31 
REMARK   10  A    between atoms: CAK_31  and  CAA_32 
ROOT
ATOM      1  C4  56G d   1     -12.773 -39.641   5.162  0.00  0.00     0.133 A 
ATOM      2  C5  56G d   1     -13.012 -38.417   5.809  0.00  0.00     0.006 A 
ATOM      3  C6  56G d   1     -12.016 -37.764   6.497  0.00  0.00     0.137 A 
ATOM      4  N1  56G d   1     -10.851 -38.378   6.540  0.00  0.00    -0.189 NA
ATOM      5  N3  56G d   1     -11.531 -40.165   5.256  0.00  0.00    -0.189 NA
ATOM      6  C2  56G d   1     -10.569 -39.542   5.978  0.00  0.00     0.277 A 
ATOM      7  H1  56G d   1     -14.002 -37.978   5.765  0.00  0.00     0.095 H 
ENDROOT
BRANCH   6   8
ATOM      8  OAV 56G d   1      -9.279 -39.977   6.172  0.00  0.00    -0.277 OA
BRANCH   8   9
ATOM      9  CAZ 56G d   1      -8.986 -41.024   5.340  0.00  0.00     0.081 A 
ATOM     10  CAH 56G d   1      -8.542 -40.786   4.029  0.00  0.00    -0.024 A 
ATOM     11  CAY 56G d   1      -8.286 -41.862   3.130  0.00  0.00     0.037 A 
ATOM     12  H20 56G d   1      -8.391 -39.766   3.695  0.00  0.00     0.091 H 
ATOM     13  CAF 56G d   1      -8.409 -43.171   3.606  0.00  0.00    -0.057 A 
ATOM     14  CAE 56G d   1      -8.861 -43.396   4.917  0.00  0.00    -0.078 A 
ATOM     15  H23 56G d   1      -8.157 -44.009   2.966  0.00  0.00     0.086 H 
ATOM     16  CAG 56G d   1      -9.147 -42.339   5.791  0.00  0.00    -0.050 A 
ATOM     17  H22 56G d   1      -8.992 -44.415   5.262  0.00  0.00     0.083 H 
ATOM     18  H21 56G d   1      -9.488 -42.537   6.801  0.00  0.00     0.087 H 
BRANCH  11  19
ATOM     19  NAS 56G d   1      -7.817 -41.820   1.860  0.00  0.00    -0.327 N 
ATOM     20  CAW 56G d   1      -6.927 -40.934   1.442  0.00  0.00     0.221 C 
ATOM     21  OAD 56G d   1      -6.655 -39.893   2.021  0.00  0.00    -0.273 OA
ATOM     22  H24 56G d   1      -8.161 -42.493   1.205  0.00  0.00     0.169 HD
BRANCH  20  23
ATOM     23  CAK 56G d   1      -6.270 -41.276   0.131  0.00  0.00     0.006 C 
ATOM     24  H25 56G d   1      -6.664 -42.239  -0.225  0.00  0.00     0.046 H 
ATOM     25  H26 56G d   1      -5.184 -41.359   0.287  0.00  0.00     0.046 H 
BRANCH  23  26
ATOM     26  CAA 56G d   1      -6.535 -40.221  -0.918  0.00  0.00    -0.068 C 
ATOM     27  H27 56G d   1      -6.040 -40.506  -1.858  0.00  0.00     0.028 H 
ATOM     28  H28 56G d   1      -6.139 -39.254  -0.574  0.00  0.00     0.028 H 
ATOM     29  H29 56G d   1      -7.619 -40.135  -1.086  0.00  0.00     0.028 H 
ENDBRANCH  23  26
ENDBRANCH  20  23
ENDBRANCH  11  19
ENDBRANCH   8   9
ENDBRANCH   6   8
BRANCH   3  30
ATOM     30  NAT 56G d   1     -12.259 -36.564   7.160  0.00  0.00    -0.324 N 
ATOM     31  H14 56G d   1     -13.205 -36.161   7.097  0.00  0.00     0.169 HD
BRANCH  30  32
ATOM     32  CBA 56G d   1     -11.307 -35.877   7.900  0.00  0.00     0.151 A 
ATOM     33  CAI 56G d   1     -10.040 -36.184   8.264  0.00  0.00    -0.014 A 
ATOM     34  CAX 56G d   1      -9.595 -35.139   8.973  0.00  0.00     0.027 A 
ATOM     35  H15 56G d   1      -9.493 -37.096   8.028  0.00  0.00     0.092 H 
ATOM     36  NAU 56G d   1     -10.514 -34.212   9.026  0.00  0.00    -0.281 N 
ATOM     37  NAP 56G d   1     -11.522 -34.646   8.402  0.00  0.00    -0.157 NA
ATOM     38  H19 56G d   1     -10.431 -33.297   9.491  0.00  0.00     0.189 HD
BRANCH  34  39
ATOM     39  CAB 56G d   1      -8.222 -34.963   9.618  0.00  0.00    -0.036 C 
ATOM     40  H16 56G d   1      -8.179 -33.989  10.128  0.00  0.00     0.035 H 
ATOM     41  H17 56G d   1      -7.444 -35.005   8.841  0.00  0.00     0.035 H 
ATOM     42  H18 56G d   1      -8.054 -35.768  10.349  0.00  0.00     0.035 H 
ENDBRANCH  34  39
ENDBRANCH  30  32
ENDBRANCH   3  30
BRANCH   1  43
ATOM     43  NBF 56G d   1     -13.737 -40.317   4.461  0.00  0.00    -0.362 N 
ATOM     44  CAN 56G d   1     -15.142 -39.945   4.540  0.00  0.00     0.019 C 
ATOM     45  CAL 56G d   1     -15.711 -40.101   3.309  0.00  0.00     0.098 C 
ATOM     46  H2  56G d   1     -15.655 -40.591   5.268  0.00  0.00     0.066 H 
ATOM     47  H3  56G d   1     -15.229 -38.895   4.856  0.00  0.00     0.066 H 
ATOM     48  NBE 56G d   1     -15.694 -41.528   2.883  0.00  0.00    -0.072 N 
ATOM     49  H4  56G d   1     -15.151 -39.502   2.576  0.00  0.00     0.078 H 
ATOM     50  H5  56G d   1     -16.753 -39.751   3.349  0.00  0.00     0.078 H 
ATOM     51  CAM 56G d   1     -14.388 -42.123   2.679  0.00  0.00     0.098 C 
ATOM     52  H6  56G d   1     -16.106 -42.047   3.643  0.00  0.00     0.279 HD
ATOM     53  CAO 56G d   1     -13.396 -41.646   3.791  0.00  0.00     0.019 C 
ATOM     54  H10 56G d   1     -14.002 -41.822   1.694  0.00  0.00     0.078 H 
ATOM     55  H11 56G d   1     -14.478 -43.219   2.718  0.00  0.00     0.078 H 
ATOM     56  H12 56G d   1     -12.400 -41.548   3.335  0.00  0.00     0.066 H 
ATOM     57  H13 56G d   1     -13.367 -42.420   4.572  0.00  0.00     0.066 H 
BRANCH  48  58
ATOM     58  CAC 56G d   1     -16.602 -41.708   1.697  0.00  0.00     0.066 C 
ATOM     59  H7  56G d   1     -16.590 -42.762   1.382  0.00  0.00     0.068 H 
ATOM     60  H8  56G d   1     -16.253 -41.074   0.869  0.00  0.00     0.068 H 
ATOM     61  H9  56G d   1     -17.627 -41.420   1.973  0.00  0.00     0.068 H 
ENDBRANCH  48  58
ENDBRANCH   1  43
TORSDOF 10
