REMARK  4 active torsions:
REMARK  status: ('A' for Active; 'I' for Inactive)
REMARK    1  A    between atoms: CAW_6  and  C2_7 
REMARK    2  A    between atoms: CAU_12  and  NAQ_13 
REMARK       I    between atoms: NAQ_13  and  CAT_14 
REMARK    3  A    between atoms: CAT_14  and  CAC_16 
REMARK    4  A    between atoms: NAR_22  and  CAV_23 
ROOT
ATOM      1  C2  G97 d   1      -8.693  39.145  -2.679  0.00  0.00     0.162 A 
ATOM      2  N1  G97 d   1      -9.165  38.041  -3.295  0.00  0.00    -0.210 NA
ATOM      3  N3  G97 d   1      -9.505  39.931  -1.962  0.00  0.00    -0.228 NA
ATOM      4  C4  G97 d   1     -10.800  39.643  -1.828  0.00  0.00     0.075 A 
ATOM      5  CAM G97 d   1     -11.543  40.496  -1.065  0.00  0.00    -0.028 A 
ATOM      6  CAU G97 d   1     -12.887  40.281  -0.876  0.00  0.00     0.037 A 
ATOM      7  CAK G97 d   1     -13.510  39.154  -1.448  0.00  0.00    -0.056 A 
ATOM      8  CAL G97 d   1     -12.774  38.245  -2.247  0.00  0.00    -0.065 A 
ATOM      9  C5  G97 d   1     -11.405  38.449  -2.462  0.00  0.00     0.039 A 
ATOM     10  C6  G97 d   1     -10.450  37.615  -3.262  0.00  0.00     0.144 A 
ATOM     11  NAR G97 d   1     -10.755  36.491  -3.971  0.00  0.00    -0.325 N 
ATOM     12  H6  G97 d   1     -11.068  41.353  -0.603  0.00  0.00     0.090 H 
ATOM     13  H11 G97 d   1     -14.566  38.980  -1.274  0.00  0.00     0.086 H 
ATOM     14  H12 G97 d   1     -13.271  37.391  -2.692  0.00  0.00     0.085 H 
ATOM     15  H13 G97 d   1     -11.719  36.127  -3.983  0.00  0.00     0.169 HD
ENDROOT
BRANCH   1  16
ATOM     16  CAW G97 d   1      -7.269  39.549  -2.782  0.00  0.00     0.012 A 
ATOM     17  CAH G97 d   1      -6.256  38.604  -2.820  0.00  0.00    -0.069 A 
ATOM     18  CAE G97 d   1      -4.926  39.021  -2.923  0.00  0.00    -0.082 A 
ATOM     19  H1  G97 d   1      -6.494  37.548  -2.770  0.00  0.00     0.085 H 
ATOM     20  CAD G97 d   1      -4.603  40.376  -2.975  0.00  0.00    -0.083 A 
ATOM     21  H2  G97 d   1      -4.135  38.281  -2.963  0.00  0.00     0.083 H 
ATOM     22  CAF G97 d   1      -5.619  41.315  -2.926  0.00  0.00    -0.082 A 
ATOM     23  H3  G97 d   1      -3.569  40.691  -3.053  0.00  0.00     0.083 H 
ATOM     24  CAI G97 d   1      -6.949  40.906  -2.829  0.00  0.00    -0.069 A 
ATOM     25  H4  G97 d   1      -5.380  42.372  -2.963  0.00  0.00     0.083 H 
ATOM     26  H5  G97 d   1      -7.739  41.647  -2.790  0.00  0.00     0.085 H 
ENDBRANCH   1  16
BRANCH  11  27
ATOM     27  CAV G97 d   1      -9.765  35.853  -4.665  0.00  0.00     0.124 A 
ATOM     28  CAJ G97 d   1      -8.449  36.202  -4.972  0.00  0.00    -0.021 A 
ATOM     29  CAG G97 d   1      -7.864  35.134  -5.597  0.00  0.00     0.025 A 
ATOM     30  H14 G97 d   1      -7.972  37.156  -4.753  0.00  0.00     0.091 H 
ATOM     31  NAS G97 d   1      -8.809  34.175  -5.660  0.00  0.00    -0.186 NA
ATOM     32  H15 G97 d   1      -6.842  35.072  -5.968  0.00  0.00     0.117 H 
ATOM     33  NAN G97 d   1     -10.018  34.590  -5.073  0.00  0.00    -0.263 N 
ATOM     34  H16 G97 d   1     -10.893  34.055  -4.977  0.00  0.00     0.190 HD
ENDBRANCH  11  27
BRANCH   6  35
ATOM     35  NAQ G97 d   1     -13.408  41.219  -0.061  0.00  0.00    -0.324 N 
ATOM     36  CAT G97 d   1     -14.561  41.169   0.605  0.00  0.00     0.244 C 
ATOM     37  OAB G97 d   1     -15.421  40.303   0.442  0.00  0.00    -0.268 OA
ATOM     38  H7  G97 d   1     -12.866  42.051   0.058  0.00  0.00     0.169 HD
BRANCH  36  39
ATOM     39  CAC G97 d   1     -14.716  42.255   1.623  0.00  0.00    -0.026 C 
ATOM     40  CAA G97 d   1     -15.778  42.369   2.407  0.00  0.00    -0.116 C 
ATOM     41  H9  G97 d   1     -15.836  43.181   3.131  0.00  0.00     0.067 H 
ATOM     42  H10 G97 d   1     -16.593  41.651   2.328  0.00  0.00     0.067 H 
ATOM     43  H8  G97 d   1     -13.917  42.988   1.724  0.00  0.00     0.090 H 
ENDBRANCH  36  39
ENDBRANCH   6  35
TORSDOF 4
