REMARK  9 active torsions:
REMARK  status: ('A' for Active; 'I' for Inactive)
REMARK    1  A    between atoms: C18_1  and  C19_3 
REMARK       I    between atoms: N17_23  and  C18_1 
REMARK    2  A    between atoms: C15_2  and  N17_23 
REMARK    3  A    between atoms: C8_17  and  C11_8 
REMARK    4  A    between atoms: C8_17  and  C12_9 
REMARK    5  A    between atoms: C4_13  and  C1_10 
REMARK    6  A    between atoms: S7_16  and  C4_13 
REMARK    7  A    between atoms: C5_14  and  C8_17 
REMARK    8  A    between atoms: C9_18  and  S7_16 
REMARK    9  A    between atoms: C8_17  and  C10_19 
ROOT
ATOM      1  C15 56H d   1      25.209  31.247  28.749  0.00  0.00     0.174 A 
ATOM      2  C9  56H d   1      27.299  32.184  27.942  0.00  0.00     0.062 A 
ATOM      3  S13 56H d   1      26.615  30.581  27.973  0.00  0.00    -0.044 SA
ATOM      4  C14 56H d   1      26.413  33.058  28.467  0.00  0.00     0.028 A 
ATOM      5  N16 56H d   1      25.234  32.538  28.946  0.00  0.00    -0.235 NA
ATOM      6  H22 56H d   1      26.623  34.126  28.509  0.00  0.00     0.117 H 
ENDROOT
BRANCH   2   7
ATOM      7  S7  56H d   1      28.980  32.408  27.492  0.00  0.00    -0.113 SA
BRANCH   7   8
ATOM      8  C4  56H d   1      29.079  32.523  25.699  0.00  0.00     0.043 C 
ATOM      9  H16 56H d   1      28.103  32.811  25.281  0.00  0.00     0.062 H 
ATOM     10  H17 56H d   1      29.836  33.265  25.406  0.00  0.00     0.062 H 
BRANCH   8  11
ATOM     11  C1  56H d   1      29.464  31.186  25.220  0.00  0.00     0.154 A 
ATOM     12  O2  56H d   1      28.464  30.259  25.236  0.00  0.00    -0.297 OA
ATOM     13  C5  56H d   1      29.015  29.080  24.786  0.00  0.00     0.080 A 
ATOM     14  C6  56H d   1      30.355  29.346  24.531  0.00  0.00     0.034 A 
ATOM     15  N3  56H d   1      30.631  30.667  24.799  0.00  0.00    -0.237 NA
ATOM     16  H18 56H d   1      31.080  28.617  24.172  0.00  0.00     0.118 H 
BRANCH  13  17
ATOM     17  C8  56H d   1      28.039  27.916  24.642  0.00  0.00    -0.000 C 
BRANCH  17  18
ATOM     18  C11 56H d   1      27.858  27.207  25.985  0.00  0.00    -0.064 C 
ATOM     19  H10 56H d   1      27.153  26.371  25.866  0.00  0.00     0.028 H 
ATOM     20  H11 56H d   1      27.462  27.918  26.725  0.00  0.00     0.028 H 
ATOM     21  H12 56H d   1      28.829  26.821  26.330  0.00  0.00     0.028 H 
ENDBRANCH  17  18
BRANCH  17  22
ATOM     22  C12 56H d   1      28.553  26.903  23.618  0.00  0.00    -0.064 C 
ATOM     23  H13 56H d   1      28.688  27.400  22.646  0.00  0.00     0.028 H 
ATOM     24  H14 56H d   1      27.825  26.085  23.514  0.00  0.00     0.028 H 
ATOM     25  H15 56H d   1      29.516  26.495  23.958  0.00  0.00     0.028 H 
ENDBRANCH  17  22
BRANCH  17  26
ATOM     26  C10 56H d   1      26.682  28.433  24.155  0.00  0.00    -0.064 C 
ATOM     27  H19 56H d   1      26.289  29.165  24.875  0.00  0.00     0.028 H 
ATOM     28  H20 56H d   1      25.979  27.591  24.067  0.00  0.00     0.028 H 
ATOM     29  H21 56H d   1      26.804  28.913  23.173  0.00  0.00     0.028 H 
ENDBRANCH  17  26
ENDBRANCH  13  17
ENDBRANCH   8  11
ENDBRANCH   7   8
ENDBRANCH   2   7
BRANCH   1  30
ATOM     30  N17 56H d   1      24.106  30.506  29.110  0.00  0.00    -0.305 N 
ATOM     31  C18 56H d   1      23.939  29.180  28.842  0.00  0.00     0.228 C 
ATOM     32  O20 56H d   1      24.793  28.509  28.270  0.00  0.00    -0.273 OA
ATOM     33  H23 56H d   1      23.374  30.975  29.605  0.00  0.00     0.171 HD
BRANCH  31  34
ATOM     34  C19 56H d   1      22.623  28.602  29.263  0.00  0.00     0.027 C 
ATOM     35  C21 56H d   1      22.764  27.886  30.618  0.00  0.00    -0.031 C 
ATOM     36  C23 56H d   1      21.478  27.170  30.983  0.00  0.00     0.082 C 
ATOM     37  H2  56H d   1      22.997  28.628  31.396  0.00  0.00     0.036 H 
ATOM     38  H3  56H d   1      23.581  27.152  30.555  0.00  0.00     0.036 H 
ATOM     39  N25 56H d   1      21.116  26.230  29.911  0.00  0.00    -0.075 N 
ATOM     40  H6  56H d   1      20.672  27.907  31.111  0.00  0.00     0.075 H 
ATOM     41  H7  56H d   1      21.621  26.616  31.923  0.00  0.00     0.075 H 
ATOM     42  C24 56H d   1      20.816  26.957  28.657  0.00  0.00     0.082 C 
ATOM     43  H24 56H d   1      20.303  25.705  30.192  0.00  0.00     0.277 HD
ATOM     44  H25 56H d   1      21.885  25.598  29.751  0.00  0.00     0.277 HD
ATOM     45  C22 56H d   1      22.096  27.627  28.194  0.00  0.00    -0.031 C 
ATOM     46  H8  56H d   1      20.464  26.251  27.890  0.00  0.00     0.075 H 
ATOM     47  H9  56H d   1      20.041  27.716  28.840  0.00  0.00     0.075 H 
ATOM     48  H4  56H d   1      22.857  26.856  28.003  0.00  0.00     0.036 H 
ATOM     49  H5  56H d   1      21.896  28.183  27.266  0.00  0.00     0.036 H 
ATOM     50  H1  56H d   1      21.900  29.423  29.374  0.00  0.00     0.054 H 
ENDBRANCH  31  34
ENDBRANCH   1  30
TORSDOF 9
