REMARK  11 active torsions:
REMARK  status: ('A' for Active; 'I' for Inactive)
REMARK    1  A    between atoms: N_1  and  CA_2 
REMARK    2  A    between atoms: CA_2  and  CB_3 
REMARK    3  A    between atoms: CA_2  and  C_6 
REMARK    4  A    between atoms: CB_3  and  CG_4 
REMARK    5  A    between atoms: CG_4  and  SD_5 
REMARK    6  A    between atoms: SD_5  and  C5'_9 
REMARK    7  A    between atoms: C5'_9  and  C4'_10 
REMARK    8  A    between atoms: C3'_12  and  O3'_13 
REMARK    9  A    between atoms: C2'_14  and  O2'_15 
REMARK   10  A    between atoms: C1'_16  and  N9_17 
REMARK   11  A    between atoms: C6_21  and  N6_22 
ROOT
ATOM      1  C4' SAH d   1      -3.456  -3.241  19.412  0.00  0.00     0.076 C 
ATOM      2  O4' SAH d   1      -2.269  -2.949  18.697  0.00  0.00    -0.355 OA
ATOM      3  C3' SAH d   1      -3.808  -1.977  20.183  0.00  0.00     0.090 C 
ATOM      4  C2' SAH d   1      -2.542  -1.143  20.164  0.00  0.00     0.105 C 
ATOM      5  C1' SAH d   1      -1.520  -2.026  19.465  0.00  0.00     0.139 C 
ATOM      6  H11 SAH d   1      -3.261  -4.058  20.122  0.00  0.00     0.088 H 
ATOM      7  H12 SAH d   1      -4.636  -1.440  19.697  0.00  0.00     0.091 H 
ATOM      8  H14 SAH d   1      -2.698  -0.206  19.609  0.00  0.00     0.093 H 
ATOM      9  H16 SAH d   1      -0.935  -2.577  20.216  0.00  0.00     0.122 H 
ENDROOT
BRANCH   1  10
ATOM     10  C5' SAH d   1      -4.586  -3.675  18.487  0.00  0.00     0.003 C 
ATOM     11  H9  SAH d   1      -4.836  -2.842  17.814  0.00  0.00     0.052 H 
ATOM     12  H10 SAH d   1      -4.250  -4.538  17.893  0.00  0.00     0.052 H 
BRANCH  10  13
ATOM     13  SD  SAH d   1      -6.069  -4.144  19.417  0.00  0.00    -0.166 SA
BRANCH  13  14
ATOM     14  CG  SAH d   1      -5.943  -5.850  18.823  0.00  0.00    -0.021 C 
ATOM     15  H7  SAH d   1      -6.847  -6.091  18.244  0.00  0.00     0.049 H 
ATOM     16  H8  SAH d   1      -5.059  -5.935  18.174  0.00  0.00     0.049 H 
BRANCH  14  17
ATOM     17  CB  SAH d   1      -5.811  -6.849  19.966  0.00  0.00    -0.021 C 
ATOM     18  H5  SAH d   1      -4.881  -6.624  20.508  0.00  0.00     0.037 H 
ATOM     19  H6  SAH d   1      -6.670  -6.711  20.639  0.00  0.00     0.037 H 
BRANCH  17  20
ATOM     20  CA  SAH d   1      -5.770  -8.315  19.549  0.00  0.00     0.183 C 
ATOM     21  H4  SAH d   1      -5.311  -8.888  20.368  0.00  0.00     0.101 H 
BRANCH  20  22
ATOM     22  N   SAH d   1      -4.941  -8.495  18.362  0.00  0.00    -0.065 N 
ATOM     23  H1  SAH d   1      -4.018  -8.129  18.538  0.00  0.00     0.275 HD
ATOM     24  H2  SAH d   1      -5.355  -8.004  17.585  0.00  0.00     0.275 HD
ATOM     25  H3  SAH d   1      -4.877  -9.477  18.143  0.00  0.00     0.275 HD
ENDBRANCH  20  22
BRANCH  20  26
ATOM     26  C   SAH d   1      -7.182  -8.853  19.338  0.00  0.00     0.204 C 
ATOM     27  O   SAH d   1      -7.579  -9.171  18.217  0.00  0.00    -0.646 OA
ATOM     28  OXT SAH d   1      -7.957  -8.983  20.286  0.00  0.00    -0.646 OA
ENDBRANCH  20  26
ENDBRANCH  17  20
ENDBRANCH  14  17
ENDBRANCH  13  14
ENDBRANCH  10  13
ENDBRANCH   1  10
BRANCH   3  29
ATOM     29  O3' SAH d   1      -4.163  -2.299  21.507  0.00  0.00    -0.390 OA
ATOM     30  H13 SAH d   1      -3.432  -2.731  21.933  0.00  0.00     0.210 HD
ENDBRANCH   3  29
BRANCH   5  31
ATOM     31  N9  SAH d   1      -0.584  -1.215  18.664  0.00  0.00    -0.294 N 
ATOM     32  C8  SAH d   1      -0.866  -0.050  17.999  0.00  0.00     0.071 A 
ATOM     33  N7  SAH d   1       0.267   0.386  17.400  0.00  0.00    -0.236 NA
ATOM     34  H17 SAH d   1      -1.837   0.442  17.959  0.00  0.00     0.144 H 
ATOM     35  C5  SAH d   1       1.267  -0.479  17.678  0.00  0.00     0.149 A 
ATOM     36  C6  SAH d   1       2.610  -0.509  17.320  0.00  0.00     0.155 A 
ATOM     37  C4  SAH d   1       0.747  -1.489  18.475  0.00  0.00     0.167 A 
ATOM     38  N1  SAH d   1       3.412  -1.541  17.761  0.00  0.00    -0.222 NA
ATOM     39  C2  SAH d   1       2.876  -2.537  18.553  0.00  0.00     0.091 A 
ATOM     40  N3  SAH d   1       1.540  -2.501  18.902  0.00  0.00    -0.222 NA
ATOM     41  H20 SAH d   1       3.505  -3.349  18.901  0.00  0.00     0.146 H 
BRANCH  36  42
ATOM     42  N6  SAH d   1       3.121   0.453  16.556  0.00  0.00    -0.382 N 
ATOM     43  H18 SAH d   1       4.117   0.427  16.293  0.00  0.00     0.157 HD
ATOM     44  H19 SAH d   1       2.521   1.223  16.228  0.00  0.00     0.157 HD
ENDBRANCH  36  42
ENDBRANCH   5  31
BRANCH   4  45
ATOM     45  O2' SAH d   1      -2.120  -0.853  21.476  0.00  0.00    -0.388 OA
ATOM     46  H15 SAH d   1      -1.948  -1.665  21.939  0.00  0.00     0.210 HD
ENDBRANCH   4  45
TORSDOF 11
