REMARK  8 active torsions:
REMARK  status: ('A' for Active; 'I' for Inactive)
REMARK    1  A    between atoms: C1_1  and  C2_2 
REMARK    2  A    between atoms: N6_4  and  C1_1 
REMARK    3  A    between atoms: C1_1  and  C28_12 
REMARK       I    between atoms: C2_2  and  N4_13 
REMARK    4  A    between atoms: N4_13  and  O5_3 
REMARK    5  A    between atoms: N6_4  and  C18_11 
REMARK    6  A    between atoms: S7_15  and  N6_4 
REMARK    7  A    between atoms: C10_5  and  S7_15 
REMARK    8  A    between atoms: C12_7  and  C17_19 
ROOT
ATOM      1  N6  56Q d   1      10.297  18.884  26.535  0.00  0.00    -0.298 N 
ENDROOT
BRANCH   1   2
ATOM      2  C1  56Q d   1      11.794  18.815  26.578  0.00  0.00     0.097 C 
ATOM      3  H1  56Q d   1      12.121  19.684  25.988  0.00  0.00     0.088 H 
BRANCH   2   4
ATOM      4  C2  56Q d   1      12.583  18.906  27.890  0.00  0.00     0.264 C 
ATOM      5  N4  56Q d   1      13.432  19.933  27.898  0.00  0.00    -0.236 N 
ATOM      6  H12 56Q d   1      13.453  20.512  27.083  0.00  0.00     0.197 HD
ATOM      7  O3  56Q d   1      12.509  18.111  28.831  0.00  0.00    -0.269 OA
BRANCH   5   8
ATOM      8  O5  56Q d   1      14.289  20.271  28.934  0.00  0.00    -0.287 OA
ATOM      9  H2  56Q d   1      14.788  21.042  28.692  0.00  0.00     0.244 HD
ENDBRANCH   5   8
ENDBRANCH   2   4
BRANCH   2  10
ATOM     10  C28 56Q d   1      12.302  17.559  25.864  0.00  0.00    -0.048 C 
ATOM     11  H9  56Q d   1      13.401  17.531  25.909  0.00  0.00     0.030 H 
ATOM     12  H10 56Q d   1      11.978  17.578  24.813  0.00  0.00     0.030 H 
ATOM     13  H11 56Q d   1      11.892  16.666  26.357  0.00  0.00     0.030 H 
ENDBRANCH   2  10
ENDBRANCH   1   2
BRANCH   1  14
ATOM     14  C18 56Q d   1       9.568  17.618  26.605  0.00  0.00    -0.008 C 
ATOM     15  H6  56Q d   1      10.283  16.788  26.707  0.00  0.00     0.057 H 
ATOM     16  H7  56Q d   1       8.979  17.483  25.686  0.00  0.00     0.057 H 
ATOM     17  H8  56Q d   1       8.894  17.631  27.474  0.00  0.00     0.057 H 
ENDBRANCH   1  14
BRANCH   1  18
ATOM     18  S7  56Q d   1       9.464  20.208  26.386  0.00  0.00     0.261 S 
ATOM     19  O8  56Q d   1       8.160  20.047  25.778  0.00  0.00    -0.200 OA
ATOM     20  O9  56Q d   1      10.203  21.146  25.583  0.00  0.00    -0.200 OA
BRANCH  18  21
ATOM     21  C10 56Q d   1       9.217  20.830  27.856  0.00  0.00     0.080 A 
ATOM     22  C11 56Q d   1       8.174  20.359  28.674  0.00  0.00    -0.052 A 
ATOM     23  C12 56Q d   1       7.983  20.905  29.949  0.00  0.00    -0.022 A 
ATOM     24  H3  56Q d   1       7.518  19.573  28.317  0.00  0.00     0.086 H 
ATOM     25  C13 56Q d   1       8.835  21.906  30.391  0.00  0.00     0.122 A 
ATOM     26  C14 56Q d   1       9.868  22.381  29.589  0.00  0.00    -0.044 A 
ATOM     27  F16 56Q d   1       8.657  22.437  31.607  0.00  0.00    -0.206 F 
ATOM     28  C15 56Q d   1      10.057  21.841  28.323  0.00  0.00    -0.057 A 
ATOM     29  H4  56Q d   1      10.521  23.167  29.950  0.00  0.00     0.088 H 
ATOM     30  H5  56Q d   1      10.861  22.207  27.695  0.00  0.00     0.086 H 
BRANCH  23  31
ATOM     31  C17 56Q d   1       6.869  20.417  30.858  0.00  0.00    -0.048 C 
ATOM     32  H13 56Q d   1       6.298  19.628  30.347  0.00  0.00     0.033 H 
ATOM     33  H14 56Q d   1       6.199  21.256  31.100  0.00  0.00     0.033 H 
ATOM     34  H15 56Q d   1       7.302  20.014  31.785  0.00  0.00     0.033 H 
ENDBRANCH  23  31
ENDBRANCH  18  21
ENDBRANCH   1  18
TORSDOF 8
