REMARK  11 active torsions:
REMARK  status: ('A' for Active; 'I' for Inactive)
REMARK    1  A    between atoms: C1_1  and  C2_2 
REMARK    2  A    between atoms: N6_5  and  C1_1 
REMARK    3  A    between atoms: C1_1  and  C28_19 
REMARK       I    between atoms: C2_2  and  N4_20 
REMARK    4  A    between atoms: C23_17  and  C3_3 
REMARK    5  A    between atoms: C3_3  and  N5_27 
REMARK    6  A    between atoms: N4_20  and  O5_4 
REMARK    7  A    between atoms: C18_18  and  N6_5 
REMARK    8  A    between atoms: N6_5  and  S7_22 
REMARK    9  A    between atoms: S7_22  and  C10_6 
REMARK   10  A    between atoms: C12_8  and  C17_26 
REMARK   11  A    between atoms: C19_12  and  C18_18 
ROOT
ATOM      1  N6  56R d   1       9.980  18.854  26.537  0.00  0.00    -0.289 N 
ENDROOT
BRANCH   1   2
ATOM      2  C1  56R d   1      11.471  18.820  26.528  0.00  0.00     0.098 C 
ATOM      3  H1  56R d   1      11.779  19.629  25.849  0.00  0.00     0.088 H 
BRANCH   2   4
ATOM      4  C2  56R d   1      12.230  19.030  27.839  0.00  0.00     0.264 C 
ATOM      5  N4  56R d   1      13.110  20.035  27.830  0.00  0.00    -0.236 N 
ATOM      6  H17 56R d   1      13.204  20.601  27.011  0.00  0.00     0.197 HD
ATOM      7  O3  56R d   1      12.099  18.312  28.836  0.00  0.00    -0.269 OA
BRANCH   5   8
ATOM      8  O5  56R d   1      13.900  20.305  28.949  0.00  0.00    -0.287 OA
ATOM      9  H4  56R d   1      14.463  21.048  28.766  0.00  0.00     0.244 HD
ENDBRANCH   5   8
ENDBRANCH   2   4
BRANCH   2  10
ATOM     10  C28 56R d   1      12.005  17.503  25.976  0.00  0.00    -0.048 C 
ATOM     11  H14 56R d   1      13.105  17.520  25.987  0.00  0.00     0.030 H 
ATOM     12  H15 56R d   1      11.651  17.368  24.944  0.00  0.00     0.030 H 
ATOM     13  H16 56R d   1      11.645  16.671  26.599  0.00  0.00     0.030 H 
ENDBRANCH   2  10
ENDBRANCH   1   2
BRANCH   1  14
ATOM     14  C18 56R d   1       9.440  17.504  26.754  0.00  0.00     0.030 C 
ATOM     15  H12 56R d   1       8.887  17.502  27.705  0.00  0.00     0.072 H 
ATOM     16  H13 56R d   1      10.284  16.801  26.819  0.00  0.00     0.072 H 
BRANCH  14  17
ATOM     17  C19 56R d   1       8.508  17.026  25.662  0.00  0.00    -0.039 A 
ATOM     18  C20 56R d   1       7.221  16.609  25.994  0.00  0.00    -0.075 A 
ATOM     19  C21 56R d   1       6.342  16.177  25.003  0.00  0.00    -0.082 A 
ATOM     20  H8  56R d   1       6.901  16.621  27.030  0.00  0.00     0.084 H 
ATOM     21  C22 56R d   1       6.756  16.159  23.675  0.00  0.00    -0.075 A 
ATOM     22  H9  56R d   1       5.340  15.857  25.265  0.00  0.00     0.083 H 
ATOM     23  C23 56R d   1       8.045  16.576  23.342  0.00  0.00    -0.033 A 
ATOM     24  H10 56R d   1       6.078  15.821  22.900  0.00  0.00     0.084 H 
ATOM     25  C24 56R d   1       8.919  17.012  24.332  0.00  0.00    -0.068 A 
ATOM     26  H11 56R d   1       9.918  17.340  24.069  0.00  0.00     0.085 H 
BRANCH  23  27
ATOM     27  C3  56R d   1       8.485  16.559  21.897  0.00  0.00     0.103 C 
ATOM     28  H2  56R d   1       8.546  15.522  21.534  0.00  0.00     0.082 H 
ATOM     29  H3  56R d   1       9.469  17.041  21.797  0.00  0.00     0.082 H 
BRANCH  27  30
ATOM     30  N5  56R d   1       7.468  17.312  21.117  0.00  0.00    -0.075 N 
ATOM     31  H21 56R d   1       7.730  17.321  20.144  0.00  0.00     0.274 HD
ATOM     32  H22 56R d   1       7.415  18.259  21.460  0.00  0.00     0.274 HD
ATOM     33  H23 56R d   1       6.569  16.867  21.219  0.00  0.00     0.274 HD
ENDBRANCH  27  30
ENDBRANCH  23  27
ENDBRANCH  14  17
ENDBRANCH   1  14
BRANCH   1  34
ATOM     34  S7  56R d   1       9.079  20.151  26.389  0.00  0.00     0.261 S 
ATOM     35  O8  56R d   1       7.785  19.928  25.796  0.00  0.00    -0.200 OA
ATOM     36  O9  56R d   1       9.700  21.175  25.601  0.00  0.00    -0.200 OA
BRANCH  34  37
ATOM     37  C10 56R d   1       8.896  20.778  27.854  0.00  0.00     0.080 A 
ATOM     38  C11 56R d   1       7.922  20.300  28.734  0.00  0.00    -0.052 A 
ATOM     39  C12 56R d   1       7.796  20.860  30.002  0.00  0.00    -0.022 A 
ATOM     40  H5  56R d   1       7.265  19.494  28.430  0.00  0.00     0.086 H 
ATOM     41  C13 56R d   1       8.640  21.886  30.385  0.00  0.00     0.122 A 
ATOM     42  C14 56R d   1       9.613  22.361  29.510  0.00  0.00    -0.044 A 
ATOM     43  F16 56R d   1       8.522  22.443  31.606  0.00  0.00    -0.206 F 
ATOM     44  C15 56R d   1       9.745  21.807  28.245  0.00  0.00    -0.057 A 
ATOM     45  H6  56R d   1      10.270  23.166  29.818  0.00  0.00     0.088 H 
ATOM     46  H7  56R d   1      10.506  22.174  27.566  0.00  0.00     0.086 H 
BRANCH  39  47
ATOM     47  C17 56R d   1       6.740  20.357  30.958  0.00  0.00    -0.048 C 
ATOM     48  H18 56R d   1       6.170  19.546  30.481  0.00  0.00     0.033 H 
ATOM     49  H19 56R d   1       6.058  21.180  31.218  0.00  0.00     0.033 H 
ATOM     50  H20 56R d   1       7.222  19.979  31.871  0.00  0.00     0.033 H 
ENDBRANCH  39  47
ENDBRANCH  34  37
ENDBRANCH   1  34
TORSDOF 11
