REMARK  10 active torsions:
REMARK  status: ('A' for Active; 'I' for Inactive)
REMARK    1  A    between atoms: C1_1  and  C2_2 
REMARK    2  A    between atoms: N6_5  and  C1_1 
REMARK    3  A    between atoms: C1_1  and  C28_14 
REMARK       I    between atoms: C2_2  and  N4_15 
REMARK    4  A    between atoms: C19_12  and  C20_3 
REMARK    5  A    between atoms: N4_15  and  O5_4 
REMARK    6  A    between atoms: C18_13  and  N6_5 
REMARK    7  A    between atoms: N6_5  and  S7_17 
REMARK    8  A    between atoms: S7_17  and  C10_6 
REMARK    9  A    between atoms: C12_8  and  C17_21 
REMARK   10  A    between atoms: C19_12  and  C18_13 
ROOT
ATOM      1  N6  56P d   1      10.363  19.030  26.593  0.00  0.00    -0.293 N 
ENDROOT
BRANCH   1   2
ATOM      2  C1  56P d   1      11.843  19.153  26.620  0.00  0.00     0.098 C 
ATOM      3  H1  56P d   1      12.077  20.099  26.110  0.00  0.00     0.088 H 
BRANCH   2   4
ATOM      4  C2  56P d   1      12.538  19.185  27.972  0.00  0.00     0.264 C 
ATOM      5  N4  56P d   1      13.552  20.036  28.092  0.00  0.00    -0.236 N 
ATOM      6  H16 56P d   1      13.764  20.685  27.361  0.00  0.00     0.197 HD
ATOM      7  O3  56P d   1      12.261  18.423  28.888  0.00  0.00    -0.269 OA
BRANCH   5   8
ATOM      8  O5  56P d   1      14.312  20.003  29.259  0.00  0.00    -0.287 OA
ATOM      9  H5  56P d   1      14.997  20.660  29.208  0.00  0.00     0.244 HD
ENDBRANCH   5   8
ENDBRANCH   2   4
BRANCH   2  10
ATOM     10  C28 56P d   1      12.523  18.008  25.862  0.00  0.00    -0.048 C 
ATOM     11  H13 56P d   1      13.615  18.136  25.906  0.00  0.00     0.030 H 
ATOM     12  H14 56P d   1      12.195  18.017  24.812  0.00  0.00     0.030 H 
ATOM     13  H15 56P d   1      12.248  17.048  26.324  0.00  0.00     0.030 H 
ENDBRANCH   2  10
ENDBRANCH   1   2
BRANCH   1  14
ATOM     14  C18 56P d   1       9.940  17.629  26.744  0.00  0.00     0.006 C 
ATOM     15  H11 56P d   1       9.208  17.573  27.563  0.00  0.00     0.065 H 
ATOM     16  H12 56P d   1      10.823  17.025  26.999  0.00  0.00     0.065 H 
BRANCH  14  17
ATOM     17  C19 56P d   1       9.303  17.045  25.488  0.00  0.00    -0.053 C 
ATOM     18  H9  56P d   1       8.335  17.535  25.306  0.00  0.00     0.034 H 
ATOM     19  H10 56P d   1       9.967  17.214  24.628  0.00  0.00     0.034 H 
BRANCH  17  20
ATOM     20  C20 56P d   1       9.086  15.547  25.676  0.00  0.00    -0.075 C 
ATOM     21  H2  56P d   1       8.626  15.127  24.769  0.00  0.00     0.027 H 
ATOM     22  H3  56P d   1       8.421  15.378  26.536  0.00  0.00     0.027 H 
ATOM     23  H4  56P d   1      10.053  15.056  25.858  0.00  0.00     0.027 H 
ENDBRANCH  17  20
ENDBRANCH  14  17
ENDBRANCH   1  14
BRANCH   1  24
ATOM     24  S7  56P d   1       9.386  20.255  26.484  0.00  0.00     0.261 S 
ATOM     25  O8  56P d   1       8.086  19.967  25.898  0.00  0.00    -0.200 OA
ATOM     26  O9  56P d   1       9.984  21.310  25.704  0.00  0.00    -0.200 OA
BRANCH  24  27
ATOM     27  C10 56P d   1       9.166  20.848  27.962  0.00  0.00     0.080 A 
ATOM     28  C11 56P d   1       8.157  20.356  28.788  0.00  0.00    -0.052 A 
ATOM     29  C12 56P d   1       7.999  20.876  30.062  0.00  0.00    -0.022 A 
ATOM     30  H6  56P d   1       7.499  19.570  28.435  0.00  0.00     0.086 H 
ATOM     31  C13 56P d   1       8.836  21.876  30.515  0.00  0.00     0.122 A 
ATOM     32  C14 56P d   1       9.841  22.375  29.700  0.00  0.00    -0.044 A 
ATOM     33  F16 56P d   1       8.669  22.371  31.755  0.00  0.00    -0.206 F 
ATOM     34  C15 56P d   1      10.010  21.855  28.426  0.00  0.00    -0.057 A 
ATOM     35  H7  56P d   1      10.490  23.166  30.057  0.00  0.00     0.088 H 
ATOM     36  H8  56P d   1      10.801  22.233  27.789  0.00  0.00     0.086 H 
BRANCH  29  37
ATOM     37  C17 56P d   1       6.911  20.350  30.960  0.00  0.00    -0.048 C 
ATOM     38  H17 56P d   1       6.350  19.564  30.434  0.00  0.00     0.033 H 
ATOM     39  H18 56P d   1       6.229  21.170  31.229  0.00  0.00     0.033 H 
ATOM     40  H19 56P d   1       7.359  19.932  31.873  0.00  0.00     0.033 H 
ENDBRANCH  29  37
ENDBRANCH  24  27
ENDBRANCH   1  24
TORSDOF 10
