REMARK  8 active torsions:
REMARK  status: ('A' for Active; 'I' for Inactive)
REMARK    1  A    between atoms: CAS_3  and  CAO_4 
REMARK    2  A    between atoms: CAR_9  and  CAM_10 
REMARK    3  A    between atoms: CAM_10  and  CAT_11 
REMARK    4  A    between atoms: CAT_11  and  CAP_12 
REMARK    5  A    between atoms: CAT_11  and  CAL_15 
REMARK    6  A    between atoms: CAL_15  and  CAK_16 
REMARK    7  A    between atoms: CAK_16  and  CAQ_17 
REMARK       I    between atoms: CAQ_17  and  NAN_19 
REMARK    8  A    between atoms: NAN_19  and  OAD_20 
ROOT
ATOM      1  CAT 5Q1 d   1      20.641  45.657  43.671  0.00  0.00     0.035 C 
ATOM      2  H7  5Q1 d   1      20.699  44.559  43.695  0.00  0.00     0.057 H 
ENDROOT
BRANCH   1   3
ATOM      3  CAM 5Q1 d   1      22.058  46.304  43.572  0.00  0.00    -0.028 C 
ATOM      4  H5  5Q1 d   1      21.942  47.386  43.411  0.00  0.00     0.041 H 
ATOM      5  H6  5Q1 d   1      22.593  46.129  44.517  0.00  0.00     0.041 H 
BRANCH   3   6
ATOM      6  CAR 5Q1 d   1      22.886  45.721  42.422  0.00  0.00    -0.057 A 
ATOM      7  CAG 5Q1 d   1      22.921  46.372  41.192  0.00  0.00    -0.076 A 
ATOM      8  CAI 5Q1 d   1      23.690  45.838  40.138  0.00  0.00    -0.066 A 
ATOM      9  H1  5Q1 d   1      22.358  47.287  41.045  0.00  0.00     0.084 H 
ATOM     10  CAS 5Q1 d   1      24.433  44.689  40.399  0.00  0.00     0.040 A 
ATOM     11  H2  5Q1 d   1      23.703  46.305  39.160  0.00  0.00     0.085 H 
ATOM     12  CAJ 5Q1 d   1      24.391  44.044  41.622  0.00  0.00    -0.066 A 
ATOM     13  CAH 5Q1 d   1      23.585  44.548  42.669  0.00  0.00    -0.076 A 
ATOM     14  H3  5Q1 d   1      24.979  43.147  41.779  0.00  0.00     0.085 H 
ATOM     15  H4  5Q1 d   1      23.516  44.040  43.624  0.00  0.00     0.084 H 
BRANCH  10  16
ATOM     16  CAO 5Q1 d   1      25.323  44.038  39.292  0.00  0.00     0.209 C 
ATOM     17  OAE 5Q1 d   1      25.345  44.575  38.167  0.00  0.00    -0.644 OA
ATOM     18  OAA 5Q1 d   1      25.983  43.019  39.641  0.00  0.00    -0.644 OA
ENDBRANCH  10  16
ENDBRANCH   3   6
ENDBRANCH   1   3
BRANCH   1  19
ATOM     19  CAP 5Q1 d   1      20.035  46.211  44.998  0.00  0.00     0.177 C 
ATOM     20  OAF 5Q1 d   1      20.029  45.409  45.987  0.00  0.00    -0.648 OA
ATOM     21  OAB 5Q1 d   1      19.639  47.415  44.954  0.00  0.00    -0.648 OA
ENDBRANCH   1  19
BRANCH   1  22
ATOM     22  CAL 5Q1 d   1      19.830  46.119  42.459  0.00  0.00    -0.044 C 
ATOM     23  H8  5Q1 d   1      20.299  45.699  41.557  0.00  0.00     0.035 H 
ATOM     24  H9  5Q1 d   1      19.877  47.217  42.419  0.00  0.00     0.035 H 
BRANCH  22  25
ATOM     25  CAK 5Q1 d   1      18.332  45.703  42.457  0.00  0.00     0.012 C 
ATOM     26  H10 5Q1 d   1      17.915  45.948  41.469  0.00  0.00     0.047 H 
ATOM     27  H11 5Q1 d   1      17.817  46.294  43.229  0.00  0.00     0.047 H 
BRANCH  25  28
ATOM     28  CAQ 5Q1 d   1      18.045  44.203  42.736  0.00  0.00     0.240 C 
ATOM     29  OAC 5Q1 d   1      18.544  43.195  42.129  0.00  0.00    -0.271 OA
ATOM     30  NAN 5Q1 d   1      17.124  44.047  43.678  0.00  0.00    -0.237 N 
ATOM     31  H12 5Q1 d   1      16.680  44.841  44.093  0.00  0.00     0.197 HD
BRANCH  30  32
ATOM     32  OAD 5Q1 d   1      16.787  42.754  44.078  0.00  0.00    -0.287 OA
ATOM     33  H13 5Q1 d   1      17.559  42.318  44.420  0.00  0.00     0.244 HD
ENDBRANCH  30  32
ENDBRANCH  25  28
ENDBRANCH  22  25
ENDBRANCH   1  22
TORSDOF 8
