REMARK WARNING: 32 MAX_TORS EXCEEDED!!!
REMARK  44 active torsions:
REMARK  status: ('A' for Active; 'I' for Inactive)
REMARK    1  A    between atoms: CA_2  and  N_1 
REMARK       I    between atoms: N_1  and  C1'_63 
REMARK    2  A    between atoms: C_3  and  CA_2 
REMARK    3  A    between atoms: CA_2  and  CB_5 
REMARK       I    between atoms: N_6  and  C_3 
REMARK    4  A    between atoms: C_8  and  CA_7 
REMARK       I    between atoms: N_13  and  C_8 
REMARK    5  A    between atoms: CA_14  and  N_13 
REMARK    6  A    between atoms: C_15  and  CA_14 
REMARK    7  A    between atoms: CA_14  and  CB_17 
REMARK       I    between atoms: N_18  and  C_15 
REMARK    8  A    between atoms: CA_19  and  N_18 
REMARK    9  A    between atoms: CA_19  and  C_20 
REMARK   10  A    between atoms: CB_22  and  CA_19 
REMARK       I    between atoms: C_20  and  N_27 
REMARK   11  A    between atoms: CG_23  and  CB_22 
REMARK   12  A    between atoms: CD_24  and  CG_23 
REMARK   13  A    between atoms: CE_25  and  CD_24 
REMARK   14  A    between atoms: NZ_26  and  CE_25 
REMARK   15  A    between atoms: N_27  and  CA_28 
REMARK   16  A    between atoms: CA_28  and  C_29 
REMARK   17  A    between atoms: CA_28  and  CB_31 
REMARK       I    between atoms: C_29  and  N_38 
REMARK   18  A    between atoms: CB_31  and  CG_32 
REMARK   19  A    between atoms: N_38  and  CA_39 
REMARK   20  A    between atoms: CA_39  and  C_40 
REMARK   21  A    between atoms: CA_39  and  CB_42 
REMARK   22  A    between atoms: CB_42  and  SG_43 
REMARK   23  A    between atoms: N_45  and  CA_46 
REMARK       I    between atoms: C7_90  and  N_45 
REMARK   24  A    between atoms: CA_46  and  C_47 
REMARK   25  A    between atoms: CA_46  and  CB_49 
REMARK       I    between atoms: C_47  and  N_50 
REMARK   26  A    between atoms: CA_51  and  C_52 
REMARK       I    between atoms: C_52  and  N_57 
REMARK   27  A    between atoms: N_57  and  CA_58 
REMARK   28  A    between atoms: CA_58  and  C_59 
REMARK   29  A    between atoms: CA_58  and  CB_61 
REMARK   30  A    between atoms: C_59  and  O_60 
REMARK   31  A    between atoms: C1'_63  and  C1_65 
REMARK   32  A    between atoms: C4_68  and  O4_71 
REMARK   33  A    between atoms: O4_71  and  C1_72 
REMARK   34  A    between atoms: C2_73  and  O2_78 
REMARK   35  A    between atoms: C3_74  and  O3_79 
REMARK   36  A    between atoms: C4_75  and  O4_80 
REMARK   37  A    between atoms: C5_76  and  C6_77 
REMARK   38  A    between atoms: C6_77  and  O6_82 
REMARK   39  A    between atoms: C1_83  and  C1M_84 
REMARK   40  A    between atoms: C2_85  and  O2_91 
REMARK   41  A    between atoms: C3_86  and  O3_92 
REMARK   42  A    between atoms: C4_87  and  O4_93 
REMARK   43  A    between atoms: C6_89  and  C5_88 
REMARK   44  A    between atoms: C6_89  and  C7_90 
ROOT
ATOM      1  CA  LYS d   1     -59.171  25.814  25.897  0.00  0.00     0.089 C 
ATOM      2  H19 LYS d   1     -58.889  26.354  26.813  0.00  0.00     0.087 H 
ENDROOT
BRANCH   1   3
ATOM      3  N   LYS d   1     -59.535  26.777  24.906  0.00  0.00    -0.346 N 
ATOM      4  C   ALA d   1     -59.979  28.078  25.422  0.00  0.00     0.240 C 
ATOM      5  O   ALA d   1     -60.009  28.257  26.624  0.00  0.00    -0.271 OA
ATOM      6  H18 LYS d   1     -59.490  26.578  23.927  0.00  0.00     0.163 HD
BRANCH   4   7
ATOM      7  CA  ALA d   1     -60.406  29.203  24.478  0.00  0.00     0.086 C 
ATOM      8  H14 ALA d   1     -60.650  28.809  23.481  0.00  0.00     0.086 H 
BRANCH   7   9
ATOM      9  N   ALA d   1     -61.559  29.805  25.067  0.00  0.00    -0.346 N 
ATOM     10  C   PRO d   1     -62.892  29.617  24.470  0.00  0.00     0.241 C 
ATOM     11  O   PRO d   1     -63.019  28.959  23.465  0.00  0.00    -0.271 OA
ATOM     12  H13 ALA d   1     -61.460  30.360  25.893  0.00  0.00     0.163 HD
BRANCH  10  13
ATOM     13  CA  PRO d   1     -64.107  30.244  25.120  0.00  0.00     0.091 C 
ATOM     14  N   PRO d   1     -64.717  31.252  24.273  0.00  0.00    -0.337 N 
ATOM     15  C   ALA d   1     -64.070  32.439  23.732  0.00  0.00     0.243 C 
ATOM     16  CD  PRO d   1     -66.086  30.909  24.039  0.00  0.00    -0.001 C 
ATOM     17  O   ALA d   1     -62.904  32.701  23.973  0.00  0.00    -0.271 OA
ATOM     18  CG  PRO d   1     -66.489  29.920  25.047  0.00  0.00    -0.048 C 
ATOM     19  H11 PRO d   1     -66.196  30.480  23.032  0.00  0.00     0.064 H 
ATOM     20  H12 PRO d   1     -66.715  31.807  24.126  0.00  0.00     0.064 H 
ATOM     21  CB  PRO d   1     -65.201  29.249  25.424  0.00  0.00    -0.036 C 
ATOM     22  H9  PRO d   1     -66.944  30.412  25.919  0.00  0.00     0.035 H 
ATOM     23  H10 PRO d   1     -67.199  29.195  24.623  0.00  0.00     0.035 H 
ATOM     24  H7  PRO d   1     -65.201  28.997  26.495  0.00  0.00     0.036 H 
ATOM     25  H8  PRO d   1     -65.060  28.333  24.831  0.00  0.00     0.036 H 
ATOM     26  H6  PRO d   1     -63.779  30.712  26.060  0.00  0.00     0.087 H 
BRANCH  15  27
ATOM     27  CA  ALA d   1     -64.925  33.383  22.882  0.00  0.00     0.086 C 
ATOM     28  H2  ALA d   1     -65.684  32.804  22.335  0.00  0.00     0.087 H 
BRANCH  27  29
ATOM     29  N   ALA d   1     -65.579  34.182  23.875  0.00  0.00    -0.344 N 
ATOM     30  C1' PHB d   1     -65.130  35.431  24.477  0.00  0.00     0.252 C 
ATOM     31  O1' PHB d   1     -64.118  36.002  24.173  0.00  0.00    -0.268 OA
ATOM     32  H1  ALA d   1     -66.460  33.837  24.198  0.00  0.00     0.163 HD
BRANCH  30  33
ATOM     33  C1  PHB d   1     -66.037  36.038  25.579  0.00  0.00     0.032 A 
ATOM     34  C2  PHB d   1     -66.639  37.262  25.452  0.00  0.00    -0.065 A 
ATOM     35  C3  PHB d   1     -67.468  37.759  26.466  0.00  0.00    -0.050 A 
ATOM     36  H61 ALA d   1     -66.472  37.852  24.558  0.00  0.00     0.085 H 
ATOM     37  C4  PHB d   1     -67.686  36.993  27.636  0.00  0.00     0.072 A 
ATOM     38  H62 ALA d   1     -67.941  38.728  26.355  0.00  0.00     0.087 H 
ATOM     39  C5  PHB d   1     -67.045  35.753  27.765  0.00  0.00    -0.050 A 
ATOM     40  C6  PHB d   1     -66.232  35.269  26.720  0.00  0.00    -0.065 A 
ATOM     41  H63 ALA d   1     -67.174  35.167  28.668  0.00  0.00     0.087 H 
ATOM     42  H64 ALA d   1     -65.759  34.297  26.806  0.00  0.00     0.085 H 
BRANCH  37  43
ATOM     43  O4  PHB d   1     -68.540  37.487  28.711  0.00  0.00    -0.318 OA
BRANCH  43  44
ATOM     44  C1  GAL d   1     -69.922  37.182  28.574  0.00  0.00     0.164 C 
ATOM     45  C2  GAL d   1     -70.234  35.721  28.170  0.00  0.00     0.110 C 
ATOM     46  C3  GAL d   1     -71.634  35.259  28.547  0.00  0.00     0.092 C 
ATOM     47  H66 ALA d   1     -69.507  35.068  28.675  0.00  0.00     0.094 H 
ATOM     48  C4  GAL d   1     -72.007  35.665  29.956  0.00  0.00     0.090 C 
ATOM     49  H67 ALA d   1     -72.356  35.706  27.847  0.00  0.00     0.091 H 
ATOM     50  C5  GAL d   1     -71.799  37.146  30.088  0.00  0.00     0.089 C 
ATOM     51  H68 ALA d   1     -73.069  35.438  30.129  0.00  0.00     0.091 H 
ATOM     52  O5  GAL d   1     -70.461  37.467  29.836  0.00  0.00    -0.348 OA
ATOM     53  H69 ALA d   1     -72.452  37.664  29.370  0.00  0.00     0.090 H 
ATOM     54  H65 ALA d   1     -70.364  37.845  27.816  0.00  0.00     0.134 H 
BRANCH  45  55
ATOM     55  O2  GAL d   1     -70.097  35.576  26.779  0.00  0.00    -0.388 OA
ATOM     56  H72 ALA d   1     -70.219  34.664  26.543  0.00  0.00     0.210 HD
ENDBRANCH  45  55
BRANCH  46  57
ATOM     57  O3  GAL d   1     -71.690  33.858  28.444  0.00  0.00    -0.390 OA
ATOM     58  H73 ALA d   1     -71.080  33.472  29.061  0.00  0.00     0.210 HD
ENDBRANCH  46  57
BRANCH  48  59
ATOM     59  O4  GAL d   1     -71.234  34.940  30.896  0.00  0.00    -0.390 OA
ATOM     60  H74 ALA d   1     -71.391  34.010  30.783  0.00  0.00     0.210 HD
ENDBRANCH  48  59
BRANCH  50  61
ATOM     61  C6  GAL d   1     -72.104  37.634  31.507  0.00  0.00     0.043 C 
ATOM     62  H70 ALA d   1     -72.100  36.782  32.203  0.00  0.00     0.078 H 
ATOM     63  H71 ALA d   1     -73.090  38.121  31.530  0.00  0.00     0.078 H 
BRANCH  61  64
ATOM     64  O6  GAL d   1     -71.097  38.566  31.880  0.00  0.00    -0.398 OA
ATOM     65  H75 ALA d   1     -70.248  38.140  31.855  0.00  0.00     0.209 HD
ENDBRANCH  61  64
ENDBRANCH  50  61
ENDBRANCH  43  44
ENDBRANCH  37  43
ENDBRANCH  30  33
ENDBRANCH  27  29
BRANCH  27  66
ATOM     66  CB  ALA d   1     -64.105  34.137  21.839  0.00  0.00    -0.049 C 
ATOM     67  H3  ALA d   1     -63.656  33.419  21.137  0.00  0.00     0.030 H 
ATOM     68  H4  ALA d   1     -63.309  34.707  22.340  0.00  0.00     0.030 H 
ATOM     69  H5  ALA d   1     -64.759  34.828  21.288  0.00  0.00     0.030 H 
ENDBRANCH  27  66
ENDBRANCH  15  27
ENDBRANCH  10  13
ENDBRANCH   7   9
BRANCH   7  70
ATOM     70  CB  ALA d   1     -59.262  30.181  24.378  0.00  0.00    -0.049 C 
ATOM     71  H15 ALA d   1     -58.394  29.684  23.921  0.00  0.00     0.030 H 
ATOM     72  H16 ALA d   1     -58.994  30.536  25.384  0.00  0.00     0.030 H 
ATOM     73  H17 ALA d   1     -59.564  31.036  23.756  0.00  0.00     0.030 H 
ENDBRANCH   7  70
ENDBRANCH   4   7
ENDBRANCH   1   3
BRANCH   1  74
ATOM     74  C   LYS d   1     -57.983  24.983  25.458  0.00  0.00     0.241 C 
ATOM     75  O   LYS d   1     -57.582  24.980  24.303  0.00  0.00    -0.271 OA
ATOM     76  N   PHE d   1     -57.313  24.182  26.467  0.00  0.00    -0.346 N 
ATOM     77  H29 PHE d   1     -57.635  24.201  27.413  0.00  0.00     0.163 HD
BRANCH  76  78
ATOM     78  CA  PHE d   1     -56.197  23.368  26.112  0.00  0.00     0.093 C 
ATOM     79  H30 PHE d   1     -56.185  23.199  25.025  0.00  0.00     0.088 H 
BRANCH  78  80
ATOM     80  C   PHE d   1     -56.395  22.041  26.834  0.00  0.00     0.241 C 
ATOM     81  O   PHE d   1     -56.916  22.055  27.938  0.00  0.00    -0.271 OA
ATOM     82  N   CYS d   1     -55.992  20.789  26.194  0.00  0.00    -0.344 N 
ATOM     83  H38 CYS d   1     -55.593  20.829  25.278  0.00  0.00     0.163 HD
BRANCH  82  84
ATOM     84  CA  CYS d   1     -56.143  19.501  26.822  0.00  0.00     0.104 C 
ATOM     85  H39 CYS d   1     -55.830  18.731  26.102  0.00  0.00     0.090 H 
BRANCH  84  86
ATOM     86  C   CYS d   1     -57.587  19.213  27.227  0.00  0.00     0.197 C 
ATOM     87  O   CYS d   1     -57.901  18.069  27.507  0.00  0.00    -0.646 OA
ATOM     88  OXT CYS d   1     -58.383  20.136  27.258  0.00  0.00    -0.646 OA
ENDBRANCH  84  86
BRANCH  84  89
ATOM     89  CB  CYS d   1     -55.251  19.421  28.033  0.00  0.00     0.003 C 
ATOM     90  H40 CYS d   1     -55.234  18.388  28.412  0.00  0.00     0.052 H 
ATOM     91  H41 CYS d   1     -55.631  20.093  28.817  0.00  0.00     0.052 H 
BRANCH  89  92
ATOM     92  SG  CYS d   1     -53.609  19.914  27.570  0.00  0.00    -0.180 SA
ATOM     93  H42 CYS d   1     -53.265  19.297  26.851  0.00  0.00     0.101 HD
ENDBRANCH  89  92
ENDBRANCH  84  89
ENDBRANCH  82  84
ENDBRANCH  78  80
BRANCH  78  94
ATOM     94  CB  PHE d   1     -54.909  24.047  26.514  0.00  0.00    -0.014 C 
ATOM     95  H31 PHE d   1     -54.574  23.664  27.489  0.00  0.00     0.043 H 
ATOM     96  H32 PHE d   1     -55.065  25.134  26.581  0.00  0.00     0.043 H 
BRANCH  94  97
ATOM     97  CG  PHE d   1     -53.849  23.736  25.437  0.00  0.00    -0.056 A 
ATOM     98  CD1 PHE d   1     -53.979  24.266  24.155  0.00  0.00    -0.077 A 
ATOM     99  CE1 PHE d   1     -53.013  23.964  23.188  0.00  0.00    -0.082 A 
ATOM    100  H33 PHE d   1     -54.819  24.905  23.909  0.00  0.00     0.084 H 
ATOM    101  CZ  PHE d   1     -51.926  23.134  23.500  0.00  0.00    -0.083 A 
ATOM    102  H35 PHE d   1     -53.106  24.375  22.189  0.00  0.00     0.083 H 
ATOM    103  CE2 PHE d   1     -51.802  22.612  24.781  0.00  0.00    -0.082 A 
ATOM    104  H37 PHE d   1     -51.185  22.901  22.744  0.00  0.00     0.083 H 
ATOM    105  CD2 PHE d   1     -52.760  22.916  25.737  0.00  0.00    -0.077 A 
ATOM    106  H36 PHE d   1     -50.964  21.972  25.032  0.00  0.00     0.083 H 
ATOM    107  H34 PHE d   1     -52.661  22.509  26.737  0.00  0.00     0.084 H 
ENDBRANCH  94  97
ENDBRANCH  78  94
ENDBRANCH  76  78
ENDBRANCH   1  74
BRANCH   1 108
ATOM    108  CB  LYS d   1     -60.370  24.917  26.217  0.00  0.00    -0.038 C 
ATOM    109  H20 LYS d   1     -61.246  25.550  26.422  0.00  0.00     0.036 H 
ATOM    110  H21 LYS d   1     -60.138  24.314  27.107  0.00  0.00     0.036 H 
BRANCH 108 111
ATOM    111  CG  LYS d   1     -60.699  23.967  25.035  0.00  0.00    -0.061 C 
ATOM    112  H22 LYS d   1     -59.977  24.127  24.221  0.00  0.00     0.033 H 
ATOM    113  H23 LYS d   1     -61.716  24.172  24.669  0.00  0.00     0.033 H 
BRANCH 111 114
ATOM    114  CD  LYS d   1     -60.608  22.483  25.536  0.00  0.00    -0.039 C 
ATOM    115  H24 LYS d   1     -59.614  22.306  25.973  0.00  0.00     0.035 H 
ATOM    116  H25 LYS d   1     -60.762  21.801  24.687  0.00  0.00     0.035 H 
BRANCH 114 117
ATOM    117  CE  LYS d   1     -61.701  22.220  26.615  0.00  0.00     0.117 C 
ATOM    118  H26 LYS d   1     -62.306  23.127  26.759  0.00  0.00     0.080 H 
ATOM    119  H27 LYS d   1     -61.224  21.943  27.567  0.00  0.00     0.080 H 
BRANCH 117 120
ATOM    120  NZ  LYS d   1     -62.557  21.124  26.155  0.00  0.00     0.111 N 
ATOM    121  C   ALA d   1     -63.961  21.365  25.883  0.00  0.00     0.414 A 
ATOM    122  OXT ALA d   1     -62.771  21.213  26.154  0.00  0.00    -0.124 OA
ATOM    123  H28 LYS d   1     -62.155  20.205  26.257  0.00  0.00     0.325 HD
BRANCH 121 124
ATOM    124  CA  ALA d   1     -64.817  20.204  25.388  0.00  0.00     0.095 C 
ATOM    125  H56 LYS d   1     -65.885  20.462  25.447  0.00  0.00     0.083 H 
BRANCH 124 126
ATOM    126  N   ALA d   1     -64.425  19.997  24.025  0.00  0.00    -0.348 N 
ATOM    127  C   PRO d   1     -65.142  20.718  22.967  0.00  0.00     0.241 C 
ATOM    128  O   PRO d   1     -66.070  21.466  23.238  0.00  0.00    -0.271 OA
ATOM    129  H55 LYS d   1     -63.677  19.373  23.799  0.00  0.00     0.163 HD
BRANCH 127 130
ATOM    130  CA  PRO d   1     -64.713  20.520  21.532  0.00  0.00     0.091 C 
ATOM    131  N   PRO d   1     -65.844  20.681  20.654  0.00  0.00    -0.337 N 
ATOM    132  C   ALA d   1     -66.933  19.744  20.571  0.00  0.00     0.243 C 
ATOM    133  CD  PRO d   1     -65.731  21.903  19.916  0.00  0.00    -0.001 C 
ATOM    134  O   ALA d   1     -66.910  18.735  21.248  0.00  0.00    -0.271 OA
ATOM    135  CG  PRO d   1     -64.555  22.630  20.421  0.00  0.00    -0.048 C 
ATOM    136  H53 LYS d   1     -66.636  22.511  20.059  0.00  0.00     0.064 H 
ATOM    137  H54 LYS d   1     -65.603  21.683  18.846  0.00  0.00     0.064 H 
ATOM    138  CB  PRO d   1     -63.720  21.533  21.030  0.00  0.00    -0.036 C 
ATOM    139  H51 LYS d   1     -64.016  23.130  19.602  0.00  0.00     0.035 H 
ATOM    140  H52 LYS d   1     -64.844  23.374  21.178  0.00  0.00     0.035 H 
ATOM    141  H49 LYS d   1     -63.059  21.085  20.273  0.00  0.00     0.036 H 
ATOM    142  H50 LYS d   1     -63.114  21.924  21.860  0.00  0.00     0.036 H 
ATOM    143  H48 LYS d   1     -64.289  19.510  21.433  0.00  0.00     0.087 H 
BRANCH 132 144
ATOM    144  CA  ALA d   1     -68.066  19.996  19.580  0.00  0.00     0.086 C 
ATOM    145  H44 LYS d   1     -67.784  20.797  18.880  0.00  0.00     0.086 H 
BRANCH 144 146
ATOM    146  N   ALA d   1     -68.211  18.769  18.869  0.00  0.00    -0.348 N 
ATOM    147  C7  ZDC d   1     -67.066  18.264  18.091  0.00  0.00     0.220 C 
ATOM    148  O7A ZDC d   1     -66.012  18.890  18.025  0.00  0.00    -0.274 OA
ATOM    149  H43 LYS d   1     -69.072  18.261  18.898  0.00  0.00     0.163 HD
BRANCH 147 150
ATOM    150  C6  ZDC d   1     -67.140  16.946  17.307  0.00  0.00     0.036 C 
ATOM    151  H84 LYS d   1     -66.718  16.119  17.897  0.00  0.00     0.051 H 
ATOM    152  H85 LYS d   1     -68.181  16.711  17.039  0.00  0.00     0.051 H 
BRANCH 150 153
ATOM    153  C5  ZDC d   1     -66.302  17.198  16.052  0.00  0.00     0.074 C 
ATOM    154  C4  ZDC d   1     -66.005  15.877  15.333  0.00  0.00     0.088 C 
ATOM    155  C3  ZDC d   1     -67.249  15.323  14.649  0.00  0.00     0.089 C 
ATOM    156  H82 LYS d   1     -65.223  16.053  14.580  0.00  0.00     0.091 H 
ATOM    157  C2  ZDC d   1     -68.032  16.395  13.885  0.00  0.00     0.087 C 
ATOM    158  H81 LYS d   1     -67.918  14.904  15.415  0.00  0.00     0.091 H 
ATOM    159  C1  ZDC d   1     -68.270  17.597  14.770  0.00  0.00     0.063 C 
ATOM    160  H80 LYS d   1     -69.001  15.976  13.577  0.00  0.00     0.091 H 
ATOM    161  O5  ZDC d   1     -67.020  18.065  15.227  0.00  0.00    -0.375 OA
ATOM    162  H76 LYS d   1     -68.889  17.300  15.629  0.00  0.00     0.086 H 
ATOM    163  H83 LYS d   1     -65.350  17.670  16.336  0.00  0.00     0.088 H 
BRANCH 154 164
ATOM    164  O4  ZDC d   1     -65.569  14.919  16.240  0.00  0.00    -0.390 OA
ATOM    165  H88 LYS d   1     -64.777  15.225  16.666  0.00  0.00     0.210 HD
ENDBRANCH 154 164
BRANCH 155 166
ATOM    166  O3  ZDC d   1     -66.806  14.281  13.811  0.00  0.00    -0.390 OA
ATOM    167  H87 LYS d   1     -67.550  13.901  13.359  0.00  0.00     0.210 HD
ENDBRANCH 155 166
BRANCH 157 168
ATOM    168  O2  ZDC d   1     -67.314  16.801  12.732  0.00  0.00    -0.390 OA
ATOM    169  H86 LYS d   1     -67.179  16.051  12.164  0.00  0.00     0.210 HD
ENDBRANCH 157 168
BRANCH 159 170
ATOM    170  C1M ZDC d   1     -68.978  18.699  14.005  0.00  0.00    -0.050 C 
ATOM    171  H77 LYS d   1     -69.139  19.561  14.669  0.00  0.00     0.031 H 
ATOM    172  H78 LYS d   1     -69.948  18.329  13.642  0.00  0.00     0.031 H 
ATOM    173  H79 LYS d   1     -68.360  19.007  13.149  0.00  0.00     0.031 H 
ENDBRANCH 159 170
ENDBRANCH 150 153
ENDBRANCH 147 150
ENDBRANCH 144 146
BRANCH 144 174
ATOM    174  CB  ALA d   1     -69.328  20.415  20.305  0.00  0.00    -0.049 C 
ATOM    175  H45 LYS d   1     -69.150  21.364  20.831  0.00  0.00     0.030 H 
ATOM    176  H46 LYS d   1     -69.608  19.639  21.033  0.00  0.00     0.030 H 
ATOM    177  H47 LYS d   1     -70.143  20.546  19.578  0.00  0.00     0.030 H 
ENDBRANCH 144 174
ENDBRANCH 132 144
ENDBRANCH 127 130
ENDBRANCH 124 126
BRANCH 124 178
ATOM    178  CB  ALA d   1     -64.554  18.959  26.203  0.00  0.00    -0.050 C 
ATOM    179  H58 LYS d   1     -64.859  19.132  27.246  0.00  0.00     0.030 H 
ATOM    180  H59 LYS d   1     -63.481  18.719  26.170  0.00  0.00     0.030 H 
ATOM    181  H60 LYS d   1     -65.130  18.120  25.787  0.00  0.00     0.030 H 
ENDBRANCH 124 178
ENDBRANCH 121 124
BRANCH 121 182
ATOM    182  O   ALA d   1     -64.432  22.492  26.028  0.00  0.00    -0.338 OA
ATOM    183  H57 LYS d   1     -64.343  22.757  26.936  0.00  0.00     0.215 HD
ENDBRANCH 121 182
ENDBRANCH 117 120
ENDBRANCH 114 117
ENDBRANCH 111 114
ENDBRANCH 108 111
ENDBRANCH   1 108
TORSDOF 44
