REMARK  9 active torsions:
REMARK  status: ('A' for Active; 'I' for Inactive)
REMARK    1  A    between atoms: C2_2  and  C1_1 
REMARK    2  A    between atoms: C3_4  and  C2_2 
REMARK    3  A    between atoms: C4_5  and  C27_20 
REMARK    4  A    between atoms: C5_6  and  C26_19 
REMARK    5  A    between atoms: C8_8  and  C7_7 
REMARK       I    between atoms: N10_23  and  C8_8 
REMARK    6  A    between atoms: C11_9  and  N10_23 
REMARK    7  A    between atoms: S18_29  and  C13_11 
REMARK    8  A    between atoms: C27_20  and  C29_21 
REMARK    9  A    between atoms: N21_24  and  S18_29 
ROOT
ATOM      1  C11 579 d   1      16.286  -6.376  -5.571  0.00  0.00     0.036 A 
ATOM      2  C12 579 d   1      16.003  -5.168  -6.270  0.00  0.00    -0.032 A 
ATOM      3  C13 579 d   1      16.638  -3.963  -5.956  0.00  0.00     0.120 A 
ATOM      4  C14 579 d   1      17.584  -3.984  -4.927  0.00  0.00     0.139 A 
ATOM      5  C15 579 d   1      17.870  -5.161  -4.227  0.00  0.00    -0.042 A 
ATOM      6  C16 579 d   1      17.217  -6.349  -4.535  0.00  0.00    -0.054 A 
ATOM      7  F1  579 d   1      18.249  -2.868  -4.568  0.00  0.00    -0.204 F 
ATOM      8  H6  579 d   1      15.272  -5.183  -7.071  0.00  0.00     0.089 H 
ATOM      9  H7  579 d   1      18.610  -5.146  -3.435  0.00  0.00     0.088 H 
ATOM     10  H8  579 d   1      17.431  -7.250  -3.972  0.00  0.00     0.087 H 
ENDROOT
BRANCH   1  11
ATOM     11  N10 579 d   1      15.729  -7.602  -5.870  0.00  0.00    -0.322 N 
ATOM     12  C8  579 d   1      15.096  -7.858  -7.022  0.00  0.00     0.273 C 
ATOM     13  O9  579 d   1      14.986  -7.017  -7.885  0.00  0.00    -0.266 OA
ATOM     14  H24 579 d   1      15.801  -8.335  -5.194  0.00  0.00     0.169 HD
BRANCH  12  15
ATOM     15  C7  579 d   1      14.484  -9.163  -7.418  0.00  0.00     0.108 A 
ATOM     16  C3  579 d   1      14.844 -10.531  -6.947  0.00  0.00    -0.010 A 
ATOM     17  C4  579 d   1      13.986 -11.350  -7.688  0.00  0.00     0.040 A 
ATOM     18  C5  579 d   1      13.148 -10.505  -8.568  0.00  0.00     0.020 A 
ATOM     19  N6  579 d   1      13.525  -9.239  -8.358  0.00  0.00    -0.354 N 
ATOM     20  H23 579 d   1      13.131  -8.426  -8.853  0.00  0.00     0.166 HD
BRANCH  16  21
ATOM     21  C2  579 d   1      15.873 -10.938  -5.909  0.00  0.00    -0.041 C 
ATOM     22  H4  579 d   1      16.490 -11.755  -6.311  0.00  0.00     0.039 H 
ATOM     23  H5  579 d   1      16.514 -10.075  -5.675  0.00  0.00     0.039 H 
BRANCH  21  24
ATOM     24  C1  579 d   1      15.190 -11.404  -4.652  0.00  0.00    -0.073 C 
ATOM     25  H1  579 d   1      15.947 -11.695  -3.910  0.00  0.00     0.028 H 
ATOM     26  H2  579 d   1      14.550 -12.269  -4.881  0.00  0.00     0.028 H 
ATOM     27  H3  579 d   1      14.573 -10.589  -4.246  0.00  0.00     0.028 H 
ENDBRANCH  21  24
ENDBRANCH  16  21
BRANCH  17  28
ATOM     28  C27 579 d   1      13.877 -12.830  -7.679  0.00  0.00     0.158 C 
ATOM     29  O28 579 d   1      12.874 -13.403  -8.071  0.00  0.00    -0.293 OA
BRANCH  28  30
ATOM     30  C29 579 d   1      15.095 -13.611  -7.268  0.00  0.00    -0.017 C 
ATOM     31  H20 579 d   1      14.871 -14.687  -7.308  0.00  0.00     0.038 H 
ATOM     32  H21 579 d   1      15.380 -13.333  -6.242  0.00  0.00     0.038 H 
ATOM     33  H22 579 d   1      15.925 -13.384  -7.953  0.00  0.00     0.038 H 
ENDBRANCH  28  30
ENDBRANCH  17  28
BRANCH  18  34
ATOM     34  C26 579 d   1      12.113 -10.948  -9.561  0.00  0.00    -0.037 C 
ATOM     35  H17 579 d   1      11.673 -10.066 -10.050  0.00  0.00     0.035 H 
ATOM     36  H18 579 d   1      11.323 -11.511  -9.041  0.00  0.00     0.035 H 
ATOM     37  H19 579 d   1      12.584 -11.591 -10.319  0.00  0.00     0.035 H 
ENDBRANCH  18  34
ENDBRANCH  12  15
ENDBRANCH   1  11
BRANCH   3  38
ATOM     38  S18 579 d   1      16.288  -2.601  -6.802  0.00  0.00     0.264 S 
ATOM     39  O19 579 d   1      15.007  -2.726  -7.453  0.00  0.00    -0.200 OA
ATOM     40  O20 579 d   1      16.236  -1.463  -5.905  0.00  0.00    -0.200 OA
BRANCH  38  41
ATOM     41  N21 579 d   1      17.432  -2.453  -7.798  0.00  0.00    -0.303 N 
ATOM     42  C22 579 d   1      17.345  -3.158  -9.077  0.00  0.00     0.025 C 
ATOM     43  C23 579 d   1      17.990  -2.316 -10.167  0.00  0.00     0.035 C 
ATOM     44  H9  579 d   1      17.869  -4.122  -9.000  0.00  0.00     0.068 H 
ATOM     45  H10 579 d   1      16.288  -3.334  -9.327  0.00  0.00     0.068 H 
ATOM     46  O2  579 d   1      19.298  -1.931  -9.749  0.00  0.00    -0.388 OA
ATOM     47  H11 579 d   1      18.058  -2.904 -11.094  0.00  0.00     0.076 H 
ATOM     48  H12 579 d   1      17.381  -1.417 -10.346  0.00  0.00     0.076 H 
ATOM     49  C25 579 d   1      19.219  -1.018  -8.645  0.00  0.00     0.035 C 
ATOM     50  C24 579 d   1      18.615  -1.685  -7.406  0.00  0.00     0.025 C 
ATOM     51  H15 579 d   1      18.590  -0.163  -8.933  0.00  0.00     0.076 H 
ATOM     52  H16 579 d   1      20.231  -0.663  -8.402  0.00  0.00     0.076 H 
ATOM     53  H13 579 d   1      18.327  -0.913  -6.677  0.00  0.00     0.068 H 
ATOM     54  H14 579 d   1      19.357  -2.359  -6.953  0.00  0.00     0.068 H 
ENDBRANCH  38  41
ENDBRANCH   3  38
TORSDOF 9
