REMARK  4 active torsions:
REMARK  status: ('A' for Active; 'I' for Inactive)
REMARK    1  A    between atoms: C17_2  and  C16_4 
REMARK    2  A    between atoms: C16_4  and  C15_5 
REMARK    3  A    between atoms: C15_5  and  N_6 
REMARK    4  A    between atoms: C7_14  and  C4_15 
ROOT
ATOM      1  N   57Q d   1       5.120   7.330  19.486  0.00  0.00    -0.345 N 
ATOM      2  C14 57Q d   1       6.023   7.780  20.412  0.00  0.00     0.045 A 
ATOM      3  C13 57Q d   1       7.237   8.477  20.317  0.00  0.00    -0.056 A 
ATOM      4  C12 57Q d   1       7.888   8.749  21.553  0.00  0.00    -0.081 A 
ATOM      5  C11 57Q d   1       7.346   8.281  22.732  0.00  0.00    -0.082 A 
ATOM      6  C10 57Q d   1       6.142   7.602  22.817  0.00  0.00    -0.071 A 
ATOM      7  C9  57Q d   1       5.488   7.360  21.634  0.00  0.00    -0.007 A 
ATOM      8  C8  57Q d   1       4.287   6.626  21.440  0.00  0.00    -0.044 A 
ATOM      9  C7  57Q d   1       4.099   6.696  20.055  0.00  0.00     0.046 A 
ATOM     10  H5  57Q d   1       7.652   8.788  19.365  0.00  0.00     0.087 H 
ATOM     11  H6  57Q d   1       8.808   9.323  21.568  0.00  0.00     0.083 H 
ATOM     12  H7  57Q d   1       7.897   8.456  23.649  0.00  0.00     0.083 H 
ATOM     13  H8  57Q d   1       5.737   7.278  23.769  0.00  0.00     0.084 H 
ATOM     14  H9  57Q d   1       3.666   6.131  22.185  0.00  0.00     0.088 H 
ENDROOT
BRANCH   9  15
ATOM     15  C4  57Q d   1       3.053   6.145  19.313  0.00  0.00    -0.009 C 
ATOM     16  C3  57Q d   1       2.136   5.407  19.939  0.00  0.00    -0.071 C 
ATOM     17  C2  57Q d   1       1.047   4.853  19.243  0.00  0.00    -0.082 C 
ATOM     18  H10 57Q d   1       2.232   5.231  21.004  0.00  0.00     0.084 H 
ATOM     19  C1  57Q d   1       0.776   5.042  17.938  0.00  0.00    -0.083 C 
ATOM     20  H11 57Q d   1       0.369   4.221  19.804  0.00  0.00     0.083 H 
ATOM     21  C6  57Q d   1       1.780   5.711  17.251  0.00  0.00    -0.082 C 
ATOM     22  H14 57Q d   1      -0.140   4.704  17.468  0.00  0.00     0.083 H 
ATOM     23  C5  57Q d   1       2.890   6.272  17.925  0.00  0.00    -0.071 C 
ATOM     24  H13 57Q d   1       1.712   5.806  16.173  0.00  0.00     0.083 H 
ATOM     25  H12 57Q d   1       3.635   6.815  17.354  0.00  0.00     0.084 H 
ENDBRANCH   9  15
BRANCH   1  26
ATOM     26  C15 57Q d   1       5.175   7.539  18.021  0.00  0.00     0.009 C 
ATOM     27  H3  57Q d   1       4.164   7.650  17.603  0.00  0.00     0.065 H 
ATOM     28  H4  57Q d   1       5.774   8.428  17.774  0.00  0.00     0.065 H 
BRANCH  26  29
ATOM     29  C16 57Q d   1       5.857   6.245  17.487  0.00  0.00     0.031 C 
ATOM     30  H1  57Q d   1       6.902   6.221  17.831  0.00  0.00     0.051 H 
ATOM     31  H2  57Q d   1       5.322   5.368  17.880  0.00  0.00     0.051 H 
BRANCH  29  32
ATOM     32  C17 57Q d   1       5.834   6.200  15.970  0.00  0.00     0.174 C 
ATOM     33  O1  57Q d   1       5.891   7.215  15.297  0.00  0.00    -0.648 OA
ATOM     34  O2  57Q d   1       5.745   5.044  15.356  0.00  0.00    -0.648 OA
ENDBRANCH  29  32
ENDBRANCH  26  29
ENDBRANCH   1  26
TORSDOF 4
