REMARK  11 active torsions:
REMARK  status: ('A' for Active; 'I' for Inactive)
REMARK       I    between atoms: C9_2  and  N2_3 
REMARK    1  A    between atoms: C9_2  and  O2_7 
REMARK    2  A    between atoms: N2_3  and  C10_4 
REMARK    3  A    between atoms: C10_4  and  C11_5 
REMARK    4  A    between atoms: C10_4  and  C12_6 
REMARK    5  A    between atoms: O2_7  and  C1_8 
REMARK    6  A    between atoms: N1_12  and  C4_19 
REMARK    7  A    between atoms: C5_14  and  C8_15 
REMARK    8  A    between atoms: C5_14  and  O1_16 
REMARK    9  A    between atoms: C4_19  and  C19_20 
REMARK   10  A    between atoms: C22_23  and  O25_24 
REMARK   11  A    between atoms: O25_24  and  C25_25 
ROOT
ATOM      1  C1  94A d   1      28.768  21.609  20.474  0.00  0.00     0.095 C 
ATOM      2  C3  94A d   1      28.557  21.296  19.063  0.00  0.00     0.108 A 
ATOM      3  N5  94A d   1      29.512  20.830  18.178  0.00  0.00    -0.160 NA
ATOM      4  N6  94A d   1      28.779  20.652  17.044  0.00  0.00     0.005 NA
ATOM      5  N1  94A d   1      27.435  20.957  17.195  0.00  0.00    -0.269 N 
ATOM      6  C2  94A d   1      27.339  21.357  18.488  0.00  0.00     0.089 A 
ATOM      7  C5  94A d   1      26.040  21.817  19.059  0.00  0.00     0.100 C 
ATOM      8  C7  94A d   1      26.241  21.758  20.597  0.00  0.00    -0.029 C 
ATOM      9  C6  94A d   1      27.583  22.323  21.069  0.00  0.00    -0.032 C 
ATOM     10  H9  94A d   1      29.669  22.226  20.608  0.00  0.00     0.094 H 
ATOM     11  H14 94A d   1      26.177  20.707  20.915  0.00  0.00     0.038 H 
ATOM     12  H15 94A d   1      25.435  22.335  21.074  0.00  0.00     0.038 H 
ATOM     13  H16 94A d   1      27.635  23.384  20.785  0.00  0.00     0.037 H 
ATOM     14  H17 94A d   1      27.634  22.234  22.164  0.00  0.00     0.037 H 
ENDROOT
BRANCH   5  15
ATOM     15  C4  94A d   1      26.519  20.777  16.072  0.00  0.00     0.037 C 
ATOM     16  H18 94A d   1      27.048  21.026  15.140  0.00  0.00     0.074 H 
ATOM     17  H19 94A d   1      25.663  21.456  16.201  0.00  0.00     0.074 H 
BRANCH  15  18
ATOM     18  C19 94A d   1      25.996  19.333  15.974  0.00  0.00    -0.039 A 
ATOM     19  C20 94A d   1      26.825  18.269  16.224  0.00  0.00    -0.073 A 
ATOM     20  C21 94A d   1      26.289  16.975  16.008  0.00  0.00    -0.050 A 
ATOM     21  H20 94A d   1      27.842  18.411  16.570  0.00  0.00     0.084 H 
ATOM     22  C22 94A d   1      24.948  16.789  15.657  0.00  0.00     0.068 A 
ATOM     23  H21 94A d   1      26.933  16.110  16.117  0.00  0.00     0.087 H 
ATOM     24  C23 94A d   1      24.100  17.840  15.395  0.00  0.00    -0.050 A 
ATOM     25  C24 94A d   1      24.664  19.115  15.584  0.00  0.00    -0.073 A 
ATOM     26  H25 94A d   1      23.076  17.697  15.068  0.00  0.00     0.087 H 
ATOM     27  H26 94A d   1      24.033  19.981  15.419  0.00  0.00     0.084 H 
BRANCH  22  28
ATOM     28  O25 94A d   1      24.325  15.590  15.423  0.00  0.00    -0.356 OA
BRANCH  28  29
ATOM     29  C25 94A d   1      25.166  14.424  15.536  0.00  0.00     0.010 C 
ATOM     30  H22 94A d   1      24.571  13.522  15.330  0.00  0.00     0.066 H 
ATOM     31  H23 94A d   1      25.579  14.367  16.554  0.00  0.00     0.066 H 
ATOM     32  H24 94A d   1      25.989  14.494  14.810  0.00  0.00     0.066 H 
ENDBRANCH  28  29
ENDBRANCH  22  28
ENDBRANCH  15  18
ENDBRANCH   5  15
BRANCH   7  33
ATOM     33  C8  94A d   1      25.712  23.244  18.493  0.00  0.00    -0.042 C 
ATOM     34  H10 94A d   1      24.755  23.592  18.909  0.00  0.00     0.032 H 
ATOM     35  H11 94A d   1      25.640  23.196  17.396  0.00  0.00     0.032 H 
ATOM     36  H12 94A d   1      26.512  23.944  18.777  0.00  0.00     0.032 H 
ENDBRANCH   7  33
BRANCH   7  37
ATOM     37  O1  94A d   1      24.992  20.921  18.695  0.00  0.00    -0.384 OA
ATOM     38  H13 94A d   1      24.171  21.230  19.060  0.00  0.00     0.211 HD
ENDBRANCH   7  37
BRANCH   1  39
ATOM     39  O2  94A d   1      28.943  20.280  21.086  0.00  0.00    -0.292 OA
BRANCH  39  40
ATOM     40  C9  94A d   1      29.833  20.118  22.205  0.00  0.00     0.361 C 
ATOM     41  O3  94A d   1      30.415  21.172  22.562  0.00  0.00    -0.238 OA
ATOM     42  N2  94A d   1      29.885  18.893  22.784  0.00  0.00    -0.333 N 
ATOM     43  H1  94A d   1      29.319  18.165  22.396  0.00  0.00     0.165 HD
BRANCH  42  44
ATOM     44  C10 94A d   1      30.718  18.572  23.941  0.00  0.00     0.007 C 
ATOM     45  H2  94A d   1      31.061  19.525  24.369  0.00  0.00     0.071 H 
BRANCH  44  46
ATOM     46  C11 94A d   1      31.981  17.798  23.501  0.00  0.00    -0.058 C 
ATOM     47  H3  94A d   1      32.595  17.566  24.384  0.00  0.00     0.030 H 
ATOM     48  H4  94A d   1      32.564  18.415  22.801  0.00  0.00     0.030 H 
ATOM     49  H5  94A d   1      31.683  16.863  23.005  0.00  0.00     0.030 H 
ENDBRANCH  44  46
BRANCH  44  50
ATOM     50  C12 94A d   1      29.921  17.866  25.034  0.00  0.00    -0.058 C 
ATOM     51  H6  94A d   1      30.582  17.643  25.884  0.00  0.00     0.030 H 
ATOM     52  H7  94A d   1      29.505  16.928  24.637  0.00  0.00     0.030 H 
ATOM     53  H8  94A d   1      29.101  18.518  25.369  0.00  0.00     0.030 H 
ENDBRANCH  44  50
ENDBRANCH  42  44
ENDBRANCH  39  40
ENDBRANCH   1  39
TORSDOF 11
