REMARK  11 active torsions:
REMARK  status: ('A' for Active; 'I' for Inactive)
REMARK    1  A    between atoms: C10_21  and  O1_1 
REMARK    2  A    between atoms: O4_11  and  C1_2 
REMARK    3  A    between atoms: C2_3  and  O4_11 
REMARK    4  A    between atoms: N1_4  and  C8_27 
REMARK    5  A    between atoms: O2_7  and  C16_13 
REMARK    6  A    between atoms: C13_18  and  O2_7 
REMARK    7  A    between atoms: C8_27  and  C5_8 
REMARK       I    between atoms: C16_13  and  N4_14 
REMARK    8  A    between atoms: N4_14  and  C17_15 
REMARK    9  A    between atoms: C17_15  and  C18_16 
REMARK   10  A    between atoms: C17_15  and  C19_17 
REMARK   11  A    between atoms: C10_21  and  C9_22 
ROOT
ATOM      1  N1  57R d   1      28.521  19.633  18.077  0.00  0.00    -0.269 N 
ATOM      2  C13 57R d   1      28.341  20.599  21.649  0.00  0.00     0.095 C 
ATOM      3  C14 57R d   1      27.495  21.870  21.376  0.00  0.00    -0.032 C 
ATOM      4  C15 57R d   1      26.195  21.421  20.717  0.00  0.00    -0.029 C 
ATOM      5  C10 57R d   1      26.511  20.848  19.322  0.00  0.00     0.100 C 
ATOM      6  C11 57R d   1      27.797  20.256  19.199  0.00  0.00     0.089 A 
ATOM      7  C12 57R d   1      28.689  20.028  20.325  0.00  0.00     0.108 A 
ATOM      8  N3  57R d   1      29.781  19.472  19.922  0.00  0.00    -0.160 NA
ATOM      9  N2  57R d   1      29.758  19.193  18.593  0.00  0.00     0.005 NA
ATOM     10  H17 57R d   1      27.817  19.884  22.300  0.00  0.00     0.094 H 
ATOM     11  H18 57R d   1      28.042  22.548  20.705  0.00  0.00     0.037 H 
ATOM     12  H19 57R d   1      27.277  22.387  22.322  0.00  0.00     0.037 H 
ATOM     13  H20 57R d   1      25.516  22.281  20.617  0.00  0.00     0.038 H 
ATOM     14  H21 57R d   1      25.717  20.646  21.334  0.00  0.00     0.038 H 
ENDROOT
BRANCH   1  15
ATOM     15  C8  57R d   1      28.221  19.602  16.641  0.00  0.00     0.037 C 
ATOM     16  H25 57R d   1      29.155  19.377  16.105  0.00  0.00     0.074 H 
ATOM     17  H26 57R d   1      27.862  20.600  16.349  0.00  0.00     0.074 H 
BRANCH  15  18
ATOM     18  C5  57R d   1      27.202  18.609  16.218  0.00  0.00    -0.039 A 
ATOM     19  C4  57R d   1      26.006  18.990  15.646  0.00  0.00    -0.073 A 
ATOM     20  C3  57R d   1      25.128  17.956  15.298  0.00  0.00    -0.050 A 
ATOM     21  H6  57R d   1      25.759  20.032  15.475  0.00  0.00     0.084 H 
ATOM     22  C2  57R d   1      25.440  16.667  15.489  0.00  0.00     0.068 A 
ATOM     23  H5  57R d   1      24.168  18.206  14.861  0.00  0.00     0.087 H 
ATOM     24  C7  57R d   1      26.654  16.324  16.084  0.00  0.00    -0.050 A 
ATOM     25  C6  57R d   1      27.524  17.327  16.471  0.00  0.00    -0.073 A 
ATOM     26  H8  57R d   1      26.913  15.283  16.241  0.00  0.00     0.087 H 
ATOM     27  H7  57R d   1      28.454  17.084  16.972  0.00  0.00     0.084 H 
BRANCH  22  28
ATOM     28  O4  57R d   1      24.496  15.703  15.175  0.00  0.00    -0.356 OA
BRANCH  28  29
ATOM     29  C1  57R d   1      24.848  14.379  15.290  0.00  0.00     0.010 C 
ATOM     30  H2  57R d   1      23.994  13.747  15.006  0.00  0.00     0.066 H 
ATOM     31  H3  57R d   1      25.133  14.165  16.331  0.00  0.00     0.066 H 
ATOM     32  H4  57R d   1      25.698  14.167  14.625  0.00  0.00     0.066 H 
ENDBRANCH  28  29
ENDBRANCH  22  28
ENDBRANCH  15  18
ENDBRANCH   1  15
BRANCH   5  33
ATOM     33  O1  57R d   1      26.585  21.980  18.394  0.00  0.00    -0.384 OA
ATOM     34  H1  57R d   1      27.271  22.574  18.675  0.00  0.00     0.211 HD
ENDBRANCH   5  33
BRANCH   5  35
ATOM     35  C9  57R d   1      25.310  19.895  18.943  0.00  0.00    -0.042 C 
ATOM     36  H22 57R d   1      25.272  19.053  19.651  0.00  0.00     0.032 H 
ATOM     37  H23 57R d   1      25.455  19.510  17.923  0.00  0.00     0.032 H 
ATOM     38  H24 57R d   1      24.366  20.458  18.992  0.00  0.00     0.032 H 
ENDBRANCH   5  35
BRANCH   2  39
ATOM     39  O2  57R d   1      29.632  21.025  22.201  0.00  0.00    -0.292 OA
BRANCH  39  40
ATOM     40  C16 57R d   1      30.245  19.888  22.909  0.00  0.00     0.361 C 
ATOM     41  O3  57R d   1      29.675  18.771  23.035  0.00  0.00    -0.238 OA
ATOM     42  N4  57R d   1      31.406  20.160  23.407  0.00  0.00    -0.333 N 
ATOM     43  H9  57R d   1      31.767  21.087  23.304  0.00  0.00     0.165 HD
BRANCH  42  44
ATOM     44  C17 57R d   1      32.218  19.161  24.119  0.00  0.00     0.007 C 
ATOM     45  H10 57R d   1      31.583  18.513  24.741  0.00  0.00     0.071 H 
BRANCH  44  46
ATOM     46  C18 57R d   1      32.843  18.361  22.982  0.00  0.00    -0.058 C 
ATOM     47  H11 57R d   1      33.484  17.570  23.399  0.00  0.00     0.030 H 
ATOM     48  H12 57R d   1      33.449  19.030  22.353  0.00  0.00     0.030 H 
ATOM     49  H13 57R d   1      32.048  17.906  22.374  0.00  0.00     0.030 H 
ENDBRANCH  44  46
BRANCH  44  50
ATOM     50  C19 57R d   1      33.263  19.833  25.012  0.00  0.00    -0.058 C 
ATOM     51  H14 57R d   1      33.853  19.062  25.530  0.00  0.00     0.030 H 
ATOM     52  H15 57R d   1      32.757  20.468  25.754  0.00  0.00     0.030 H 
ATOM     53  H16 57R d   1      33.930  20.452  24.394  0.00  0.00     0.030 H 
ENDBRANCH  44  50
ENDBRANCH  42  44
ENDBRANCH  39  40
ENDBRANCH   2  39
TORSDOF 11
