REMARK  6 active torsions:
REMARK  status: ('A' for Active; 'I' for Inactive)
REMARK    1  A    between atoms: N13_15  and  C8_1 
REMARK    2  A    between atoms: C6_2  and  C5_3 
REMARK    3  A    between atoms: C10_8  and  C11_10 
REMARK       I    between atoms: C14_9  and  N15_12 
REMARK       I    between atoms: C14_9  and  N13_15 
REMARK    4  A    between atoms: C11_10  and  O12_18 
REMARK    5  A    between atoms: N15_12  and  C16_13 
REMARK    6  A    between atoms: C16_13  and  C17_14 
ROOT
ATOM      1  C8  57U d   1      -7.267   5.027   0.399  0.00  0.00     0.175 A 
ATOM      2  C6  57U d   1      -5.283   3.727   1.162  0.00  0.00     0.062 A 
ATOM      3  C10 57U d   1      -6.108   3.038   0.129  0.00  0.00     0.080 A 
ATOM      4  S7  57U d   1      -5.990   5.249   1.542  0.00  0.00    -0.048 SA
ATOM      5  N9  57U d   1      -7.193   3.817  -0.230  0.00  0.00    -0.225 NA
ENDROOT
BRANCH   1   6
ATOM      6  N13 57U d   1      -8.356   5.880   0.208  0.00  0.00    -0.287 N 
ATOM      7  C14 57U d   1      -8.736   6.842   1.096  0.00  0.00     0.322 C 
ATOM      8  O18 57U d   1      -8.090   7.171   2.101  0.00  0.00    -0.247 OA
ATOM      9  N15 57U d   1      -9.880   7.471   0.847  0.00  0.00    -0.343 N 
ATOM     10  H7  57U d   1     -10.389   7.138   0.053  0.00  0.00     0.164 HD
ATOM     11  H13 57U d   1      -8.890   5.779  -0.632  0.00  0.00     0.172 HD
BRANCH   9  12
ATOM     12  C16 57U d   1     -10.498   8.576   1.566  0.00  0.00    -0.006 C 
ATOM     13  H8  57U d   1     -10.221   9.529   1.091  0.00  0.00     0.063 H 
ATOM     14  H9  57U d   1     -10.157   8.575   2.612  0.00  0.00     0.063 H 
BRANCH  12  15
ATOM     15  C17 57U d   1     -11.998   8.401   1.519  0.00  0.00    -0.061 C 
ATOM     16  H10 57U d   1     -12.481   9.229   2.059  0.00  0.00     0.029 H 
ATOM     17  H11 57U d   1     -12.271   7.446   1.992  0.00  0.00     0.029 H 
ATOM     18  H12 57U d   1     -12.335   8.400   0.472  0.00  0.00     0.029 H 
ENDBRANCH  12  15
ENDBRANCH   9  12
ENDBRANCH   1   6
BRANCH   2  19
ATOM     19  C5  57U d   1      -4.038   3.224   1.824  0.00  0.00     0.051 A 
ATOM     20  C4  57U d   1      -3.496   3.854   2.936  0.00  0.00    -0.054 A 
ATOM     21  C3  57U d   1      -2.390   3.087   3.241  0.00  0.00    -0.066 A 
ATOM     22  H1  57U d   1      -3.858   4.744   3.447  0.00  0.00     0.087 H 
ATOM     23  C2  57U d   1      -2.320   2.033   2.321  0.00  0.00    -0.022 A 
ATOM     24  H2  57U d   1      -1.692   3.270   4.056  0.00  0.00     0.085 H 
ATOM     25  N1  57U d   1      -3.359   2.122   1.462  0.00  0.00    -0.365 N 
ATOM     26  H3  57U d   1      -1.550   1.263   2.301  0.00  0.00     0.111 H 
ATOM     27  H4  57U d   1      -3.584   1.479   0.690  0.00  0.00     0.165 HD
ENDBRANCH   2  19
BRANCH   3  28
ATOM     28  C11 57U d   1      -5.836   1.685  -0.465  0.00  0.00     0.058 C 
ATOM     29  H5  57U d   1      -6.628   1.438  -1.187  0.00  0.00     0.083 H 
ATOM     30  H6  57U d   1      -5.822   0.931   0.336  0.00  0.00     0.083 H 
BRANCH  28  31
ATOM     31  O12 57U d   1      -4.574   1.690  -1.131  0.00  0.00    -0.395 OA
ATOM     32  H14 57U d   1      -4.585   2.340  -1.824  0.00  0.00     0.209 HD
ENDBRANCH  28  31
ENDBRANCH   3  28
TORSDOF 6
