REMARK  6 active torsions:
REMARK  status: ('A' for Active; 'I' for Inactive)
REMARK    1  A    between atoms: C2_9  and  C1_2 
REMARK    2  A    between atoms: C7_4  and  C8_3 
REMARK    3  A    between atoms: C5_6  and  C6_5 
REMARK    4  A    between atoms: N2_14  and  C4_7 
REMARK       I    between atoms: N1_10  and  C3_8 
REMARK       I    between atoms: C3_8  and  N2_14 
REMARK    5  A    between atoms: C2_9  and  N1_10 
REMARK    6  A    between atoms: C13_15  and  C14_13 
ROOT
ATOM      1  C5  57V d   1     -11.517 -18.564 -31.436  0.00  0.00     0.079 A 
ATOM      2  C4  57V d   1     -13.647 -17.730 -31.434  0.00  0.00     0.175 A 
ATOM      3  C13 57V d   1     -11.362 -17.530 -30.391  0.00  0.00     0.064 A 
ATOM      4  S   57V d   1     -12.933 -16.785 -30.197  0.00  0.00    -0.047 SA
ATOM      5  N3  57V d   1     -12.814 -18.668 -32.004  0.00  0.00    -0.223 NA
ENDROOT
BRANCH   1   6
ATOM      6  C6  57V d   1     -10.405 -19.455 -31.863  0.00  0.00    -0.053 C 
ATOM      7  C7  57V d   1     -10.639 -20.561 -32.586  0.00  0.00    -0.069 C 
ATOM      8  H4  57V d   1     -11.636 -20.823 -32.937  0.00  0.00     0.085 H 
ATOM      9  H5  57V d   1      -9.383 -19.205 -31.584  0.00  0.00     0.087 H 
BRANCH   7  10
ATOM     10  C8  57V d   1      -9.404 -21.441 -32.890  0.00  0.00    -0.019 A 
ATOM     11  C9  57V d   1      -8.076 -20.989 -32.732  0.00  0.00    -0.070 A 
ATOM     12  C10 57V d   1      -7.043 -21.918 -32.989  0.00  0.00    -0.065 A 
ATOM     13  H9  57V d   1      -7.858 -19.972 -32.426  0.00  0.00     0.084 H 
ATOM     14  C11 57V d   1      -7.414 -23.188 -33.409  0.00  0.00     0.002 A 
ATOM     15  H10 57V d   1      -6.000 -21.649 -32.863  0.00  0.00     0.085 H 
ATOM     16  N4  57V d   1      -8.680 -23.572 -33.577  0.00  0.00    -0.272 NA
ATOM     17  H13 57V d   1      -6.630 -23.909 -33.612  0.00  0.00     0.114 H 
ATOM     18  C12 57V d   1      -9.651 -22.741 -33.276  0.00  0.00     0.012 A 
ATOM     19  H12 57V d   1     -10.677 -23.087 -33.333  0.00  0.00     0.116 H 
ENDBRANCH   7  10
ENDBRANCH   1   6
BRANCH   3  20
ATOM     20  C14 57V d   1     -10.173 -17.236 -29.580  0.00  0.00     0.051 A 
ATOM     21  N5  57V d   1      -9.926 -16.004 -29.115  0.00  0.00    -0.365 N 
ATOM     22  C17 57V d   1      -8.760 -16.095 -28.399  0.00  0.00    -0.022 A 
ATOM     23  H14 57V d   1     -10.496 -15.160 -29.265  0.00  0.00     0.165 HD
ATOM     24  C16 57V d   1      -8.337 -17.389 -28.379  0.00  0.00    -0.066 A 
ATOM     25  H15 57V d   1      -8.251 -15.260 -27.920  0.00  0.00     0.111 H 
ATOM     26  C15 57V d   1      -9.262 -18.146 -29.069  0.00  0.00    -0.054 A 
ATOM     27  H16 57V d   1      -7.431 -17.760 -27.903  0.00  0.00     0.085 H 
ATOM     28  H17 57V d   1      -9.273 -19.229 -29.187  0.00  0.00     0.087 H 
ENDBRANCH   3  20
BRANCH   2  29
ATOM     29  N2  57V d   1     -14.956 -17.660 -31.873  0.00  0.00    -0.287 N 
ATOM     30  C3  57V d   1     -15.821 -16.821 -31.230  0.00  0.00     0.322 C 
ATOM     31  O   57V d   1     -15.523 -16.207 -30.215  0.00  0.00    -0.247 OA
ATOM     32  N1  57V d   1     -16.933 -16.601 -31.845  0.00  0.00    -0.343 N 
ATOM     33  H8  57V d   1     -17.114 -17.117 -32.682  0.00  0.00     0.164 HD
ATOM     34  H11 57V d   1     -15.264 -18.213 -32.647  0.00  0.00     0.172 HD
BRANCH  32  35
ATOM     35  C2  57V d   1     -17.972 -15.622 -31.387  0.00  0.00    -0.006 C 
ATOM     36  H6  57V d   1     -17.679 -15.218 -30.407  0.00  0.00     0.063 H 
ATOM     37  H7  57V d   1     -18.040 -14.801 -32.116  0.00  0.00     0.063 H 
BRANCH  35  38
ATOM     38  C1  57V d   1     -19.363 -16.309 -31.261  0.00  0.00    -0.061 C 
ATOM     39  H1  57V d   1     -20.107 -15.572 -30.924  0.00  0.00     0.029 H 
ATOM     40  H2  57V d   1     -19.302 -17.129 -30.530  0.00  0.00     0.029 H 
ATOM     41  H3  57V d   1     -19.663 -16.712 -32.240  0.00  0.00     0.029 H 
ENDBRANCH  35  38
ENDBRANCH  32  35
ENDBRANCH   2  29
TORSDOF 6
