REMARK WARNING: 32 MAX_TORS EXCEEDED!!!
REMARK  48 active torsions:
REMARK  status: ('A' for Active; 'I' for Inactive)
REMARK    1  A    between atoms: N_1  and  CA_2 
REMARK    2  A    between atoms: CA_2  and  C_3 
REMARK    3  A    between atoms: CA_2  and  CB_5 
REMARK       I    between atoms: C_3  and  N_10 
REMARK    4  A    between atoms: CB_5  and  CG_6 
REMARK    5  A    between atoms: CG_6  and  CD_7 
REMARK       I    between atoms: CD_7  and  NE2_9 
REMARK    6  A    between atoms: N_10  and  CA_11 
REMARK    7  A    between atoms: CA_11  and  C_12 
REMARK    8  A    between atoms: CA_11  and  CB_14 
REMARK       I    between atoms: C_12  and  N_18 
REMARK    9  A    between atoms: CB_14  and  CG_15 
REMARK   10  A    between atoms: CG_15  and  CD1_16 
REMARK   11  A    between atoms: CG_15  and  CD2_17 
REMARK   12  A    between atoms: N_18  and  CA_19 
REMARK   13  A    between atoms: CA_19  and  C_20 
REMARK   14  A    between atoms: CA_19  and  CB_22 
REMARK       I    between atoms: C_20  and  N_23 
REMARK   15  A    between atoms: N_23  and  CA_24 
REMARK   16  A    between atoms: CA_24  and  C_25 
REMARK   17  A    between atoms: CA_24  and  CB_27 
REMARK       I    between atoms: C_25  and  N_30 
REMARK   18  A    between atoms: CB_27  and  OG1_28 
REMARK   19  A    between atoms: CB_27  and  CG2_29 
REMARK   20  A    between atoms: N_30  and  CA_31 
REMARK   21  A    between atoms: CA_31  and  CB_32 
REMARK   22  A    between atoms: CA_31  and  C_37 
REMARK   23  A    between atoms: CB_32  and  CG_33 
REMARK   24  A    between atoms: CG_33  and  CD_34 
REMARK   25  A    between atoms: CD_34  and  CE_35 
REMARK   26  A    between atoms: CE_35  and  NZ_36 
REMARK   27  A    between atoms: NZ_36  and  CM1_39 
REMARK   28  A    between atoms: NZ_36  and  CM2_40 
REMARK   29  A    between atoms: NZ_36  and  CM3_41 
REMARK       I    between atoms: C_37  and  N_42 
REMARK   30  A    between atoms: N_42  and  CA_43 
REMARK   31  A    between atoms: CA_43  and  C_44 
REMARK   32  A    between atoms: CA_43  and  CB_46 
REMARK       I    between atoms: C_44  and  N_47 
REMARK   33  A    between atoms: N_47  and  CA_48 
REMARK   34  A    between atoms: CA_48  and  C_49 
REMARK   35  A    between atoms: CA_48  and  CB_51 
REMARK       I    between atoms: C_49  and  N_52 
REMARK   36  A    between atoms: N_52  and  CA_53 
REMARK   37  A    between atoms: CA_53  and  C_54 
REMARK   38  A    between atoms: CA_53  and  CB_56 
REMARK       I    between atoms: C_54  and  N_63 
REMARK   39  A    between atoms: CB_56  and  CG_57 
REMARK   40  A    between atoms: CG_57  and  CD_58 
REMARK   41  A    between atoms: CD_58  and  NE_59 
REMARK       I    between atoms: NE_59  and  CZ_60 
REMARK       I    between atoms: CZ_60  and  NH1_61 
REMARK   42  A    between atoms: N_63  and  CA_64 
REMARK   43  A    between atoms: CA_64  and  C_65 
REMARK   44  A    between atoms: CA_64  and  CB_67 
REMARK   45  A    between atoms: CB_67  and  CG_68 
REMARK   46  A    between atoms: CG_68  and  CD_69 
REMARK   47  A    between atoms: CD_69  and  CE_70 
REMARK   48  A    between atoms: CE_70  and  NZ_71 
ROOT
ATOM      1  CA  M3L d   1      44.102 -44.947 -18.537  0.00  0.00     0.089 C 
ATOM      2  H35 M3L d   1      43.212 -45.267 -17.975  0.00  0.00     0.087 H 
ENDROOT
BRANCH   1   3
ATOM      3  N   M3L d   1      44.420 -43.660 -17.987  0.00  0.00    -0.346 N 
ATOM      4  C   THR d   1      43.564 -43.032 -17.178  0.00  0.00     0.243 C 
ATOM      5  O   THR d   1      42.423 -43.441 -16.972  0.00  0.00    -0.271 OA
ATOM      6  H34 M3L d   1      45.294 -43.229 -18.213  0.00  0.00     0.163 HD
BRANCH   4   7
ATOM      7  CA  THR d   1      44.048 -41.736 -16.504  0.00  0.00     0.113 C 
ATOM      8  H28 THR d   1      44.637 -41.158 -17.231  0.00  0.00     0.091 H 
BRANCH   7   9
ATOM      9  N   THR d   1      42.896 -40.935 -16.096  0.00  0.00    -0.344 N 
ATOM     10  C   ALA d   1      42.769 -39.650 -16.427  0.00  0.00     0.240 C 
ATOM     11  O   ALA d   1      43.633 -39.019 -17.054  0.00  0.00    -0.271 OA
ATOM     12  H27 THR d   1      42.178 -41.366 -15.549  0.00  0.00     0.163 HD
BRANCH  10  13
ATOM     13  CA  ALA d   1      41.489 -38.967 -15.948  0.00  0.00     0.086 C 
ATOM     14  H23 ALA d   1      41.167 -39.455 -15.016  0.00  0.00     0.086 H 
BRANCH  13  15
ATOM     15  N   ALA d   1      41.730 -37.556 -15.664  0.00  0.00    -0.346 N 
ATOM     16  C   LEU d   1      42.544 -37.164 -14.693  0.00  0.00     0.241 C 
ATOM     17  O   LEU d   1      43.083 -37.953 -13.928  0.00  0.00    -0.271 OA
ATOM     18  H22 ALA d   1      41.267 -36.864 -16.218  0.00  0.00     0.163 HD
BRANCH  16  19
ATOM     19  CA  LEU d   1      42.798 -35.651 -14.591  0.00  0.00     0.089 C 
ATOM     20  H12 LEU d   1      41.860 -35.124 -14.818  0.00  0.00     0.087 H 
BRANCH  19  21
ATOM     21  N   LEU d   1      43.219 -35.275 -13.245  0.00  0.00    -0.346 N 
ATOM     22  C   GLN d   1      42.407 -35.346 -12.200  0.00  0.00     0.249 C 
ATOM     23  O   GLN d   1      41.243 -35.723 -12.274  0.00  0.00    -0.271 OA
ATOM     24  H11 LEU d   1      44.155 -34.952 -13.106  0.00  0.00     0.163 HD
BRANCH  22  25
ATOM     25  CA  GLN d   1      43.019 -34.997 -10.862  0.00  0.00     0.176 C 
ATOM     26  H4  GLN d   1      43.730 -34.170 -11.008  0.00  0.00     0.099 H 
BRANCH  25  27
ATOM     27  N   GLN d   1      42.014 -34.573  -9.892  0.00  0.00    -0.066 N 
ATOM     28  H1  GLN d   1      42.464 -34.351  -9.018  0.00  0.00     0.275 HD
ATOM     29  H2  GLN d   1      41.350 -35.318  -9.749  0.00  0.00     0.275 HD
ATOM     30  H3  GLN d   1      41.534 -33.758 -10.240  0.00  0.00     0.275 HD
ENDBRANCH  25  27
BRANCH  25  31
ATOM     31  CB  GLN d   1      43.775 -36.213 -10.332  0.00  0.00    -0.022 C 
ATOM     32  H5  GLN d   1      44.374 -36.633 -11.154  0.00  0.00     0.037 H 
ATOM     33  H6  GLN d   1      43.039 -36.958  -9.997  0.00  0.00     0.037 H 
BRANCH  31  34
ATOM     34  CG  GLN d   1      44.702 -35.908  -9.177  0.00  0.00     0.011 C 
ATOM     35  H7  GLN d   1      44.922 -34.830  -9.170  0.00  0.00     0.047 H 
ATOM     36  H8  GLN d   1      45.637 -36.472  -9.310  0.00  0.00     0.047 H 
BRANCH  34  37
ATOM     37  CD  GLN d   1      44.078 -36.293  -7.849  0.00  0.00     0.215 C 
ATOM     38  OE1 GLN d   1      42.850 -36.275  -7.708  0.00  0.00    -0.274 OA
ATOM     39  NE2 GLN d   1      44.913 -36.670  -6.875  0.00  0.00    -0.370 N 
ATOM     40  H9  GLN d   1      44.551 -36.934  -5.981  0.00  0.00     0.159 HD
ATOM     41  H10 GLN d   1      45.899 -36.688  -7.041  0.00  0.00     0.159 HD
ENDBRANCH  34  37
ENDBRANCH  31  34
ENDBRANCH  25  31
ENDBRANCH  22  25
ENDBRANCH  19  21
BRANCH  19  42
ATOM     42  CB  LEU d   1      43.862 -35.235 -15.635  0.00  0.00    -0.035 C 
ATOM     43  H13 LEU d   1      43.444 -35.497 -16.618  0.00  0.00     0.037 H 
ATOM     44  H14 LEU d   1      44.746 -35.858 -15.435  0.00  0.00     0.037 H 
BRANCH  42  45
ATOM     45  CG  LEU d   1      44.378 -33.791 -15.762  0.00  0.00    -0.059 C 
ATOM     46  H15 LEU d   1      44.356 -33.322 -14.767  0.00  0.00     0.038 H 
BRANCH  45  47
ATOM     47  CD1 LEU d   1      45.811 -33.844 -16.257  0.00  0.00    -0.073 C 
ATOM     48  H16 LEU d   1      46.203 -32.821 -16.356  0.00  0.00     0.028 H 
ATOM     49  H17 LEU d   1      45.843 -34.345 -17.236  0.00  0.00     0.028 H 
ATOM     50  H18 LEU d   1      46.427 -34.404 -15.538  0.00  0.00     0.028 H 
ENDBRANCH  45  47
BRANCH  45  51
ATOM     51  CD2 LEU d   1      43.537 -32.945 -16.706  0.00  0.00    -0.073 C 
ATOM     52  H19 LEU d   1      42.500 -32.910 -16.342  0.00  0.00     0.028 H 
ATOM     53  H20 LEU d   1      43.558 -33.388 -17.712  0.00  0.00     0.028 H 
ATOM     54  H21 LEU d   1      43.946 -31.924 -16.746  0.00  0.00     0.028 H 
ENDBRANCH  45  51
ENDBRANCH  42  45
ENDBRANCH  19  42
ENDBRANCH  16  19
ENDBRANCH  13  15
BRANCH  13  55
ATOM     55  CB  ALA d   1      40.374 -39.129 -16.983  0.00  0.00    -0.049 C 
ATOM     56  H24 ALA d   1      40.210 -40.199 -17.181  0.00  0.00     0.030 H 
ATOM     57  H25 ALA d   1      40.664 -38.624 -17.916  0.00  0.00     0.030 H 
ATOM     58  H26 ALA d   1      39.447 -38.681 -16.596  0.00  0.00     0.030 H 
ENDBRANCH  13  55
ENDBRANCH  10  13
ENDBRANCH   7   9
BRANCH   7  59
ATOM     59  CB  THR d   1      44.953 -42.067 -15.291  0.00  0.00     0.060 C 
ATOM     60  H29 THR d   1      45.712 -42.804 -15.593  0.00  0.00     0.086 H 
BRANCH  59  61
ATOM     61  OG1 THR d   1      44.130 -42.610 -14.252  0.00  0.00    -0.393 OA
ATOM     62  H30 THR d   1      44.670 -42.819 -13.499  0.00  0.00     0.210 HD
ENDBRANCH  59  61
BRANCH  59  63
ATOM     63  CG2 THR d   1      45.654 -40.806 -14.749  0.00  0.00    -0.050 C 
ATOM     64  H31 THR d   1      46.286 -41.078 -13.891  0.00  0.00     0.031 H 
ATOM     65  H32 THR d   1      44.897 -40.075 -14.429  0.00  0.00     0.031 H 
ATOM     66  H33 THR d   1      46.279 -40.365 -15.540  0.00  0.00     0.031 H 
ENDBRANCH  59  63
ENDBRANCH   7  59
ENDBRANCH   4   7
ENDBRANCH   1   3
BRANCH   1  67
ATOM     67  CB  M3L d   1      43.713 -45.037 -20.021  0.00  0.00    -0.038 C 
ATOM     68  H36 M3L d   1      42.704 -44.614 -20.136  0.00  0.00     0.036 H 
ATOM     69  H37 M3L d   1      43.699 -46.099 -20.306  0.00  0.00     0.036 H 
BRANCH  67  70
ATOM     70  CG  M3L d   1      44.632 -44.313 -20.964  0.00  0.00    -0.061 C 
ATOM     71  H38 M3L d   1      45.558 -44.885 -21.127  0.00  0.00     0.033 H 
ATOM     72  H39 M3L d   1      44.882 -43.313 -20.580  0.00  0.00     0.033 H 
BRANCH  70  73
ATOM     73  CD  M3L d   1      43.823 -44.216 -22.241  0.00  0.00    -0.042 C 
ATOM     74  H40 M3L d   1      43.056 -43.435 -22.134  0.00  0.00     0.035 H 
ATOM     75  H41 M3L d   1      43.337 -45.182 -22.445  0.00  0.00     0.035 H 
BRANCH  73  76
ATOM     76  CE  M3L d   1      44.757 -43.861 -23.390  0.00  0.00     0.084 C 
ATOM     77  H42 M3L d   1      45.370 -44.747 -23.612  0.00  0.00     0.076 H 
ATOM     78  H43 M3L d   1      45.407 -43.040 -23.054  0.00  0.00     0.076 H 
BRANCH  76  79
ATOM     79  NZ  M3L d   1      44.092 -43.427 -24.673  0.00  0.00    -0.079 N 
BRANCH  79  80
ATOM     80  CM1 M3L d   1      43.514 -44.578 -25.427  0.00  0.00     0.067 C 
ATOM     81  H44 M3L d   1      43.042 -44.212 -26.351  0.00  0.00     0.068 H 
ATOM     82  H45 M3L d   1      42.760 -45.082 -24.805  0.00  0.00     0.068 H 
ATOM     83  H46 M3L d   1      44.314 -45.289 -25.681  0.00  0.00     0.068 H 
ENDBRANCH  79  80
BRANCH  79  84
ATOM     84  CM2 M3L d   1      45.093 -42.727 -25.523  0.00  0.00     0.067 C 
ATOM     85  H47 M3L d   1      45.518 -41.879 -24.966  0.00  0.00     0.068 H 
ATOM     86  H48 M3L d   1      44.604 -42.358 -26.436  0.00  0.00     0.068 H 
ATOM     87  H49 M3L d   1      45.897 -43.427 -25.795  0.00  0.00     0.068 H 
ENDBRANCH  79  84
BRANCH  79  88
ATOM     88  CM3 M3L d   1      42.974 -42.477 -24.371  0.00  0.00     0.067 C 
ATOM     89  H50 M3L d   1      42.225 -42.980 -23.742  0.00  0.00     0.068 H 
ATOM     90  H51 M3L d   1      42.505 -42.152 -25.311  0.00  0.00     0.068 H 
ATOM     91  H52 M3L d   1      43.371 -41.601 -23.837  0.00  0.00     0.068 H 
ENDBRANCH  79  88
ENDBRANCH  76  79
ENDBRANCH  73  76
ENDBRANCH  70  73
ENDBRANCH  67  70
ENDBRANCH   1  67
BRANCH   1  92
ATOM     92  C   M3L d   1      45.154 -46.006 -18.317  0.00  0.00     0.241 C 
ATOM     93  O   M3L d   1      46.299 -45.787 -17.961  0.00  0.00    -0.271 OA
ATOM     94  N   ALA d   1      44.707 -47.232 -18.555  0.00  0.00    -0.346 N 
ATOM     95  H53 ALA d   1      43.800 -47.339 -18.962  0.00  0.00     0.163 HD
BRANCH  94  96
ATOM     96  CA  ALA d   1      45.477 -48.427 -18.251  0.00  0.00     0.086 C 
ATOM     97  H54 ALA d   1      46.520 -48.270 -18.563  0.00  0.00     0.086 H 
BRANCH  96  98
ATOM     98  C   ALA d   1      44.893 -49.589 -19.036  0.00  0.00     0.240 C 
ATOM     99  O   ALA d   1      43.754 -49.511 -19.517  0.00  0.00    -0.271 OA
ATOM    100  N   ALA d   1      45.686 -50.644 -19.204  0.00  0.00    -0.346 N 
ATOM    101  H58 ALA d   1      46.636 -50.594 -18.895  0.00  0.00     0.163 HD
BRANCH 100 102
ATOM    102  CA  ALA d   1      45.207 -51.863 -19.824  0.00  0.00     0.086 C 
ATOM    103  H59 ALA d   1      44.571 -51.593 -20.680  0.00  0.00     0.086 H 
BRANCH 102 104
ATOM    104  C   ALA d   1      44.361 -52.656 -18.821  0.00  0.00     0.240 C 
ATOM    105  O   ALA d   1      44.593 -52.590 -17.607  0.00  0.00    -0.271 OA
ATOM    106  N   ARG d   1      43.363 -53.378 -19.328  0.00  0.00    -0.346 N 
ATOM    107  H63 ARG d   1      43.193 -53.340 -20.313  0.00  0.00     0.163 HD
BRANCH 106 108
ATOM    108  CA  ARG d   1      42.503 -54.229 -18.494  0.00  0.00     0.089 C 
ATOM    109  H64 ARG d   1      42.602 -53.897 -17.450  0.00  0.00     0.087 H 
BRANCH 108 110
ATOM    110  C   ARG d   1      42.970 -55.696 -18.574  0.00  0.00     0.241 C 
ATOM    111  O   ARG d   1      44.045 -55.977 -19.125  0.00  0.00    -0.271 OA
ATOM    112  N   LYS d   1      42.162 -56.609 -18.022  0.00  0.00    -0.345 N 
ATOM    113  H76 LYS d   1      41.291 -56.289 -17.649  0.00  0.00     0.163 HD
BRANCH 112 114
ATOM    114  CA  LYS d   1      42.458 -58.050 -17.921  0.00  0.00     0.096 C 
ATOM    115  H77 LYS d   1      41.627 -58.522 -17.376  0.00  0.00     0.089 H 
BRANCH 114 116
ATOM    116  C   LYS d   1      43.745 -58.327 -17.141  0.00  0.00     0.196 C 
ATOM    117  O   LYS d   1      43.855 -59.339 -16.434  0.00  0.00    -0.646 OA
ATOM    118  OXT LYS d   1      44.705 -57.545 -17.200  0.00  0.00    -0.646 OA
ENDBRANCH 114 116
BRANCH 114 119
ATOM    119  CB  LYS d   1      42.542 -58.696 -19.314  0.00  0.00    -0.037 C 
ATOM    120  H78 LYS d   1      43.236 -58.102 -19.927  0.00  0.00     0.036 H 
ATOM    121  H79 LYS d   1      41.539 -58.670 -19.766  0.00  0.00     0.036 H 
BRANCH 119 122
ATOM    122  CG  LYS d   1      43.030 -60.153 -19.314  0.00  0.00    -0.061 C 
ATOM    123  H80 LYS d   1      42.173 -60.815 -19.124  0.00  0.00     0.033 H 
ATOM    124  H81 LYS d   1      43.775 -60.279 -18.515  0.00  0.00     0.033 H 
BRANCH 122 125
ATOM    125  CD  LYS d   1      43.663 -60.538 -20.640  0.00  0.00    -0.043 C 
ATOM    126  H82 LYS d   1      42.907 -60.453 -21.434  0.00  0.00     0.035 H 
ATOM    127  H83 LYS d   1      44.015 -61.578 -20.578  0.00  0.00     0.035 H 
BRANCH 125 128
ATOM    128  CE  LYS d   1      44.840 -59.639 -20.983  0.00  0.00     0.080 C 
ATOM    129  H84 LYS d   1      44.503 -58.592 -20.965  0.00  0.00     0.075 H 
ATOM    130  H85 LYS d   1      45.196 -59.892 -21.993  0.00  0.00     0.075 H 
BRANCH 128 131
ATOM    131  NZ  LYS d   1      45.969 -59.795 -20.024  0.00  0.00    -0.079 N 
ATOM    132  H86 LYS d   1      46.723 -59.182 -20.291  0.00  0.00     0.274 HD
ATOM    133  H87 LYS d   1      46.291 -60.750 -20.037  0.00  0.00     0.274 HD
ATOM    134  H88 LYS d   1      45.656 -59.559 -19.095  0.00  0.00     0.274 HD
ENDBRANCH 128 131
ENDBRANCH 125 128
ENDBRANCH 122 125
ENDBRANCH 119 122
ENDBRANCH 114 119
ENDBRANCH 112 114
ENDBRANCH 108 110
BRANCH 108 135
ATOM    135  CB  ARG d   1      41.018 -54.083 -18.899  0.00  0.00    -0.036 C 
ATOM    136  H65 ARG d   1      40.610 -53.198 -18.390  0.00  0.00     0.036 H 
ATOM    137  H66 ARG d   1      40.481 -54.981 -18.560  0.00  0.00     0.036 H 
BRANCH 135 138
ATOM    138  CG  ARG d   1      40.774 -53.922 -20.401  0.00  0.00    -0.048 C 
ATOM    139  H67 ARG d   1      40.764 -54.921 -20.861  0.00  0.00     0.035 H 
ATOM    140  H68 ARG d   1      41.599 -53.331 -20.826  0.00  0.00     0.035 H 
BRANCH 138 141
ATOM    141  CD  ARG d   1      39.449 -53.219 -20.735  0.00  0.00     0.009 C 
ATOM    142  H69 ARG d   1      39.454 -52.209 -20.300  0.00  0.00     0.064 H 
ATOM    143  H70 ARG d   1      38.614 -53.796 -20.311  0.00  0.00     0.064 H 
BRANCH 141 144
ATOM    144  NE  ARG d   1      39.282 -53.121 -22.186  0.00  0.00    -0.227 N 
ATOM    145  CZ  ARG d   1      38.391 -53.818 -22.892  0.00  0.00     0.665 C 
ATOM    146  NH1 ARG d   1      37.540 -54.639 -22.279  0.00  0.00    -0.235 N 
ATOM    147  NH2 ARG d   1      38.330 -53.678 -24.215  0.00  0.00    -0.235 N 
ATOM    148  H72 ARG d   1      36.854 -55.175 -22.830  0.00  0.00     0.174 HD
ATOM    149  H73 ARG d   1      37.568 -54.738 -21.254  0.00  0.00     0.174 HD
ATOM    150  H74 ARG d   1      38.984 -53.045 -24.697  0.00  0.00     0.174 HD
ATOM    151  H75 ARG d   1      37.628 -54.203 -24.757  0.00  0.00     0.174 HD
ATOM    152  H71 ARG d   1      39.895 -52.469 -22.697  0.00  0.00     0.177 HD
ENDBRANCH 141 144
ENDBRANCH 138 141
ENDBRANCH 135 138
ENDBRANCH 108 135
ENDBRANCH 106 108
ENDBRANCH 102 104
BRANCH 102 153
ATOM    153  CB  ALA d   1      46.375 -52.701 -20.341  0.00  0.00    -0.049 C 
ATOM    154  H60 ALA d   1      45.989 -53.620 -20.807  0.00  0.00     0.030 H 
ATOM    155  H61 ALA d   1      47.036 -52.965 -19.503  0.00  0.00     0.030 H 
ATOM    156  H62 ALA d   1      46.940 -52.122 -21.086  0.00  0.00     0.030 H 
ENDBRANCH 102 153
ENDBRANCH 100 102
ENDBRANCH  96  98
BRANCH  96 157
ATOM    157  CB  ALA d   1      45.457 -48.724 -16.748  0.00  0.00    -0.049 C 
ATOM    158  H55 ALA d   1      46.046 -49.631 -16.546  0.00  0.00     0.030 H 
ATOM    159  H56 ALA d   1      44.419 -48.880 -16.419  0.00  0.00     0.030 H 
ATOM    160  H57 ALA d   1      45.892 -47.875 -16.201  0.00  0.00     0.030 H 
ENDBRANCH  96 157
ENDBRANCH  94  96
ENDBRANCH   1  92
TORSDOF 48
