REMARK  18 active torsions:
REMARK  status: ('A' for Active; 'I' for Inactive)
REMARK    1  A    between atoms: C10_9  and  O6_51 
REMARK    2  A    between atoms: C11_10  and  C35_34 
REMARK    3  A    between atoms: C13_12  and  O7_52 
REMARK    4  A    between atoms: C15_14  and  O8_53 
REMARK    5  A    between atoms: C17_16  and  C36_35 
REMARK    6  A    between atoms: C19_18  and  C37_36 
REMARK    7  A    between atoms: C21_20  and  C38_37 
REMARK    8  A    between atoms: C24_23  and  O10_55 
REMARK    9  A    between atoms: C25_24  and  C41_40 
REMARK   10  A    between atoms: C26_25  and  C27_26 
REMARK   11  A    between atoms: C27_26  and  C42_41 
REMARK   12  A    between atoms: C28_27  and  C29_28 
REMARK   13  A    between atoms: C31_30  and  O11_56 
REMARK   14  A    between atoms: C32_31  and  O12_57 
REMARK   15  A    between atoms: C38_37  and  C39_38 
REMARK   16  A    between atoms: O7_52  and  C43_42 
REMARK   17  A    between atoms: O8_53  and  C44_43 
REMARK   18  A    between atoms: O11_56  and  C45_44 
ROOT
ATOM      1  C1  FK5 d   1       6.883 -23.674  -2.082  0.00  0.00     0.282 C 
ATOM      2  C2  FK5 d   1       5.752 -23.053  -1.328  0.00  0.00     0.099 C 
ATOM      3  C3  FK5 d   1       4.621 -24.075  -1.201  0.00  0.00    -0.037 C 
ATOM      4  C4  FK5 d   1       3.846 -24.227  -2.505  0.00  0.00    -0.061 C 
ATOM      5  C5  FK5 d   1       3.289 -22.857  -2.920  0.00  0.00    -0.050 C 
ATOM      6  C6  FK5 d   1       4.406 -21.825  -3.121  0.00  0.00    -0.001 C 
ATOM      7  C8  FK5 d   1       5.559 -20.649  -1.181  0.00  0.00     0.296 C 
ATOM      8  C9  FK5 d   1       4.981 -19.353  -1.581  0.00  0.00     0.278 C 
ATOM      9  C10 FK5 d   1       5.850 -18.331  -2.316  0.00  0.00     0.238 C 
ATOM     10  C11 FK5 d   1       7.169 -17.975  -1.591  0.00  0.00     0.007 C 
ATOM     11  C12 FK5 d   1       8.020 -16.991  -2.396  0.00  0.00    -0.030 C 
ATOM     12  C13 FK5 d   1       8.281 -17.479  -3.820  0.00  0.00     0.066 C 
ATOM     13  C14 FK5 d   1       6.997 -18.004  -4.470  0.00  0.00     0.092 C 
ATOM     14  C15 FK5 d   1       7.244 -18.656  -5.830  0.00  0.00     0.066 C 
ATOM     15  C16 FK5 d   1       5.883 -19.195  -6.297  0.00  0.00    -0.035 C 
ATOM     16  C17 FK5 d   1       5.918 -20.130  -7.495  0.00  0.00    -0.052 C 
ATOM     17  C18 FK5 d   1       6.507 -19.481  -8.775  0.00  0.00    -0.042 C 
ATOM     18  C19 FK5 d   1       7.286 -20.577  -9.465  0.00  0.00    -0.086 C 
ATOM     19  C20 FK5 d   1       8.588 -20.765  -9.145  0.00  0.00    -0.090 C 
ATOM     20  C21 FK5 d   1       9.426 -21.891  -9.725  0.00  0.00     0.023 C 
ATOM     21  C22 FK5 d   1       9.732 -22.853  -8.589  0.00  0.00     0.137 C 
ATOM     22  C23 FK5 d   1       8.640 -23.766  -8.066  0.00  0.00     0.015 C 
ATOM     23  C24 FK5 d   1       8.847 -24.183  -6.606  0.00  0.00     0.048 C 
ATOM     24  C25 FK5 d   1       7.826 -23.528  -5.677  0.00  0.00    -0.003 C 
ATOM     25  C26 FK5 d   1       8.151 -23.787  -4.191  0.00  0.00     0.074 C 
ATOM     26  N7  FK5 d   1       5.248 -21.759  -1.876  0.00  0.00    -0.331 N 
ATOM     27  O1  FK5 d   1       7.120 -23.188  -3.417  0.00  0.00    -0.309 OA
ATOM     28  O2  FK5 d   1       7.588 -24.546  -1.562  0.00  0.00    -0.263 OA
ATOM     29  O3  FK5 d   1       6.308 -20.673  -0.192  0.00  0.00    -0.264 OA
ATOM     30  O4  FK5 d   1       3.808 -19.092  -1.299  0.00  0.00    -0.281 OA
ATOM     31  O5  FK5 d   1       6.202 -18.868  -3.605  0.00  0.00    -0.338 OA
ATOM     32  O9  FK5 d   1      10.833 -22.923  -8.069  0.00  0.00    -0.297 OA
ATOM     33  H1  FK5 d   1       6.124 -22.838  -0.316  0.00  0.00     0.088 H 
ATOM     34  H2  FK5 d   1       3.929 -23.744  -0.412  0.00  0.00     0.036 H 
ATOM     35  H3  FK5 d   1       5.051 -25.050  -0.927  0.00  0.00     0.036 H 
ATOM     36  H4  FK5 d   1       3.016 -24.934  -2.360  0.00  0.00     0.033 H 
ATOM     37  H5  FK5 d   1       4.517 -24.605  -3.290  0.00  0.00     0.033 H 
ATOM     38  H6  FK5 d   1       2.608 -22.497  -2.135  0.00  0.00     0.035 H 
ATOM     39  H7  FK5 d   1       2.734 -22.969  -3.863  0.00  0.00     0.035 H 
ATOM     40  H8  FK5 d   1       3.963 -20.837  -3.319  0.00  0.00     0.064 H 
ATOM     41  H9  FK5 d   1       5.033 -22.123  -3.974  0.00  0.00     0.064 H 
ATOM     42  H10 FK5 d   1       7.741 -18.910  -1.498  0.00  0.00     0.048 H 
ATOM     43  H11 FK5 d   1       8.985 -16.858  -1.885  0.00  0.00     0.037 H 
ATOM     44  H12 FK5 d   1       7.495 -16.026  -2.444  0.00  0.00     0.037 H 
ATOM     45  H13 FK5 d   1       9.020 -18.292  -3.775  0.00  0.00     0.087 H 
ATOM     46  H14 FK5 d   1       6.377 -17.116  -4.663  0.00  0.00     0.091 H 
ATOM     47  H15 FK5 d   1       7.559 -17.868  -6.530  0.00  0.00     0.087 H 
ATOM     48  H16 FK5 d   1       5.251 -18.334  -6.559  0.00  0.00     0.037 H 
ATOM     49  H17 FK5 d   1       5.429 -19.740  -5.456  0.00  0.00     0.037 H 
ATOM     50  H18 FK5 d   1       6.599 -20.955  -7.239  0.00  0.00     0.040 H 
ATOM     51  H19 FK5 d   1       7.172 -18.645  -8.511  0.00  0.00     0.040 H 
ATOM     52  H20 FK5 d   1       5.700 -19.115  -9.427  0.00  0.00     0.040 H 
ATOM     53  H21 FK5 d   1       9.055 -20.078  -8.441  0.00  0.00     0.078 H 
ATOM     54  H22 FK5 d   1       8.814 -22.423 -10.469  0.00  0.00     0.058 H 
ATOM     55  H23 FK5 d   1       8.615 -24.673  -8.688  0.00  0.00     0.048 H 
ATOM     56  H24 FK5 d   1       7.677 -23.240  -8.146  0.00  0.00     0.048 H 
ATOM     57  H25 FK5 d   1       9.851 -23.866  -6.288  0.00  0.00     0.084 H 
ATOM     58  H26 FK5 d   1       7.897 -22.442  -5.838  0.00  0.00     0.047 H 
ATOM     59  H27 FK5 d   1       8.140 -24.875  -4.027  0.00  0.00     0.092 H 
ENDROOT
BRANCH  25  60
ATOM     60  C27 FK5 d   1       9.491 -23.268  -3.720  0.00  0.00    -0.058 C 
ATOM     61  C28 FK5 d   1      10.396 -24.166  -3.268  0.00  0.00    -0.095 C 
ATOM     62  H28 FK5 d   1      10.102 -25.215  -3.274  0.00  0.00     0.077 H 
BRANCH  61  63
ATOM     63  C29 FK5 d   1      11.785 -23.838  -2.754  0.00  0.00    -0.035 C 
ATOM     64  C30 FK5 d   1      11.851 -24.064  -1.231  0.00  0.00    -0.032 C 
ATOM     65  C31 FK5 d   1      13.277 -23.854  -0.672  0.00  0.00     0.063 C 
ATOM     66  H30 FK5 d   1      11.532 -25.094  -1.011  0.00  0.00     0.037 H 
ATOM     67  H31 FK5 d   1      11.169 -23.356  -0.738  0.00  0.00     0.037 H 
ATOM     68  C32 FK5 d   1      14.272 -24.752  -1.412  0.00  0.00     0.060 C 
ATOM     69  H32 FK5 d   1      13.559 -22.802  -0.826  0.00  0.00     0.087 H 
ATOM     70  C33 FK5 d   1      14.243 -24.592  -2.943  0.00  0.00    -0.038 C 
ATOM     71  H33 FK5 d   1      14.035 -25.799  -1.172  0.00  0.00     0.086 H 
ATOM     72  C34 FK5 d   1      12.810 -24.700  -3.516  0.00  0.00    -0.056 C 
ATOM     73  H34 FK5 d   1      14.865 -25.380  -3.393  0.00  0.00     0.036 H 
ATOM     74  H35 FK5 d   1      14.655 -23.606  -3.204  0.00  0.00     0.036 H 
ATOM     75  H36 FK5 d   1      12.828 -24.375  -4.567  0.00  0.00     0.034 H 
ATOM     76  H37 FK5 d   1      12.491 -25.751  -3.463  0.00  0.00     0.034 H 
ATOM     77  H29 FK5 d   1      12.000 -22.778  -2.955  0.00  0.00     0.046 H 
BRANCH  65  78
ATOM     78  O11 FK5 d   1      13.348 -24.152   0.738  0.00  0.00    -0.388 OA
BRANCH  78  79
ATOM     79  C45 FK5 d   1      13.406 -23.020   1.613  0.00  0.00     0.005 C 
ATOM     80  H64 FK5 d   1      13.457 -23.365   2.656  0.00  0.00     0.066 H 
ATOM     81  H65 FK5 d   1      12.506 -22.403   1.475  0.00  0.00     0.066 H 
ATOM     82  H66 FK5 d   1      14.300 -22.422   1.380  0.00  0.00     0.066 H 
ENDBRANCH  78  79
ENDBRANCH  65  78
BRANCH  68  83
ATOM     83  O12 FK5 d   1      15.585 -24.447  -0.945  0.00  0.00    -0.393 OA
ATOM     84  H69 FK5 d   1      15.804 -23.553  -1.181  0.00  0.00     0.210 HD
ENDBRANCH  68  83
ENDBRANCH  61  63
BRANCH  60  85
ATOM     85  C42 FK5 d   1       9.733 -21.774  -3.730  0.00  0.00    -0.052 C 
ATOM     86  H55 FK5 d   1      10.748 -21.564  -3.361  0.00  0.00     0.033 H 
ATOM     87  H56 FK5 d   1       8.997 -21.279  -3.080  0.00  0.00     0.033 H 
ATOM     88  H57 FK5 d   1       9.630 -21.393  -4.757  0.00  0.00     0.033 H 
ENDBRANCH  60  85
ENDBRANCH  25  60
BRANCH  24  89
ATOM     89  C41 FK5 d   1       6.386 -23.939  -6.017  0.00  0.00    -0.068 C 
ATOM     90  H52 FK5 d   1       6.190 -23.741  -7.081  0.00  0.00     0.028 H 
ATOM     91  H53 FK5 d   1       5.684 -23.359  -5.401  0.00  0.00     0.028 H 
ATOM     92  H54 FK5 d   1       6.253 -25.012  -5.813  0.00  0.00     0.028 H 
ENDBRANCH  24  89
BRANCH  23  93
ATOM     93  O10 FK5 d   1       8.770 -25.617  -6.535  0.00  0.00    -0.395 OA
ATOM     94  H68 FK5 d   1       8.945 -25.899  -5.645  0.00  0.00     0.210 HD
ENDBRANCH  23  93
BRANCH  20  95
ATOM     95  C38 FK5 d   1      10.687 -21.399 -10.453  0.00  0.00    -0.038 C 
ATOM     96  H47 FK5 d   1      11.378 -22.245 -10.582  0.00  0.00     0.040 H 
ATOM     97  H48 FK5 d   1      11.170 -20.620  -9.845  0.00  0.00     0.040 H 
BRANCH  95  98
ATOM     98  C39 FK5 d   1      10.353 -20.824 -11.814  0.00  0.00    -0.111 C 
ATOM     99  C40 FK5 d   1      10.176 -21.639 -12.838  0.00  0.00    -0.125 C 
ATOM    100  H50 FK5 d   1       9.936 -21.235 -13.820  0.00  0.00     0.066 H 
ATOM    101  H51 FK5 d   1      10.271 -22.715 -12.700  0.00  0.00     0.066 H 
ATOM    102  H49 FK5 d   1      10.260 -19.747 -11.947  0.00  0.00     0.075 H 
ENDBRANCH  95  98
ENDBRANCH  20  95
BRANCH  18 103
ATOM    103  C37 FK5 d   1       6.569 -21.466 -10.456  0.00  0.00    -0.055 C 
ATOM    104  H44 FK5 d   1       7.275 -22.205 -10.863  0.00  0.00     0.033 H 
ATOM    105  H45 FK5 d   1       6.167 -20.852 -11.276  0.00  0.00     0.033 H 
ATOM    106  H46 FK5 d   1       5.743 -21.988  -9.950  0.00  0.00     0.033 H 
ENDBRANCH  18 103
BRANCH   9 107
ATOM    107  O6  FK5 d   1       5.056 -17.146  -2.455  0.00  0.00    -0.359 OA
ATOM    108  H67 FK5 d   1       4.259 -17.354  -2.928  0.00  0.00     0.213 HD
ENDBRANCH   9 107
BRANCH  10 109
ATOM    109  C35 FK5 d   1       6.969 -17.429  -0.191  0.00  0.00    -0.067 C 
ATOM    110  H38 FK5 d   1       6.357 -18.133   0.393  0.00  0.00     0.028 H 
ATOM    111  H39 FK5 d   1       6.457 -16.457  -0.246  0.00  0.00     0.028 H 
ATOM    112  H40 FK5 d   1       7.947 -17.302   0.296  0.00  0.00     0.028 H 
ENDBRANCH  10 109
BRANCH  16 113
ATOM    113  C36 FK5 d   1       4.521 -20.748  -7.667  0.00  0.00    -0.073 C 
ATOM    114  H41 FK5 d   1       4.191 -21.180  -6.711  0.00  0.00     0.028 H 
ATOM    115  H42 FK5 d   1       4.561 -21.538  -8.432  0.00  0.00     0.028 H 
ATOM    116  H43 FK5 d   1       3.811 -19.968  -7.981  0.00  0.00     0.028 H 
ENDBRANCH  16 113
BRANCH  12 117
ATOM    117  O7  FK5 d   1       8.795 -16.422  -4.667  0.00  0.00    -0.388 OA
BRANCH 117 118
ATOM    118  C43 FK5 d   1      10.189 -16.133  -4.459  0.00  0.00     0.005 C 
ATOM    119  H58 FK5 d   1      10.501 -15.324  -5.136  0.00  0.00     0.066 H 
ATOM    120  H59 FK5 d   1      10.785 -17.034  -4.666  0.00  0.00     0.066 H 
ATOM    121  H60 FK5 d   1      10.347 -15.820  -3.416  0.00  0.00     0.066 H 
ENDBRANCH 117 118
ENDBRANCH  12 117
BRANCH  14 122
ATOM    122  O8  FK5 d   1       8.287 -19.654  -5.839  0.00  0.00    -0.388 OA
BRANCH 122 123
ATOM    123  C44 FK5 d   1       9.584 -19.211  -6.300  0.00  0.00     0.005 C 
ATOM    124  H61 FK5 d   1      10.293 -20.051  -6.263  0.00  0.00     0.066 H 
ATOM    125  H62 FK5 d   1       9.945 -18.398  -5.653  0.00  0.00     0.066 H 
ATOM    126  H63 FK5 d   1       9.501 -18.847  -7.335  0.00  0.00     0.066 H 
ENDBRANCH 122 123
ENDBRANCH  14 122
TORSDOF 18
