REMARK  5 active torsions:
REMARK  status: ('A' for Active; 'I' for Inactive)
REMARK    1  A    between atoms: N3_21  and  C4_4 
REMARK    2  A    between atoms: C8_13  and  O1_11 
REMARK    3  A    between atoms: O1_11  and  C10_15 
REMARK    4  A    between atoms: C12_17  and  O2_28 
REMARK    5  A    between atoms: C16_22  and  N3_21 
ROOT
ATOM      1  C1  58C d   1     263.969  -4.609  10.163  0.00  0.00     0.014 A 
ATOM      2  C2  58C d   1     264.221  -5.983  10.462  0.00  0.00     0.120 A 
ATOM      3  C3  58C d   1     264.273  -3.690  11.205  0.00  0.00     0.033 A 
ATOM      4  C4  58C d   1     265.018  -5.341  12.649  0.00  0.00     0.727 A 
ATOM      5  C5  58C d   1     263.066  -5.141   8.002  0.00  0.00    -0.079 A 
ATOM      6  C6  58C d   1     263.364  -6.525   8.222  0.00  0.00    -0.048 A 
ATOM      7  C7  58C d   1     263.437  -4.206   8.905  0.00  0.00    -0.069 A 
ATOM      8  N2  58C d   1     264.771  -3.977  12.395  0.00  0.00    -0.074 NA
ATOM      9  N1  58C d   1     264.747  -6.324  11.706  0.00  0.00    -0.059 NA
ATOM     10  C8  58C d   1     263.918  -6.994   9.409  0.00  0.00     0.099 A 
ATOM     11  H1  58C d   1     264.075  -2.644  11.002  0.00  0.00     0.117 H 
ATOM     12  H2  58C d   1     262.538  -4.841   7.104  0.00  0.00     0.083 H 
ATOM     13  H3  58C d   1     263.149  -7.235   7.432  0.00  0.00     0.087 H 
ATOM     14  H4  58C d   1     263.330  -3.153   8.672  0.00  0.00     0.085 H 
ENDROOT
BRANCH  10  15
ATOM     15  O1  58C d   1     264.526  -8.247   9.467  0.00  0.00    -0.344 OA
BRANCH  15  16
ATOM     16  C10 58C d   1     263.780  -9.486   9.197  0.00  0.00     0.045 C 
ATOM     17  C9  58C d   1     262.270  -9.460   9.562  0.00  0.00    -0.038 C 
ATOM     18  C11 58C d   1     261.972  -9.648  11.060  0.00  0.00    -0.039 C 
ATOM     19  H6  58C d   1     261.769 -10.267   9.008  0.00  0.00     0.036 H 
ATOM     20  H7  58C d   1     261.858  -8.489   9.249  0.00  0.00     0.036 H 
ATOM     21  C12 58C d   1     262.645 -10.888  11.674  0.00  0.00     0.036 C 
ATOM     22  H9  58C d   1     260.884  -9.744  11.188  0.00  0.00     0.036 H 
ATOM     23  H10 58C d   1     262.327  -8.757  11.599  0.00  0.00     0.036 H 
ATOM     24  C13 58C d   1     264.142 -10.801  11.373  0.00  0.00    -0.039 C 
ATOM     25  H11 58C d   1     262.227 -11.799  11.221  0.00  0.00     0.082 H 
ATOM     26  C14 58C d   1     264.415 -10.722   9.871  0.00  0.00    -0.038 C 
ATOM     27  H12 58C d   1     264.639 -11.694  11.779  0.00  0.00     0.036 H 
ATOM     28  H13 58C d   1     264.551  -9.902  11.857  0.00  0.00     0.036 H 
ATOM     29  H14 58C d   1     265.503 -10.683   9.716  0.00  0.00     0.036 H 
ATOM     30  H15 58C d   1     264.009 -11.626   9.395  0.00  0.00     0.036 H 
ATOM     31  H8  58C d   1     263.839  -9.640   8.109  0.00  0.00     0.084 H 
BRANCH  21  32
ATOM     32  O2  58C d   1     262.433 -10.922  13.053  0.00  0.00    -0.396 OA
ATOM     33  H21 58C d   1     261.501 -10.976  13.228  0.00  0.00     0.210 HD
ENDBRANCH  21  32
ENDBRANCH  15  16
ENDBRANCH  10  15
BRANCH   4  34
ATOM     34  N3  58C d   1     265.533  -5.641  13.925  0.00  0.00    -0.188 N 
ATOM     35  H17 58C d   1     265.874  -4.831  14.462  0.00  0.00     0.184 HD
BRANCH  34  36
ATOM     36  C16 58C d   1     265.655  -6.933  14.601  0.00  0.00     0.051 A 
ATOM     37  C15 58C d   1     266.492  -7.134  15.761  0.00  0.00    -0.054 A 
ATOM     38  C17 58C d   1     266.635  -8.338  16.424  0.00  0.00    -0.053 A 
ATOM     39  H16 58C d   1     267.046  -6.282  16.137  0.00  0.00     0.087 H 
ATOM     40  C18 58C d   1     265.960  -9.515  16.024  0.00  0.00     0.062 A 
ATOM     41  H18 58C d   1     267.291  -8.382  17.286  0.00  0.00     0.087 H 
ATOM     42  C20 58C d   1     265.149  -9.263  14.880  0.00  0.00     0.087 A 
ATOM     43  N4  58C d   1     265.866 -10.877  16.440  0.00  0.00    -0.349 N 
ATOM     44  C19 58C d   1     264.975  -8.073  14.182  0.00  0.00    -0.027 A 
ATOM     45  N5  58C d   1     264.544 -10.538  14.608  0.00  0.00    -0.242 NA
ATOM     46  H19 58C d   1     264.317  -8.034  13.321  0.00  0.00     0.090 H 
ATOM     47  C21 58C d   1     265.026 -11.405  15.572  0.00  0.00     0.065 A 
ATOM     48  H5  58C d   1     264.731 -12.453  15.611  0.00  0.00     0.143 H 
ATOM     49  H20 58C d   1     266.341 -11.337  17.230  0.00  0.00     0.167 HD
ENDBRANCH  34  36
ENDBRANCH   4  34
TORSDOF 5
