REMARK  5 active torsions:
REMARK  status: ('A' for Active; 'I' for Inactive)
REMARK    1  A    between atoms: C2_9  and  C1_2 
REMARK    2  A    between atoms: C4_7  and  N2_14 
REMARK       I    between atoms: C3_8  and  N1_10 
REMARK       I    between atoms: N2_14  and  C3_8 
REMARK    3  A    between atoms: N1_10  and  C2_9 
REMARK    4  A    between atoms: C11_17  and  C9_11 
REMARK    5  A    between atoms: N3_21  and  C16_22 
ROOT
ATOM      1  C8  57W d   1       5.844   2.211   0.106  0.00  0.00     0.014 A 
ATOM      2  C7  57W d   1       5.968   4.181  -0.908  0.00  0.00     0.112 A 
ATOM      3  C6  57W d   1       4.623   4.048  -1.489  0.00  0.00     0.072 A 
ATOM      4  C5  57W d   1       5.480   6.059  -2.176  0.00  0.00     0.015 A 
ATOM      5  C4  57W d   1       6.432   5.524  -1.377  0.00  0.00     0.083 A 
ATOM      6  C9  57W d   1       4.584   1.953  -0.415  0.00  0.00    -0.005 A 
ATOM      7  C10 57W d   1       3.985   2.875  -1.159  0.00  0.00    -0.042 A 
ATOM      8  N4  57W d   1       6.584   3.307  -0.116  0.00  0.00    -0.256 NA
ATOM      9  N3  57W d   1       4.440   5.161  -2.231  0.00  0.00    -0.302 N 
ATOM     10  H4  57W d   1       6.271   1.454   0.754  0.00  0.00     0.116 H 
ATOM     11  H5  57W d   1       5.528   7.022  -2.682  0.00  0.00     0.116 H 
ATOM     12  H9  57W d   1       2.975   2.700  -1.513  0.00  0.00     0.088 H 
ENDROOT
BRANCH   5  13
ATOM     13  N2  57W d   1       7.735   5.911  -1.044  0.00  0.00    -0.305 N 
ATOM     14  C3  57W d   1       8.383   6.903  -1.760  0.00  0.00     0.320 C 
ATOM     15  O   57W d   1       7.886   7.521  -2.673  0.00  0.00    -0.247 OA
ATOM     16  N1  57W d   1       9.627   7.196  -1.337  0.00  0.00    -0.343 N 
ATOM     17  H8  57W d   1      10.081   6.610  -0.666  0.00  0.00     0.164 HD
ATOM     18  H11 57W d   1       8.203   5.466  -0.281  0.00  0.00     0.171 HD
BRANCH  16  19
ATOM     19  C2  57W d   1      10.318   8.390  -1.871  0.00  0.00    -0.006 C 
ATOM     20  H6  57W d   1      10.168   8.462  -2.958  0.00  0.00     0.063 H 
ATOM     21  H7  57W d   1       9.934   9.300  -1.387  0.00  0.00     0.063 H 
BRANCH  19  22
ATOM     22  C1  57W d   1      11.771   8.212  -1.560  0.00  0.00    -0.061 C 
ATOM     23  H1  57W d   1      12.335   9.077  -1.938  0.00  0.00     0.029 H 
ATOM     24  H2  57W d   1      12.140   7.295  -2.043  0.00  0.00     0.029 H 
ATOM     25  H3  57W d   1      11.906   8.133  -0.471  0.00  0.00     0.029 H 
ENDBRANCH  19  22
ENDBRANCH  16  19
ENDBRANCH   5  13
BRANCH   9  26
ATOM     26  C16 57W d   1       3.300   5.434  -2.927  0.00  0.00     0.134 C 
ATOM     27  N6  57W d   1       3.091   6.692  -3.442  0.00  0.00    -0.243 NA
ATOM     28  C20 57W d   1       1.993   7.129  -4.137  0.00  0.00     0.004 C 
ATOM     29  C19 57W d   1       1.018   6.185  -4.291  0.00  0.00    -0.066 C 
ATOM     30  H15 57W d   1       1.906   8.136  -4.530  0.00  0.00     0.114 H 
ATOM     31  C18 57W d   1       1.193   4.878  -3.883  0.00  0.00    -0.078 C 
ATOM     32  H16 57W d   1       0.077   6.471  -4.748  0.00  0.00     0.085 H 
ATOM     33  C17 57W d   1       2.379   4.461  -3.231  0.00  0.00    -0.038 C 
ATOM     34  H17 57W d   1       0.406   4.155  -4.066  0.00  0.00     0.083 H 
ATOM     35  H18 57W d   1       2.552   3.420  -2.983  0.00  0.00     0.089 H 
ENDBRANCH   9  26
BRANCH   6  36
ATOM     36  C11 57W d   1       3.885   0.660  -0.042  0.00  0.00    -0.007 C 
ATOM     37  C12 57W d   1       4.671  -0.440   0.094  0.00  0.00     0.013 C 
ATOM     38  N5  57W d   1       4.135  -1.715   0.337  0.00  0.00    -0.272 NA
ATOM     39  H13 57W d   1       5.746  -0.330   0.012  0.00  0.00     0.116 H 
ATOM     40  C13 57W d   1       2.834  -1.771   0.563  0.00  0.00     0.002 C 
ATOM     41  C14 57W d   1       2.004  -0.663   0.407  0.00  0.00    -0.065 C 
ATOM     42  H12 57W d   1       2.398  -2.711   0.881  0.00  0.00     0.114 H 
ATOM     43  C15 57W d   1       2.524   0.583   0.105  0.00  0.00    -0.069 C 
ATOM     44  H10 57W d   1       0.933  -0.779   0.524  0.00  0.00     0.085 H 
ATOM     45  H14 57W d   1       1.888   1.454  -0.009  0.00  0.00     0.085 H 
ENDBRANCH   6  36
TORSDOF 5
