REMARK WARNING: 32 MAX_TORS EXCEEDED!!!
REMARK  37 active torsions:
REMARK  status: ('A' for Active; 'I' for Inactive)
REMARK    1  A    between atoms: C_2  and  CA_1 
REMARK       I    between atoms: N_4  and  C_2 
REMARK    2  A    between atoms: CA_5  and  N_4 
REMARK    3  A    between atoms: C_6  and  CA_5 
REMARK    4  A    between atoms: CA_5  and  CB_8 
REMARK       I    between atoms: N_13  and  C_6 
REMARK    5  A    between atoms: CB_8  and  CG_9 
REMARK    6  A    between atoms: CG_9  and  CD_10 
REMARK       I    between atoms: CD_10  and  NE2_12 
REMARK    7  A    between atoms: CA_14  and  N_13 
REMARK    8  A    between atoms: C_15  and  CA_14 
REMARK    9  A    between atoms: CA_14  and  CB_17 
REMARK       I    between atoms: N_20  and  C_15 
REMARK   10  A    between atoms: CB_17  and  OG1_18 
REMARK   11  A    between atoms: CB_17  and  CG2_19 
REMARK   12  A    between atoms: CA_21  and  N_20 
REMARK   13  A    between atoms: C_22  and  CA_21 
REMARK   14  A    between atoms: CA_21  and  CB_24 
REMARK       I    between atoms: N_25  and  C_22 
REMARK   15  A    between atoms: CA_26  and  N_25 
REMARK   16  A    between atoms: C_27  and  CA_26 
REMARK   17  A    between atoms: CA_26  and  CB_29 
REMARK       I    between atoms: N_45  and  C_27 
REMARK   18  A    between atoms: CB_29  and  CG_30 
REMARK   19  A    between atoms: CG_30  and  CD_31 
REMARK   20  A    between atoms: CD_31  and  NE_32 
REMARK       I    between atoms: NE_32  and  CZ_33 
REMARK       I    between atoms: CZ_33  and  NH1_34 
REMARK   21  A    between atoms: CH_37  and  CH3_38 
REMARK       I    between atoms: NZ_39  and  CH_37 
REMARK   22  A    between atoms: CE_40  and  NZ_39 
REMARK   23  A    between atoms: CD_41  and  CE_40 
REMARK   24  A    between atoms: CG_42  and  CD_41 
REMARK   25  A    between atoms: CB_43  and  CG_42 
REMARK   26  A    between atoms: CA_44  and  CB_43 
REMARK   27  A    between atoms: CA_44  and  N_45 
REMARK   28  A    between atoms: CA_44  and  C_46 
REMARK       I    between atoms: C_46  and  N_48 
REMARK   29  A    between atoms: N_48  and  CA_49 
REMARK   30  A    between atoms: CA_49  and  C_50 
REMARK   31  A    between atoms: CA_49  and  CB_52 
REMARK       I    between atoms: C_50  and  N_54 
REMARK   32  A    between atoms: CB_52  and  OG_53 
REMARK   33  A    between atoms: N_54  and  CA_55 
REMARK   34  A    between atoms: CA_55  and  C_56 
REMARK   35  A    between atoms: CA_55  and  CB_58 
REMARK   36  A    between atoms: CB_58  and  OG1_59 
REMARK   37  A    between atoms: CB_58  and  CG2_60 
ROOT
ATOM      1  CA  ARG d   1      39.131  27.830 -10.056  0.00  0.00     0.089 C 
ATOM      2  H25 ARG d   1      39.376  27.359  -9.092  0.00  0.00     0.087 H 
ENDROOT
BRANCH   1   3
ATOM      3  N   ARG d   1      38.141  28.871  -9.799  0.00  0.00    -0.346 N 
ATOM      4  C   ALA d   1      37.376  28.830  -8.709  0.00  0.00     0.240 C 
ATOM      5  O   ALA d   1      37.463  27.931  -7.869  0.00  0.00    -0.271 OA
ATOM      6  H24 ARG d   1      38.036  29.624 -10.449  0.00  0.00     0.163 HD
BRANCH   4   7
ATOM      7  CA  ALA d   1      36.384  29.972  -8.512  0.00  0.00     0.086 C 
ATOM      8  H20 ALA d   1      36.397  30.603  -9.413  0.00  0.00     0.086 H 
BRANCH   7   9
ATOM      9  N   ALA d   1      35.010  29.476  -8.322  0.00  0.00    -0.346 N 
ATOM     10  C   THR d   1      34.482  28.556  -9.137  0.00  0.00     0.243 C 
ATOM     11  O   THR d   1      35.049  28.156 -10.154  0.00  0.00    -0.271 OA
ATOM     12  H19 ALA d   1      34.460  29.835  -7.568  0.00  0.00     0.163 HD
BRANCH  10  13
ATOM     13  CA  THR d   1      33.094  28.009  -8.794  0.00  0.00     0.113 C 
ATOM     14  H13 THR d   1      33.201  26.944  -8.542  0.00  0.00     0.091 H 
BRANCH  13  15
ATOM     15  N   THR d   1      32.461  28.664  -7.649  0.00  0.00    -0.344 N 
ATOM     16  C   GLN d   1      32.551  28.175  -6.413  0.00  0.00     0.241 C 
ATOM     17  O   GLN d   1      33.153  27.132  -6.142  0.00  0.00    -0.271 OA
ATOM     18  H12 THR d   1      31.944  29.507  -7.799  0.00  0.00     0.163 HD
BRANCH  16  19
ATOM     19  CA  GLN d   1      31.906  29.016  -5.298  0.00  0.00     0.089 C 
ATOM     20  H5  GLN d   1      32.540  28.920  -4.404  0.00  0.00     0.087 H 
BRANCH  19  21
ATOM     21  N   GLN d   1      31.821  30.438  -5.632  0.00  0.00    -0.348 N 
ATOM     22  C   ALA d   1      32.924  31.162  -5.786  0.00  0.00     0.214 C 
ATOM     23  O   ALA d   1      34.046  30.663  -5.756  0.00  0.00    -0.274 OA
ATOM     24  H4  GLN d   1      30.925  30.868  -5.745  0.00  0.00     0.163 HD
BRANCH  22  25
ATOM     25  CA  ALA d   1      32.737  32.658  -6.013  0.00  0.00    -0.003 C 
ATOM     26  H1  ALA d   1      31.664  32.899  -6.005  0.00  0.00     0.040 H 
ATOM     27  H2  ALA d   1      33.168  32.938  -6.986  0.00  0.00     0.040 H 
ATOM     28  H3  ALA d   1      33.244  33.217  -5.213  0.00  0.00     0.040 H 
ENDBRANCH  22  25
ENDBRANCH  19  21
BRANCH  19  29
ATOM     29  CB  GLN d   1      30.514  28.489  -4.952  0.00  0.00    -0.030 C 
ATOM     30  H6  GLN d   1      30.562  27.394  -4.858  0.00  0.00     0.037 H 
ATOM     31  H7  GLN d   1      29.821  28.758  -5.763  0.00  0.00     0.037 H 
BRANCH  29  32
ATOM     32  CG  GLN d   1      29.994  29.071  -3.648  0.00  0.00     0.011 C 
ATOM     33  H8  GLN d   1      30.289  30.129  -3.594  0.00  0.00     0.047 H 
ATOM     34  H9  GLN d   1      30.449  28.520  -2.812  0.00  0.00     0.047 H 
BRANCH  32  35
ATOM     35  CD  GLN d   1      28.494  28.982  -3.524  0.00  0.00     0.215 C 
ATOM     36  OE1 GLN d   1      27.749  29.553  -4.333  0.00  0.00    -0.274 OA
ATOM     37  NE2 GLN d   1      28.034  28.274  -2.500  0.00  0.00    -0.370 N 
ATOM     38  H10 GLN d   1      27.048  28.177  -2.362  0.00  0.00     0.159 HD
ATOM     39  H11 GLN d   1      28.673  27.838  -1.866  0.00  0.00     0.159 HD
ENDBRANCH  32  35
ENDBRANCH  29  32
ENDBRANCH  19  29
ENDBRANCH  16  19
ENDBRANCH  13  15
BRANCH  13  40
ATOM     40  CB  THR d   1      32.225  28.128 -10.064  0.00  0.00     0.060 C 
ATOM     41  H14 THR d   1      32.691  27.549 -10.875  0.00  0.00     0.086 H 
BRANCH  40  42
ATOM     42  OG1 THR d   1      32.144  29.506 -10.453  0.00  0.00    -0.393 OA
ATOM     43  H15 THR d   1      31.752  30.010  -9.749  0.00  0.00     0.210 HD
ENDBRANCH  40  42
BRANCH  40  44
ATOM     44  CG2 THR d   1      30.832  27.587  -9.808  0.00  0.00    -0.050 C 
ATOM     45  H16 THR d   1      30.229  27.680 -10.723  0.00  0.00     0.031 H 
ATOM     46  H17 THR d   1      30.359  28.160  -8.997  0.00  0.00     0.031 H 
ATOM     47  H18 THR d   1      30.898  26.528  -9.518  0.00  0.00     0.031 H 
ENDBRANCH  40  44
ENDBRANCH  13  40
ENDBRANCH  10  13
ENDBRANCH   7   9
BRANCH   7  48
ATOM     48  CB  ALA d   1      36.822  30.807  -7.333  0.00  0.00    -0.049 C 
ATOM     49  H21 ALA d   1      37.849  31.165  -7.498  0.00  0.00     0.030 H 
ATOM     50  H22 ALA d   1      36.789  30.196  -6.419  0.00  0.00     0.030 H 
ATOM     51  H23 ALA d   1      36.147  31.668  -7.223  0.00  0.00     0.030 H 
ENDBRANCH   7  48
ENDBRANCH   4   7
ENDBRANCH   1   3
BRANCH   1  52
ATOM     52  C   ARG d   1      40.427  28.373 -10.652  0.00  0.00     0.241 C 
ATOM     53  O   ARG d   1      40.427  29.388 -11.333  0.00  0.00    -0.271 OA
ATOM     54  N   ALY d   1      41.524  27.673 -10.380  0.00  0.00    -0.346 N 
ATOM     55  H50 ALY d   1      41.443  26.866  -9.795  0.00  0.00     0.163 HD
BRANCH  54  56
ATOM     56  CA  ALY d   1      42.832  28.027 -10.893  0.00  0.00     0.089 C 
ATOM     57  H49 ALY d   1      42.821  29.096 -11.154  0.00  0.00     0.087 H 
BRANCH  56  58
ATOM     58  CB  ALY d   1      44.020  27.730  -9.957  0.00  0.00    -0.038 C 
ATOM     59  H47 ALY d   1      44.237  26.653 -10.012  0.00  0.00     0.036 H 
ATOM     60  H48 ALY d   1      44.890  28.299 -10.318  0.00  0.00     0.036 H 
BRANCH  58  61
ATOM     61  CG  ALY d   1      43.795  28.089  -8.506  0.00  0.00    -0.061 C 
ATOM     62  H45 ALY d   1      43.264  29.050  -8.445  0.00  0.00     0.033 H 
ATOM     63  H46 ALY d   1      43.191  27.305  -8.025  0.00  0.00     0.033 H 
BRANCH  61  64
ATOM     64  CD  ALY d   1      45.125  28.205  -7.797  0.00  0.00    -0.050 C 
ATOM     65  H43 ALY d   1      45.700  27.280  -7.951  0.00  0.00     0.035 H 
ATOM     66  H44 ALY d   1      45.684  29.058  -8.210  0.00  0.00     0.035 H 
BRANCH  64  67
ATOM     67  CE  ALY d   1      44.909  28.421  -6.305  0.00  0.00    -0.005 C 
ATOM     68  H41 ALY d   1      43.980  28.995  -6.174  0.00  0.00     0.064 H 
ATOM     69  H42 ALY d   1      44.801  27.435  -5.829  0.00  0.00     0.064 H 
BRANCH  67  70
ATOM     70  NZ  ALY d   1      45.965  29.125  -5.637  0.00  0.00    -0.361 N 
ATOM     71  CH  ALY d   1      45.755  29.794  -4.447  0.00  0.00     0.213 C 
ATOM     72  OH  ALY d   1      44.617  29.796  -3.942  0.00  0.00    -0.274 OA
ATOM     73  H40 ALY d   1      46.878  29.132  -6.044  0.00  0.00     0.162 HD
BRANCH  71  74
ATOM     74  CH3 ALY d   1      46.933  30.508  -3.808  0.00  0.00    -0.003 C 
ATOM     75  H37 ALY d   1      47.829  30.367  -4.431  0.00  0.00     0.040 H 
ATOM     76  H38 ALY d   1      47.114  30.092  -2.806  0.00  0.00     0.040 H 
ATOM     77  H39 ALY d   1      46.709  31.582  -3.724  0.00  0.00     0.040 H 
ENDBRANCH  71  74
ENDBRANCH  67  70
ENDBRANCH  64  67
ENDBRANCH  61  64
ENDBRANCH  58  61
ENDBRANCH  56  58
BRANCH  56  78
ATOM     78  C   ALY d   1      43.173  27.170 -12.112  0.00  0.00     0.241 C 
ATOM     79  O   ALY d   1      42.796  25.996 -12.243  0.00  0.00    -0.271 OA
ATOM     80  N   SER d   1      43.943  27.769 -13.024  0.00  0.00    -0.344 N 
ATOM     81  H51 SER d   1      44.170  28.736 -12.909  0.00  0.00     0.163 HD
BRANCH  80  82
ATOM     82  CA  SER d   1      44.463  27.048 -14.187  0.00  0.00     0.109 C 
ATOM     83  H52 SER d   1      43.647  26.439 -14.603  0.00  0.00     0.090 H 
BRANCH  82  84
ATOM     84  C   SER d   1      45.616  26.107 -13.806  0.00  0.00     0.243 C 
ATOM     85  O   SER d   1      46.412  26.422 -12.926  0.00  0.00    -0.271 OA
ATOM     86  N   THR d   1      45.704  24.959 -14.479  0.00  0.00    -0.342 N 
ATOM     87  H56 THR d   1      45.044  24.771 -15.207  0.00  0.00     0.163 HD
BRANCH  86  88
ATOM     88  CA  THR d   1      46.740  23.963 -14.183  0.00  0.00     0.120 C 
ATOM     89  H57 THR d   1      47.147  24.198 -13.188  0.00  0.00     0.093 H 
BRANCH  88  90
ATOM     90  C   THR d   1      47.902  23.981 -15.188  0.00  0.00     0.199 C 
ATOM     91  O   THR d   1      48.072  24.931 -15.958  0.00  0.00    -0.646 OA
ATOM     92  OXT THR d   1      48.705  23.046 -15.260  0.00  0.00    -0.646 OA
ENDBRANCH  88  90
BRANCH  88  93
ATOM     93  CB  THR d   1      46.150  22.524 -14.144  0.00  0.00     0.061 C 
ATOM     94  H58 THR d   1      46.978  21.804 -14.068  0.00  0.00     0.086 H 
BRANCH  93  95
ATOM     95  OG1 THR d   1      45.415  22.269 -15.349  0.00  0.00    -0.393 OA
ATOM     96  H59 THR d   1      45.057  21.390 -15.320  0.00  0.00     0.210 HD
ENDBRANCH  93  95
BRANCH  93  97
ATOM     97  CG2 THR d   1      45.229  22.344 -12.942  0.00  0.00    -0.050 C 
ATOM     98  H60 THR d   1      44.827  21.320 -12.939  0.00  0.00     0.031 H 
ATOM     99  H61 THR d   1      44.400  23.064 -13.005  0.00  0.00     0.031 H 
ATOM    100  H62 THR d   1      45.797  22.518 -12.016  0.00  0.00     0.031 H 
ENDBRANCH  93  97
ENDBRANCH  88  93
ENDBRANCH  86  88
ENDBRANCH  82  84
BRANCH  82 101
ATOM    101  CB  SER d   1      44.929  28.031 -15.264  0.00  0.00     0.044 C 
ATOM    102  H53 SER d   1      45.644  28.740 -14.821  0.00  0.00     0.077 H 
ATOM    103  H54 SER d   1      44.059  28.581 -15.652  0.00  0.00     0.077 H 
BRANCH 101 104
ATOM    104  OG  SER d   1      45.559  27.341 -16.333  0.00  0.00    -0.398 OA
ATOM    105  H55 SER d   1      45.841  27.967 -16.990  0.00  0.00     0.209 HD
ENDBRANCH 101 104
ENDBRANCH  82 101
ENDBRANCH  80  82
ENDBRANCH  56  78
ENDBRANCH  54  56
ENDBRANCH   1  52
BRANCH   1 106
ATOM    106  CB  ARG d   1      38.554  26.757 -10.982  0.00  0.00    -0.036 C 
ATOM    107  H26 ARG d   1      39.362  26.057 -11.241  0.00  0.00     0.036 H 
ATOM    108  H27 ARG d   1      38.191  27.251 -11.895  0.00  0.00     0.036 H 
BRANCH 106 109
ATOM    109  CG  ARG d   1      37.411  25.961 -10.390  0.00  0.00    -0.048 C 
ATOM    110  H28 ARG d   1      36.524  26.607 -10.316  0.00  0.00     0.035 H 
ATOM    111  H29 ARG d   1      37.697  25.614  -9.386  0.00  0.00     0.035 H 
BRANCH 109 112
ATOM    112  CD  ARG d   1      37.077  24.758 -11.254  0.00  0.00     0.009 C 
ATOM    113  H30 ARG d   1      36.940  25.094 -12.293  0.00  0.00     0.064 H 
ATOM    114  H31 ARG d   1      36.143  24.306 -10.888  0.00  0.00     0.064 H 
BRANCH 112 115
ATOM    115  NE  ARG d   1      38.131  23.753 -11.220  0.00  0.00    -0.227 N 
ATOM    116  CZ  ARG d   1      38.264  22.853 -10.250  0.00  0.00     0.665 C 
ATOM    117  NH1 ARG d   1      37.410  22.841  -9.233  0.00  0.00    -0.235 N 
ATOM    118  NH2 ARG d   1      39.245  21.965 -10.300  0.00  0.00    -0.235 N 
ATOM    119  H33 ARG d   1      37.513  22.144  -8.482  0.00  0.00     0.174 HD
ATOM    120  H34 ARG d   1      36.644  23.529  -9.195  0.00  0.00     0.174 HD
ATOM    121  H35 ARG d   1      39.908  21.974 -11.088  0.00  0.00     0.174 HD
ATOM    122  H36 ARG d   1      39.345  21.266  -9.550  0.00  0.00     0.174 HD
ATOM    123  H32 ARG d   1      38.813  23.739 -11.992  0.00  0.00     0.177 HD
ENDBRANCH 112 115
ENDBRANCH 109 112
ENDBRANCH 106 109
ENDBRANCH   1 106
TORSDOF 37
