REMARK  8 active torsions:
REMARK  status: ('A' for Active; 'I' for Inactive)
REMARK    1  A    between atoms: C12_15  and  C14_7 
REMARK    2  A    between atoms: C3_18  and  C4_8 
REMARK    3  A    between atoms: C22_10  and  O23_25 
REMARK    4  A    between atoms: C16_11  and  O17_26 
REMARK    5  A    between atoms: C8_12  and  C9_13 
REMARK    6  A    between atoms: CA_14  and  C_16 
REMARK    7  A    between atoms: C2_19  and  C1_17 
REMARK    8  A    between atoms: C3_18  and  C2_19 
ROOT
ATOM      1  C20 57Y d   1       1.156 -21.495  22.104  0.00  0.00    -0.066 A 
ATOM      2  C21 57Y d   1       1.587 -20.364  21.414  0.00  0.00    -0.049 A 
ATOM      3  C19 57Y d   1       1.904 -21.899  23.226  0.00  0.00     0.025 A 
ATOM      4  C4  57Y d   1       3.501 -19.988  22.964  0.00  0.00     0.006 A 
ATOM      5  C5  57Y d   1       3.046 -21.152  23.586  0.00  0.00     0.098 A 
ATOM      6  C22 57Y d   1       2.706 -19.666  21.845  0.00  0.00     0.074 A 
ATOM      7  C8  57Y d   1       1.840 -22.961  24.178  0.00  0.00     0.081 A 
ATOM      8  N7  57Y d   1       2.848 -22.867  25.074  0.00  0.00    -0.275 N 
ATOM      9  N6  57Y d   1       3.548 -21.763  24.720  0.00  0.00    -0.173 NA
ATOM     10  H1  57Y d   1       0.276 -22.044  21.788  0.00  0.00     0.085 H 
ATOM     11  H2  57Y d   1       1.046 -20.028  20.537  0.00  0.00     0.087 H 
ATOM     12  H13 57Y d   1       3.043 -23.502  25.861  0.00  0.00     0.189 HD
ENDROOT
BRANCH   7  13
ATOM     13  C9  57Y d   1       0.894 -24.101  24.158  0.00  0.00     0.053 A 
ATOM     14  C10 57Y d   1      -0.311 -24.197  23.447  0.00  0.00     0.022 A 
ATOM     15  N11 57Y d   1      -1.015 -25.383  23.626  0.00  0.00    -0.251 NA
ATOM     16  H5  57Y d   1      -0.670 -23.398  22.800  0.00  0.00     0.117 H 
ATOM     17  C12 57Y d   1      -0.395 -26.209  24.434  0.00  0.00     0.109 A 
ATOM     18  S13 57Y d   1       1.103 -25.582  24.994  0.00  0.00    -0.066 SA
BRANCH  17  19
ATOM     19  C14 57Y d   1      -0.892 -27.513  24.827  0.00  0.00     0.020 A 
ATOM     20  C15 57Y d   1      -2.204 -27.839  24.722  0.00  0.00    -0.034 A 
ATOM     21  C16 57Y d   1      -2.615 -29.092  25.125  0.00  0.00     0.102 A 
ATOM     22  H3  57Y d   1      -2.919 -27.126  24.327  0.00  0.00     0.089 H 
ATOM     23  CA  57Y d   1      -1.754 -30.040  25.600  0.00  0.00     0.166 A 
ATOM     24  N   57Y d   1      -0.468 -29.729  25.704  0.00  0.00    -0.251 NA
ATOM     25  C18 57Y d   1      -0.102 -28.501  25.314  0.00  0.00     0.016 A 
ATOM     26  H4  57Y d   1       0.954 -28.269  25.398  0.00  0.00     0.116 H 
BRANCH  21  27
ATOM     27  O17 57Y d   1      -3.919 -29.325  24.993  0.00  0.00    -0.358 OA
ATOM     28  H15 57Y d   1      -4.051 -30.051  24.394  0.00  0.00     0.217 HD
ENDBRANCH  21  27
BRANCH  23  29
ATOM     29  C   57Y d   1      -2.193 -31.378  26.073  0.00  0.00     0.231 C 
ATOM     30  OXT 57Y d   1      -3.361 -31.754  26.163  0.00  0.00    -0.643 OA
ATOM     31  O   57Y d   1      -1.104 -32.081  26.473  0.00  0.00    -0.643 OA
ENDBRANCH  23  29
ENDBRANCH  17  19
ENDBRANCH   7  13
BRANCH   4  32
ATOM     32  C3  57Y d   1       4.736 -19.148  23.378  0.00  0.00    -0.036 C 
ATOM     33  H9  57Y d   1       4.696 -18.897  24.448  0.00  0.00     0.040 H 
ATOM     34  H10 57Y d   1       4.795 -18.223  22.786  0.00  0.00     0.040 H 
BRANCH  32  35
ATOM     35  C2  57Y d   1       5.912 -20.048  23.082  0.00  0.00    -0.065 C 
ATOM     36  H11 57Y d   1       5.673 -21.033  23.509  0.00  0.00     0.032 H 
ATOM     37  H12 57Y d   1       5.981 -20.130  21.987  0.00  0.00     0.032 H 
BRANCH  35  38
ATOM     38  C1  57Y d   1       7.286 -19.682  23.578  0.00  0.00    -0.076 C 
ATOM     39  H6  57Y d   1       8.006 -20.453  23.266  0.00  0.00     0.027 H 
ATOM     40  H7  57Y d   1       7.274 -19.615  24.676  0.00  0.00     0.027 H 
ATOM     41  H8  57Y d   1       7.582 -18.711  23.154  0.00  0.00     0.027 H 
ENDBRANCH  35  38
ENDBRANCH  32  35
ENDBRANCH   4  32
BRANCH   6  42
ATOM     42  O23 57Y d   1       3.022 -18.549  21.107  0.00  0.00    -0.360 OA
ATOM     43  H14 57Y d   1       2.405 -18.459  20.390  0.00  0.00     0.217 HD
ENDBRANCH   6  42
TORSDOF 8
