REMARK  2 active torsions:
REMARK  status: ('A' for Active; 'I' for Inactive)
REMARK    1  A    between atoms: C01_1  and  C02_2 
REMARK       I    between atoms: C02_2  and  N04_4 
REMARK    2  A    between atoms: C08_8  and  C09_9 
ROOT
ATOM      1  C02 XZ8 d   1       8.073 -13.106   2.769  0.00  0.00     0.224 C 
ATOM      2  O03 XZ8 d   1       7.267 -13.075   1.824  0.00  0.00    -0.273 OA
ATOM      3  N04 XZ8 d   1       7.906 -12.508   3.980  0.00  0.00    -0.292 N 
ATOM      4  C05 XZ8 d   1       8.776 -12.539   5.014  0.00  0.00     0.000 A 
ATOM      5  C06 XZ8 d   1       8.270 -11.848   6.050  0.00  0.00     0.010 A 
ATOM      6  C07 XZ8 d   1       8.853 -11.664   7.291  0.00  0.00     0.074 A 
ATOM      7  C08 XZ8 d   1       9.460 -12.578   8.064  0.00  0.00     0.070 A 
ATOM      8  N10 XZ8 d   1       9.877 -12.022   9.202  0.00  0.00    -0.151 NA
ATOM      9  N11 XZ8 d   1       9.581 -10.827   9.187  0.00  0.00    -0.106 NA
ATOM     10  C12 XZ8 d   1       8.946 -10.551   8.043  0.00  0.00     0.298 A 
ATOM     11  O13 XZ8 d   1       8.536  -9.419   7.768  0.00  0.00    -0.264 OA
ATOM     12  C14 XZ8 d   1       7.064 -11.388   5.667  0.00  0.00     0.004 A 
ATOM     13  C15 XZ8 d   1       6.145 -10.657   6.309  0.00  0.00    -0.070 A 
ATOM     14  C16 XZ8 d   1       4.956 -10.287   5.687  0.00  0.00    -0.082 A 
ATOM     15  C17 XZ8 d   1       4.730 -10.703   4.381  0.00  0.00    -0.081 A 
ATOM     16  C18 XZ8 d   1       5.710 -11.466   3.754  0.00  0.00    -0.056 A 
ATOM     17  C19 XZ8 d   1       6.844 -11.793   4.395  0.00  0.00     0.052 A 
ATOM     18  H4  XZ8 d   1       9.740 -13.046   5.009  0.00  0.00     0.113 H 
ATOM     19  H8  XZ8 d   1       6.330 -10.348   7.331  0.00  0.00     0.084 H 
ATOM     20  H9  XZ8 d   1       4.221  -9.686   6.211  0.00  0.00     0.083 H 
ATOM     21  H10 XZ8 d   1       3.814 -10.440   3.864  0.00  0.00     0.083 H 
ATOM     22  H11 XZ8 d   1       5.556 -11.801   2.735  0.00  0.00     0.087 H 
ENDROOT
BRANCH   7  23
ATOM     23  C09 XZ8 d   1       9.676 -14.068   7.780  0.00  0.00    -0.033 C 
ATOM     24  H5  XZ8 d   1      10.210 -14.529   8.624  0.00  0.00     0.035 H 
ATOM     25  H6  XZ8 d   1      10.272 -14.184   6.863  0.00  0.00     0.035 H 
ATOM     26  H7  XZ8 d   1       8.702 -14.561   7.649  0.00  0.00     0.035 H 
ENDBRANCH   7  23
BRANCH   1  27
ATOM     27  C01 XZ8 d   1       9.325 -13.988   2.665  0.00  0.00    -0.002 C 
ATOM     28  H1  XZ8 d   1       9.919 -13.892   3.586  0.00  0.00     0.040 H 
ATOM     29  H2  XZ8 d   1       9.929 -13.667   1.804  0.00  0.00     0.040 H 
ATOM     30  H3  XZ8 d   1       9.024 -15.037   2.531  0.00  0.00     0.040 H 
ENDBRANCH   1  27
TORSDOF 2
