REMARK  10 active torsions:
REMARK  status: ('A' for Active; 'I' for Inactive)
REMARK    1  A    between atoms: C1_1  and  N3_18 
REMARK    2  A    between atoms: C17_12  and  O2_5 
REMARK    3  A    between atoms: C7_22  and  C11_6 
REMARK    4  A    between atoms: C7_22  and  C12_7 
REMARK    5  A    between atoms: N5_25  and  C13_8 
REMARK    6  A    between atoms: N3_18  and  C14_9 
REMARK    7  A    between atoms: N4_19  and  C5_20 
REMARK    8  A    between atoms: C5_20  and  C6_21 
REMARK    9  A    between atoms: C6_21  and  C7_22 
REMARK   10  A    between atoms: C8_23  and  C10_26 
ROOT
ATOM      1  C1  584 d   1      -3.384  14.305  29.923  0.00  0.00     0.728 A 
ATOM      2  C2  584 d   1      -4.988  15.266  28.591  0.00  0.00     0.174 A 
ATOM      3  C3  584 d   1      -4.870  16.491  29.310  0.00  0.00     0.102 A 
ATOM      4  O1  584 d   1      -7.402  18.395  27.656  0.00  0.00    -0.271 OA
ATOM      5  N1  584 d   1      -3.152  15.420  30.628  0.00  0.00    -0.073 NA
ATOM      6  N2  584 d   1      -4.274  14.174  28.921  0.00  0.00    -0.043 NA
ATOM      7  C4  584 d   1      -3.900  16.483  30.305  0.00  0.00     0.051 A 
ATOM      8  N4  584 d   1      -5.769  15.234  27.444  0.00  0.00    -0.350 N 
ATOM      9  C8  584 d   1      -6.337  16.453  26.835  0.00  0.00     0.087 C 
ATOM     10  C9  584 d   1      -6.552  17.542  27.865  0.00  0.00     0.246 C 
ATOM     11  N5  584 d   1      -5.787  17.527  29.016  0.00  0.00    -0.316 N 
ATOM     12  H13 584 d   1      -3.737  17.401  30.858  0.00  0.00     0.119 H 
ATOM     13  H20 584 d   1      -7.316  16.186  26.411  0.00  0.00     0.087 H 
ENDROOT
BRANCH   8  14
ATOM     14  C5  584 d   1      -6.046  13.962  26.777  0.00  0.00    -0.002 C 
ATOM     15  H15 584 d   1      -5.338  13.207  27.150  0.00  0.00     0.064 H 
ATOM     16  H16 584 d   1      -5.905  14.094  25.694  0.00  0.00     0.064 H 
BRANCH  14  17
ATOM     17  C6  584 d   1      -7.464  13.467  27.028  0.00  0.00    -0.047 C 
ATOM     18  H17 584 d   1      -8.159  14.024  26.382  0.00  0.00     0.035 H 
ATOM     19  H18 584 d   1      -7.724  13.641  28.082  0.00  0.00     0.035 H 
BRANCH  17  20
ATOM     20  C7  584 d   1      -7.585  12.002  26.729  0.00  0.00    -0.060 C 
ATOM     21  H19 584 d   1      -7.002  11.456  27.485  0.00  0.00     0.038 H 
BRANCH  20  22
ATOM     22  C11 584 d   1      -9.034  11.608  26.868  0.00  0.00    -0.073 C 
ATOM     23  H2  584 d   1      -9.145  10.535  26.652  0.00  0.00     0.028 H 
ATOM     24  H3  584 d   1      -9.642  12.189  26.159  0.00  0.00     0.028 H 
ATOM     25  H4  584 d   1      -9.373  11.812  27.894  0.00  0.00     0.028 H 
ENDBRANCH  20  22
BRANCH  20  26
ATOM     26  C12 584 d   1      -7.045  11.600  25.366  0.00  0.00    -0.073 C 
ATOM     27  H5  584 d   1      -5.989  11.897  25.288  0.00  0.00     0.028 H 
ATOM     28  H6  584 d   1      -7.626  12.102  24.579  0.00  0.00     0.028 H 
ATOM     29  H7  584 d   1      -7.129  10.510  25.245  0.00  0.00     0.028 H 
ENDBRANCH  20  26
ENDBRANCH  17  20
ENDBRANCH  14  17
ENDBRANCH   8  14
BRANCH   9  30
ATOM     30  C10 584 d   1      -5.466  16.992  25.703  0.00  0.00    -0.049 C 
ATOM     31  H21 584 d   1      -5.929  17.897  25.283  0.00  0.00     0.030 H 
ATOM     32  H22 584 d   1      -5.373  16.229  24.916  0.00  0.00     0.030 H 
ATOM     33  H23 584 d   1      -4.468  17.239  26.094  0.00  0.00     0.030 H 
ENDBRANCH   9  30
BRANCH  11  34
ATOM     34  C13 584 d   1      -5.984  18.606  29.988  0.00  0.00    -0.011 C 
ATOM     35  H8  584 d   1      -5.309  18.457  30.843  0.00  0.00     0.057 H 
ATOM     36  H9  584 d   1      -7.027  18.598  30.338  0.00  0.00     0.057 H 
ATOM     37  H10 584 d   1      -5.764  19.573  29.512  0.00  0.00     0.057 H 
ENDBRANCH  11  34
BRANCH   1  38
ATOM     38  N3  584 d   1      -2.596  13.237  30.249  0.00  0.00    -0.188 N 
ATOM     39  H14 584 d   1      -1.900  13.409  30.988  0.00  0.00     0.184 HD
BRANCH  38  40
ATOM     40  C14 584 d   1      -2.604  11.933  29.714  0.00  0.00     0.055 A 
ATOM     41  C15 584 d   1      -3.824  11.263  29.685  0.00  0.00    -0.016 A 
ATOM     42  C16 584 d   1      -3.883  10.023  29.107  0.00  0.00     0.154 A 
ATOM     43  H11 584 d   1      -4.712  11.715  30.113  0.00  0.00     0.091 H 
ATOM     44  C17 584 d   1      -2.798   9.426  28.507  0.00  0.00     0.143 A 
ATOM     45  F1  584 d   1      -5.024   9.312  29.182  0.00  0.00    -0.203 F 
ATOM     46  C18 584 d   1      -1.590  10.090  28.583  0.00  0.00     0.154 A 
ATOM     47  C19 584 d   1      -1.467  11.325  29.182  0.00  0.00    -0.016 A 
ATOM     48  F2  584 d   1      -0.504   9.509  28.015  0.00  0.00    -0.203 F 
ATOM     49  H12 584 d   1      -0.502  11.816  29.239  0.00  0.00     0.091 H 
BRANCH  44  50
ATOM     50  O2  584 d   1      -2.897   8.310  27.756  0.00  0.00    -0.355 OA
ATOM     51  H1  584 d   1      -2.036   8.066  27.438  0.00  0.00     0.218 HD
ENDBRANCH  44  50
ENDBRANCH  38  40
ENDBRANCH   1  38
TORSDOF 10
