REMARK  4 active torsions:
REMARK  status: ('A' for Active; 'I' for Inactive)
REMARK    1  A    between atoms: C1_1  and  C3_3 
REMARK    2  A    between atoms: C5_12  and  C2_2 
REMARK    3  A    between atoms: C14_9  and  O1_4 
REMARK    4  A    between atoms: C15_10  and  O2_5 
ROOT
ATOM      1  C1  583 d   1      -1.547  11.334  27.637  0.00  0.00     0.022 A 
ATOM      2  C2  583 d   1      -0.535  10.458  28.025  0.00  0.00     0.099 A 
ATOM      3  C4  583 d   1      -1.243  12.545  28.281  0.00  0.00     0.009 A 
ATOM      4  N1  583 d   1       0.306  11.152  28.825  0.00  0.00    -0.174 NA
ATOM      5  N2  583 d   1      -0.130  12.430  28.997  0.00  0.00    -0.288 N 
ATOM      6  H6  583 d   1      -1.838  13.454  28.204  0.00  0.00     0.115 H 
ATOM      7  H9  583 d   1       0.315  13.162  29.569  0.00  0.00     0.188 HD
ENDROOT
BRANCH   1   8
ATOM      8  C3  583 d   1      -2.733  11.080  26.774  0.00  0.00    -0.022 A 
ATOM      9  C6  583 d   1      -3.969  11.646  27.088  0.00  0.00    -0.070 A 
ATOM     10  C10 583 d   1      -5.083  11.406  26.302  0.00  0.00    -0.050 A 
ATOM     11  H7  583 d   1      -4.058  12.283  27.960  0.00  0.00     0.085 H 
ATOM     12  C14 583 d   1      -4.974  10.604  25.174  0.00  0.00     0.065 A 
ATOM     13  H12 583 d   1      -6.039  11.844  26.567  0.00  0.00     0.087 H 
ATOM     14  C11 583 d   1      -3.746  10.046  24.837  0.00  0.00    -0.050 A 
ATOM     15  C7  583 d   1      -2.635  10.286  25.630  0.00  0.00    -0.070 A 
ATOM     16  H3  583 d   1      -3.658   9.423  23.954  0.00  0.00     0.087 H 
ATOM     17  H8  583 d   1      -1.679   9.852  25.359  0.00  0.00     0.085 H 
BRANCH  12  18
ATOM     18  O1  583 d   1      -6.088  10.366  24.416  0.00  0.00    -0.361 OA
ATOM     19  H1  583 d   1      -6.830  10.824  24.793  0.00  0.00     0.217 HD
ENDBRANCH  12  18
ENDBRANCH   1   8
BRANCH   2  20
ATOM     20  C5  583 d   1      -0.370   9.013  27.796  0.00  0.00    -0.005 A 
ATOM     21  C8  583 d   1       0.871   8.482  27.434  0.00  0.00    -0.068 A 
ATOM     22  C12 583 d   1       0.994   7.143  27.103  0.00  0.00    -0.050 A 
ATOM     23  H10 583 d   1       1.744   9.124  27.412  0.00  0.00     0.085 H 
ATOM     24  C15 583 d   1      -0.121   6.313  27.148  0.00  0.00     0.065 A 
ATOM     25  H4  583 d   1       1.958   6.742  26.809  0.00  0.00     0.087 H 
ATOM     26  C13 583 d   1      -1.348   6.821  27.546  0.00  0.00    -0.050 A 
ATOM     27  C9  583 d   1      -1.469   8.161  27.866  0.00  0.00    -0.068 A 
ATOM     28  H5  583 d   1      -2.212   6.169  27.606  0.00  0.00     0.087 H 
ATOM     29  H11 583 d   1      -2.431   8.553  28.175  0.00  0.00     0.085 H 
BRANCH  24  30
ATOM     30  O2  583 d   1      -0.049   5.001  26.807  0.00  0.00    -0.361 OA
ATOM     31  H2  583 d   1       0.239   4.925  25.905  0.00  0.00     0.217 HD
ENDBRANCH  24  30
ENDBRANCH   2  20
TORSDOF 4
