REMARK  7 active torsions:
REMARK  status: ('A' for Active; 'I' for Inactive)
REMARK    1  A    between atoms: N1_9  and  C1_1 
REMARK    2  A    between atoms: C2_2  and  O2_11 
REMARK    3  A    between atoms: C3_3  and  O3_10 
REMARK    4  A    between atoms: C4_4  and  O4_12 
REMARK    5  A    between atoms: C5_5  and  C6_6 
REMARK    6  A    between atoms: C6_6  and  O6_14 
REMARK    7  A    between atoms: C7_7  and  C8_8 
REMARK       I    between atoms: C7_7  and  N1_9 
ROOT
ATOM      1  C1  NBG d   1      -1.569 -38.162  -4.537  0.00  0.00     0.133 C 
ATOM      2  C2  NBG d   1      -0.597 -38.061  -3.356  0.00  0.00     0.104 C 
ATOM      3  C3  NBG d   1       0.451 -39.145  -3.385  0.00  0.00     0.091 C 
ATOM      4  C4  NBG d   1      -0.282 -40.491  -3.473  0.00  0.00     0.089 C 
ATOM      5  C5  NBG d   1      -0.983 -40.442  -4.863  0.00  0.00     0.088 C 
ATOM      6  O5  NBG d   1      -2.052 -39.499  -4.684  0.00  0.00    -0.354 OA
ATOM      7  H1  NBG d   1      -1.063 -37.836  -5.457  0.00  0.00     0.122 H 
ATOM      8  H2  NBG d   1      -1.163 -38.147  -2.417  0.00  0.00     0.093 H 
ATOM      9  H3  NBG d   1       1.101 -39.024  -4.264  0.00  0.00     0.091 H 
ATOM     10  H4  NBG d   1      -1.032 -40.557  -2.671  0.00  0.00     0.091 H 
ATOM     11  H5  NBG d   1      -0.275 -40.102  -5.633  0.00  0.00     0.090 H 
ENDROOT
BRANCH   1  12
ATOM     12  N1  NBG d   1      -2.758 -37.334  -4.282  0.00  0.00    -0.333 N 
ATOM     13  C7  NBG d   1      -3.367 -36.649  -5.265  0.00  0.00     0.215 C 
ATOM     14  O7  NBG d   1      -2.968 -36.600  -6.441  0.00  0.00    -0.274 OA
ATOM     15  H11 NBG d   1      -3.123 -37.279  -3.353  0.00  0.00     0.165 HD
BRANCH  13  16
ATOM     16  C8  NBG d   1      -4.618 -35.908  -4.818  0.00  0.00    -0.003 C 
ATOM     17  H8  NBG d   1      -5.055 -35.376  -5.676  0.00  0.00     0.040 H 
ATOM     18  H9  NBG d   1      -4.355 -35.184  -4.033  0.00  0.00     0.040 H 
ATOM     19  H10 NBG d   1      -5.349 -36.628  -4.423  0.00  0.00     0.040 H 
ENDBRANCH  13  16
ENDBRANCH   1  12
BRANCH   2  20
ATOM     20  O2  NBG d   1       0.021 -36.787  -3.421  0.00  0.00    -0.389 OA
ATOM     21  H13 NBG d   1       0.520 -36.719  -4.227  0.00  0.00     0.210 HD
ENDBRANCH   2  20
BRANCH   3  22
ATOM     22  O3  NBG d   1       1.246 -39.029  -2.185  0.00  0.00    -0.390 OA
ATOM     23  H12 NBG d   1       1.679 -38.184  -2.174  0.00  0.00     0.210 HD
ENDBRANCH   3  22
BRANCH   5  24
ATOM     24  C6  NBG d   1      -1.592 -41.773  -5.288  0.00  0.00     0.043 C 
ATOM     25  H6  NBG d   1      -0.804 -42.536  -5.364  0.00  0.00     0.078 H 
ATOM     26  H7  NBG d   1      -2.089 -41.661  -6.263  0.00  0.00     0.078 H 
BRANCH  24  27
ATOM     27  O6  NBG d   1      -2.542 -42.158  -4.305  0.00  0.00    -0.398 OA
ATOM     28  H15 NBG d   1      -2.934 -42.987  -4.552  0.00  0.00     0.209 HD
ENDBRANCH  24  27
ENDBRANCH   5  24
BRANCH   4  29
ATOM     29  O4  NBG d   1       0.576 -41.616  -3.373  0.00  0.00    -0.390 OA
ATOM     30  H14 NBG d   1       0.990 -41.622  -2.518  0.00  0.00     0.210 HD
ENDBRANCH   4  29
TORSDOF 7
