REMARK WARNING: 32 MAX_TORS EXCEEDED!!!
REMARK  41 active torsions:
REMARK  status: ('A' for Active; 'I' for Inactive)
REMARK    1  A    between atoms: N_1  and  CA_2 
REMARK    2  A    between atoms: CA_2  and  C_3 
REMARK    3  A    between atoms: CA_2  and  CB_5 
REMARK       I    between atoms: C_3  and  N_6 
REMARK    4  A    between atoms: N_6  and  CA_7 
REMARK    5  A    between atoms: CA_7  and  C_8 
REMARK    6  A    between atoms: CA_7  and  CB_10 
REMARK       I    between atoms: C_8  and  N_11 
REMARK    7  A    between atoms: N_11  and  CA_12 
REMARK    8  A    between atoms: CA_12  and  C_13 
REMARK    9  A    between atoms: CA_12  and  CB_15 
REMARK       I    between atoms: C_13  and  N_18 
REMARK   10  A    between atoms: CB_15  and  OG1_16 
REMARK   11  A    between atoms: CB_15  and  CG2_17 
REMARK   12  A    between atoms: N_18  and  CA_19 
REMARK   13  A    between atoms: CA_19  and  C_20 
REMARK   14  A    between atoms: CA_19  and  CB_22 
REMARK       I    between atoms: C_20  and  N_27 
REMARK   15  A    between atoms: CB_22  and  CG_23 
REMARK   16  A    between atoms: CG_23  and  CD_24 
REMARK   17  A    between atoms: CD_24  and  CE_25 
REMARK   18  A    between atoms: CE_25  and  NZ_26 
REMARK   19  A    between atoms: N_27  and  CA_28 
REMARK   20  A    between atoms: CA_28  and  C_29 
REMARK   21  A    between atoms: CA_28  and  CB_31 
REMARK       I    between atoms: C_29  and  N_32 
REMARK   22  A    between atoms: N_32  and  CA_33 
REMARK   23  A    between atoms: CA_33  and  C_34 
REMARK   24  A    between atoms: CA_33  and  CB_36 
REMARK       I    between atoms: C_34  and  N_37 
REMARK   25  A    between atoms: N_37  and  CA_38 
REMARK   26  A    between atoms: CA_38  and  C_39 
REMARK   27  A    between atoms: CA_38  and  CB_41 
REMARK       I    between atoms: C_39  and  N_48 
REMARK   28  A    between atoms: CB_41  and  CG_42 
REMARK   29  A    between atoms: CG_42  and  CD_43 
REMARK   30  A    between atoms: CD_43  and  NE_44 
REMARK       I    between atoms: NE_44  and  CZ_45 
REMARK       I    between atoms: CZ_45  and  NH1_46 
REMARK   31  A    between atoms: N_48  and  CA_49 
REMARK   32  A    between atoms: CA_49  and  C_50 
REMARK   33  A    between atoms: CA_49  and  CB_52 
REMARK       I    between atoms: C_50  and  N_57 
REMARK   34  A    between atoms: CB_52  and  CG_53 
REMARK   35  A    between atoms: CG_53  and  CD_54 
REMARK   36  A    between atoms: CD_54  and  CE_55 
REMARK   37  A    between atoms: CE_55  and  NZ_56 
REMARK   38  A    between atoms: N_57  and  CA_58 
REMARK   39  A    between atoms: CA_58  and  C_59 
REMARK   40  A    between atoms: CA_58  and  CB_61 
REMARK   41  A    between atoms: CB_61  and  OG_62 
ROOT
ATOM      1  C   ALA d   1     -10.440  21.103  -2.208  0.00  0.00     0.240 C 
ATOM      2  O   ALA d   1     -11.363  20.600  -1.569  0.00  0.00    -0.271 OA
ATOM      3  N   ALA d   1     -10.435  22.386  -2.563  0.00  0.00    -0.346 N 
ATOM      4  H38 ALA d   1      -9.693  22.739  -3.134  0.00  0.00     0.163 HD
ENDROOT
BRANCH   1   5
ATOM      5  CA  ALA d   1      -9.246  20.253  -2.659  0.00  0.00     0.086 C 
ATOM      6  H34 ALA d   1      -9.546  19.195  -2.633  0.00  0.00     0.086 H 
BRANCH   5   7
ATOM      7  N   ALA d   1      -8.859  20.588  -4.021  0.00  0.00    -0.346 N 
ATOM      8  C   LYS d   1      -9.650  20.310  -5.053  0.00  0.00     0.241 C 
ATOM      9  O   LYS d   1     -10.767  19.791  -4.928  0.00  0.00    -0.271 OA
ATOM     10  H33 ALA d   1      -7.980  21.037  -4.184  0.00  0.00     0.163 HD
BRANCH   8  11
ATOM     11  CA  LYS d   1      -9.101  20.675  -6.432  0.00  0.00     0.089 C 
ATOM     12  H21 LYS d   1      -9.951  20.808  -7.117  0.00  0.00     0.087 H 
BRANCH  11  13
ATOM     13  N   LYS d   1      -8.346  21.937  -6.394  0.00  0.00    -0.346 N 
ATOM     14  C   THR d   1      -8.865  23.085  -5.942  0.00  0.00     0.243 C 
ATOM     15  O   THR d   1     -10.043  23.230  -5.631  0.00  0.00    -0.271 OA
ATOM     16  H20 LYS d   1      -7.401  21.937  -6.721  0.00  0.00     0.163 HD
BRANCH  14  17
ATOM     17  CA  THR d   1      -7.910  24.247  -5.819  0.00  0.00     0.113 C 
ATOM     18  H14 THR d   1      -7.322  24.326  -6.745  0.00  0.00     0.091 H 
BRANCH  17  19
ATOM     19  N   THR d   1      -8.639  25.486  -5.639  0.00  0.00    -0.344 N 
ATOM     20  C   ALA d   1      -9.269  26.093  -6.642  0.00  0.00     0.240 C 
ATOM     21  O   ALA d   1      -9.270  25.669  -7.803  0.00  0.00    -0.271 OA
ATOM     22  H13 THR d   1      -8.670  25.900  -4.729  0.00  0.00     0.163 HD
BRANCH  20  23
ATOM     23  CA  ALA d   1     -10.014  27.378  -6.281  0.00  0.00     0.086 C 
ATOM     24  H9  ALA d   1      -9.670  27.716  -5.292  0.00  0.00     0.086 H 
BRANCH  23  25
ATOM     25  N   ALA d   1      -9.723  28.413  -7.250  0.00  0.00    -0.346 N 
ATOM     26  C   LEU d   1      -8.483  28.855  -7.433  0.00  0.00     0.248 C 
ATOM     27  O   LEU d   1      -7.498  28.412  -6.812  0.00  0.00    -0.271 OA
ATOM     28  H8  ALA d   1     -10.468  28.802  -7.791  0.00  0.00     0.163 HD
BRANCH  26  29
ATOM     29  CA  LEU d   1      -8.329  29.984  -8.453  0.00  0.00     0.172 C 
ATOM     30  H4  LEU d   1      -9.326  30.251  -8.832  0.00  0.00     0.098 H 
BRANCH  29  31
ATOM     31  N   LEU d   1      -7.750  31.172  -7.810  0.00  0.00    -0.067 N 
ATOM     32  H1  LEU d   1      -7.653  31.909  -8.491  0.00  0.00     0.275 HD
ATOM     33  H2  LEU d   1      -6.844  30.942  -7.433  0.00  0.00     0.275 HD
ATOM     34  H3  LEU d   1      -8.356  31.480  -7.066  0.00  0.00     0.275 HD
ENDBRANCH  29  31
BRANCH  29  35
ATOM     35  CB  LEU d   1      -7.475  29.506  -9.641  0.00  0.00    -0.042 C 
ATOM     36  H5  LEU d   1      -7.941  28.618 -10.094  0.00  0.00     0.030 H 
ATOM     37  H6  LEU d   1      -6.465  29.250  -9.287  0.00  0.00     0.030 H 
ATOM     38  H7  LEU d   1      -7.409  30.308 -10.391  0.00  0.00     0.030 H 
ENDBRANCH  29  35
ENDBRANCH  26  29
ENDBRANCH  23  25
BRANCH  23  39
ATOM     39  CB  ALA d   1     -11.505  27.129  -6.212  0.00  0.00    -0.049 C 
ATOM     40  H10 ALA d   1     -11.711  26.341  -5.473  0.00  0.00     0.030 H 
ATOM     41  H11 ALA d   1     -11.870  26.810  -7.199  0.00  0.00     0.030 H 
ATOM     42  H12 ALA d   1     -12.018  28.055  -5.914  0.00  0.00     0.030 H 
ENDBRANCH  23  39
ENDBRANCH  20  23
ENDBRANCH  17  19
BRANCH  17  43
ATOM     43  CB  THR d   1      -6.956  23.965  -4.658  0.00  0.00     0.060 C 
ATOM     44  H15 THR d   1      -6.363  23.072  -4.903  0.00  0.00     0.086 H 
BRANCH  43  45
ATOM     45  OG1 THR d   1      -7.710  23.699  -3.464  0.00  0.00    -0.393 OA
ATOM     46  H16 THR d   1      -7.113  23.524  -2.746  0.00  0.00     0.210 HD
ENDBRANCH  43  45
BRANCH  43  47
ATOM     47  CG2 THR d   1      -5.994  25.136  -4.443  0.00  0.00    -0.050 C 
ATOM     48  H17 THR d   1      -5.320  24.908  -3.604  0.00  0.00     0.031 H 
ATOM     49  H18 THR d   1      -6.569  26.046  -4.215  0.00  0.00     0.031 H 
ATOM     50  H19 THR d   1      -5.402  25.296  -5.356  0.00  0.00     0.031 H 
ENDBRANCH  43  47
ENDBRANCH  17  43
ENDBRANCH  14  17
ENDBRANCH  11  13
BRANCH  11  51
ATOM     51  CB  LYS d   1      -8.228  19.526  -6.961  0.00  0.00    -0.038 C 
ATOM     52  H22 LYS d   1      -8.792  18.588  -6.850  0.00  0.00     0.036 H 
ATOM     53  H23 LYS d   1      -7.316  19.480  -6.348  0.00  0.00     0.036 H 
BRANCH  51  54
ATOM     54  CG  LYS d   1      -7.813  19.658  -8.418  0.00  0.00    -0.061 C 
ATOM     55  H24 LYS d   1      -7.079  18.875  -8.657  0.00  0.00     0.033 H 
ATOM     56  H25 LYS d   1      -7.359  20.647  -8.576  0.00  0.00     0.033 H 
BRANCH  54  57
ATOM     57  CD  LYS d   1      -9.021  19.509  -9.337  0.00  0.00    -0.043 C 
ATOM     58  H26 LYS d   1      -9.750  20.299  -9.102  0.00  0.00     0.035 H 
ATOM     59  H27 LYS d   1      -9.480  18.524  -9.168  0.00  0.00     0.035 H 
BRANCH  57  60
ATOM     60  CE  LYS d   1      -8.622  19.624 -10.799  0.00  0.00     0.080 C 
ATOM     61  H28 LYS d   1      -7.931  18.803 -11.041  0.00  0.00     0.075 H 
ATOM     62  H29 LYS d   1      -8.115  20.588 -10.951  0.00  0.00     0.075 H 
BRANCH  60  63
ATOM     63  NZ  LYS d   1      -9.790  19.550 -11.719  0.00  0.00    -0.079 N 
ATOM     64  H30 LYS d   1      -9.473  19.631 -12.672  0.00  0.00     0.274 HD
ATOM     65  H31 LYS d   1     -10.428  20.302 -11.513  0.00  0.00     0.274 HD
ATOM     66  H32 LYS d   1     -10.260  18.667 -11.595  0.00  0.00     0.274 HD
ENDBRANCH  60  63
ENDBRANCH  57  60
ENDBRANCH  54  57
ENDBRANCH  51  54
ENDBRANCH  11  51
ENDBRANCH   8  11
ENDBRANCH   5   7
BRANCH   5  67
ATOM     67  CB  ALA d   1      -8.084  20.437  -1.734  0.00  0.00    -0.049 C 
ATOM     68  H35 ALA d   1      -8.388  20.181  -0.708  0.00  0.00     0.030 H 
ATOM     69  H36 ALA d   1      -7.751  21.485  -1.767  0.00  0.00     0.030 H 
ATOM     70  H37 ALA d   1      -7.259  19.780  -2.047  0.00  0.00     0.030 H 
ENDBRANCH   5  67
ENDBRANCH   1   5
BRANCH   3  71
ATOM     71  CA  ALA d   1     -11.498  23.281  -2.129  0.00  0.00     0.086 C 
ATOM     72  H39 ALA d   1     -11.614  23.167  -1.041  0.00  0.00     0.086 H 
BRANCH  71  73
ATOM     73  C   ALA d   1     -12.828  22.932  -2.783  0.00  0.00     0.240 C 
ATOM     74  O   ALA d   1     -13.892  23.315  -2.293  0.00  0.00    -0.271 OA
ATOM     75  N   ARG d   1     -12.769  22.192  -3.884  0.00  0.00    -0.346 N 
ATOM     76  H43 ARG d   1     -11.882  21.862  -4.207  0.00  0.00     0.163 HD
BRANCH  75  77
ATOM     77  CA  ARG d   1     -13.970  21.853  -4.627  0.00  0.00     0.089 C 
ATOM     78  H44 ARG d   1     -14.730  22.622  -4.422  0.00  0.00     0.087 H 
BRANCH  77  79
ATOM     79  C   ARG d   1     -14.538  20.501  -4.171  0.00  0.00     0.241 C 
ATOM     80  O   ARG d   1     -15.696  20.183  -4.429  0.00  0.00    -0.271 OA
ATOM     81  N   LYS d   1     -13.745  19.721  -3.444  0.00  0.00    -0.346 N 
ATOM     82  H56 LYS d   1     -12.831  20.038  -3.192  0.00  0.00     0.163 HD
BRANCH  81  83
ATOM     83  CA  LYS d   1     -14.204  18.399  -3.010  0.00  0.00     0.089 C 
ATOM     84  H57 LYS d   1     -14.461  17.828  -3.914  0.00  0.00     0.087 H 
BRANCH  83  85
ATOM     85  C   LYS d   1     -15.433  18.441  -2.118  0.00  0.00     0.241 C 
ATOM     86  O   LYS d   1     -15.484  19.191  -1.146  0.00  0.00    -0.271 OA
ATOM     87  N   SER d   1     -16.402  17.592  -2.448  0.00  0.00    -0.343 N 
ATOM     88  H69 SER d   1     -16.319  17.082  -3.304  0.00  0.00     0.163 HD
BRANCH  87  89
ATOM     89  CA  SER d   1     -17.581  17.371  -1.616  0.00  0.00     0.116 C 
ATOM     90  H70 SER d   1     -17.946  18.349  -1.268  0.00  0.00     0.093 H 
BRANCH  89  91
ATOM     91  C   SER d   1     -17.254  16.513  -0.387  0.00  0.00     0.198 C 
ATOM     92  O   SER d   1     -18.132  16.181   0.416  0.00  0.00    -0.646 OA
ATOM     93  OXT SER d   1     -16.102  16.127  -0.162  0.00  0.00    -0.646 OA
ENDBRANCH  89  91
BRANCH  89  94
ATOM     94  CB  SER d   1     -18.686  16.702  -2.440  0.00  0.00     0.045 C 
ATOM     95  H71 SER d   1     -19.549  16.500  -1.788  0.00  0.00     0.077 H 
ATOM     96  H72 SER d   1     -18.306  15.754  -2.849  0.00  0.00     0.077 H 
BRANCH  94  97
ATOM     97  OG  SER d   1     -19.099  17.538  -3.511  0.00  0.00    -0.398 OA
ATOM     98  H73 SER d   1     -18.358  17.712  -4.079  0.00  0.00     0.209 HD
ENDBRANCH  94  97
ENDBRANCH  89  94
ENDBRANCH  87  89
ENDBRANCH  83  85
BRANCH  83  99
ATOM     99  CB  LYS d   1     -13.106  17.653  -2.264  0.00  0.00    -0.038 C 
ATOM    100  H58 LYS d   1     -12.893  18.188  -1.327  0.00  0.00     0.036 H 
ATOM    101  H59 LYS d   1     -12.203  17.640  -2.892  0.00  0.00     0.036 H 
BRANCH  99 102
ATOM    102  CG  LYS d   1     -13.484  16.214  -1.926  0.00  0.00    -0.061 C 
ATOM    103  H60 LYS d   1     -13.685  15.671  -2.861  0.00  0.00     0.033 H 
ATOM    104  H61 LYS d   1     -14.391  16.222  -1.304  0.00  0.00     0.033 H 
BRANCH 102 105
ATOM    105  CD  LYS d   1     -12.378  15.499  -1.172  0.00  0.00    -0.043 C 
ATOM    106  H62 LYS d   1     -12.199  16.015  -0.217  0.00  0.00     0.035 H 
ATOM    107  H63 LYS d   1     -11.459  15.516  -1.776  0.00  0.00     0.035 H 
BRANCH 105 108
ATOM    108  CE  LYS d   1     -12.761  14.076  -0.898  0.00  0.00     0.080 C 
ATOM    109  H64 LYS d   1     -13.010  13.581  -1.848  0.00  0.00     0.075 H 
ATOM    110  H65 LYS d   1     -13.639  14.060  -0.235  0.00  0.00     0.075 H 
BRANCH 108 111
ATOM    111  NZ  LYS d   1     -11.656  13.351  -0.252  0.00  0.00    -0.079 N 
ATOM    112  H66 LYS d   1     -11.936  12.398  -0.078  0.00  0.00     0.274 HD
ATOM    113  H67 LYS d   1     -11.425  13.799   0.621  0.00  0.00     0.274 HD
ATOM    114  H68 LYS d   1     -10.850  13.359  -0.857  0.00  0.00     0.274 HD
ENDBRANCH 108 111
ENDBRANCH 105 108
ENDBRANCH 102 105
ENDBRANCH  99 102
ENDBRANCH  83  99
ENDBRANCH  81  83
ENDBRANCH  77  79
BRANCH  77 115
ATOM    115  CB  ARG d   1     -13.668  21.874  -6.134  0.00  0.00    -0.036 C 
ATOM    116  H45 ARG d   1     -14.546  21.491  -6.675  0.00  0.00     0.036 H 
ATOM    117  H46 ARG d   1     -12.804  21.222  -6.329  0.00  0.00     0.036 H 
BRANCH 115 118
ATOM    118  CG  ARG d   1     -13.348  23.284  -6.652  0.00  0.00    -0.048 C 
ATOM    119  H47 ARG d   1     -12.552  23.706  -6.021  0.00  0.00     0.035 H 
ATOM    120  H48 ARG d   1     -14.256  23.897  -6.555  0.00  0.00     0.035 H 
BRANCH 118 121
ATOM    121  CD  ARG d   1     -12.887  23.351  -8.102  0.00  0.00     0.009 C 
ATOM    122  H49 ARG d   1     -12.126  22.574  -8.268  0.00  0.00     0.064 H 
ATOM    123  H50 ARG d   1     -12.446  24.341  -8.288  0.00  0.00     0.064 H 
BRANCH 121 124
ATOM    124  NE  ARG d   1     -13.982  23.142  -9.040  0.00  0.00    -0.227 N 
ATOM    125  CZ  ARG d   1     -13.827  22.650 -10.273  0.00  0.00     0.665 C 
ATOM    126  NH1 ARG d   1     -12.613  22.317 -10.727  0.00  0.00    -0.235 N 
ATOM    127  NH2 ARG d   1     -14.888  22.508 -11.072  0.00  0.00    -0.235 N 
ATOM    128  H52 ARG d   1     -12.505  21.939 -11.679  0.00  0.00     0.174 HD
ATOM    129  H53 ARG d   1     -11.787  22.439 -10.124  0.00  0.00     0.174 HD
ATOM    130  H54 ARG d   1     -15.826  22.762 -10.732  0.00  0.00     0.174 HD
ATOM    131  H55 ARG d   1     -14.768  22.145 -12.028  0.00  0.00     0.174 HD
ATOM    132  H51 ARG d   1     -14.934  23.389  -8.734  0.00  0.00     0.177 HD
ENDBRANCH 121 124
ENDBRANCH 118 121
ENDBRANCH 115 118
ENDBRANCH  77 115
ENDBRANCH  75  77
ENDBRANCH  71  73
BRANCH  71 133
ATOM    133  CB  ALA d   1     -11.132  24.717  -2.417  0.00  0.00    -0.049 C 
ATOM    134  H40 ALA d   1     -11.946  25.377  -2.083  0.00  0.00     0.030 H 
ATOM    135  H41 ALA d   1     -10.976  24.846  -3.498  0.00  0.00     0.030 H 
ATOM    136  H42 ALA d   1     -10.207  24.974  -1.880  0.00  0.00     0.030 H 
ENDBRANCH  71 133
ENDBRANCH   3  71
TORSDOF 41
