REMARK  11 active torsions:
REMARK  status: ('A' for Active; 'I' for Inactive)
REMARK    1  A    between atoms: C6_3  and  NAY_15 
REMARK    2  A    between atoms: CAU_10  and  CBM_7 
REMARK    3  A    between atoms: CBB_11  and  CAU_10 
REMARK    4  A    between atoms: NAY_15  and  CBI_16 
REMARK    5  A    between atoms: NBJ_21  and  CAT_22 
REMARK    6  A    between atoms: CAT_22  and  CBA_23 
REMARK    7  A    between atoms: NBK_33  and  CAV_34 
REMARK    8  A    between atoms: CAV_34  and  CBL_35 
REMARK    9  A    between atoms: CBL_35  and  OAD_36 
REMARK   10  A    between atoms: CBL_35  and  CAO_37 
REMARK   11  A    between atoms: CAO_37  and  OAB_38 
ROOT
ATOM      1  CBA 58P d   1     -14.307 -17.200 -11.432  0.00  0.00    -0.032 A 
ATOM      2  CAL 58P d   1     -15.465 -17.724 -12.028  0.00  0.00    -0.063 A 
ATOM      3  CAJ 58P d   1     -13.126 -17.959 -11.551  0.00  0.00    -0.073 A 
ATOM      4  CAK 58P d   1     -13.135 -19.161 -12.274  0.00  0.00    -0.056 A 
ATOM      5  CBH 58P d   1     -14.277 -19.614 -12.819  0.00  0.00     0.045 A 
ATOM      6  CBE 58P d   1     -15.430 -18.913 -12.692  0.00  0.00    -0.006 A 
ATOM      7  CAM 58P d   1     -16.397 -19.622 -13.331  0.00  0.00    -0.034 A 
ATOM      8  CBC 58P d   1     -15.820 -20.738 -13.806  0.00  0.00     0.117 A 
ATOM      9  CAH 58P d   1     -16.431 -21.813 -14.570  0.00  0.00     0.118 C 
ATOM     10  NAA 58P d   1     -16.883 -22.650 -15.150  0.00  0.00    -0.190 NA
ATOM     11  NBK 58P d   1     -14.519 -20.758 -13.513  0.00  0.00    -0.335 N 
ATOM     12  H18 58P d   1     -16.398 -17.176 -11.959  0.00  0.00     0.085 H 
ATOM     13  H19 58P d   1     -12.211 -17.614 -11.084  0.00  0.00     0.084 H 
ATOM     14  H20 58P d   1     -12.218 -19.726 -12.394  0.00  0.00     0.087 H 
ATOM     15  H21 58P d   1     -17.443 -19.339 -13.438  0.00  0.00     0.089 H 
ENDROOT
BRANCH  11  16
ATOM     16  CAV 58P d   1     -13.553 -21.826 -13.818  0.00  0.00     0.027 C 
ATOM     17  H22 58P d   1     -12.545 -21.399 -13.921  0.00  0.00     0.069 H 
ATOM     18  H23 58P d   1     -13.836 -22.329 -14.755  0.00  0.00     0.069 H 
BRANCH  16  19
ATOM     19  CBL 58P d   1     -13.576 -22.850 -12.639  0.00  0.00     0.071 C 
ATOM     20  H24 58P d   1     -14.597 -23.245 -12.528  0.00  0.00     0.088 H 
BRANCH  19  21
ATOM     21  OAD 58P d   1     -13.168 -22.249 -11.385  0.00  0.00    -0.392 OA
ATOM     22  H25 58P d   1     -12.283 -21.914 -11.469  0.00  0.00     0.210 HD
ENDBRANCH  19  21
BRANCH  19  23
ATOM     23  CAO 58P d   1     -12.616 -23.995 -12.979  0.00  0.00     0.042 C 
ATOM     24  H26 58P d   1     -11.660 -23.588 -13.340  0.00  0.00     0.077 H 
ATOM     25  H27 58P d   1     -13.058 -24.637 -13.755  0.00  0.00     0.077 H 
BRANCH  23  26
ATOM     26  OAB 58P d   1     -12.403 -24.755 -11.777  0.00  0.00    -0.398 OA
ATOM     27  H28 58P d   1     -12.026 -24.193 -11.111  0.00  0.00     0.209 HD
ENDBRANCH  23  26
ENDBRANCH  19  23
ENDBRANCH  16  19
ENDBRANCH  11  16
BRANCH   1  28
ATOM     28  CAT 58P d   1     -14.386 -15.951 -10.639  0.00  0.00     0.107 C 
ATOM     29  H16 58P d   1     -15.378 -15.509 -10.815  0.00  0.00     0.083 H 
ATOM     30  H17 58P d   1     -14.290 -16.226  -9.578  0.00  0.00     0.083 H 
BRANCH  28  31
ATOM     31  NBJ 58P d   1     -13.368 -14.898 -10.924  0.00  0.00    -0.067 N 
ATOM     32  CAS 58P d   1     -13.580 -14.467 -12.307  0.00  0.00     0.086 C 
ATOM     33  CAQ 58P d   1     -12.534 -13.384 -12.572  0.00  0.00    -0.023 C 
ATOM     34  H9  58P d   1     -13.440 -15.312 -12.997  0.00  0.00     0.076 H 
ATOM     35  H10 58P d   1     -14.594 -14.058 -12.429  0.00  0.00     0.076 H 
ATOM     36  CBI 58P d   1     -12.676 -12.189 -11.652  0.00  0.00     0.014 C 
ATOM     37  H7  58P d   1     -11.534 -13.820 -12.430  0.00  0.00     0.038 H 
ATOM     38  H8  58P d   1     -12.640 -13.041 -13.612  0.00  0.00     0.038 H 
ATOM     39  CAP 58P d   1     -12.554 -12.660 -10.245  0.00  0.00    -0.023 C 
ATOM     40  H6  58P d   1     -13.656 -11.714 -11.809  0.00  0.00     0.072 H 
ATOM     41  CAR 58P d   1     -13.537 -13.785  -9.977  0.00  0.00     0.086 C 
ATOM     42  H11 58P d   1     -12.766 -11.823  -9.563  0.00  0.00     0.038 H 
ATOM     43  H12 58P d   1     -11.530 -13.024 -10.072  0.00  0.00     0.038 H 
ATOM     44  H13 58P d   1     -14.560 -13.392 -10.069  0.00  0.00     0.076 H 
ATOM     45  H14 58P d   1     -13.378 -14.160  -8.955  0.00  0.00     0.076 H 
ATOM     46  H15 58P d   1     -12.440 -15.278 -10.826  0.00  0.00     0.280 HD
BRANCH  36  47
ATOM     47  NAY 58P d   1     -11.599 -11.208 -11.909  0.00  0.00    -0.369 N 
ATOM     48  H5  58P d   1     -10.637 -11.561 -12.014  0.00  0.00     0.161 HD
BRANCH  47  49
ATOM     49  C6  58P d   1     -11.800  -9.893 -12.013  0.00  0.00     0.138 A 
ATOM     50  C5  58P d   1     -10.768  -9.039 -12.418  0.00  0.00     0.046 A 
ATOM     51  C4  58P d   1     -11.061  -7.708 -12.541  0.00  0.00     0.113 A 
ATOM     52  CAN 58P d   1      -9.428  -9.271 -12.700  0.00  0.00    -0.053 A 
ATOM     53  N3  58P d   1     -12.274  -7.177 -12.291  0.00  0.00    -0.234 NA
ATOM     54  SAZ 58P d   1      -9.748  -6.767 -13.058  0.00  0.00    -0.074 SA
ATOM     55  C2  58P d   1     -13.244  -8.044 -11.882  0.00  0.00     0.090 A 
ATOM     56  N1  58P d   1     -13.043  -9.420 -11.724  0.00  0.00    -0.224 NA
ATOM     57  H4  58P d   1     -14.228  -7.644 -11.667  0.00  0.00     0.146 H 
ATOM     58  CBB 58P d   1      -8.776  -8.130 -13.046  0.00  0.00    -0.006 A 
ATOM     59  H3  58P d   1      -8.956 -10.251 -12.650  0.00  0.00     0.086 H 
BRANCH  58  60
ATOM     60  CAU 58P d   1      -7.298  -8.046 -13.411  0.00  0.00     0.056 C 
ATOM     61  H1  58P d   1      -6.959  -9.024 -13.784  0.00  0.00     0.054 H 
ATOM     62  H2  58P d   1      -7.159  -7.286 -14.194  0.00  0.00     0.054 H 
BRANCH  60  63
ATOM     63  CBM 58P d   1      -6.463  -7.655 -12.162  0.00  0.00     0.392 C 
ATOM     64  FAE 58P d   1      -6.816  -6.457 -11.762  0.00  0.00    -0.171 F 
ATOM     65  FAF 58P d   1      -6.638  -8.388 -11.130  0.00  0.00    -0.171 F 
ATOM     66  FAG 58P d   1      -5.161  -7.649 -12.437  0.00  0.00    -0.171 F 
ENDBRANCH  60  63
ENDBRANCH  58  60
ENDBRANCH  47  49
ENDBRANCH  36  47
ENDBRANCH  28  31
ENDBRANCH   1  28
TORSDOF 11
