REMARK  8 active torsions:
REMARK  status: ('A' for Active; 'I' for Inactive)
REMARK    1  A    between atoms: C6_3  and  NAT_15 
REMARK    2  A    between atoms: CAQ_10  and  CBI_7 
REMARK    3  A    between atoms: CAY_11  and  CAQ_10 
REMARK    4  A    between atoms: NAT_15  and  CBG_16 
REMARK    5  A    between atoms: NBH_21  and  CAP_22 
REMARK    6  A    between atoms: CAP_22  and  CAZ_23 
REMARK    7  A    between atoms: CBA_33  and  OAV_34 
REMARK    8  A    between atoms: OAV_34  and  CAA_35 
ROOT
ATOM      1  CAZ 58O d   1     -14.048  17.190  11.120  0.00  0.00     0.002 A 
ATOM      2  CAI 58O d   1     -15.160  17.727  11.821  0.00  0.00    -0.060 A 
ATOM      3  CBC 58O d   1     -15.111  18.847  12.538  0.00  0.00    -0.006 A 
ATOM      4  CAH 58O d   1     -16.070  19.500  13.272  0.00  0.00    -0.035 A 
ATOM      5  CAX 58O d   1     -15.474  20.582  13.790  0.00  0.00     0.115 A 
ATOM      6  CAF 58O d   1     -16.013  21.660  14.663  0.00  0.00     0.117 C 
ATOM      7  NAB 58O d   1     -16.422  22.455  15.308  0.00  0.00    -0.190 NA
ATOM      8  NAU 58O d   1     -14.193  20.632  13.409  0.00  0.00    -0.347 N 
ATOM      9  CBD 58O d   1     -13.955  19.556  12.640  0.00  0.00     0.046 A 
ATOM     10  CAK 58O d   1     -12.843  19.145  11.993  0.00  0.00    -0.024 A 
ATOM     11  CBA 58O d   1     -12.881  17.954  11.218  0.00  0.00     0.078 A 
ATOM     12  H18 58O d   1     -16.103  17.194  11.769  0.00  0.00     0.086 H 
ATOM     13  H19 58O d   1     -17.108  19.199  13.406  0.00  0.00     0.089 H 
ATOM     14  H20 58O d   1     -13.512  21.363  13.660  0.00  0.00     0.167 HD
ATOM     15  H21 58O d   1     -11.927  19.720  12.064  0.00  0.00     0.091 H 
ENDROOT
BRANCH   1  16
ATOM     16  CAP 58O d   1     -14.157  15.962  10.291  0.00  0.00     0.110 C 
ATOM     17  H16 58O d   1     -15.192  15.596  10.355  0.00  0.00     0.083 H 
ATOM     18  H17 58O d   1     -13.927  16.231   9.249  0.00  0.00     0.083 H 
BRANCH  16  19
ATOM     19  NBH 58O d   1     -13.231  14.834  10.703  0.00  0.00    -0.067 N 
ATOM     20  CAO 58O d   1     -13.665  14.252  12.037  0.00  0.00     0.086 C 
ATOM     21  CAM 58O d   1     -12.623  13.170  12.353  0.00  0.00    -0.023 C 
ATOM     22  H9  58O d   1     -13.665  15.028  12.816  0.00  0.00     0.076 H 
ATOM     23  H10 58O d   1     -14.670  13.811  11.958  0.00  0.00     0.076 H 
ATOM     24  CBG 58O d   1     -12.721  12.044  11.364  0.00  0.00     0.014 C 
ATOM     25  H7  58O d   1     -11.616  13.611  12.302  0.00  0.00     0.038 H 
ATOM     26  H8  58O d   1     -12.802  12.780  13.366  0.00  0.00     0.038 H 
ATOM     27  CAL 58O d   1     -12.485  12.519   9.962  0.00  0.00    -0.023 C 
ATOM     28  H6  58O d   1     -13.711  11.568  11.422  0.00  0.00     0.072 H 
ATOM     29  CAN 58O d   1     -13.351  13.771   9.660  0.00  0.00     0.086 C 
ATOM     30  H11 58O d   1     -12.751  11.716   9.258  0.00  0.00     0.038 H 
ATOM     31  H12 58O d   1     -11.422  12.776   9.841  0.00  0.00     0.038 H 
ATOM     32  H13 58O d   1     -14.404  13.461   9.597  0.00  0.00     0.076 H 
ATOM     33  H14 58O d   1     -13.034  14.191   8.694  0.00  0.00     0.076 H 
ATOM     34  H15 58O d   1     -12.281  15.166  10.765  0.00  0.00     0.280 HD
BRANCH  24  35
ATOM     35  NAT 58O d   1     -11.647  11.081  11.783  0.00  0.00    -0.369 N 
ATOM     36  H5  58O d   1     -10.702  11.457  11.949  0.00  0.00     0.161 HD
BRANCH  35  37
ATOM     37  C6  58O d   1     -11.839   9.749  11.957  0.00  0.00     0.138 A 
ATOM     38  C5  58O d   1     -10.773   8.924  12.349  0.00  0.00     0.046 A 
ATOM     39  C4  58O d   1     -11.056   7.585  12.499  0.00  0.00     0.113 A 
ATOM     40  CAJ 58O d   1      -9.458   9.183  12.631  0.00  0.00    -0.053 A 
ATOM     41  N3  58O d   1     -12.285   7.050  12.254  0.00  0.00    -0.234 NA
ATOM     42  SAW 58O d   1      -9.682   6.754  13.026  0.00  0.00    -0.074 SA
ATOM     43  C2  58O d   1     -13.314   7.875  11.853  0.00  0.00     0.090 A 
ATOM     44  N1  58O d   1     -13.052   9.231  11.689  0.00  0.00    -0.224 NA
ATOM     45  H4  58O d   1     -14.305   7.476  11.670  0.00  0.00     0.146 H 
ATOM     46  CAY 58O d   1      -8.700   8.082  12.982  0.00  0.00    -0.006 A 
ATOM     47  H3  58O d   1      -9.039  10.187  12.582  0.00  0.00     0.086 H 
BRANCH  46  48
ATOM     48  CAQ 58O d   1      -7.240   8.121  13.321  0.00  0.00     0.056 C 
ATOM     49  H1  58O d   1      -6.941   9.158  13.533  0.00  0.00     0.054 H 
ATOM     50  H2  58O d   1      -7.053   7.497  14.207  0.00  0.00     0.054 H 
BRANCH  48  51
ATOM     51  CBI 58O d   1      -6.420   7.584  12.133  0.00  0.00     0.392 C 
ATOM     52  FAC 58O d   1      -5.162   7.651  12.420  0.00  0.00    -0.171 F 
ATOM     53  FAD 58O d   1      -6.724   6.332  11.859  0.00  0.00    -0.171 F 
ATOM     54  FAE 58O d   1      -6.653   8.290  11.072  0.00  0.00    -0.171 F 
ENDBRANCH  48  51
ENDBRANCH  46  48
ENDBRANCH  35  37
ENDBRANCH  24  35
ENDBRANCH  16  19
ENDBRANCH   1  16
BRANCH  11  55
ATOM     55  OAV 58O d   1     -11.822  17.442  10.530  0.00  0.00    -0.355 OA
BRANCH  55  56
ATOM     56  CAA 58O d   1     -10.528  18.042  10.644  0.00  0.00     0.010 C 
ATOM     57  H22 58O d   1      -9.811  17.490  10.018  0.00  0.00     0.066 H 
ATOM     58  H23 58O d   1     -10.200  18.009  11.693  0.00  0.00     0.066 H 
ATOM     59  H24 58O d   1     -10.578  19.088  10.308  0.00  0.00     0.066 H 
ENDBRANCH  55  56
ENDBRANCH  11  55
TORSDOF 8
