REMARK  8 active torsions:
REMARK  status: ('A' for Active; 'I' for Inactive)
REMARK    1  A    between atoms: C6_3  and  NAW_15 
REMARK    2  A    between atoms: CAT_10  and  CBK_7 
REMARK    3  A    between atoms: CBA_11  and  CAT_10 
REMARK    4  A    between atoms: NAW_15  and  CBH_16 
REMARK    5  A    between atoms: NBI_21  and  CAS_22 
REMARK    6  A    between atoms: CAS_22  and  CAZ_23 
REMARK    7  A    between atoms: N_33  and  CA_34 
REMARK    8  A    between atoms: CA_34  and  C_35 
REMARK       I    between atoms: C_35  and  NAB_37 
ROOT
ATOM      1  CAZ 58R d   1      10.189  17.299  11.410  0.00  0.00    -0.032 A 
ATOM      2  CAK 58R d   1       9.005  17.820  11.981  0.00  0.00    -0.063 A 
ATOM      3  CAI 58R d   1      11.396  18.003  11.585  0.00  0.00    -0.073 A 
ATOM      4  CAJ 58R d   1      11.418  19.178  12.382  0.00  0.00    -0.056 A 
ATOM      5  CBG 58R d   1      10.240  19.671  12.862  0.00  0.00     0.046 A 
ATOM      6  CBD 58R d   1       9.082  18.983  12.692  0.00  0.00    -0.006 A 
ATOM      7  CAL 58R d   1       8.089  19.715  13.325  0.00  0.00    -0.034 A 
ATOM      8  CBB 58R d   1       8.681  20.790  13.855  0.00  0.00     0.117 A 
ATOM      9  CAG 58R d   1       8.090  21.901  14.647  0.00  0.00     0.118 C 
ATOM     10  NAA 58R d   1       7.667  22.712  15.210  0.00  0.00    -0.190 NA
ATOM     11  N   58R d   1      10.009  20.801  13.617  0.00  0.00    -0.329 N 
ATOM     12  H18 58R d   1       8.058  17.308  11.857  0.00  0.00     0.085 H 
ATOM     13  H19 58R d   1      12.305  17.649  11.113  0.00  0.00     0.084 H 
ATOM     14  H20 58R d   1      12.355  19.675  12.605  0.00  0.00     0.087 H 
ATOM     15  H21 58R d   1       7.031  19.463  13.380  0.00  0.00     0.089 H 
ENDROOT
BRANCH  11  16
ATOM     16  CA  58R d   1      11.046  21.799  14.050  0.00  0.00     0.074 C 
ATOM     17  H22 58R d   1      12.016  21.292  14.161  0.00  0.00     0.079 H 
ATOM     18  H23 58R d   1      10.749  22.238  15.014  0.00  0.00     0.079 H 
BRANCH  16  19
ATOM     19  C   58R d   1      11.170  22.894  13.020  0.00  0.00     0.233 C 
ATOM     20  O   58R d   1      10.169  23.346  12.450  0.00  0.00    -0.272 OA
ATOM     21  NAB 58R d   1      12.415  23.379  12.876  0.00  0.00    -0.369 N 
ATOM     22  H24 58R d   1      12.594  24.108  12.216  0.00  0.00     0.159 HD
ATOM     23  H25 58R d   1      13.162  23.011  13.429  0.00  0.00     0.159 HD
ENDBRANCH  16  19
ENDBRANCH  11  16
BRANCH   1  24
ATOM     24  CAS 58R d   1      10.082  16.088  10.589  0.00  0.00     0.107 C 
ATOM     25  H16 58R d   1       9.085  15.650  10.745  0.00  0.00     0.083 H 
ATOM     26  H17 58R d   1      10.196  16.373   9.533  0.00  0.00     0.083 H 
BRANCH  24  27
ATOM     27  NBI 58R d   1      11.111  15.048  10.912  0.00  0.00    -0.067 N 
ATOM     28  CAQ 58R d   1      10.887  14.527  12.291  0.00  0.00     0.086 C 
ATOM     29  CAO 58R d   1      11.894  13.446  12.556  0.00  0.00    -0.023 C 
ATOM     30  H9  58R d   1      11.014  15.340  13.021  0.00  0.00     0.076 H 
ATOM     31  H10 58R d   1       9.870  14.116  12.373  0.00  0.00     0.076 H 
ATOM     32  CBH 58R d   1      11.803  12.274  11.580  0.00  0.00     0.014 C 
ATOM     33  H7  58R d   1      12.901  13.883  12.482  0.00  0.00     0.038 H 
ATOM     34  H8  58R d   1      11.734  13.064  13.575  0.00  0.00     0.038 H 
ATOM     35  CAN 58R d   1      11.983  12.815  10.212  0.00  0.00    -0.023 C 
ATOM     36  H6  58R d   1      10.819  11.790  11.659  0.00  0.00     0.072 H 
ATOM     37  CAP 58R d   1      10.926  13.884   9.981  0.00  0.00     0.086 C 
ATOM     38  H11 58R d   1      11.864  12.008   9.474  0.00  0.00     0.038 H 
ATOM     39  H12 58R d   1      12.986  13.256  10.115  0.00  0.00     0.038 H 
ATOM     40  H13 58R d   1       9.931  13.446  10.149  0.00  0.00     0.076 H 
ATOM     41  H14 58R d   1      10.999  14.241   8.943  0.00  0.00     0.076 H 
ATOM     42  H15 58R d   1      12.037  15.435  10.824  0.00  0.00     0.280 HD
BRANCH  32  43
ATOM     43  NAW 58R d   1      12.855  11.302  11.914  0.00  0.00    -0.369 N 
ATOM     44  H5  58R d   1      13.799  11.674  12.091  0.00  0.00     0.161 HD
BRANCH  43  45
ATOM     45  C6  58R d   1      12.689   9.945  12.010  0.00  0.00     0.138 A 
ATOM     46  C5  58R d   1      13.735   9.135  12.436  0.00  0.00     0.046 A 
ATOM     47  C4  58R d   1      13.476   7.784  12.545  0.00  0.00     0.113 A 
ATOM     48  CAM 58R d   1      15.068   9.363  12.686  0.00  0.00    -0.053 A 
ATOM     49  N3  58R d   1      12.269   7.244  12.304  0.00  0.00    -0.234 NA
ATOM     50  SAX 58R d   1      14.793   6.882  13.030  0.00  0.00    -0.074 SA
ATOM     51  C2  58R d   1      11.270   8.088  11.902  0.00  0.00     0.090 A 
ATOM     52  N1  58R d   1      11.449   9.446  11.732  0.00  0.00    -0.224 NA
ATOM     53  H4  58R d   1      10.289   7.669  11.707  0.00  0.00     0.146 H 
ATOM     54  CBA 58R d   1      15.799   8.231  13.027  0.00  0.00    -0.006 A 
ATOM     55  H3  58R d   1      15.516  10.354  12.622  0.00  0.00     0.086 H 
BRANCH  54  56
ATOM     56  CAT 58R d   1      17.285   8.212  13.378  0.00  0.00     0.056 C 
ATOM     57  H1  58R d   1      17.619   9.227  13.641  0.00  0.00     0.054 H 
ATOM     58  H2  58R d   1      17.458   7.537  14.229  0.00  0.00     0.054 H 
BRANCH  56  59
ATOM     59  CBK 58R d   1      18.062   7.710  12.147  0.00  0.00     0.392 C 
ATOM     60  FAD 58R d   1      19.339   7.769  12.422  0.00  0.00    -0.171 F 
ATOM     61  FAE 58R d   1      17.715   6.467  11.860  0.00  0.00    -0.171 F 
ATOM     62  FAF 58R d   1      17.835   8.396  11.071  0.00  0.00    -0.171 F 
ENDBRANCH  56  59
ENDBRANCH  54  56
ENDBRANCH  43  45
ENDBRANCH  32  43
ENDBRANCH  24  27
ENDBRANCH   1  24
TORSDOF 8
