REMARK  11 active torsions:
REMARK  status: ('A' for Active; 'I' for Inactive)
REMARK    1  A    between atoms: C6_3  and  NAX_15 
REMARK    2  A    between atoms: CAT_10  and  CBP_7 
REMARK    3  A    between atoms: CBE_11  and  CAT_10 
REMARK    4  A    between atoms: NAX_15  and  CBM_16 
REMARK    5  A    between atoms: NBN_21  and  CAR_22 
REMARK    6  A    between atoms: CAR_22  and  CBH_23 
REMARK    7  A    between atoms: CBC_24  and  CAB_25 
REMARK    8  A    between atoms: CBF_26  and  OAZ_27 
REMARK    9  A    between atoms: OAZ_27  and  CAA_28 
REMARK   10  A    between atoms: NBO_36  and  CAS_37 
REMARK   11  A    between atoms: CAS_37  and  CBB_38 
ROOT
ATOM      1  CBH 58Q d   1      10.461  17.381  11.314  0.00  0.00     0.008 A 
ATOM      2  CBC 58Q d   1       9.282  17.814  11.975  0.00  0.00    -0.039 A 
ATOM      3  CBF 58Q d   1      11.569  18.232  11.405  0.00  0.00     0.079 A 
ATOM      4  CAM 58Q d   1      11.511  19.401  12.204  0.00  0.00    -0.023 A 
ATOM      5  CBL 58Q d   1      10.379  19.764  12.808  0.00  0.00     0.049 A 
ATOM      6  CBI 58Q d   1       9.260  18.988  12.698  0.00  0.00     0.000 A 
ATOM      7  CAK 58Q d   1       8.268  19.617  13.417  0.00  0.00    -0.034 A 
ATOM      8  CBD 58Q d   1       8.801  20.755  13.944  0.00  0.00     0.117 A 
ATOM      9  CAG 58Q d   1       8.177  21.773  14.759  0.00  0.00     0.118 C 
ATOM     10  NAC 58Q d   1       7.699  22.565  15.379  0.00  0.00    -0.190 NA
ATOM     11  NBO 58Q d   1      10.087  20.878  13.570  0.00  0.00    -0.333 N 
ATOM     12  H24 58Q d   1      12.400  20.009  12.326  0.00  0.00     0.091 H 
ATOM     13  H25 58Q d   1       7.244  19.268  13.542  0.00  0.00     0.089 H 
ENDROOT
BRANCH  11  14
ATOM     14  CAS 58Q d   1      11.040  21.948  13.892  0.00  0.00     0.027 C 
ATOM     15  H26 58Q d   1      12.065  21.553  13.841  0.00  0.00     0.072 H 
ATOM     16  H27 58Q d   1      10.842  22.322  14.907  0.00  0.00     0.072 H 
BRANCH  14  17
ATOM     17  CBB 58Q d   1      10.885  23.080  12.898  0.00  0.00    -0.004 A 
ATOM     18  CAI 58Q d   1      11.858  23.750  12.304  0.00  0.00     0.030 A 
ATOM     19  NAU 58Q d   1      11.288  24.688  11.516  0.00  0.00    -0.187 NA
ATOM     20  H28 58Q d   1      12.926  23.577  12.428  0.00  0.00     0.118 H 
ATOM     21  NAY 58Q d   1      10.074  24.618  11.606  0.00  0.00    -0.289 N 
ATOM     22  CAJ 58Q d   1       9.767  23.640  12.485  0.00  0.00     0.005 A 
ATOM     23  H29 58Q d   1       9.397  25.205  11.098  0.00  0.00     0.188 HD
ATOM     24  H30 58Q d   1       8.762  23.361  12.800  0.00  0.00     0.114 H 
ENDBRANCH  14  17
ENDBRANCH  11  14
BRANCH   2  25
ATOM     25  CAB 58Q d   1       8.088  17.045  11.932  0.00  0.00    -0.050 C 
ATOM     26  H18 58Q d   1       8.254  16.144  11.324  0.00  0.00     0.033 H 
ATOM     27  H19 58Q d   1       7.281  17.645  11.486  0.00  0.00     0.033 H 
ATOM     28  H20 58Q d   1       7.804  16.751  12.953  0.00  0.00     0.033 H 
ENDBRANCH   2  25
BRANCH   1  29
ATOM     29  CAR 58Q d   1      10.514  16.182  10.422  0.00  0.00     0.110 C 
ATOM     30  H16 58Q d   1       9.490  15.795  10.310  0.00  0.00     0.083 H 
ATOM     31  H17 58Q d   1      10.894  16.503   9.441  0.00  0.00     0.083 H 
BRANCH  29  32
ATOM     32  NBN 58Q d   1      11.377  15.070  10.910  0.00  0.00    -0.067 N 
ATOM     33  CAQ 58Q d   1      10.709  14.462  12.089  0.00  0.00     0.086 C 
ATOM     34  CAO 58Q d   1      11.564  13.325  12.545  0.00  0.00    -0.023 C 
ATOM     35  H9  58Q d   1      10.613  15.207  12.893  0.00  0.00     0.076 H 
ATOM     36  H10 58Q d   1       9.711  14.094  11.808  0.00  0.00     0.076 H 
ATOM     37  CBM 58Q d   1      11.732  12.216  11.492  0.00  0.00     0.014 C 
ATOM     38  H7  58Q d   1      12.560  13.719  12.797  0.00  0.00     0.038 H 
ATOM     39  H8  58Q d   1      11.106  12.885  13.443  0.00  0.00     0.038 H 
ATOM     40  CAN 58Q d   1      12.286  12.870  10.247  0.00  0.00    -0.023 C 
ATOM     41  H6  58Q d   1      10.784  11.693  11.300  0.00  0.00     0.072 H 
ATOM     42  CAP 58Q d   1      11.369  14.046   9.860  0.00  0.00     0.086 C 
ATOM     43  H11 58Q d   1      12.316  12.138   9.426  0.00  0.00     0.038 H 
ATOM     44  H12 58Q d   1      13.302  13.242  10.445  0.00  0.00     0.038 H 
ATOM     45  H13 58Q d   1      10.342  13.675   9.724  0.00  0.00     0.076 H 
ATOM     46  H14 58Q d   1      11.726  14.489   8.919  0.00  0.00     0.076 H 
ATOM     47  H15 58Q d   1      12.309  15.386  11.127  0.00  0.00     0.280 HD
BRANCH  37  48
ATOM     48  NAX 58Q d   1      12.798  11.284  11.960  0.00  0.00    -0.369 N 
ATOM     49  H5  58Q d   1      13.724  11.670  12.195  0.00  0.00     0.161 HD
BRANCH  48  50
ATOM     50  C6  58Q d   1      12.594   9.920  12.092  0.00  0.00     0.138 A 
ATOM     51  C5  58Q d   1      13.625   9.058  12.534  0.00  0.00     0.046 A 
ATOM     52  C4  58Q d   1      13.311   7.705  12.669  0.00  0.00     0.113 A 
ATOM     53  CAL 58Q d   1      14.918   9.294  12.850  0.00  0.00    -0.053 A 
ATOM     54  N3  58Q d   1      12.063   7.254  12.389  0.00  0.00    -0.234 NA
ATOM     55  SBA 58Q d   1      14.650   6.854  13.199  0.00  0.00    -0.074 SA
ATOM     56  C2  58Q d   1      11.068   8.084  11.941  0.00  0.00     0.090 A 
ATOM     57  N1  58Q d   1      11.366   9.453  11.780  0.00  0.00    -0.224 NA
ATOM     58  H4  58Q d   1      10.080   7.699  11.717  0.00  0.00     0.146 H 
ATOM     59  CBE 58Q d   1      15.675   8.214  13.234  0.00  0.00    -0.006 A 
ATOM     60  H3  58Q d   1      15.341  10.296  12.802  0.00  0.00     0.086 H 
BRANCH  59  61
ATOM     61  CAT 58Q d   1      17.186   8.248  13.588  0.00  0.00     0.056 C 
ATOM     62  H1  58Q d   1      17.478   9.270  13.873  0.00  0.00     0.054 H 
ATOM     63  H2  58Q d   1      17.387   7.563  14.425  0.00  0.00     0.054 H 
BRANCH  61  64
ATOM     64  CBP 58Q d   1      17.996   7.800  12.336  0.00  0.00     0.392 C 
ATOM     65  FAD 58Q d   1      19.253   7.752  12.599  0.00  0.00    -0.171 F 
ATOM     66  FAE 58Q d   1      17.636   6.509  11.982  0.00  0.00    -0.171 F 
ATOM     67  FAF 58Q d   1      17.777   8.487  11.268  0.00  0.00    -0.171 F 
ENDBRANCH  61  64
ENDBRANCH  59  61
ENDBRANCH  48  50
ENDBRANCH  37  48
ENDBRANCH  29  32
ENDBRANCH   1  29
BRANCH   3  68
ATOM     68  OAZ 58Q d   1      12.690  17.811  10.736  0.00  0.00    -0.355 OA
BRANCH  68  69
ATOM     69  CAA 58Q d   1      13.951  18.515  10.819  0.00  0.00     0.010 C 
ATOM     70  H21 58Q d   1      14.701  17.997  10.204  0.00  0.00     0.066 H 
ATOM     71  H22 58Q d   1      14.289  18.540  11.866  0.00  0.00     0.066 H 
ATOM     72  H23 58Q d   1      13.822  19.544  10.451  0.00  0.00     0.066 H 
ENDBRANCH  68  69
ENDBRANCH   3  68
TORSDOF 11
