REMARK  3 active torsions:
REMARK  status: ('A' for Active; 'I' for Inactive)
REMARK    1  A    between atoms: C22_4  and  N23_13 
REMARK    2  A    between atoms: C02_8  and  C17_5 
REMARK       I    between atoms: C02_8  and  N03_9 
REMARK    3  A    between atoms: N23_13  and  C25_14 
ROOT
ATOM      1  C20 59B d   1      -0.786 -11.788 -19.609  0.00  0.00    -0.056 A 
ATOM      2  C22 59B d   1      -1.965 -12.002 -18.881  0.00  0.00     0.033 A 
ATOM      3  C17 59B d   1      -1.970 -12.035 -21.696  0.00  0.00     0.032 A 
ATOM      4  C18 59B d   1      -0.781 -11.806 -21.006  0.00  0.00    -0.066 A 
ATOM      5  C42 59B d   1      -3.166 -12.234 -19.579  0.00  0.00    -0.056 A 
ATOM      6  C44 59B d   1      -3.162 -12.252 -20.984  0.00  0.00    -0.066 A 
ATOM      7  H1  59B d   1       0.141 -11.605 -19.077  0.00  0.00     0.086 H 
ATOM      8  H6  59B d   1       0.142 -11.643 -21.550  0.00  0.00     0.085 H 
ATOM      9  H16 59B d   1      -4.089 -12.398 -19.035  0.00  0.00     0.086 H 
ATOM     10  H17 59B d   1      -4.085 -12.435 -21.523  0.00  0.00     0.085 H 
ENDROOT
BRANCH   2  11
ATOM     11  N23 59B d   1      -1.826 -11.967 -17.469  0.00  0.00    -0.338 N 
ATOM     12  H11 59B d   1      -0.876 -11.792 -17.112  0.00  0.00     0.167 HD
BRANCH  11  13
ATOM     13  C25 59B d   1      -2.808 -12.139 -16.519  0.00  0.00     0.179 A 
ATOM     14  N26 59B d   1      -4.103 -12.207 -16.774  0.00  0.00    -0.225 NA
ATOM     15  C27 59B d   1      -5.050 -12.362 -15.743  0.00  0.00     0.088 A 
ATOM     16  C28 59B d   1      -6.413 -12.428 -16.055  0.00  0.00    -0.053 A 
ATOM     17  C36 59B d   1      -4.640 -12.450 -14.404  0.00  0.00     0.091 A 
ATOM     18  C30 59B d   1      -7.368 -12.592 -15.037  0.00  0.00    -0.081 A 
ATOM     19  H12 59B d   1      -6.734 -12.352 -17.088  0.00  0.00     0.087 H 
ATOM     20  C32 59B d   1      -6.949 -12.680 -13.700  0.00  0.00    -0.081 A 
ATOM     21  H13 59B d   1      -8.422 -12.650 -15.283  0.00  0.00     0.083 H 
ATOM     22  C34 59B d   1      -5.584 -12.608 -13.383  0.00  0.00    -0.053 A 
ATOM     23  H14 59B d   1      -7.682 -12.804 -12.911  0.00  0.00     0.083 H 
ATOM     24  H15 59B d   1      -5.262 -12.675 -12.350  0.00  0.00     0.087 H 
ATOM     25  N37 59B d   1      -3.266 -12.374 -14.106  0.00  0.00    -0.188 N 
ATOM     26  N38 59B d   1      -2.501 -12.427 -12.882  0.00  0.00    -0.038 NA
ATOM     27  C41 59B d   1      -2.355 -12.219 -15.113  0.00  0.00     0.222 A 
ATOM     28  N39 59B d   1      -1.291 -12.315 -13.161  0.00  0.00    -0.022 NA
ATOM     29  N40 59B d   1      -1.157 -12.178 -14.586  0.00  0.00    -0.105 NA
ENDBRANCH  11  13
ENDBRANCH   2  11
BRANCH   3  30
ATOM     30  C02 59B d   1      -1.955 -12.067 -23.175  0.00  0.00     0.253 C 
ATOM     31  O01 59B d   1      -1.391 -13.030 -23.699  0.00  0.00    -0.267 OA
ATOM     32  N03 59B d   1      -2.526 -11.130 -23.939  0.00  0.00    -0.344 N 
ATOM     33  C14 59B d   1      -3.215  -9.920 -23.453  0.00  0.00     0.018 C 
ATOM     34  C04 59B d   1      -2.506 -11.170 -25.418  0.00  0.00     0.018 C 
ATOM     35  C11 59B d   1      -2.511  -8.677 -24.028  0.00  0.00     0.034 C 
ATOM     36  H4  59B d   1      -4.264  -9.935 -23.783  0.00  0.00     0.067 H 
ATOM     37  H5  59B d   1      -3.177  -9.890 -22.354  0.00  0.00     0.067 H 
ATOM     38  O10 59B d   1      -2.537  -8.706 -25.461  0.00  0.00    -0.388 OA
ATOM     39  H2  59B d   1      -1.466  -8.661 -23.685  0.00  0.00     0.076 H 
ATOM     40  H3  59B d   1      -3.027  -7.772 -23.674  0.00  0.00     0.076 H 
ATOM     41  C07 59B d   1      -1.911  -9.875 -26.008  0.00  0.00     0.034 C 
ATOM     42  H9  59B d   1      -2.057  -9.880 -27.098  0.00  0.00     0.076 H 
ATOM     43  H10 59B d   1      -0.835  -9.842 -25.782  0.00  0.00     0.076 H 
ATOM     44  H7  59B d   1      -3.535 -11.291 -25.787  0.00  0.00     0.067 H 
ATOM     45  H8  59B d   1      -1.896 -12.025 -25.745  0.00  0.00     0.067 H 
ENDBRANCH   3  30
TORSDOF 3
