REMARK WARNING: 32 MAX_TORS EXCEEDED!!!
REMARK  56 active torsions:
REMARK  status: ('A' for Active; 'I' for Inactive)
REMARK    1  A    between atoms: C_1  and  CH3_3 
REMARK       I    between atoms: C_1  and  N_4 
REMARK    2  A    between atoms: N_4  and  CA_5 
REMARK    3  A    between atoms: CA_5  and  C_6 
REMARK    4  A    between atoms: CA_5  and  CB_8 
REMARK       I    between atoms: C_6  and  N_12 
REMARK    5  A    between atoms: CB_8  and  CG_9 
REMARK    6  A    between atoms: CG_9  and  CD1_10 
REMARK    7  A    between atoms: CG_9  and  CD2_11 
REMARK    8  A    between atoms: N_12  and  CA_13 
REMARK    9  A    between atoms: CA_13  and  C_14 
REMARK   10  A    between atoms: CA_13  and  CB_16 
REMARK       I    between atoms: C_14  and  N_20 
REMARK   11  A    between atoms: CB_16  and  CG_17 
REMARK   12  A    between atoms: CG_17  and  CD1_18 
REMARK   13  A    between atoms: CG_17  and  CD2_19 
REMARK   14  A    between atoms: N_20  and  CA_21 
REMARK   15  A    between atoms: CA_21  and  C_22 
REMARK   16  A    between atoms: CA_21  and  CB_24 
REMARK       I    between atoms: C_22  and  N_29 
REMARK   17  A    between atoms: CB_24  and  CG_25 
REMARK   18  A    between atoms: CG_25  and  CD_26 
REMARK   19  A    between atoms: N_29  and  CA_30 
REMARK   20  A    between atoms: CA_30  and  C_31 
REMARK   21  A    between atoms: CA_30  and  CB_33 
REMARK       I    between atoms: C_31  and  N_37 
REMARK   22  A    between atoms: CB_33  and  CG_34 
REMARK   23  A    between atoms: CG_34  and  CD1_35 
REMARK   24  A    between atoms: CG_34  and  CD2_36 
REMARK   25  A    between atoms: N_37  and  CA_38 
REMARK   26  A    between atoms: CA_38  and  C_39 
REMARK   27  A    between atoms: CA_38  and  CB_41 
REMARK       I    between atoms: C_39  and  N_45 
REMARK   28  A    between atoms: CB_41  and  CG_42 
REMARK   29  A    between atoms: N_45  and  CA_46 
REMARK   30  A    between atoms: CA_46  and  C_47 
REMARK   31  A    between atoms: CA_46  and  CB_49 
REMARK       I    between atoms: C_47  and  N_54 
REMARK   32  A    between atoms: CB_49  and  CG_50 
REMARK   33  A    between atoms: CG_50  and  CD_51 
REMARK   34  A    between atoms: CD_51  and  CE_52 
REMARK   35  A    between atoms: CE_52  and  NZ_53 
REMARK   36  A    between atoms: N_54  and  CA_55 
REMARK   37  A    between atoms: CA_55  and  C_56 
REMARK   38  A    between atoms: CA_55  and  CB_58 
REMARK       I    between atoms: C_56  and  N_68 
REMARK   39  A    between atoms: CB_58  and  CG_59 
REMARK   40  A    between atoms: N_68  and  CA_69 
REMARK   41  A    between atoms: CA_69  and  C_70 
REMARK   42  A    between atoms: CA_69  and  CB_72 
REMARK       I    between atoms: C_70  and  N_73 
REMARK   43  A    between atoms: N_73  and  CA_74 
REMARK   44  A    between atoms: CA_74  and  C_75 
REMARK   45  A    between atoms: CA_74  and  CB_77 
REMARK       I    between atoms: C_75  and  N_79 
REMARK   46  A    between atoms: CB_77  and  OG_78 
REMARK   47  A    between atoms: N_79  and  CA_80 
REMARK   48  A    between atoms: CA_80  and  C_81 
REMARK   49  A    between atoms: CA_80  and  CB_83 
REMARK       I    between atoms: C_81  and  N_87 
REMARK   50  A    between atoms: CB_83  and  CG_84 
REMARK   51  A    between atoms: CG_84  and  CD1_85 
REMARK   52  A    between atoms: CG_84  and  CD2_86 
REMARK   53  A    between atoms: N_87  and  CA_88 
REMARK   54  A    between atoms: CA_88  and  C_89 
REMARK   55  A    between atoms: CA_88  and  CB_91 
REMARK       I    between atoms: C_89  and  N_101 
REMARK   56  A    between atoms: CB_91  and  CG_92 
ROOT
ATOM      1  CA  LYS d   1      44.593  25.828 104.618  0.00  0.00     0.089 C 
ATOM      2  H48 LYS d   1      44.246  26.018 103.592  0.00  0.00     0.087 H 
ENDROOT
BRANCH   1   3
ATOM      3  N   LYS d   1      45.617  24.795 104.571  0.00  0.00    -0.346 N 
ATOM      4  C   ASP d   1      46.783  24.969 103.961  0.00  0.00     0.241 C 
ATOM      5  O   ASP d   1      47.104  26.010 103.384  0.00  0.00    -0.271 OA
ATOM      6  H47 LYS d   1      45.435  23.918 105.016  0.00  0.00     0.163 HD
BRANCH   4   7
ATOM      7  CA  ASP d   1      47.718  23.770 104.003  0.00  0.00     0.098 C 
ATOM      8  H44 ASP d   1      48.732  24.103 103.735  0.00  0.00     0.088 H 
BRANCH   7   9
ATOM      9  N   ASP d   1      47.761  23.188 105.341  0.00  0.00    -0.346 N 
ATOM     10  C   LEU d   1      48.132  23.891 106.408  0.00  0.00     0.241 C 
ATOM     11  O   LEU d   1      48.564  25.042 106.338  0.00  0.00    -0.271 OA
ATOM     12  H43 ASP d   1      47.503  22.229 105.460  0.00  0.00     0.163 HD
BRANCH  10  13
ATOM     13  CA  LEU d   1      47.998  23.187 107.758  0.00  0.00     0.089 C 
ATOM     14  H33 LEU d   1      48.059  23.945 108.553  0.00  0.00     0.087 H 
BRANCH  13  15
ATOM     15  N   LEU d   1      46.716  22.509 107.861  0.00  0.00    -0.346 N 
ATOM     16  C   GLU d   1      45.568  23.176 107.883  0.00  0.00     0.241 C 
ATOM     17  O   GLU d   1      45.499  24.402 107.800  0.00  0.00    -0.271 OA
ATOM     18  H32 LEU d   1      46.698  21.511 107.917  0.00  0.00     0.163 HD
BRANCH  16  19
ATOM     19  CA  GLU d   1      44.310  22.328 108.018  0.00  0.00     0.090 C 
ATOM     20  H27 GLU d   1      43.467  22.876 107.572  0.00  0.00     0.087 H 
BRANCH  19  21
ATOM     21  N   GLU d   1      44.470  21.066 107.304  0.00  0.00    -0.346 N 
ATOM     22  C   LEU d   1      44.711  21.028 105.997  0.00  0.00     0.241 C 
ATOM     23  O   LEU d   1      44.749  22.034 105.287  0.00  0.00    -0.271 OA
ATOM     24  H26 GLU d   1      44.397  20.207 107.811  0.00  0.00     0.163 HD
BRANCH  22  25
ATOM     25  CA  LEU d   1      44.933  19.644 105.396  0.00  0.00     0.089 C 
ATOM     26  H16 LEU d   1      45.260  19.765 104.353  0.00  0.00     0.087 H 
BRANCH  25  27
ATOM     27  N   LEU d   1      45.973  18.934 106.126  0.00  0.00    -0.346 N 
ATOM     28  C   LEU d   1      47.232  19.356 106.129  0.00  0.00     0.241 C 
ATOM     29  O   LEU d   1      47.598  20.371 105.538  0.00  0.00    -0.271 OA
ATOM     30  H15 LEU d   1      45.734  18.109 106.638  0.00  0.00     0.163 HD
BRANCH  28  31
ATOM     31  CA  LEU d   1      48.226  18.511 106.916  0.00  0.00     0.089 C 
ATOM     32  H5  LEU d   1      48.984  19.182 107.347  0.00  0.00     0.087 H 
BRANCH  31  33
ATOM     33  N   LEU d   1      47.574  17.800 108.009  0.00  0.00    -0.348 N 
ATOM     34  C   ACE d   1      47.063  18.439 109.057  0.00  0.00     0.214 C 
ATOM     35  O   ACE d   1      47.096  19.664 109.156  0.00  0.00    -0.274 OA
ATOM     36  H4  LEU d   1      47.509  16.803 107.969  0.00  0.00     0.163 HD
BRANCH  34  37
ATOM     37  CH3 ACE d   1      46.440  17.568 110.107  0.00  0.00    -0.003 C 
ATOM     38  H1  ACE d   1      46.526  16.513 109.807  0.00  0.00     0.040 H 
ATOM     39  H2  ACE d   1      45.378  17.831 110.219  0.00  0.00     0.040 H 
ATOM     40  H3  ACE d   1      46.959  17.720 111.065  0.00  0.00     0.040 H 
ENDBRANCH  34  37
ENDBRANCH  31  33
BRANCH  31  41
ATOM     41  CB  LEU d   1      48.927  17.524 105.980  0.00  0.00    -0.035 C 
ATOM     42  H6  LEU d   1      49.321  18.093 105.125  0.00  0.00     0.037 H 
ATOM     43  H7  LEU d   1      48.174  16.805 105.626  0.00  0.00     0.037 H 
BRANCH  41  44
ATOM     44  CG  LEU d   1      50.086  16.728 106.586  0.00  0.00    -0.059 C 
ATOM     45  H8  LEU d   1      49.729  16.251 107.511  0.00  0.00     0.038 H 
BRANCH  44  46
ATOM     46  CD1 LEU d   1      50.536  15.637 105.628  0.00  0.00    -0.073 C 
ATOM     47  H9  LEU d   1      51.368  15.075 106.077  0.00  0.00     0.028 H 
ATOM     48  H10 LEU d   1      50.869  16.093 104.684  0.00  0.00     0.028 H 
ATOM     49  H11 LEU d   1      49.697  14.954 105.430  0.00  0.00     0.028 H 
ENDBRANCH  44  46
BRANCH  44  50
ATOM     50  CD2 LEU d   1      51.253  17.640 106.941  0.00  0.00    -0.073 C 
ATOM     51  H12 LEU d   1      50.909  18.422 107.634  0.00  0.00     0.028 H 
ATOM     52  H13 LEU d   1      51.645  18.107 106.026  0.00  0.00     0.028 H 
ATOM     53  H14 LEU d   1      52.048  17.049 107.420  0.00  0.00     0.028 H 
ENDBRANCH  44  50
ENDBRANCH  41  44
ENDBRANCH  31  41
ENDBRANCH  28  31
ENDBRANCH  25  27
BRANCH  25  54
ATOM     54  CB  LEU d   1      43.630  18.847 105.406  0.00  0.00    -0.035 C 
ATOM     55  H17 LEU d   1      43.287  18.768 106.448  0.00  0.00     0.037 H 
ATOM     56  H18 LEU d   1      43.843  17.842 105.013  0.00  0.00     0.037 H 
BRANCH  54  57
ATOM     57  CG  LEU d   1      42.493  19.448 104.578  0.00  0.00    -0.059 C 
ATOM     58  H19 LEU d   1      42.395  20.510 104.847  0.00  0.00     0.038 H 
BRANCH  57  59
ATOM     59  CD1 LEU d   1      42.798  19.363 103.089  0.00  0.00    -0.073 C 
ATOM     60  H20 LEU d   1      41.966  19.801 102.519  0.00  0.00     0.028 H 
ATOM     61  H21 LEU d   1      42.925  18.309 102.800  0.00  0.00     0.028 H 
ATOM     62  H22 LEU d   1      43.723  19.917 102.872  0.00  0.00     0.028 H 
ENDBRANCH  57  59
BRANCH  57  63
ATOM     63  CD2 LEU d   1      41.190  18.755 104.901  0.00  0.00    -0.073 C 
ATOM     64  H23 LEU d   1      40.992  18.830 105.981  0.00  0.00     0.028 H 
ATOM     65  H24 LEU d   1      41.257  17.695 104.614  0.00  0.00     0.028 H 
ATOM     66  H25 LEU d   1      40.372  19.235 104.344  0.00  0.00     0.028 H 
ENDBRANCH  57  63
ENDBRANCH  54  57
ENDBRANCH  25  54
ENDBRANCH  22  25
ENDBRANCH  19  21
BRANCH  19  67
ATOM     67  CB  GLU d   1      44.003  22.084 109.499  0.00  0.00    -0.029 C 
ATOM     68  H28 GLU d   1      44.544  22.838 110.090  0.00  0.00     0.037 H 
ATOM     69  H29 GLU d   1      44.367  21.080 109.764  0.00  0.00     0.037 H 
BRANCH  67  70
ATOM     70  CG  GLU d   1      42.528  22.165 109.862  0.00  0.00     0.018 C 
ATOM     71  H30 GLU d   1      42.049  22.918 109.220  0.00  0.00     0.049 H 
ATOM     72  H31 GLU d   1      42.441  22.472 110.915  0.00  0.00     0.049 H 
BRANCH  70  73
ATOM     73  CD  GLU d   1      41.806  20.846 109.682  0.00  0.00     0.172 C 
ATOM     74  OE1 GLU d   1      42.487  19.803 109.589  0.00  0.00    -0.648 OA
ATOM     75  OE2 GLU d   1      40.558  20.853 109.633  0.00  0.00    -0.648 OA
ENDBRANCH  70  73
ENDBRANCH  67  70
ENDBRANCH  19  67
ENDBRANCH  16  19
ENDBRANCH  13  15
BRANCH  13  76
ATOM     76  CB  LEU d   1      49.130  22.182 107.955  0.00  0.00    -0.035 C 
ATOM     77  H34 LEU d   1      49.399  21.794 106.961  0.00  0.00     0.037 H 
ATOM     78  H35 LEU d   1      48.735  21.363 108.574  0.00  0.00     0.037 H 
BRANCH  76  79
ATOM     79  CG  LEU d   1      50.418  22.667 108.615  0.00  0.00    -0.059 C 
ATOM     80  H36 LEU d   1      50.826  23.501 108.025  0.00  0.00     0.038 H 
BRANCH  79  81
ATOM     81  CD1 LEU d   1      50.165  23.160 110.031  0.00  0.00    -0.073 C 
ATOM     82  H37 LEU d   1      51.112  23.501 110.475  0.00  0.00     0.028 H 
ATOM     83  H38 LEU d   1      49.750  22.340 110.636  0.00  0.00     0.028 H 
ATOM     84  H39 LEU d   1      49.450  23.995 110.006  0.00  0.00     0.028 H 
ENDBRANCH  79  81
BRANCH  79  85
ATOM     85  CD2 LEU d   1      51.416  21.530 108.614  0.00  0.00    -0.073 C 
ATOM     86  H40 LEU d   1      51.583  21.190 107.581  0.00  0.00     0.028 H 
ATOM     87  H41 LEU d   1      51.023  20.697 109.215  0.00  0.00     0.028 H 
ATOM     88  H42 LEU d   1      52.367  21.877 109.045  0.00  0.00     0.028 H 
ENDBRANCH  79  85
ENDBRANCH  76  79
ENDBRANCH  13  76
ENDBRANCH  10  13
ENDBRANCH   7   9
BRANCH   7  89
ATOM     89  CB  ASP d   1      47.253  22.733 102.981  0.00  0.00     0.043 C 
ATOM     90  H45 ASP d   1      46.936  23.258 102.068  0.00  0.00     0.052 H 
ATOM     91  H46 ASP d   1      46.399  22.183 103.403  0.00  0.00     0.052 H 
BRANCH  89  92
ATOM     92  CG  ASP d   1      48.333  21.740 102.616  0.00  0.00     0.175 C 
ATOM     93  OD1 ASP d   1      49.527  22.107 102.626  0.00  0.00    -0.648 OA
ATOM     94  OD2 ASP d   1      47.980  20.584 102.311  0.00  0.00    -0.648 OA
ENDBRANCH  89  92
ENDBRANCH   7  89
ENDBRANCH   4   7
ENDBRANCH   1   3
BRANCH   1  95
ATOM     95  C   LYS d   1      45.132  27.136 105.190  0.00  0.00     0.241 C 
ATOM     96  O   LYS d   1      44.969  28.202 104.593  0.00  0.00    -0.271 OA
ATOM     97  N   TRP d   1      45.780  27.050 106.346  0.00  0.00    -0.346 N 
ATOM     98  H60 TRP d   1      45.902  26.154 106.773  0.00  0.00     0.163 HD
BRANCH  97  99
ATOM     99  CA  TRP d   1      46.318  28.234 107.007  0.00  0.00     0.093 C 
ATOM    100  H61 TRP d   1      45.524  28.994 107.043  0.00  0.00     0.088 H 
BRANCH  99 101
ATOM    101  C   TRP d   1      47.500  28.821 106.243  0.00  0.00     0.241 C 
ATOM    102  O   TRP d   1      47.675  30.038 106.201  0.00  0.00    -0.271 OA
ATOM    103  N   ALA d   1      48.306  27.953 105.641  0.00  0.00    -0.346 N 
ATOM    104  H70 ALA d   1      48.134  26.973 105.745  0.00  0.00     0.163 HD
BRANCH 103 105
ATOM    105  CA  ALA d   1      49.435  28.396 104.833  0.00  0.00     0.086 C 
ATOM    106  H71 ALA d   1      50.093  29.014 105.462  0.00  0.00     0.086 H 
BRANCH 105 107
ATOM    107  C   ALA d   1      48.954  29.244 103.660  0.00  0.00     0.240 C 
ATOM    108  O   ALA d   1      49.620  30.198 103.256  0.00  0.00    -0.271 OA
ATOM    109  N   SER d   1      47.790  28.891 103.122  0.00  0.00    -0.344 N 
ATOM    110  H75 SER d   1      47.299  28.106 103.500  0.00  0.00     0.163 HD
BRANCH 109 111
ATOM    111  CA  SER d   1      47.208  29.614 101.997  0.00  0.00     0.109 C 
ATOM    112  H76 SER d   1      47.942  29.625 101.178  0.00  0.00     0.090 H 
BRANCH 111 113
ATOM    113  C   SER d   1      46.875  31.053 102.368  0.00  0.00     0.243 C 
ATOM    114  O   SER d   1      47.101  31.974 101.586  0.00  0.00    -0.271 OA
ATOM    115  N   LEU d   1      46.333  31.236 103.568  0.00  0.00    -0.346 N 
ATOM    116  H80 LEU d   1      46.272  30.461 104.197  0.00  0.00     0.163 HD
BRANCH 115 117
ATOM    117  CA  LEU d   1      45.825  32.535 103.992  0.00  0.00     0.089 C 
ATOM    118  H81 LEU d   1      45.235  32.954 103.164  0.00  0.00     0.087 H 
BRANCH 117 119
ATOM    119  C   LEU d   1      46.940  33.524 104.323  0.00  0.00     0.241 C 
ATOM    120  O   LEU d   1      46.764  34.733 104.170  0.00  0.00    -0.271 OA
ATOM    121  N   TRP d   1      48.082  33.014 104.775  0.00  0.00    -0.346 N 
ATOM    122  H91 TRP d   1      48.165  32.024 104.891  0.00  0.00     0.163 HD
BRANCH 121 123
ATOM    123  CA  TRP d   1      49.217  33.871 105.105  0.00  0.00     0.093 C 
ATOM    124  H92 TRP d   1      48.828  34.831 105.475  0.00  0.00     0.088 H 
BRANCH 123 125
ATOM    125  C   TRP d   1      50.069  34.138 103.867  0.00  0.00     0.238 C 
ATOM    126  O   TRP d   1      50.592  35.238 103.692  0.00  0.00    -0.271 OA
ATOM    127  N   NH2 d   1      50.203  33.130 103.012  0.00  0.00    -0.368 N 
ATOM    128 1H10 NH2 d   1      50.750  33.247 102.183  0.00  0.00     0.159 HD
ATOM    129 2H10 NH2 d   1      49.757  32.254 103.197  0.00  0.00     0.159 HD
ENDBRANCH 123 125
BRANCH 123 130
ATOM    130  CB  TRP d   1      50.077  33.241 106.205  0.00  0.00    -0.012 C 
ATOM    131  H93 TRP d   1      50.832  33.978 106.516  0.00  0.00     0.044 H 
ATOM    132  H94 TRP d   1      50.579  32.357 105.785  0.00  0.00     0.044 H 
BRANCH 130 133
ATOM    133  CG  TRP d   1      49.309  32.809 107.428  0.00  0.00    -0.028 A 
ATOM    134  CD1 TRP d   1      49.492  31.662 108.141  0.00  0.00    -0.015 A 
ATOM    135  NE1 TRP d   1      48.609  31.608 109.192  0.00  0.00    -0.365 N 
ATOM    136  H95 TRP d   1      50.233  30.898 107.910  0.00  0.00     0.112 H 
ATOM    137  CE2 TRP d   1      47.828  32.733 109.173  0.00  0.00     0.042 A 
ATOM    138  H96 TRP d   1      48.545  30.846 109.882  0.00  0.00     0.165 HD
ATOM    139  CD2 TRP d   1      48.239  33.515 108.075  0.00  0.00    -0.002 A 
ATOM    140  CZ2 TRP d   1      46.800  33.126 110.027  0.00  0.00    -0.056 A 
ATOM    141  CE3 TRP d   1      47.591  34.730 107.834  0.00  0.00    -0.070 A 
ATOM    142  CZ3 TRP d   1      46.570  35.118 108.684  0.00  0.00    -0.082 A 
ATOM    143  H97 TRP d   1      47.882  35.356 106.998  0.00  0.00     0.084 H 
ATOM    144  CH2 TRP d   1      46.185  34.318 109.766  0.00  0.00    -0.081 A 
ATOM    145  H99 TRP d   1      46.059  36.058 108.509  0.00  0.00     0.083 H 
ATOM    146 0H10 TRP d   1      45.381  34.652 110.412  0.00  0.00     0.083 H 
ATOM    147  H98 TRP d   1      46.499  32.510 110.867  0.00  0.00     0.086 H 
ENDBRANCH 130 133
ENDBRANCH 123 130
ENDBRANCH 121 123
ENDBRANCH 117 119
BRANCH 117 148
ATOM    148  CB  LEU d   1      44.907  32.366 105.204  0.00  0.00    -0.035 C 
ATOM    149  H82 LEU d   1      44.588  33.367 105.530  0.00  0.00     0.037 H 
ATOM    150  H83 LEU d   1      45.489  31.888 106.006  0.00  0.00     0.037 H 
BRANCH 148 151
ATOM    151  CG  LEU d   1      43.650  31.524 104.966  0.00  0.00    -0.059 C 
ATOM    152  H84 LEU d   1      43.962  30.544 104.577  0.00  0.00     0.038 H 
BRANCH 151 153
ATOM    153  CD1 LEU d   1      42.901  31.303 106.272  0.00  0.00    -0.073 C 
ATOM    154  H85 LEU d   1      42.003  30.697 106.082  0.00  0.00     0.028 H 
ATOM    155  H86 LEU d   1      42.605  32.275 106.694  0.00  0.00     0.028 H 
ATOM    156  H87 LEU d   1      43.553  30.777 106.984  0.00  0.00     0.028 H 
ENDBRANCH 151 153
BRANCH 151 157
ATOM    157  CD2 LEU d   1      42.740  32.177 103.932  0.00  0.00    -0.073 C 
ATOM    158  H88 LEU d   1      43.298  32.329 102.996  0.00  0.00     0.028 H 
ATOM    159  H89 LEU d   1      42.391  33.148 104.312  0.00  0.00     0.028 H 
ATOM    160  H90 LEU d   1      41.875  31.525 103.741  0.00  0.00     0.028 H 
ENDBRANCH 151 157
ENDBRANCH 148 151
ENDBRANCH 117 148
ENDBRANCH 115 117
ENDBRANCH 111 113
BRANCH 111 161
ATOM    161  CB  SER d   1      45.939  28.913 101.510  0.00  0.00     0.044 C 
ATOM    162  H77 SER d   1      45.643  29.339 100.540  0.00  0.00     0.077 H 
ATOM    163  H78 SER d   1      45.135  29.076 102.243  0.00  0.00     0.077 H 
BRANCH 161 164
ATOM    164  OG  SER d   1      46.150  27.523 101.358  0.00  0.00    -0.398 OA
ATOM    165  H79 SER d   1      46.402  27.149 102.194  0.00  0.00     0.209 HD
ENDBRANCH 161 164
ENDBRANCH 111 161
ENDBRANCH 109 111
ENDBRANCH 105 107
BRANCH 105 166
ATOM    166  CB  ALA d   1      50.230  27.201 104.333  0.00  0.00    -0.049 C 
ATOM    167  H72 ALA d   1      51.077  27.552 103.726  0.00  0.00     0.030 H 
ATOM    168  H73 ALA d   1      49.581  26.559 103.720  0.00  0.00     0.030 H 
ATOM    169  H74 ALA d   1      50.608  26.627 105.192  0.00  0.00     0.030 H 
ENDBRANCH 105 166
ENDBRANCH 103 105
ENDBRANCH  99 101
BRANCH  99 170
ATOM    170  CB  TRP d   1      46.731  27.901 108.440  0.00  0.00    -0.012 C 
ATOM    171  H62 TRP d   1      47.415  28.683 108.801  0.00  0.00     0.044 H 
ATOM    172  H63 TRP d   1      47.250  26.931 108.441  0.00  0.00     0.044 H 
BRANCH 170 173
ATOM    173  CG  TRP d   1      45.563  27.820 109.368  0.00  0.00    -0.028 A 
ATOM    174  CD1 TRP d   1      45.010  26.693 109.899  0.00  0.00    -0.015 A 
ATOM    175  NE1 TRP d   1      43.945  27.021 110.701  0.00  0.00    -0.365 N 
ATOM    176  H64 TRP d   1      45.362  25.679 109.714  0.00  0.00     0.112 H 
ATOM    177  CE2 TRP d   1      43.788  28.383 110.695  0.00  0.00     0.042 A 
ATOM    178  H65 TRP d   1      43.359  26.353 111.222  0.00  0.00     0.165 HD
ATOM    179  CD2 TRP d   1      44.790  28.919 109.864  0.00  0.00    -0.002 A 
ATOM    180  CZ2 TRP d   1      42.856  29.183 111.350  0.00  0.00    -0.056 A 
ATOM    181  CE3 TRP d   1      44.851  30.305 109.686  0.00  0.00    -0.070 A 
ATOM    182  CZ3 TRP d   1      43.925  31.098 110.337  0.00  0.00    -0.082 A 
ATOM    183  H66 TRP d   1      45.609  30.748 109.050  0.00  0.00     0.084 H 
ATOM    184  CH2 TRP d   1      42.940  30.535 111.158  0.00  0.00    -0.081 A 
ATOM    185  H68 TRP d   1      43.962  32.174 110.210  0.00  0.00     0.083 H 
ATOM    186  H69 TRP d   1      42.228  31.185 111.653  0.00  0.00     0.083 H 
ATOM    187  H67 TRP d   1      42.093  28.751 111.988  0.00  0.00     0.086 H 
ENDBRANCH 170 173
ENDBRANCH  99 170
ENDBRANCH  97  99
ENDBRANCH   1  95
BRANCH   1 188
ATOM    188  CB  LYS d   1      43.408  25.341 105.454  0.00  0.00    -0.038 C 
ATOM    189  H49 LYS d   1      43.219  26.083 106.243  0.00  0.00     0.036 H 
ATOM    190  H50 LYS d   1      43.685  24.380 105.912  0.00  0.00     0.036 H 
BRANCH 188 191
ATOM    191  CG  LYS d   1      42.113  25.138 104.674  0.00  0.00    -0.061 C 
ATOM    192  H51 LYS d   1      42.342  25.125 103.598  0.00  0.00     0.033 H 
ATOM    193  H52 LYS d   1      41.429  25.971 104.894  0.00  0.00     0.033 H 
BRANCH 191 194
ATOM    194  CD  LYS d   1      41.433  23.828 105.050  0.00  0.00    -0.043 C 
ATOM    195  H53 LYS d   1      41.723  23.557 106.076  0.00  0.00     0.035 H 
ATOM    196  H54 LYS d   1      41.764  23.042 104.356  0.00  0.00     0.035 H 
BRANCH 194 197
ATOM    197  CE  LYS d   1      39.920  23.942 104.979  0.00  0.00     0.080 C 
ATOM    198  H55 LYS d   1      39.636  24.289 103.975  0.00  0.00     0.075 H 
ATOM    199  H56 LYS d   1      39.583  24.673 105.728  0.00  0.00     0.075 H 
BRANCH 197 200
ATOM    200  NZ  LYS d   1      39.252  22.640 105.244  0.00  0.00    -0.079 N 
ATOM    201  H57 LYS d   1      38.252  22.758 105.188  0.00  0.00     0.274 HD
ATOM    202  H58 LYS d   1      39.501  22.316 106.165  0.00  0.00     0.274 HD
ATOM    203  H59 LYS d   1      39.550  21.964 104.558  0.00  0.00     0.274 HD
ENDBRANCH 197 200
ENDBRANCH 194 197
ENDBRANCH 191 194
ENDBRANCH 188 191
ENDBRANCH   1 188
TORSDOF 56
