REMARK  5 active torsions:
REMARK  status: ('A' for Active; 'I' for Inactive)
REMARK    1  A    between atoms: C6_3  and  NAY_15 
REMARK    2  A    between atoms: CAK_10  and  CAZ_7 
REMARK    3  A    between atoms: CAS_11  and  CAK_10 
REMARK    4  A    between atoms: NAX_20  and  CAT_21 
REMARK    5  A    between atoms: CAR_25  and  CAA_26 
ROOT
ATOM      1  NAY 59K d   1     -12.403  10.727 -11.292  0.00  0.00    -0.362 N 
ATOM      2  CAJ 59K d   1     -11.261  11.288 -10.514  0.00  0.00     0.011 C 
ATOM      3  CAH 59K d   1     -11.469  12.778 -10.250  0.00  0.00     0.012 C 
ATOM      4  CAI 59K d   1     -13.276  11.741 -11.941  0.00  0.00     0.011 C 
ATOM      5  CAG 59K d   1     -12.437  12.932 -12.497  0.00  0.00     0.012 C 
ATOM      6  NAX 59K d   1     -11.552  13.478 -11.512  0.00  0.00    -0.355 N 
ATOM      7  H5  59K d   1     -10.332  11.149 -11.085  0.00  0.00     0.066 H 
ATOM      8  H6  59K d   1     -11.184  10.758  -9.553  0.00  0.00     0.066 H 
ATOM      9  H7  59K d   1     -10.623  13.170  -9.667  0.00  0.00     0.066 H 
ATOM     10  H8  59K d   1     -12.402  12.925  -9.686  0.00  0.00     0.066 H 
ATOM     11  H9  59K d   1     -13.995  12.123 -11.201  0.00  0.00     0.066 H 
ATOM     12  H10 59K d   1     -13.821  11.267 -12.771  0.00  0.00     0.066 H 
ATOM     13  H11 59K d   1     -13.124  13.723 -12.833  0.00  0.00     0.066 H 
ATOM     14  H12 59K d   1     -11.841  12.577 -13.351  0.00  0.00     0.066 H 
ENDROOT
BRANCH   1  15
ATOM     15  C6  59K d   1     -12.442   9.402 -11.604  0.00  0.00     0.140 A 
ATOM     16  C5  59K d   1     -13.522   8.741 -12.130  0.00  0.00     0.047 A 
ATOM     17  C4  59K d   1     -13.373   7.414 -12.419  0.00  0.00     0.113 A 
ATOM     18  CAF 59K d   1     -14.807   9.146 -12.413  0.00  0.00    -0.053 A 
ATOM     19  N3  59K d   1     -12.224   6.784 -12.206  0.00  0.00    -0.234 NA
ATOM     20  SAQ 59K d   1     -14.767   6.717 -13.087  0.00  0.00    -0.074 SA
ATOM     21  C2  59K d   1     -11.111   7.429 -11.713  0.00  0.00     0.090 A 
ATOM     22  N1  59K d   1     -11.270   8.757 -11.386  0.00  0.00    -0.224 NA
ATOM     23  H4  59K d   1     -10.162   6.919 -11.589  0.00  0.00     0.146 H 
ATOM     24  CAS 59K d   1     -15.660   8.205 -12.909  0.00  0.00    -0.006 A 
ATOM     25  H3  59K d   1     -15.128  10.173 -12.248  0.00  0.00     0.086 H 
BRANCH  24  26
ATOM     26  CAK 59K d   1     -17.134   8.347 -13.312  0.00  0.00     0.056 C 
ATOM     27  H1  59K d   1     -17.383   9.410 -13.443  0.00  0.00     0.054 H 
ATOM     28  H2  59K d   1     -17.316   7.809 -14.254  0.00  0.00     0.054 H 
BRANCH  26  29
ATOM     29  CAZ 59K d   1     -18.009   7.738 -12.182  0.00  0.00     0.392 C 
ATOM     30  FAB 59K d   1     -17.750   6.425 -12.024  0.00  0.00    -0.171 F 
ATOM     31  FAC 59K d   1     -17.750   8.352 -11.026  0.00  0.00    -0.171 F 
ATOM     32  FAD 59K d   1     -19.294   7.881 -12.477  0.00  0.00    -0.171 F 
ENDBRANCH  26  29
ENDBRANCH  24  26
ENDBRANCH   1  15
BRANCH   6  33
ATOM     33  CAT 59K d   1     -10.733  14.465 -11.847  0.00  0.00     0.192 A 
ATOM     34  SAP 59K d   1     -10.638  15.095 -13.447  0.00  0.00    -0.034 SA
ATOM     35  CAR 59K d   1      -9.394  16.187 -12.929  0.00  0.00     0.097 A 
ATOM     36  NAN 59K d   1      -9.108  16.057 -11.615  0.00  0.00    -0.145 NA
ATOM     37  NAO 59K d   1      -9.886  15.047 -10.984  0.00  0.00    -0.123 NA
BRANCH  35  38
ATOM     38  CAA 59K d   1      -8.696  17.190 -13.849  0.00  0.00    -0.028 C 
ATOM     39  H13 59K d   1      -7.951  17.759 -13.273  0.00  0.00     0.036 H 
ATOM     40  H14 59K d   1      -9.441  17.882 -14.269  0.00  0.00     0.036 H 
ATOM     41  H15 59K d   1      -8.194  16.651 -14.666  0.00  0.00     0.036 H 
ENDBRANCH  35  38
ENDBRANCH   6  33
TORSDOF 5
