REMARK  5 active torsions:
REMARK  status: ('A' for Active; 'I' for Inactive)
REMARK    1  A    between atoms: C6_3  and  NAZ_15 
REMARK    2  A    between atoms: CAL_10  and  CBA_7 
REMARK    3  A    between atoms: CAS_11  and  CAL_10 
REMARK    4  A    between atoms: NAY_20  and  CAU_21 
REMARK    5  A    between atoms: CAT_25  and  CAG_26 
ROOT
ATOM      1  NAZ 59M d   1      11.959  10.794 -11.160  0.00  0.00    -0.362 N 
ATOM      2  CAK 59M d   1      12.928  11.386 -10.207  0.00  0.00     0.011 C 
ATOM      3  CAI 59M d   1      12.792  12.925 -10.156  0.00  0.00     0.012 C 
ATOM      4  CAJ 59M d   1      11.028  11.726 -11.860  0.00  0.00     0.011 C 
ATOM      5  CAH 59M d   1      11.751  12.948 -12.474  0.00  0.00     0.012 C 
ATOM      6  NAY 59M d   1      12.708  13.543 -11.510  0.00  0.00    -0.355 N 
ATOM      7  H5  59M d   1      13.948  11.126 -10.525  0.00  0.00     0.066 H 
ATOM      8  H6  59M d   1      12.741  10.976  -9.204  0.00  0.00     0.066 H 
ATOM      9  H7  59M d   1      13.668  13.338  -9.635  0.00  0.00     0.066 H 
ATOM     10  H8  59M d   1      11.879  13.179  -9.597  0.00  0.00     0.066 H 
ATOM     11  H9  59M d   1      10.282  12.086 -11.136  0.00  0.00     0.066 H 
ATOM     12  H10 59M d   1      10.521  11.176 -12.666  0.00  0.00     0.066 H 
ATOM     13  H11 59M d   1      11.003  13.706 -12.752  0.00  0.00     0.066 H 
ATOM     14  H12 59M d   1      12.299  12.627 -13.372  0.00  0.00     0.066 H 
ENDROOT
BRANCH   1  15
ATOM     15  C6  59M d   1      11.944   9.477 -11.482  0.00  0.00     0.140 A 
ATOM     16  C5  59M d   1      10.866   8.813 -11.976  0.00  0.00     0.047 A 
ATOM     17  C4  59M d   1      10.989   7.501 -12.282  0.00  0.00     0.113 A 
ATOM     18  CAF 59M d   1       9.604   9.224 -12.236  0.00  0.00    -0.053 A 
ATOM     19  N3  59M d   1      12.130   6.851 -12.109  0.00  0.00    -0.234 NA
ATOM     20  SAR 59M d   1       9.585   6.910 -12.875  0.00  0.00    -0.074 SA
ATOM     21  C2  59M d   1      13.247   7.499 -11.624  0.00  0.00     0.090 A 
ATOM     22  N1  59M d   1      13.099   8.835 -11.307  0.00  0.00    -0.224 NA
ATOM     23  H4  59M d   1      14.193   6.985 -11.498  0.00  0.00     0.146 H 
ATOM     24  CAS 59M d   1       8.806   8.252 -12.716  0.00  0.00    -0.006 A 
ATOM     25  H3  59M d   1       9.265  10.246 -12.072  0.00  0.00     0.086 H 
BRANCH  24  26
ATOM     26  CAL 59M d   1       7.338   8.375 -13.101  0.00  0.00     0.056 C 
ATOM     27  H1  59M d   1       7.097   9.438 -13.252  0.00  0.00     0.054 H 
ATOM     28  H2  59M d   1       7.168   7.824 -14.037  0.00  0.00     0.054 H 
BRANCH  26  29
ATOM     29  CBA 59M d   1       6.410   7.803 -12.009  0.00  0.00     0.392 C 
ATOM     30  FAB 59M d   1       5.133   7.989 -12.362  0.00  0.00    -0.171 F 
ATOM     31  FAC 59M d   1       6.630   6.500 -11.860  0.00  0.00    -0.171 F 
ATOM     32  FAD 59M d   1       6.631   8.422 -10.853  0.00  0.00    -0.171 F 
ENDBRANCH  26  29
ENDBRANCH  24  26
ENDBRANCH   1  15
BRANCH   6  33
ATOM     33  CAU 59M d   1      13.544  14.520 -11.796  0.00  0.00     0.192 A 
ATOM     34  SAQ 59M d   1      13.710  15.221 -13.194  0.00  0.00    -0.031 SA
ATOM     35  CAT 59M d   1      14.818  16.130 -12.616  0.00  0.00     0.129 A 
ATOM     36  NAO 59M d   1      15.065  15.886 -11.330  0.00  0.00    -0.142 NA
ATOM     37  NAP 59M d   1      14.381  15.019 -10.888  0.00  0.00    -0.123 NA
BRANCH  35  38
ATOM     38  CAG 59M d   1      15.573  17.195 -13.404  0.00  0.00     0.106 C 
ATOM     39  FAA 59M d   1      14.749  17.795 -14.207  0.00  0.00    -0.248 F 
ATOM     40  H13 59M d   1      16.376  16.721 -13.988  0.00  0.00     0.092 H 
ATOM     41  H14 59M d   1      16.009  17.928 -12.709  0.00  0.00     0.092 H 
ENDBRANCH  35  38
ENDBRANCH   6  33
TORSDOF 5
