REMARK  5 active torsions:
REMARK  status: ('A' for Active; 'I' for Inactive)
REMARK    1  A    between atoms: C6_3  and  NBA_15 
REMARK    2  A    between atoms: CAL_10  and  CBB_7 
REMARK    3  A    between atoms: CAS_11  and  CAL_10 
REMARK    4  A    between atoms: NAZ_20  and  CAU_21 
REMARK    5  A    between atoms: CAT_25  and  CAY_26 
ROOT
ATOM      1  NBA 59Q d   1      11.998  10.832 -11.164  0.00  0.00    -0.362 N 
ATOM      2  CAK 59Q d   1      11.023  11.807 -11.716  0.00  0.00     0.011 C 
ATOM      3  CAI 59Q d   1      11.717  13.056 -12.288  0.00  0.00     0.012 C 
ATOM      4  CAJ 59Q d   1      13.076  11.325 -10.275  0.00  0.00     0.011 C 
ATOM      5  CAH 59Q d   1      12.995  12.849 -10.087  0.00  0.00     0.012 C 
ATOM      6  NAZ 59Q d   1      12.776  13.552 -11.377  0.00  0.00    -0.355 N 
ATOM      7  H5  59Q d   1      10.338  12.118 -10.913  0.00  0.00     0.066 H 
ATOM      8  H6  59Q d   1      10.450  11.320 -12.519  0.00  0.00     0.066 H 
ATOM      9  H7  59Q d   1      10.967  13.848 -12.430  0.00  0.00     0.066 H 
ATOM     10  H8  59Q d   1      12.170  12.801 -13.258  0.00  0.00     0.066 H 
ATOM     11  H9  59Q d   1      14.050  11.070 -10.718  0.00  0.00     0.066 H 
ATOM     12  H10 59Q d   1      12.981  10.838  -9.293  0.00  0.00     0.066 H 
ATOM     13  H11 59Q d   1      13.937  13.204  -9.643  0.00  0.00     0.066 H 
ATOM     14  H12 59Q d   1      12.160  13.081  -9.409  0.00  0.00     0.066 H 
ENDROOT
BRANCH   1  15
ATOM     15  C6  59Q d   1      11.910   9.516 -11.503  0.00  0.00     0.140 A 
ATOM     16  C5  59Q d   1      10.817   8.858 -12.005  0.00  0.00     0.047 A 
ATOM     17  C4  59Q d   1      10.945   7.547 -12.319  0.00  0.00     0.113 A 
ATOM     18  CAG 59Q d   1       9.548   9.257 -12.272  0.00  0.00    -0.053 A 
ATOM     19  N3  59Q d   1      12.085   6.921 -12.138  0.00  0.00    -0.234 NA
ATOM     20  SAR 59Q d   1       9.570   6.880 -12.959  0.00  0.00    -0.074 SA
ATOM     21  C2  59Q d   1      13.208   7.539 -11.653  0.00  0.00     0.090 A 
ATOM     22  N1  59Q d   1      13.051   8.854 -11.302  0.00  0.00    -0.224 NA
ATOM     23  H4  59Q d   1      14.156   7.022 -11.554  0.00  0.00     0.146 H 
ATOM     24  CAS 59Q d   1       8.744   8.290 -12.768  0.00  0.00    -0.006 A 
ATOM     25  H3  59Q d   1       9.204  10.276 -12.100  0.00  0.00     0.086 H 
BRANCH  24  26
ATOM     26  CAL 59Q d   1       7.257   8.452 -13.127  0.00  0.00     0.056 C 
ATOM     27  H1  59Q d   1       7.023   9.522 -13.228  0.00  0.00     0.054 H 
ATOM     28  H2  59Q d   1       7.056   7.941 -14.080  0.00  0.00     0.054 H 
BRANCH  26  29
ATOM     29  CBB 59Q d   1       6.366   7.837 -12.020  0.00  0.00     0.392 C 
ATOM     30  FAC 59Q d   1       5.113   7.979 -12.278  0.00  0.00    -0.171 F 
ATOM     31  FAD 59Q d   1       6.584   6.607 -11.878  0.00  0.00    -0.171 F 
ATOM     32  FAE 59Q d   1       6.588   8.378 -10.957  0.00  0.00    -0.171 F 
ENDBRANCH  26  29
ENDBRANCH  24  26
ENDBRANCH   1  15
BRANCH   6  33
ATOM     33  CAU 59Q d   1      13.564  14.585 -11.703  0.00  0.00     0.192 A 
ATOM     34  SAQ 59Q d   1      13.637  15.329 -13.161  0.00  0.00    -0.028 SA
ATOM     35  CAT 59Q d   1      14.771  16.370 -12.686  0.00  0.00     0.165 A 
ATOM     36  NAO 59Q d   1      15.104  16.155 -11.411  0.00  0.00    -0.139 NA
ATOM     37  NAP 59Q d   1      14.430  15.157 -10.861  0.00  0.00    -0.123 NA
BRANCH  35  38
ATOM     38  CAY 59Q d   1      15.379  17.444 -13.574  0.00  0.00     0.257 C 
ATOM     39  FAA 59Q d   1      14.470  18.452 -13.779  0.00  0.00    -0.207 F 
ATOM     40  FAB 59Q d   1      15.747  16.877 -14.794  0.00  0.00    -0.207 F 
ATOM     41  H13 59Q d   1      16.272  17.859 -13.083  0.00  0.00     0.156 H 
ENDBRANCH  35  38
ENDBRANCH   6  33
TORSDOF 5
