REMARK  5 active torsions:
REMARK  status: ('A' for Active; 'I' for Inactive)
REMARK    1  A    between atoms: C6_3  and  NBA_15 
REMARK    2  A    between atoms: CAM_10  and  CBB_7 
REMARK    3  A    between atoms: CAT_11  and  CAM_10 
REMARK    4  A    between atoms: NAZ_20  and  CAU_21 
REMARK    5  A    between atoms: CAV_25  and  CBC_26 
ROOT
ATOM      1  NBA 59V d   1     -12.615  10.904 -11.261  0.00  0.00    -0.362 N 
ATOM      2  CAL 59V d   1     -13.488  11.935 -11.854  0.00  0.00     0.011 C 
ATOM      3  CAJ 59V d   1     -12.674  13.063 -12.436  0.00  0.00     0.012 C 
ATOM      4  CAK 59V d   1     -11.503  11.390 -10.452  0.00  0.00     0.011 C 
ATOM      5  CAI 59V d   1     -11.615  12.876 -10.232  0.00  0.00     0.012 C 
ATOM      6  NAZ 59V d   1     -11.839  13.615 -11.436  0.00  0.00    -0.355 N 
ATOM      7  H5  59V d   1     -14.152  12.336 -11.074  0.00  0.00     0.066 H 
ATOM      8  H6  59V d   1     -14.093  11.479 -12.652  0.00  0.00     0.066 H 
ATOM      9  H7  59V d   1     -13.350  13.842 -12.819  0.00  0.00     0.066 H 
ATOM     10  H8  59V d   1     -12.054  12.679 -13.259  0.00  0.00     0.066 H 
ATOM     11  H9  59V d   1     -10.557  11.172 -10.970  0.00  0.00     0.066 H 
ATOM     12  H10 59V d   1     -11.514  10.879  -9.478  0.00  0.00     0.066 H 
ATOM     13  H11 59V d   1     -10.680  13.232  -9.774  0.00  0.00     0.066 H 
ATOM     14  H12 59V d   1     -12.454  13.064  -9.546  0.00  0.00     0.066 H 
ENDROOT
BRANCH   1  15
ATOM     15  C6  59V d   1     -12.699   9.576 -11.581  0.00  0.00     0.140 A 
ATOM     16  C5  59V d   1     -13.775   8.906 -12.065  0.00  0.00     0.047 A 
ATOM     17  C4  59V d   1     -13.618   7.588 -12.351  0.00  0.00     0.113 A 
ATOM     18  CAH 59V d   1     -15.043   9.310 -12.330  0.00  0.00    -0.053 A 
ATOM     19  N3  59V d   1     -12.462   6.956 -12.170  0.00  0.00    -0.234 NA
ATOM     20  SAS 59V d   1     -14.994   6.943 -12.953  0.00  0.00    -0.074 SA
ATOM     21  C2  59V d   1     -11.358   7.586 -11.698  0.00  0.00     0.090 A 
ATOM     22  N1  59V d   1     -11.563   8.897 -11.388  0.00  0.00    -0.224 NA
ATOM     23  H4  59V d   1     -10.400   7.092 -11.578  0.00  0.00     0.146 H 
ATOM     24  CAT 59V d   1     -15.848   8.341 -12.805  0.00  0.00    -0.006 A 
ATOM     25  H3  59V d   1     -15.381  10.333 -12.172  0.00  0.00     0.086 H 
BRANCH  24  26
ATOM     26  CAM 59V d   1     -17.343   8.501 -13.168  0.00  0.00     0.056 C 
ATOM     27  H1  59V d   1     -17.583   9.570 -13.261  0.00  0.00     0.054 H 
ATOM     28  H2  59V d   1     -17.542   7.996 -14.125  0.00  0.00     0.054 H 
BRANCH  26  29
ATOM     29  CBB 59V d   1     -18.242   7.859 -12.042  0.00  0.00     0.392 C 
ATOM     30  FAA 59V d   1     -18.017   8.438 -10.867  0.00  0.00    -0.171 F 
ATOM     31  FAB 59V d   1     -19.523   8.001 -12.367  0.00  0.00    -0.171 F 
ATOM     32  FAC 59V d   1     -17.945   6.566 -11.963  0.00  0.00    -0.171 F 
ENDBRANCH  26  29
ENDBRANCH  24  26
ENDBRANCH   1  15
BRANCH   6  33
ATOM     33  CAU 59V d   1     -11.088  14.655 -11.808  0.00  0.00     0.192 A 
ATOM     34  SAR 59V d   1     -11.035  15.277 -13.384  0.00  0.00    -0.024 SA
ATOM     35  CAV 59V d   1      -9.944  16.385 -12.957  0.00  0.00     0.206 A 
ATOM     36  NAQ 59V d   1      -9.621  16.295 -11.661  0.00  0.00    -0.135 NA
ATOM     37  NAP 59V d   1     -10.250  15.327 -11.019  0.00  0.00    -0.123 NA
BRANCH  35  38
ATOM     38  CBC 59V d   1      -9.365  17.408 -13.910  0.00  0.00     0.443 C 
ATOM     39  FAE 59V d   1     -10.277  18.353 -14.126  0.00  0.00    -0.164 F 
ATOM     40  FAF 59V d   1      -8.279  17.955 -13.369  0.00  0.00    -0.164 F 
ATOM     41  FAD 59V d   1      -9.044  16.830 -15.063  0.00  0.00    -0.164 F 
ENDBRANCH  35  38
ENDBRANCH   6  33
TORSDOF 5
