REMARK  6 active torsions:
REMARK  status: ('A' for Active; 'I' for Inactive)
REMARK    1  A    between atoms: C6_3  and  NAX_13 
REMARK    2  A    between atoms: CAG_8  and  CAF_7 
REMARK    3  A    between atoms: CAS_9  and  CAG_8 
REMARK    4  A    between atoms: NAW_18  and  CAR_19 
REMARK    5  A    between atoms: CAY_21  and  CAA_22 
REMARK    6  A    between atoms: CAY_21  and  CAB_23 
ROOT
ATOM      1  NAX 59X d   1      12.255  10.798  11.123  0.00  0.00    -0.362 N 
ATOM      2  CAK 59X d   1      11.086  11.310  10.349  0.00  0.00     0.011 C 
ATOM      3  CAI 59X d   1      11.126  12.784  10.136  0.00  0.00     0.012 C 
ATOM      4  CAJ 59X d   1      13.188  11.849  11.727  0.00  0.00     0.011 C 
ATOM      5  CAH 59X d   1      12.223  12.752  12.508  0.00  0.00     0.012 C 
ATOM      6  NAW 59X d   1      11.364  13.434  11.523  0.00  0.00    -0.359 N 
ATOM      7  H7  59X d   1      10.166  11.061  10.898  0.00  0.00     0.066 H 
ATOM      8  H8  59X d   1      11.072  10.815   9.367  0.00  0.00     0.066 H 
ATOM      9  H9  59X d   1      10.171  13.131   9.715  0.00  0.00     0.066 H 
ATOM     10  H10 59X d   1      11.946  13.045   9.450  0.00  0.00     0.066 H 
ATOM     11  H11 59X d   1      13.710  12.414  10.941  0.00  0.00     0.066 H 
ATOM     12  H12 59X d   1      13.926  11.385  12.397  0.00  0.00     0.066 H 
ATOM     13  H13 59X d   1      12.790  13.494  13.090  0.00  0.00     0.066 H 
ATOM     14  H14 59X d   1      11.607  12.145  13.188  0.00  0.00     0.066 H 
ENDROOT
BRANCH   1  15
ATOM     15  C6  59X d   1      12.299   9.480  11.438  0.00  0.00     0.140 A 
ATOM     16  C5  59X d   1      13.375   8.768  11.954  0.00  0.00     0.047 A 
ATOM     17  C4  59X d   1      13.190   7.452  12.215  0.00  0.00     0.113 A 
ATOM     18  CAE 59X d   1      14.656   9.166  12.247  0.00  0.00    -0.054 A 
ATOM     19  N3  59X d   1      12.029   6.839  12.016  0.00  0.00    -0.234 NA
ATOM     20  SAQ 59X d   1      14.536   6.778  12.891  0.00  0.00    -0.074 SA
ATOM     21  C2  59X d   1      10.977   7.521  11.498  0.00  0.00     0.090 A 
ATOM     22  N1  59X d   1      11.132   8.854  11.211  0.00  0.00    -0.224 NA
ATOM     23  H6  59X d   1      10.032   7.023  11.314  0.00  0.00     0.146 H 
ATOM     24  CAS 59X d   1      15.458   8.220  12.745  0.00  0.00    -0.012 A 
ATOM     25  H5  59X d   1      14.997  10.187  12.084  0.00  0.00     0.086 H 
BRANCH  24  26
ATOM     26  CAG 59X d   1      16.930   8.448  13.172  0.00  0.00    -0.011 C 
ATOM     27  H3  59X d   1      17.101   9.512  13.393  0.00  0.00     0.044 H 
ATOM     28  H4  59X d   1      17.165   7.846  14.062  0.00  0.00     0.044 H 
BRANCH  26  29
ATOM     29  CAF 59X d   1      17.809   8.002  11.979  0.00  0.00     0.062 C 
ATOM     30  FAC 59X d   1      17.615   6.685  11.844  0.00  0.00    -0.255 F 
ATOM     31  H1  59X d   1      17.504   8.528  11.063  0.00  0.00     0.082 H 
ATOM     32  H2  59X d   1      18.869   8.212  12.187  0.00  0.00     0.082 H 
ENDBRANCH  26  29
ENDBRANCH  24  26
ENDBRANCH   1  15
BRANCH   6  33
ATOM     33  CAR 59X d   1      10.767  14.602  11.821  0.00  0.00     0.139 C 
ATOM     34  SAP 59X d   1      10.870  15.358  13.310  0.00  0.00    -0.083 SA
ATOM     35  CAY 59X d   1       9.913  16.801  12.901  0.00  0.00     0.024 C 
ATOM     36  CAL 59X d   1       9.357  16.583  11.563  0.00  0.00     0.010 C 
ATOM     37  NAM 59X d   1       9.988  15.316  10.978  0.00  0.00    -0.369 N 
ATOM     38  H21 59X d   1       9.589  17.445  10.919  0.00  0.00     0.066 H 
ATOM     39  H22 59X d   1       8.266  16.458  11.630  0.00  0.00     0.066 H 
ATOM     40  H23 59X d   1       9.829  15.026  10.003  0.00  0.00     0.161 HD
BRANCH  35  41
ATOM     41  CAA 59X d   1       8.814  17.067  13.970  0.00  0.00    -0.059 C 
ATOM     42  H15 59X d   1       8.240  17.963  13.691  0.00  0.00     0.029 H 
ATOM     43  H16 59X d   1       9.287  17.225  14.950  0.00  0.00     0.029 H 
ATOM     44  H17 59X d   1       8.138  16.201  14.024  0.00  0.00     0.029 H 
ENDBRANCH  35  41
BRANCH  35  45
ATOM     45  CAB 59X d   1      10.837  18.021  12.774  0.00  0.00    -0.059 C 
ATOM     46  H18 59X d   1      10.239  18.909  12.521  0.00  0.00     0.029 H 
ATOM     47  H19 59X d   1      11.577  17.839  11.981  0.00  0.00     0.029 H 
ATOM     48  H20 59X d   1      11.357  18.189  13.729  0.00  0.00     0.029 H 
ENDBRANCH  35  45
ENDBRANCH   6  33
TORSDOF 6
