REMARK  6 active torsions:
REMARK  status: ('A' for Active; 'I' for Inactive)
REMARK    1  A    between atoms: C6_3  and  NAY_14 
REMARK    2  A    between atoms: CAL_9  and  CAW_7 
REMARK    3  A    between atoms: CAS_10  and  CAL_9 
REMARK    4  A    between atoms: NAX_19  and  CAR_20 
REMARK    5  A    between atoms: CAZ_22  and  CAA_23 
REMARK    6  A    between atoms: CAZ_22  and  CAB_24 
ROOT
ATOM      1  NAY 5A0 d   1     -12.254  10.823 -11.140  0.00  0.00    -0.362 N 
ATOM      2  CAJ 5A0 d   1     -13.131  11.775 -11.785  0.00  0.00     0.011 C 
ATOM      3  CAH 5A0 d   1     -12.330  12.903 -12.480  0.00  0.00     0.012 C 
ATOM      4  CAI 5A0 d   1     -11.155  11.448 -10.376  0.00  0.00     0.011 C 
ATOM      5  CAG 5A0 d   1     -11.375  12.943 -10.198  0.00  0.00     0.012 C 
ATOM      6  NAX 5A0 d   1     -11.517  13.591 -11.512  0.00  0.00    -0.359 N 
ATOM      7  H6  5A0 d   1     -13.793  12.221 -11.028  0.00  0.00     0.066 H 
ATOM      8  H7  5A0 d   1     -13.736  11.250 -12.539  0.00  0.00     0.066 H 
ATOM      9  H8  5A0 d   1     -13.029  13.616 -12.943  0.00  0.00     0.066 H 
ATOM     10  H9  5A0 d   1     -11.684  12.467 -13.256  0.00  0.00     0.066 H 
ATOM     11  H10 5A0 d   1     -10.210  11.288 -10.915  0.00  0.00     0.066 H 
ATOM     12  H11 5A0 d   1     -11.096  10.976  -9.384  0.00  0.00     0.066 H 
ATOM     13  H12 5A0 d   1     -10.514  13.377  -9.669  0.00  0.00     0.066 H 
ATOM     14  H13 5A0 d   1     -12.289  13.109  -9.609  0.00  0.00     0.066 H 
ENDROOT
BRANCH   1  15
ATOM     15  C6  5A0 d   1     -12.319   9.484 -11.437  0.00  0.00     0.140 A 
ATOM     16  C5  5A0 d   1     -13.397   8.778 -11.927  0.00  0.00     0.047 A 
ATOM     17  C4  5A0 d   1     -13.252   7.460 -12.202  0.00  0.00     0.113 A 
ATOM     18  CAF 5A0 d   1     -14.686   9.095 -12.199  0.00  0.00    -0.054 A 
ATOM     19  N3  5A0 d   1     -12.103   6.852 -12.018  0.00  0.00    -0.234 NA
ATOM     20  SAQ 5A0 d   1     -14.653   6.768 -12.794  0.00  0.00    -0.074 SA
ATOM     21  C2  5A0 d   1     -10.994   7.509 -11.540  0.00  0.00     0.090 A 
ATOM     22  N1  5A0 d   1     -11.157   8.843 -11.246  0.00  0.00    -0.224 NA
ATOM     23  H5  5A0 d   1     -10.045   7.004 -11.402  0.00  0.00     0.146 H 
ATOM     24  CAS 5A0 d   1     -15.421   8.073 -12.682  0.00  0.00    -0.009 A 
ATOM     25  H4  5A0 d   1     -15.094  10.092 -12.041  0.00  0.00     0.086 H 
BRANCH  24  26
ATOM     26  CAL 5A0 d   1     -16.875   8.204 -13.058  0.00  0.00     0.020 C 
ATOM     27  H2  5A0 d   1     -17.128   9.267 -13.184  0.00  0.00     0.049 H 
ATOM     28  H3  5A0 d   1     -17.060   7.669 -14.001  0.00  0.00     0.049 H 
BRANCH  26  29
ATOM     29  CAW 5A0 d   1     -17.768   7.581 -11.913  0.00  0.00     0.212 C 
ATOM     30  FAC 5A0 d   1     -17.531   6.224 -11.825  0.00  0.00    -0.214 F 
ATOM     31  FAD 5A0 d   1     -19.101   7.803 -12.191  0.00  0.00    -0.214 F 
ATOM     32  H1  5A0 d   1     -17.513   8.057 -10.955  0.00  0.00     0.145 H 
ENDBRANCH  26  29
ENDBRANCH  24  26
ENDBRANCH   1  15
BRANCH   6  33
ATOM     33  CAR 5A0 d   1     -10.870  14.704 -11.820  0.00  0.00     0.139 C 
ATOM     34  SAP 5A0 d   1     -10.945  15.397 -13.281  0.00  0.00    -0.083 SA
ATOM     35  CAZ 5A0 d   1     -10.049  16.827 -12.859  0.00  0.00     0.024 C 
ATOM     36  CAK 5A0 d   1      -9.434  16.552 -11.553  0.00  0.00     0.010 C 
ATOM     37  NAM 5A0 d   1     -10.071  15.371 -10.972  0.00  0.00    -0.369 N 
ATOM     38  H20 5A0 d   1      -9.579  17.415 -10.887  0.00  0.00     0.066 H 
ATOM     39  H21 5A0 d   1      -8.358  16.365 -11.683  0.00  0.00     0.066 H 
ATOM     40  H22 5A0 d   1      -9.920  15.076  -9.997  0.00  0.00     0.161 HD
BRANCH  35  41
ATOM     41  CAA 5A0 d   1      -8.970  17.101 -13.913  0.00  0.00    -0.059 C 
ATOM     42  H14 5A0 d   1      -8.410  18.006 -13.637  0.00  0.00     0.029 H 
ATOM     43  H15 5A0 d   1      -9.445  17.248 -14.894  0.00  0.00     0.029 H 
ATOM     44  H16 5A0 d   1      -8.281  16.245 -13.964  0.00  0.00     0.029 H 
ENDBRANCH  35  41
BRANCH  35  45
ATOM     45  CAB 5A0 d   1     -10.996  18.030 -12.763  0.00  0.00    -0.059 C 
ATOM     46  H17 5A0 d   1     -10.421  18.929 -12.496  0.00  0.00     0.029 H 
ATOM     47  H18 5A0 d   1     -11.756  17.838 -11.991  0.00  0.00     0.029 H 
ATOM     48  H19 5A0 d   1     -11.490  18.186 -13.733  0.00  0.00     0.029 H 
ENDBRANCH  35  45
ENDBRANCH   6  33
TORSDOF 6
