REMARK  6 active torsions:
REMARK  status: ('A' for Active; 'I' for Inactive)
REMARK    1  A    between atoms: C6_3  and  NAZ_17 
REMARK    2  A    between atoms: CBC_10  and  CBB_7 
REMARK    3  A    between atoms: CAU_13  and  CBC_10 
REMARK    4  A    between atoms: NAY_22  and  CAT_23 
REMARK    5  A    between atoms: CBA_25  and  CAA_26 
REMARK    6  A    between atoms: CBA_25  and  CAB_27 
ROOT
ATOM      1  NAZ 5A1 d   1      12.230  10.937  11.092  0.00  0.00    -0.362 N 
ATOM      2  CAM 5A1 d   1      11.198  11.555  10.225  0.00  0.00     0.011 C 
ATOM      3  CAK 5A1 d   1      11.303  13.099  10.228  0.00  0.00     0.012 C 
ATOM      4  CAL 5A1 d   1      13.192  11.844  11.764  0.00  0.00     0.011 C 
ATOM      5  CAJ 5A1 d   1      12.459  12.979  12.501  0.00  0.00     0.012 C 
ATOM      6  NAY 5A1 d   1      11.529  13.684  11.585  0.00  0.00    -0.357 N 
ATOM      7  H3  5A1 d   1      10.203  11.264  10.592  0.00  0.00     0.066 H 
ATOM      8  H4  5A1 d   1      11.331  11.190   9.196  0.00  0.00     0.066 H 
ATOM      9  H5  5A1 d   1      10.367  13.511   9.824  0.00  0.00     0.066 H 
ATOM     10  H6  5A1 d   1      12.142  13.391   9.580  0.00  0.00     0.066 H 
ATOM     11  H7  5A1 d   1      13.863  12.280  11.009  0.00  0.00     0.066 H 
ATOM     12  H8  5A1 d   1      13.783  11.267  12.490  0.00  0.00     0.066 H 
ATOM     13  H9  5A1 d   1      13.199  13.696  12.887  0.00  0.00     0.066 H 
ATOM     14  H10 5A1 d   1      11.887  12.555  13.340  0.00  0.00     0.066 H 
ENDROOT
BRANCH   1  15
ATOM     15  C6  5A1 d   1      12.262   9.600  11.385  0.00  0.00     0.140 A 
ATOM     16  C5  5A1 d   1      13.343   8.925  11.864  0.00  0.00     0.047 A 
ATOM     17  C4  5A1 d   1      13.224   7.609  12.151  0.00  0.00     0.113 A 
ATOM     18  CAI 5A1 d   1      14.612   9.300  12.132  0.00  0.00    -0.048 A 
ATOM     19  N3  5A1 d   1      12.098   6.953  11.988  0.00  0.00    -0.234 NA
ATOM     20  SAS 5A1 d   1      14.579   7.006  12.731  0.00  0.00    -0.068 SA
ATOM     21  C2  5A1 d   1      10.975   7.590  11.518  0.00  0.00     0.090 A 
ATOM     22  N1  5A1 d   1      11.122   8.923  11.200  0.00  0.00    -0.224 NA
ATOM     23  H2  5A1 d   1      10.028   7.074  11.404  0.00  0.00     0.146 H 
ATOM     24  CAU 5A1 d   1      15.363   8.274  12.574  0.00  0.00     0.066 A 
ATOM     25  H1  5A1 d   1      14.985  10.315  12.005  0.00  0.00     0.087 H 
BRANCH  24  26
ATOM     26  CBC 5A1 d   1      16.808   8.287  12.982  0.00  0.00     0.372 C 
ATOM     27  FAF 5A1 d   1      16.949   7.460  14.003  0.00  0.00    -0.190 F 
ATOM     28  FAG 5A1 d   1      17.101   9.506  13.396  0.00  0.00    -0.190 F 
BRANCH  26  29
ATOM     29  CBB 5A1 d   1      17.812   7.898  11.921  0.00  0.00     0.459 C 
ATOM     30  FAC 5A1 d   1      19.043   8.067  12.393  0.00  0.00    -0.165 F 
ATOM     31  FAD 5A1 d   1      17.635   6.623  11.590  0.00  0.00    -0.165 F 
ATOM     32  FAE 5A1 d   1      17.641   8.662  10.848  0.00  0.00    -0.165 F 
ENDBRANCH  26  29
ENDBRANCH  24  26
ENDBRANCH   1  15
BRANCH   6  33
ATOM     33  CAT 5A1 d   1      10.898  14.800  11.941  0.00  0.00     0.160 A 
ATOM     34  SAR 5A1 d   1      11.044  15.550  13.395  0.00  0.00    -0.081 SA
ATOM     35  CBA 5A1 d   1       9.994  16.887  13.051  0.00  0.00     0.026 A 
ATOM     36  CAN 5A1 d   1       9.443  16.665  11.671  0.00  0.00     0.033 A 
ATOM     37  NAO 5A1 d   1      10.071  15.438  11.125  0.00  0.00    -0.265 NA
ATOM     38  H17 5A1 d   1       9.683  17.526  11.029  0.00  0.00     0.069 H 
ATOM     39  H18 5A1 d   1       8.352  16.537  11.720  0.00  0.00     0.069 H 
BRANCH  35  40
ATOM     40  CAA 5A1 d   1       8.856  16.932  14.080  0.00  0.00    -0.059 C 
ATOM     41  H11 5A1 d   1       8.194  17.781  13.857  0.00  0.00     0.029 H 
ATOM     42  H12 5A1 d   1       9.278  17.051  15.089  0.00  0.00     0.029 H 
ATOM     43  H13 5A1 d   1       8.281  15.996  14.032  0.00  0.00     0.029 H 
ENDBRANCH  35  40
BRANCH  35  44
ATOM     44  CAB 5A1 d   1      10.788  18.198  13.104  0.00  0.00    -0.059 C 
ATOM     45  H14 5A1 d   1      10.117  19.042  12.885  0.00  0.00     0.029 H 
ATOM     46  H15 5A1 d   1      11.595  18.168  12.357  0.00  0.00     0.029 H 
ATOM     47  H16 5A1 d   1      11.221  18.324  14.107  0.00  0.00     0.029 H 
ENDBRANCH  35  44
ENDBRANCH   6  33
TORSDOF 6
