REMARK  10 active torsions:
REMARK  status: ('A' for Active; 'I' for Inactive)
REMARK    1  A    between atoms: C37_2  and  O38_3 
REMARK       I    between atoms: N36_24  and  C37_2 
REMARK    2  A    between atoms: O38_3  and  C39_4 
REMARK    3  A    between atoms: C39_4  and  C40_5 
REMARK    4  A    between atoms: C39_4  and  C41_6 
REMARK    5  A    between atoms: C39_4  and  C42_7 
REMARK    6  A    between atoms: C28_16  and  N36_24 
REMARK    7  A    between atoms: C14_26  and  C25_31 
REMARK    8  A    between atoms: C25_31  and  O26_32 
REMARK    9  A    between atoms: C04_34  and  C05_37 
REMARK   10  A    between atoms: C05_37  and  C06_38 
ROOT
ATOM      1  O01 V66 d   1      -4.294   3.706   6.364  0.00  0.00    -0.271 OA
ATOM      2  C02 V66 d   1      -4.214   4.610   7.188  0.00  0.00     0.241 C 
ATOM      3  N18 V66 d   1      -1.388   3.295   1.568  0.00  0.00    -0.361 N 
ATOM      4  C19 V66 d   1      -0.407   4.169   2.170  0.00  0.00    -0.005 C 
ATOM      5  C20 V66 d   1       0.998   3.597   1.958  0.00  0.00    -0.050 C 
ATOM      6  C21 V66 d   1       1.775   3.428   3.255  0.00  0.00    -0.063 C 
ATOM      7  C22 V66 d   1       2.619   4.668   3.488  0.00  0.00    -0.058 C 
ATOM      8  C23 V66 d   1       3.199   4.632   4.883  0.00  0.00    -0.002 C 
ATOM      9  C28 V66 d   1      -3.070   4.647   8.156  0.00  0.00     0.092 C 
ATOM     10  C29 V66 d   1      -1.838   5.177   7.441  0.00  0.00    -0.031 C 
ATOM     11  C30 V66 d   1      -0.563   5.030   8.253  0.00  0.00     0.001 C 
ATOM     12  C31 V66 d   1       0.555   5.380   7.310  0.00  0.00     0.169 A 
ATOM     13  N32 V66 d   1       0.974   6.629   7.032  0.00  0.00    -0.127 NA
ATOM     14  N33 V66 d   1       2.013   6.526   6.102  0.00  0.00    -0.127 NA
ATOM     15  C34 V66 d   1       2.192   5.215   5.838  0.00  0.00     0.169 A 
ATOM     16  O35 V66 d   1       1.295   4.495   6.572  0.00  0.00    -0.278 OA
ATOM     17  N13 V66 d   1      -6.209   5.481   3.937  0.00  0.00    -0.353 N 
ATOM     18  C14 V66 d   1      -5.798   5.713   2.570  0.00  0.00     0.033 C 
ATOM     19  C15 V66 d   1      -4.997   4.519   1.991  0.00  0.00    -0.036 C 
ATOM     20  C16 V66 d   1      -3.453   4.595   2.190  0.00  0.00     0.011 C 
ATOM     21  C17 V66 d   1      -2.717   3.420   1.558  0.00  0.00     0.217 C 
ATOM     22  O24 V66 d   1      -3.309   2.519   1.007  0.00  0.00    -0.274 OA
ATOM     23  N03 V66 d   1      -5.093   5.598   7.257  0.00  0.00    -0.346 N 
ATOM     24  C04 V66 d   1      -6.197   5.687   6.332  0.00  0.00     0.089 C 
ATOM     25  C12 V66 d   1      -5.636   6.060   4.988  0.00  0.00     0.240 C 
ATOM     26  O27 V66 d   1      -4.702   6.836   4.900  0.00  0.00    -0.271 OA
ATOM     27  H10 V66 d   1      -1.024   2.491   1.097  0.00  0.00     0.162 HD
ATOM     28  H11 V66 d   1      -0.607   4.255   3.248  0.00  0.00     0.064 H 
ATOM     29  H12 V66 d   1      -0.470   5.164   1.705  0.00  0.00     0.064 H 
ATOM     30  H13 V66 d   1       1.558   4.278   1.301  0.00  0.00     0.035 H 
ATOM     31  H14 V66 d   1       0.906   2.613   1.474  0.00  0.00     0.035 H 
ATOM     32  H15 V66 d   1       2.428   2.546   3.182  0.00  0.00     0.033 H 
ATOM     33  H16 V66 d   1       1.073   3.297   4.092  0.00  0.00     0.033 H 
ATOM     34  H17 V66 d   1       1.991   5.564   3.376  0.00  0.00     0.033 H 
ATOM     35  H18 V66 d   1       3.436   4.698   2.752  0.00  0.00     0.033 H 
ATOM     36  H19 V66 d   1       4.125   5.224   4.914  0.00  0.00     0.045 H 
ATOM     37  H20 V66 d   1       3.419   3.592   5.166  0.00  0.00     0.045 H 
ATOM     38  H21 V66 d   1      -3.318   5.327   8.984  0.00  0.00     0.087 H 
ATOM     39  H22 V66 d   1      -1.992   6.244   7.224  0.00  0.00     0.037 H 
ATOM     40  H23 V66 d   1      -1.717   4.624   6.498  0.00  0.00     0.037 H 
ATOM     41  H24 V66 d   1      -0.453   3.996   8.613  0.00  0.00     0.045 H 
ATOM     42  H25 V66 d   1      -0.572   5.718   9.111  0.00  0.00     0.045 H 
ATOM     43  H27 V66 d   1      -6.967   4.849   4.101  0.00  0.00     0.163 HD
ATOM     44  H28 V66 d   1      -5.114   6.574   2.561  0.00  0.00     0.075 H 
ATOM     45  H29 V66 d   1      -5.198   4.466   0.911  0.00  0.00     0.036 H 
ATOM     46  H30 V66 d   1      -5.358   3.600   2.477  0.00  0.00     0.036 H 
ATOM     47  H31 V66 d   1      -3.238   4.605   3.269  0.00  0.00     0.047 H 
ATOM     48  H32 V66 d   1      -3.085   5.526   1.734  0.00  0.00     0.047 H 
ATOM     49  H36 V66 d   1      -4.990   6.297   7.965  0.00  0.00     0.163 HD
ATOM     50  H37 V66 d   1      -6.676   4.700   6.258  0.00  0.00     0.087 H 
ENDROOT
BRANCH  24  51
ATOM     51  C05 V66 d   1      -7.259   6.699   6.787  0.00  0.00    -0.035 C 
ATOM     52  H38 V66 d   1      -7.926   6.887   5.932  0.00  0.00     0.037 H 
ATOM     53  H39 V66 d   1      -6.737   7.629   7.056  0.00  0.00     0.037 H 
BRANCH  51  54
ATOM     54  C06 V66 d   1      -8.138   6.301   7.980  0.00  0.00    -0.052 C 
ATOM     55  C07 V66 d   1      -9.211   7.375   8.114  0.00  0.00    -0.062 C 
ATOM     56  C08 V66 d   1     -10.313   6.993   9.090  0.00  0.00    -0.065 C 
ATOM     57  H41 V66 d   1      -9.662   7.546   7.125  0.00  0.00     0.033 H 
ATOM     58  H42 V66 d   1      -8.737   8.303   8.466  0.00  0.00     0.033 H 
ATOM     59  C09 V66 d   1     -10.920   5.653   8.736  0.00  0.00    -0.065 C 
ATOM     60  H43 V66 d   1     -11.100   7.761   9.061  0.00  0.00     0.033 H 
ATOM     61  H44 V66 d   1      -9.890   6.938  10.104  0.00  0.00     0.033 H 
ATOM     62  C10 V66 d   1      -9.808   4.630   8.833  0.00  0.00    -0.065 C 
ATOM     63  H45 V66 d   1     -11.323   5.678   7.713  0.00  0.00     0.033 H 
ATOM     64  H46 V66 d   1     -11.726   5.404   9.442  0.00  0.00     0.033 H 
ATOM     65  C11 V66 d   1      -8.758   4.926   7.776  0.00  0.00    -0.062 C 
ATOM     66  H47 V66 d   1     -10.220   3.623   8.669  0.00  0.00     0.033 H 
ATOM     67  H48 V66 d   1      -9.349   4.681   9.831  0.00  0.00     0.033 H 
ATOM     68  H49 V66 d   1      -7.967   4.164   7.834  0.00  0.00     0.033 H 
ATOM     69  H50 V66 d   1      -9.230   4.890   6.783  0.00  0.00     0.033 H 
ATOM     70  H40 V66 d   1      -7.526   6.278   8.894  0.00  0.00     0.040 H 
ENDBRANCH  51  54
ENDBRANCH  24  51
BRANCH   9  71
ATOM     71  N36 V66 d   1      -2.855   3.323   8.694  0.00  0.00    -0.324 N 
ATOM     72  C37 V66 d   1      -2.822   3.071  10.001  0.00  0.00     0.362 C 
ATOM     73  O43 V66 d   1      -2.933   3.917  10.888  0.00  0.00    -0.238 OA
ATOM     74  H26 V66 d   1      -2.725   2.563   8.057  0.00  0.00     0.165 HD
BRANCH  72  75
ATOM     75  O38 V66 d   1      -2.661   1.669  10.332  0.00  0.00    -0.294 OA
BRANCH  75  76
ATOM     76  C39 V66 d   1      -2.079   1.246  11.559  0.00  0.00     0.061 C 
BRANCH  76  77
ATOM     77  C40 V66 d   1      -0.942   2.176  11.976  0.00  0.00    -0.048 C 
ATOM     78  H1  V66 d   1      -0.511   1.826  12.926  0.00  0.00     0.031 H 
ATOM     79  H2  V66 d   1      -1.331   3.197  12.104  0.00  0.00     0.031 H 
ATOM     80  H3  V66 d   1      -0.164   2.175  11.198  0.00  0.00     0.031 H 
ENDBRANCH  76  77
BRANCH  76  81
ATOM     81  C41 V66 d   1      -1.518  -0.159  11.355  0.00  0.00    -0.048 C 
ATOM     82  H4  V66 d   1      -1.061  -0.511  12.292  0.00  0.00     0.031 H 
ATOM     83  H5  V66 d   1      -0.757  -0.138  10.561  0.00  0.00     0.031 H 
ATOM     84  H6  V66 d   1      -2.332  -0.840  11.066  0.00  0.00     0.031 H 
ENDBRANCH  76  81
BRANCH  76  85
ATOM     85  C42 V66 d   1      -3.198   1.256  12.595  0.00  0.00    -0.048 C 
ATOM     86  H7  V66 d   1      -2.799   0.935  13.569  0.00  0.00     0.031 H 
ATOM     87  H8  V66 d   1      -3.995   0.567  12.280  0.00  0.00     0.031 H 
ATOM     88  H9  V66 d   1      -3.606   2.273  12.684  0.00  0.00     0.031 H 
ENDBRANCH  76  85
ENDBRANCH  75  76
ENDBRANCH  72  75
ENDBRANCH   9  71
BRANCH  18  89
ATOM     89  C25 V66 d   1      -7.072   6.131   1.785  0.00  0.00     0.035 C 
ATOM     90  H33 V66 d   1      -7.816   5.322   1.836  0.00  0.00     0.077 H 
ATOM     91  H34 V66 d   1      -6.809   6.321   0.734  0.00  0.00     0.077 H 
BRANCH  89  92
ATOM     92  O26 V66 d   1      -7.622   7.322   2.362  0.00  0.00    -0.399 OA
ATOM     93  H35 V66 d   1      -7.849   7.157   3.269  0.00  0.00     0.209 HD
ENDBRANCH  89  92
ENDBRANCH  18  89
TORSDOF 10
