REMARK  20 active torsions:
REMARK  status: ('A' for Active; 'I' for Inactive)
REMARK    1  A    between atoms: C36_2  and  O37_3 
REMARK       I    between atoms: N35_14  and  C36_2 
REMARK    2  A    between atoms: O37_3  and  C38_4 
REMARK    3  A    between atoms: C38_4  and  C39_5 
REMARK    4  A    between atoms: C38_4  and  C40_6 
REMARK    5  A    between atoms: C38_4  and  C41_7 
REMARK    6  A    between atoms: C02_9  and  C27_11 
REMARK       I    between atoms: N03_24  and  C02_9 
REMARK    7  A    between atoms: N18_10  and  C5_15 
REMARK       I    between atoms: C17_20  and  N18_10 
REMARK    8  A    between atoms: C27_11  and  C28_12 
REMARK    9  A    between atoms: C27_11  and  N35_14 
REMARK   10  A    between atoms: C28_12  and  C29_13 
REMARK   11  A    between atoms: N13_16  and  C14_17 
REMARK       I    between atoms: C12_26  and  N13_16 
REMARK   12  A    between atoms: C14_17  and  C15_18 
REMARK   13  A    between atoms: C14_17  and  C24_22 
REMARK   14  A    between atoms: C15_18  and  C16_19 
REMARK   15  A    between atoms: C16_19  and  C17_20 
REMARK   16  A    between atoms: C24_22  and  O25_23 
REMARK   17  A    between atoms: C04_25  and  N03_24 
REMARK   18  A    between atoms: C04_25  and  C12_26 
REMARK   19  A    between atoms: C04_25  and  C05_28 
REMARK   20  A    between atoms: C05_28  and  C06_29 
ROOT
ATOM      1  C04 V64 d   1      19.674 -57.811 135.491  0.00  0.00     0.089 C 
ATOM      2  H31 V64 d   1      20.158 -56.919 135.915  0.00  0.00     0.087 H 
ENDROOT
BRANCH   1   3
ATOM      3  N03 V64 d   1      18.725 -58.331 136.441  0.00  0.00    -0.346 N 
ATOM      4  C02 V64 d   1      17.630 -57.447 136.843  0.00  0.00     0.241 C 
ATOM      5  O01 V64 d   1      17.532 -56.341 136.406  0.00  0.00    -0.271 OA
ATOM      6  H30 V64 d   1      18.811 -59.256 136.810  0.00  0.00     0.163 HD
BRANCH   4   7
ATOM      7  C27 V64 d   1      16.638 -58.023 137.833  0.00  0.00     0.091 C 
ATOM      8  H11 V64 d   1      17.152 -58.707 138.524  0.00  0.00     0.087 H 
BRANCH   7   9
ATOM      9  C28 V64 d   1      15.563 -58.779 137.048  0.00  0.00    -0.041 C 
ATOM     10  H12 V64 d   1      16.048 -59.405 136.285  0.00  0.00     0.036 H 
ATOM     11  H13 V64 d   1      14.898 -58.053 136.558  0.00  0.00     0.036 H 
BRANCH   9  12
ATOM     12  C29 V64 d   1      14.724 -59.682 137.984  0.00  0.00    -0.074 C 
ATOM     13  H14 V64 d   1      13.961 -60.212 137.395  0.00  0.00     0.027 H 
ATOM     14  H15 V64 d   1      14.232 -59.062 138.748  0.00  0.00     0.027 H 
ATOM     15  H16 V64 d   1      15.383 -60.414 138.475  0.00  0.00     0.027 H 
ENDBRANCH   9  12
ENDBRANCH   7   9
BRANCH   7  16
ATOM     16  N35 V64 d   1      16.018 -56.956 138.575  0.00  0.00    -0.324 N 
ATOM     17  C36 V64 d   1      16.590 -56.516 139.854  0.00  0.00     0.362 C 
ATOM     18  O42 V64 d   1      17.277 -57.245 140.498  0.00  0.00    -0.238 OA
ATOM     19  H17 V64 d   1      15.195 -56.513 138.218  0.00  0.00     0.165 HD
BRANCH  17  20
ATOM     20  O37 V64 d   1      16.264 -55.199 140.254  0.00  0.00    -0.294 OA
BRANCH  20  21
ATOM     21  C38 V64 d   1      16.627 -54.760 141.561  0.00  0.00     0.061 C 
BRANCH  21  22
ATOM     22  C39 V64 d   1      15.910 -55.600 142.646  0.00  0.00    -0.048 C 
ATOM     23  H1  V64 d   1      16.207 -55.242 143.643  0.00  0.00     0.031 H 
ATOM     24  H2  V64 d   1      16.193 -56.657 142.537  0.00  0.00     0.031 H 
ATOM     25  H3  V64 d   1      14.821 -55.498 142.529  0.00  0.00     0.031 H 
ENDBRANCH  21  22
BRANCH  21  26
ATOM     26  C40 V64 d   1      18.166 -54.841 141.729  0.00  0.00    -0.048 C 
ATOM     27  H4  V64 d   1      18.443 -54.502 142.738  0.00  0.00     0.031 H 
ATOM     28  H5  V64 d   1      18.651 -54.198 140.980  0.00  0.00     0.031 H 
ATOM     29  H6  V64 d   1      18.496 -55.881 141.588  0.00  0.00     0.031 H 
ENDBRANCH  21  26
BRANCH  21  30
ATOM     30  C41 V64 d   1      16.200 -53.274 141.673  0.00  0.00    -0.048 C 
ATOM     31  H7  V64 d   1      16.462 -52.891 142.671  0.00  0.00     0.031 H 
ATOM     32  H8  V64 d   1      15.113 -53.192 141.523  0.00  0.00     0.031 H 
ATOM     33  H9  V64 d   1      16.722 -52.684 140.905  0.00  0.00     0.031 H 
ENDBRANCH  21  30
ENDBRANCH  20  21
ENDBRANCH  17  20
ENDBRANCH   7  16
ENDBRANCH   4   7
ENDBRANCH   1   3
BRANCH   1  34
ATOM     34  C12 V64 d   1      18.944 -57.453 134.197  0.00  0.00     0.240 C 
ATOM     35  N13 V64 d   1      19.439 -56.252 133.551  0.00  0.00    -0.353 N 
ATOM     36  H21 V64 d   1      20.172 -55.732 133.989  0.00  0.00     0.163 HD
ATOM     37  O26 V64 d   1      18.056 -58.103 133.719  0.00  0.00    -0.271 OA
BRANCH  35  38
ATOM     38  C14 V64 d   1      18.900 -55.782 132.285  0.00  0.00     0.033 C 
ATOM     39  H22 V64 d   1      18.276 -56.569 131.836  0.00  0.00     0.075 H 
BRANCH  38  40
ATOM     40  C15 V64 d   1      18.031 -54.544 132.541  0.00  0.00    -0.036 C 
ATOM     41  H23 V64 d   1      17.862 -54.020 131.589  0.00  0.00     0.036 H 
ATOM     42  H24 V64 d   1      18.554 -53.875 133.240  0.00  0.00     0.036 H 
BRANCH  40  43
ATOM     43  C16 V64 d   1      16.677 -54.940 133.144  0.00  0.00     0.011 C 
ATOM     44  H25 V64 d   1      16.798 -55.153 134.216  0.00  0.00     0.047 H 
ATOM     45  H26 V64 d   1      16.293 -55.836 132.634  0.00  0.00     0.047 H 
BRANCH  43  46
ATOM     46  C17 V64 d   1      15.691 -53.778 132.957  0.00  0.00     0.217 C 
ATOM     47  N18 V64 d   1      14.284 -54.129 132.917  0.00  0.00    -0.365 N 
ATOM     48  H10 V64 d   1      14.000 -55.084 133.004  0.00  0.00     0.161 HD
ATOM     49  O23 V64 d   1      16.050 -52.643 132.840  0.00  0.00    -0.274 OA
BRANCH  47  50
ATOM     50  C5  V64 d   1      13.281 -53.070 132.748  0.00  0.00    -0.018 C 
ATOM     51  H18 V64 d   1      12.275 -53.515 132.740  0.00  0.00     0.056 H 
ATOM     52  H19 V64 d   1      13.457 -52.546 131.797  0.00  0.00     0.056 H 
ATOM     53  H20 V64 d   1      13.359 -52.355 133.580  0.00  0.00     0.056 H 
ENDBRANCH  47  50
ENDBRANCH  43  46
ENDBRANCH  40  43
ENDBRANCH  38  40
BRANCH  38  54
ATOM     54  C24 V64 d   1      20.058 -55.475 131.348  0.00  0.00     0.035 C 
ATOM     55  H27 V64 d   1      20.771 -54.815 131.863  0.00  0.00     0.077 H 
ATOM     56  H28 V64 d   1      19.670 -54.968 130.452  0.00  0.00     0.077 H 
BRANCH  54  57
ATOM     57  O25 V64 d   1      20.686 -56.588 130.979  0.00  0.00    -0.399 OA
ATOM     58  H29 V64 d   1      21.027 -57.028 131.749  0.00  0.00     0.209 HD
ENDBRANCH  54  57
ENDBRANCH  38  54
ENDBRANCH  35  38
ENDBRANCH   1  34
BRANCH   1  59
ATOM     59  C05 V64 d   1      20.742 -58.851 135.114  0.00  0.00    -0.035 C 
ATOM     60  H32 V64 d   1      21.315 -58.461 134.260  0.00  0.00     0.037 H 
ATOM     61  H33 V64 d   1      20.230 -59.779 134.819  0.00  0.00     0.037 H 
BRANCH  59  62
ATOM     62  C06 V64 d   1      21.748 -59.192 136.264  0.00  0.00    -0.052 C 
ATOM     63  C07 V64 d   1      22.480 -57.916 136.711  0.00  0.00    -0.062 C 
ATOM     64  C08 V64 d   1      23.633 -58.233 137.665  0.00  0.00    -0.065 C 
ATOM     65  H35 V64 d   1      21.765 -57.255 137.223  0.00  0.00     0.033 H 
ATOM     66  H36 V64 d   1      22.881 -57.405 135.823  0.00  0.00     0.033 H 
ATOM     67  C09 V64 d   1      24.633 -59.200 137.027  0.00  0.00    -0.065 C 
ATOM     68  H37 V64 d   1      23.226 -58.690 138.579  0.00  0.00     0.033 H 
ATOM     69  H38 V64 d   1      24.153 -57.298 137.922  0.00  0.00     0.033 H 
ATOM     70  C10 V64 d   1      23.960 -60.508 136.584  0.00  0.00    -0.065 C 
ATOM     71  H39 V64 d   1      25.419 -59.435 137.760  0.00  0.00     0.033 H 
ATOM     72  H40 V64 d   1      25.084 -58.717 136.148  0.00  0.00     0.033 H 
ATOM     73  C11 V64 d   1      22.701 -60.279 135.724  0.00  0.00    -0.062 C 
ATOM     74  H41 V64 d   1      23.672 -61.075 137.482  0.00  0.00     0.033 H 
ATOM     75  H42 V64 d   1      24.683 -61.093 135.997  0.00  0.00     0.033 H 
ATOM     76  H43 V64 d   1      23.023 -59.983 134.715  0.00  0.00     0.033 H 
ATOM     77  H44 V64 d   1      22.145 -61.227 135.669  0.00  0.00     0.033 H 
ATOM     78  H34 V64 d   1      21.198 -59.597 137.127  0.00  0.00     0.040 H 
ENDBRANCH  59  62
ENDBRANCH   1  59
TORSDOF 20
