REMARK  5 active torsions:
REMARK  status: ('A' for Active; 'I' for Inactive)
REMARK    1  A    between atoms: C7_1  and  P1_7 
REMARK    2  A    between atoms: N10_11  and  C7_1 
REMARK       I    between atoms: C12_12  and  N10_11 
REMARK    3  A    between atoms: C14_14  and  C12_12 
REMARK    4  A    between atoms: N15_15  and  C34_22 
REMARK    5  A    between atoms: C34_22  and  C37_23 
ROOT
ATOM      1  C17 59Z d   1       3.316  76.166  27.932  0.00  0.00     0.002 A 
ATOM      2  C21 59Z d   1       0.533  75.629  27.317  0.00  0.00    -0.070 A 
ATOM      3  C24 59Z d   1       1.321  73.128  27.369  0.00  0.00    -0.039 A 
ATOM      4  C26 59Z d   1       2.743  78.563  27.971  0.00  0.00    -0.072 A 
ATOM      5  C28 59Z d   1       4.061  78.907  28.287  0.00  0.00    -0.082 A 
ATOM      6  C14 59Z d   1       2.522  72.611  27.653  0.00  0.00     0.104 A 
ATOM      7  N15 59Z d   1       3.419  73.581  27.844  0.00  0.00    -0.331 N 
ATOM      8  C16 59Z d   1       2.827  74.819  27.783  0.00  0.00     0.057 A 
ATOM      9  C18 59Z d   1       2.363  77.217  27.780  0.00  0.00    -0.024 A 
ATOM     10  C19 59Z d   1       1.012  76.944  27.454  0.00  0.00    -0.071 A 
ATOM     11  C23 59Z d   1       1.471  74.610  27.492  0.00  0.00    -0.006 A 
ATOM     12  C30 59Z d   1       5.018  77.901  28.423  0.00  0.00    -0.082 A 
ATOM     13  C32 59Z d   1       4.643  76.563  28.262  0.00  0.00    -0.070 A 
ATOM     14  H3  59Z d   1      -0.505  75.418  27.088  0.00  0.00     0.084 H 
ATOM     15  H4  59Z d   1       0.418  72.581  27.102  0.00  0.00     0.088 H 
ATOM     16  H5  59Z d   1       1.999  79.345  27.871  0.00  0.00     0.084 H 
ATOM     17  H6  59Z d   1       4.337  79.946  28.425  0.00  0.00     0.083 H 
ATOM     18  H8  59Z d   1       0.328  77.772  27.306  0.00  0.00     0.084 H 
ATOM     19  H9  59Z d   1       6.047  78.155  28.652  0.00  0.00     0.083 H 
ATOM     20  H10 59Z d   1       5.396  75.794  28.394  0.00  0.00     0.084 H 
ENDROOT
BRANCH   6  21
ATOM     21  C12 59Z d   1       2.730  71.150  27.512  0.00  0.00     0.269 C 
ATOM     22  N10 59Z d   1       1.885  70.271  28.119  0.00  0.00    -0.343 N 
ATOM     23  H7  59Z d   1       1.154  70.624  28.703  0.00  0.00     0.163 HD
ATOM     24  O13 59Z d   1       3.634  70.786  26.777  0.00  0.00    -0.266 OA
BRANCH  22  25
ATOM     25  C7  59Z d   1       2.016  68.822  27.940  0.00  0.00     0.098 C 
ATOM     26  H1  59Z d   1       3.073  68.539  28.051  0.00  0.00     0.085 H 
ATOM     27  H2  59Z d   1       1.417  68.309  28.707  0.00  0.00     0.085 H 
BRANCH  25  28
ATOM     28  P1  59Z d   1       1.434  68.318  26.293  0.00  0.00     0.277 P 
ATOM     29  O2  59Z d   1       1.756  69.253  25.169  0.00  0.00    -0.638 OA
ATOM     30  O3  59Z d   1       2.020  66.838  26.157  0.00  0.00    -0.638 OA
ATOM     31  O5  59Z d   1      -0.140  68.060  26.427  0.00  0.00    -0.638 OA
ENDBRANCH  25  28
ENDBRANCH  22  25
ENDBRANCH   6  21
BRANCH   7  32
ATOM     32  C34 59Z d   1       4.852  73.326  28.103  0.00  0.00     0.080 C 
ATOM     33  H11 59Z d   1       4.966  72.277  28.413  0.00  0.00     0.081 H 
ATOM     34  H12 59Z d   1       5.179  73.987  28.919  0.00  0.00     0.081 H 
BRANCH  32  35
ATOM     35  C37 59Z d   1       5.753  73.570  26.901  0.00  0.00     0.191 C 
ATOM     36  O38 59Z d   1       5.362  73.962  25.798  0.00  0.00    -0.647 OA
ATOM     37  O39 59Z d   1       7.045  73.312  27.146  0.00  0.00    -0.647 OA
ENDBRANCH  32  35
ENDBRANCH   7  32
TORSDOF 5
