REMARK  8 active torsions:
REMARK  status: ('A' for Active; 'I' for Inactive)
REMARK    1  A    between atoms: C1_1  and  C2_2 
REMARK    2  A    between atoms: C9_8  and  C12_11 
REMARK    3  A    between atoms: C16_15  and  O17_16 
REMARK    4  A    between atoms: O17_16  and  C18_17 
REMARK    5  A    between atoms: C18_17  and  C19_18 
REMARK    6  A    between atoms: C19_18  and  N21_19 
REMARK    7  A    between atoms: C19_18  and  C25_20 
REMARK    8  A    between atoms: C25_20  and  C26_21 
ROOT
ATOM      1  O17 L20 d   1      37.648  -4.149  -2.218  0.00  0.00    -0.348 OA
ENDROOT
BRANCH   1   2
ATOM      2  C16 L20 d   1      37.951  -3.636  -1.029  0.00  0.00     0.087 A 
ATOM      3  C15 L20 d   1      36.943  -3.341  -0.162  0.00  0.00     0.034 A 
ATOM      4  N14 L20 d   1      37.145  -2.836   1.009  0.00  0.00    -0.269 NA
ATOM      5  H9  L20 d   1      35.923  -3.540  -0.470  0.00  0.00     0.119 H 
ATOM      6  C13 L20 d   1      38.327  -2.587   1.425  0.00  0.00     0.013 A 
ATOM      7  C12 L20 d   1      39.412  -2.831   0.634  0.00  0.00    -0.006 A 
ATOM      8  H8  L20 d   1      38.470  -2.177   2.418  0.00  0.00     0.116 H 
ATOM      9  C36 L20 d   1      39.228  -3.380  -0.621  0.00  0.00    -0.037 A 
ATOM     10  H24 L20 d   1      40.073  -3.601  -1.263  0.00  0.00     0.089 H 
BRANCH   7  11
ATOM     11  C9  L20 d   1      40.752  -2.546   1.157  0.00  0.00    -0.023 A 
ATOM     12  C8  L20 d   1      40.987  -2.737   2.506  0.00  0.00    -0.070 A 
ATOM     13  C7  L20 d   1      42.187  -2.511   3.040  0.00  0.00    -0.052 A 
ATOM     14  H6  L20 d   1      40.178  -3.078   3.143  0.00  0.00     0.084 H 
ATOM     15  C6  L20 d   1      43.204  -2.089   2.241  0.00  0.00     0.089 A 
ATOM     16  H5  L20 d   1      42.351  -2.662   4.101  0.00  0.00     0.087 H 
ATOM     17  N4  L20 d   1      44.487  -1.788   2.483  0.00  0.00    -0.174 NA
ATOM     18  C11 L20 d   1      43.007  -1.895   0.892  0.00  0.00     0.019 A 
ATOM     19  N3  L20 d   1      45.101  -1.410   1.331  0.00  0.00    -0.281 N 
ATOM     20  C2  L20 d   1      44.271  -1.451   0.377  0.00  0.00     0.036 A 
ATOM     21  H4  L20 d   1      46.090  -1.133   1.248  0.00  0.00     0.189 HD
ATOM     22  C10 L20 d   1      41.766  -2.129   0.348  0.00  0.00    -0.058 A 
ATOM     23  H7  L20 d   1      41.596  -1.983  -0.713  0.00  0.00     0.086 H 
BRANCH  20  24
ATOM     24  C1  L20 d   1      44.598  -1.110  -1.034  0.00  0.00    -0.035 C 
ATOM     25  H1  L20 d   1      43.700  -1.229  -1.657  0.00  0.00     0.035 H 
ATOM     26  H2  L20 d   1      45.389  -1.781  -1.399  0.00  0.00     0.035 H 
ATOM     27  H3  L20 d   1      44.947  -0.068  -1.088  0.00  0.00     0.035 H 
ENDBRANCH  20  24
ENDBRANCH   7  11
ENDBRANCH   1   2
BRANCH   1  28
ATOM     28  C18 L20 d   1      38.551  -4.995  -2.876  0.00  0.00     0.053 C 
ATOM     29  H10 L20 d   1      38.827  -5.825  -2.210  0.00  0.00     0.078 H 
ATOM     30  H11 L20 d   1      39.453  -4.428  -3.148  0.00  0.00     0.078 H 
BRANCH  28  31
ATOM     31  C19 L20 d   1      37.905  -5.547  -4.129  0.00  0.00     0.124 C 
ATOM     32  H12 L20 d   1      38.609  -6.219  -4.642  0.00  0.00     0.087 H 
BRANCH  31  33
ATOM     33  N21 L20 d   1      36.735  -6.286  -3.714  0.00  0.00    -0.073 N 
ATOM     34  H13 L20 d   1      36.276  -6.671  -4.525  0.00  0.00     0.274 HD
ATOM     35  H14 L20 d   1      36.102  -5.669  -3.230  0.00  0.00     0.274 HD
ATOM     36  H15 L20 d   1      37.011  -7.034  -3.098  0.00  0.00     0.274 HD
ENDBRANCH  31  33
BRANCH  31  37
ATOM     37  C25 L20 d   1      37.500  -4.423  -5.086  0.00  0.00    -0.010 C 
ATOM     38  H16 L20 d   1      36.856  -3.712  -4.548  0.00  0.00     0.043 H 
ATOM     39  H17 L20 d   1      36.942  -4.857  -5.929  0.00  0.00     0.043 H 
BRANCH  37  40
ATOM     40  C26 L20 d   1      38.693  -3.689  -5.620  0.00  0.00    -0.028 A 
ATOM     41  C27 L20 d   1      39.365  -3.944  -6.725  0.00  0.00    -0.015 A 
ATOM     42  N28 L20 d   1      40.387  -3.087  -6.858  0.00  0.00    -0.365 N 
ATOM     43  H18 L20 d   1      39.124  -4.738  -7.430  0.00  0.00     0.112 H 
ATOM     44  C30 L20 d   1      40.406  -2.231  -5.822  0.00  0.00     0.042 A 
ATOM     45  H19 L20 d   1      41.059  -3.085  -7.639  0.00  0.00     0.165 HD
ATOM     46  C31 L20 d   1      41.227  -1.185  -5.496  0.00  0.00    -0.056 A 
ATOM     47  C35 L20 d   1      39.344  -2.568  -5.002  0.00  0.00    -0.002 A 
ATOM     48  C32 L20 d   1      40.981  -0.500  -4.355  0.00  0.00    -0.081 A 
ATOM     49  H20 L20 d   1      42.056  -0.911  -6.138  0.00  0.00     0.086 H 
ATOM     50  C33 L20 d   1      39.924  -0.830  -3.551  0.00  0.00    -0.082 A 
ATOM     51  H21 L20 d   1      41.630   0.321  -4.074  0.00  0.00     0.083 H 
ATOM     52  C34 L20 d   1      39.112  -1.858  -3.857  0.00  0.00    -0.070 A 
ATOM     53  H22 L20 d   1      39.738  -0.253  -2.652  0.00  0.00     0.083 H 
ATOM     54  H23 L20 d   1      38.286  -2.119  -3.205  0.00  0.00     0.084 H 
ENDBRANCH  37  40
ENDBRANCH  31  37
ENDBRANCH  28  31
ENDBRANCH   1  28
TORSDOF 8
