REMARK  6 active torsions:
REMARK  status: ('A' for Active; 'I' for Inactive)
REMARK    1  A    between atoms: NAZ_7  and  CAA_6 
REMARK    2  A    between atoms: NBA_15  and  CAB_16 
REMARK    3  A    between atoms: C2_17  and  NAP_18 
REMARK    4  A    between atoms: NAP_18  and  CAR_19 
REMARK    5  A    between atoms: CAT_22  and  SBB_23 
REMARK    6  A    between atoms: SBB_23  and  NAC_26 
ROOT
ATOM      1  C4  5BS d   1      28.794  18.867  41.704  0.00  0.00     0.177 A 
ATOM      2  C5  5BS d   1      27.732  18.335  41.014  0.00  0.00     0.102 A 
ATOM      3  C6  5BS d   1      26.499  18.931  41.121  0.00  0.00     0.051 A 
ATOM      4  N1  5BS d   1      26.392  20.049  41.928  0.00  0.00    -0.073 NA
ATOM      5  N3  5BS d   1      28.643  19.947  42.477  0.00  0.00    -0.042 NA
ATOM      6  NAZ 5BS d   1      27.699  17.269  40.218  0.00  0.00    -0.313 N 
ATOM      7  CAU 5BS d   1      28.560  16.250  40.256  0.00  0.00     0.267 C 
ATOM      8  OAD 5BS d   1      28.350  15.354  39.453  0.00  0.00    -0.266 OA
ATOM      9  CAY 5BS d   1      29.604  16.136  41.068  0.00  0.00     0.100 A 
ATOM     10  SAQ 5BS d   1      30.275  14.717  41.407  0.00  0.00    -0.094 SA
ATOM     11  CAG 5BS d   1      31.432  15.272  42.393  0.00  0.00    -0.042 A 
ATOM     12  CAL 5BS d   1      31.288  16.595  42.456  0.00  0.00    -0.049 A 
ATOM     13  CAW 5BS d   1      30.282  17.080  41.716  0.00  0.00     0.059 A 
ATOM     14  NBA 5BS d   1      30.027  18.391  41.710  0.00  0.00    -0.332 N 
ATOM     15  C2  5BS d   1      27.447  20.531  42.583  0.00  0.00     0.728 A 
ATOM     16  H1  5BS d   1      25.639  18.538  40.591  0.00  0.00     0.119 H 
ATOM     17  H5  5BS d   1      32.185  14.677  42.907  0.00  0.00     0.095 H 
ATOM     18  H6  5BS d   1      31.935  17.230  43.059  0.00  0.00     0.087 H 
ENDROOT
BRANCH  15  19
ATOM     19  NAP 5BS d   1      27.232  21.604  43.329  0.00  0.00    -0.188 N 
ATOM     20  H10 5BS d   1      26.298  22.038  43.316  0.00  0.00     0.184 HD
BRANCH  19  21
ATOM     21  CAR 5BS d   1      28.175  22.140  44.093  0.00  0.00     0.049 A 
ATOM     22  CAH 5BS d   1      27.804  23.208  44.888  0.00  0.00    -0.055 A 
ATOM     23  CAJ 5BS d   1      28.721  23.831  45.710  0.00  0.00    -0.058 A 
ATOM     24  H11 5BS d   1      26.779  23.561  44.866  0.00  0.00     0.087 H 
ATOM     25  CAT 5BS d   1      30.028  23.392  45.751  0.00  0.00     0.079 A 
ATOM     26  H12 5BS d   1      28.413  24.668  46.326  0.00  0.00     0.086 H 
ATOM     27  CAK 5BS d   1      30.408  22.318  44.954  0.00  0.00    -0.058 A 
ATOM     28  CAI 5BS d   1      29.484  21.692  44.122  0.00  0.00    -0.055 A 
ATOM     29  H15 5BS d   1      31.433  21.965  44.981  0.00  0.00     0.086 H 
ATOM     30  H16 5BS d   1      29.788  20.858  43.500  0.00  0.00     0.087 H 
BRANCH  25  31
ATOM     31  SBB 5BS d   1      31.148  24.204  46.809  0.00  0.00     0.256 S 
ATOM     32  OAE 5BS d   1      32.449  24.501  46.061  0.00  0.00    -0.201 OA
ATOM     33  OAF 5BS d   1      30.520  25.517  47.282  0.00  0.00    -0.201 OA
BRANCH  31  34
ATOM     34  NAC 5BS d   1      31.467  23.258  48.098  0.00  0.00    -0.324 N 
ATOM     35  H13 5BS d   1      32.096  23.576  48.808  0.00  0.00     0.169 HD
ATOM     36  H14 5BS d   1      31.034  22.360  48.179  0.00  0.00     0.169 HD
ENDBRANCH  31  34
ENDBRANCH  25  31
ENDBRANCH  19  21
ENDBRANCH  15  19
BRANCH  14  37
ATOM     37  CAB 5BS d   1      31.140  19.351  41.728  0.00  0.00    -0.012 C 
ATOM     38  H7  5BS d   1      30.740  20.376  41.720  0.00  0.00     0.057 H 
ATOM     39  H8  5BS d   1      31.772  19.197  40.841  0.00  0.00     0.057 H 
ATOM     40  H9  5BS d   1      31.741  19.199  42.637  0.00  0.00     0.057 H 
ENDBRANCH  14  37
BRANCH   6  41
ATOM     41  CAA 5BS d   1      26.595  17.193  39.237  0.00  0.00    -0.011 C 
ATOM     42  H2  5BS d   1      25.970  18.094  39.318  0.00  0.00     0.057 H 
ATOM     43  H3  5BS d   1      25.983  16.302  39.442  0.00  0.00     0.057 H 
ATOM     44  H4  5BS d   1      27.011  17.126  38.221  0.00  0.00     0.057 H 
ENDBRANCH   6  41
TORSDOF 6
