REMARK WARNING: 32 MAX_TORS EXCEEDED!!!
REMARK  63 active torsions:
REMARK  status: ('A' for Active; 'I' for Inactive)
REMARK    1  A    between atoms: N_1  and  CA_2 
REMARK    2  A    between atoms: CA_2  and  C_3 
REMARK    3  A    between atoms: CA_2  and  CB_5 
REMARK       I    between atoms: C_3  and  N_12 
REMARK    4  A    between atoms: CB_5  and  CG_6 
REMARK    5  A    between atoms: N_12  and  CA_13 
REMARK    6  A    between atoms: CA_13  and  C_14 
REMARK    7  A    between atoms: CA_13  and  CB_16 
REMARK       I    between atoms: C_14  and  N_21 
REMARK    8  A    between atoms: CB_16  and  CG_17 
REMARK    9  A    between atoms: CG_17  and  CD_18 
REMARK   10  A    between atoms: N_21  and  CA_22 
REMARK   11  A    between atoms: CA_22  and  C_23 
REMARK   12  A    between atoms: CA_22  and  CB_25 
REMARK       I    between atoms: C_23  and  N_29 
REMARK   13  A    between atoms: CB_25  and  CG_26 
REMARK   14  A    between atoms: CG_26  and  SE_27 
REMARK   15  A    between atoms: SE_27  and  CE_28 
REMARK   16  A    between atoms: N_29  and  CA_30 
REMARK   17  A    between atoms: CA_30  and  C_31 
REMARK   18  A    between atoms: CA_30  and  CB_33 
REMARK       I    between atoms: C_31  and  N_36 
REMARK   19  A    between atoms: CB_33  and  OG1_34 
REMARK   20  A    between atoms: CB_33  and  CG2_35 
REMARK   21  A    between atoms: N_36  and  CA_37 
REMARK   22  A    between atoms: CA_37  and  C_38 
REMARK   23  A    between atoms: CA_37  and  CB_40 
REMARK       I    between atoms: C_38  and  N_45 
REMARK   24  A    between atoms: CB_40  and  CG_41 
REMARK   25  A    between atoms: CG_41  and  CD_42 
REMARK   26  A    between atoms: N_45  and  CA_46 
REMARK   27  A    between atoms: CA_46  and  C_47 
REMARK   28  A    between atoms: CA_46  and  CB_49 
REMARK       I    between atoms: C_47  and  N_56 
REMARK   29  A    between atoms: CB_49  and  CG_50 
REMARK   30  A    between atoms: N_56  and  CA_57 
REMARK   31  A    between atoms: CA_57  and  C_58 
REMARK   32  A    between atoms: CA_57  and  CB_60 
REMARK       I    between atoms: C_58  and  N_64 
REMARK   33  A    between atoms: CB_60  and  CG_61 
REMARK       I    between atoms: CG_61  and  ND2_63 
REMARK   34  A    between atoms: N_64  and  CA_65 
REMARK   35  A    between atoms: CA_65  and  C_66 
REMARK   36  A    between atoms: CA_65  and  CB_68 
REMARK       I    between atoms: C_66  and  N_73 
REMARK   37  A    between atoms: CB_68  and  CG_69 
REMARK   38  A    between atoms: CG_69  and  CD_70 
REMARK       I    between atoms: CD_70  and  NE2_72 
REMARK   39  A    between atoms: N_73  and  CA_74 
REMARK   40  A    between atoms: CA_74  and  C_75 
REMARK   41  A    between atoms: CA_74  and  CB_77 
REMARK       I    between atoms: C_75  and  N_78 
REMARK   42  A    between atoms: N_78  and  CA_79 
REMARK   43  A    between atoms: CA_79  and  C_80 
REMARK   44  A    between atoms: CA_79  and  CB_82 
REMARK       I    between atoms: C_80  and  N_86 
REMARK   45  A    between atoms: CB_82  and  CG_83 
REMARK   46  A    between atoms: CG_83  and  CD1_84 
REMARK   47  A    between atoms: CG_83  and  CD2_85 
REMARK   48  A    between atoms: N_86  and  CA_87 
REMARK   49  A    between atoms: CA_87  and  C_88 
REMARK   50  A    between atoms: CA_87  and  CB_90 
REMARK       I    between atoms: C_88  and  N_95 
REMARK   51  A    between atoms: CB_90  and  CG_91 
REMARK   52  A    between atoms: CG_91  and  CD_92 
REMARK   53  A    between atoms: N_95  and  CA_96 
REMARK   54  A    between atoms: CA_96  and  C_97 
REMARK   55  A    between atoms: CA_96  and  CB_99 
REMARK       I    between atoms: C_97  and  N_104 
REMARK   56  A    between atoms: CB_99  and  CG_100 
REMARK   57  A    between atoms: CG_100  and  CD_101 
REMARK   58  A    between atoms: N_104  and  CA_105 
REMARK   59  A    between atoms: CA_105  and  C_106 
REMARK   60  A    between atoms: CA_105  and  CB_108 
REMARK   61  A    between atoms: CB_108  and  CG1_109 
REMARK   62  A    between atoms: CB_108  and  CG2_110 
REMARK   63  A    between atoms: CG1_109  and  CD1_111 
ROOT
ATOM      1  CA  ASN d   1     -40.903  76.537  30.370  0.00  0.00     0.097 C 
ATOM      2  H54 ASN d   1     -40.843  75.795  31.180  0.00  0.00     0.088 H 
ENDROOT
BRANCH   1   3
ATOM      3  N   ASN d   1     -40.029  76.104  29.287  0.00  0.00    -0.346 N 
ATOM      4  C   PHE d   1     -40.225  74.951  28.654  0.00  0.00     0.241 C 
ATOM      5  O   PHE d   1     -41.123  74.164  28.952  0.00  0.00    -0.271 OA
ATOM      6  H53 ASN d   1     -39.264  76.687  29.014  0.00  0.00     0.163 HD
BRANCH   4   7
ATOM      7  CA  PHE d   1     -39.257  74.628  27.522  0.00  0.00     0.093 C 
ATOM      8  H45 PHE d   1     -39.652  73.763  26.970  0.00  0.00     0.088 H 
BRANCH   7   9
ATOM      9  N   PHE d   1     -39.119  75.739  26.583  0.00  0.00    -0.346 N 
ATOM     10  C   GLU d   1     -40.129  76.147  25.820  0.00  0.00     0.241 C 
ATOM     11  O   GLU d   1     -41.253  75.650  25.872  0.00  0.00    -0.271 OA
ATOM     12  H44 PHE d   1     -38.238  76.207  26.512  0.00  0.00     0.163 HD
BRANCH  10  13
ATOM     13  CA  GLU d   1     -39.824  77.288  24.854  0.00  0.00     0.090 C 
ATOM     14  H39 GLU d   1     -40.757  77.837  24.659  0.00  0.00     0.087 H 
BRANCH  13  15
ATOM     15  N   GLU d   1     -38.857  78.218  25.425  0.00  0.00    -0.346 N 
ATOM     16  C   THR d   1     -39.124  78.923  26.521  0.00  0.00     0.243 C 
ATOM     17  O   THR d   1     -40.192  78.840  27.128  0.00  0.00    -0.271 OA
ATOM     18  H38 GLU d   1     -37.968  78.329  24.980  0.00  0.00     0.163 HD
BRANCH  16  19
ATOM     19  CA  THR d   1     -38.022  79.861  27.004  0.00  0.00     0.113 C 
ATOM     20  H32 THR d   1     -38.053  79.904  28.103  0.00  0.00     0.091 H 
BRANCH  19  21
ATOM     21  N   THR d   1     -36.709  79.372  26.605  0.00  0.00    -0.344 N 
ATOM     22  C   MSE d   1     -36.225  78.218  27.051  0.00  0.00     0.241 C 
ATOM     23  O   MSE d   1     -36.831  77.498  27.844  0.00  0.00    -0.271 OA
ATOM     24  H31 THR d   1     -36.156  79.921  25.978  0.00  0.00     0.163 HD
BRANCH  22  25
ATOM     25  CA  MSE d   1     -34.853  77.817  26.520  0.00  0.00     0.089 C 
ATOM     26  H19 MSE d   1     -34.937  77.643  25.437  0.00  0.00     0.087 H 
BRANCH  25  27
ATOM     27  N   MSE d   1     -33.872  78.875  26.740  0.00  0.00    -0.346 N 
ATOM     28  C   GLU d   1     -32.908  79.131  25.860  0.00  0.00     0.241 C 
ATOM     29  O   GLU d   1     -32.817  78.556  24.774  0.00  0.00    -0.271 OA
ATOM     30  H18 MSE d   1     -33.926  79.422  27.575  0.00  0.00     0.163 HD
BRANCH  28  31
ATOM     31  CA  GLU d   1     -31.885  80.185  26.266  0.00  0.00     0.090 C 
ATOM     32  H13 GLU d   1     -31.785  80.172  27.361  0.00  0.00     0.087 H 
BRANCH  31  33
ATOM     33  N   GLU d   1     -30.588  79.867  25.681  0.00  0.00    -0.346 N 
ATOM     34  C   PHE d   1     -29.908  78.796  26.077  0.00  0.00     0.249 C 
ATOM     35  O   PHE d   1     -30.308  78.053  26.971  0.00  0.00    -0.271 OA
ATOM     36  H12 GLU d   1     -30.206  80.462  24.974  0.00  0.00     0.163 HD
BRANCH  34  37
ATOM     37  CA  PHE d   1     -28.583  78.515  25.371  0.00  0.00     0.179 C 
ATOM     38  H4  PHE d   1     -28.747  77.712  24.638  0.00  0.00     0.099 H 
BRANCH  37  39
ATOM     39  N   PHE d   1     -28.091  79.687  24.656  0.00  0.00    -0.066 N 
ATOM     40  H1  PHE d   1     -27.218  79.463  24.205  0.00  0.00     0.275 HD
ATOM     41  H2  PHE d   1     -27.948  80.443  25.308  0.00  0.00     0.275 HD
ATOM     42  H3  PHE d   1     -28.767  79.965  23.962  0.00  0.00     0.275 HD
ENDBRANCH  37  39
BRANCH  37  43
ATOM     43  CB  PHE d   1     -27.545  78.036  26.392  0.00  0.00    -0.006 C 
ATOM     44  H5  PHE d   1     -28.065  77.452  27.166  0.00  0.00     0.043 H 
ATOM     45  H6  PHE d   1     -27.078  78.920  26.852  0.00  0.00     0.043 H 
BRANCH  43  46
ATOM     46  CG  PHE d   1     -26.461  77.182  25.804  0.00  0.00    -0.056 A 
ATOM     47  CD1 PHE d   1     -26.732  75.889  25.389  0.00  0.00    -0.077 A 
ATOM     48  CE1 PHE d   1     -25.737  75.097  24.850  0.00  0.00    -0.082 A 
ATOM     49  H7  PHE d   1     -27.736  75.494  25.488  0.00  0.00     0.084 H 
ATOM     50  CZ  PHE d   1     -24.454  75.590  24.728  0.00  0.00    -0.083 A 
ATOM     51  H9  PHE d   1     -25.964  74.089  24.523  0.00  0.00     0.083 H 
ATOM     52  CE2 PHE d   1     -24.170  76.877  25.143  0.00  0.00    -0.082 A 
ATOM     53  H11 PHE d   1     -23.671  74.969  24.308  0.00  0.00     0.083 H 
ATOM     54  CD2 PHE d   1     -25.170  77.665  25.680  0.00  0.00    -0.077 A 
ATOM     55  H10 PHE d   1     -23.164  77.268  25.047  0.00  0.00     0.083 H 
ATOM     56  H8  PHE d   1     -24.941  78.672  26.008  0.00  0.00     0.084 H 
ENDBRANCH  43  46
ENDBRANCH  37  43
ENDBRANCH  34  37
ENDBRANCH  31  33
BRANCH  31  57
ATOM     57  CB  GLU d   1     -32.352  81.578  25.842  0.00  0.00    -0.029 C 
ATOM     58  H14 GLU d   1     -33.410  81.690  26.122  0.00  0.00     0.037 H 
ATOM     59  H15 GLU d   1     -32.251  81.661  24.750  0.00  0.00     0.037 H 
BRANCH  57  60
ATOM     60  CG  GLU d   1     -31.561  82.710  26.486  0.00  0.00     0.018 C 
ATOM     61  H16 GLU d   1     -30.540  82.701  26.077  0.00  0.00     0.049 H 
ATOM     62  H17 GLU d   1     -31.522  82.537  27.572  0.00  0.00     0.049 H 
BRANCH  60  63
ATOM     63  CD  GLU d   1     -32.170  84.078  26.236  0.00  0.00     0.172 C 
ATOM     64  OE1 GLU d   1     -33.362  84.148  25.867  0.00  0.00    -0.648 OA
ATOM     65  OE2 GLU d   1     -31.454  85.086  26.411  0.00  0.00    -0.648 OA
ENDBRANCH  60  63
ENDBRANCH  57  60
ENDBRANCH  31  57
ENDBRANCH  28  31
ENDBRANCH  25  27
BRANCH  25  66
ATOM     66  CB  MSE d   1     -34.392  76.519  27.188  0.00  0.00    -0.038 C 
ATOM     67  H20 MSE d   1     -35.040  75.701  26.840  0.00  0.00     0.036 H 
ATOM     68  H21 MSE d   1     -34.498  76.633  28.277  0.00  0.00     0.036 H 
BRANCH  66  69
ATOM     69  CG  MSE d   1     -32.948  76.150  26.882  0.00  0.00    -0.063 C 
ATOM     70  H22 MSE d   1     -32.294  76.917  27.322  0.00  0.00     0.033 H 
ATOM     71  H23 MSE d   1     -32.817  76.139  25.790  0.00  0.00     0.033 H 
BRANCH  69  72
ATOM     72 SE   MSE d   1     -32.415  74.413  27.582  0.00  0.00     0.000 Se
BRANCH  72  73
ATOM     73  CE  MSE d   1     -33.753  73.310  26.696  0.00  0.00    -0.080 C 
ATOM     74  H28 MSE d   1     -33.607  72.257  26.980  0.00  0.00     0.027 H 
ATOM     75  H29 MSE d   1     -33.650  73.413  25.606  0.00  0.00     0.027 H 
ATOM     76  H30 MSE d   1     -34.758  73.636  27.002  0.00  0.00     0.027 H 
ENDBRANCH  72  73
ENDBRANCH  69  72
ENDBRANCH  66  69
ENDBRANCH  25  66
ENDBRANCH  22  25
ENDBRANCH  19  21
BRANCH  19  77
ATOM     77  CB  THR d   1     -38.286  81.273  26.450  0.00  0.00     0.060 C 
ATOM     78  H33 THR d   1     -39.274  81.613  26.795  0.00  0.00     0.086 H 
BRANCH  77  79
ATOM     79  OG1 THR d   1     -38.274  81.237  25.018  0.00  0.00    -0.393 OA
ATOM     80  H34 THR d   1     -38.437  82.109  24.679  0.00  0.00     0.210 HD
ENDBRANCH  77  79
BRANCH  77  81
ATOM     81  CG2 THR d   1     -37.227  82.248  26.943  0.00  0.00    -0.050 C 
ATOM     82  H35 THR d   1     -37.433  83.249  26.537  0.00  0.00     0.031 H 
ATOM     83  H36 THR d   1     -36.235  81.913  26.606  0.00  0.00     0.031 H 
ATOM     84  H37 THR d   1     -37.248  82.287  28.042  0.00  0.00     0.031 H 
ENDBRANCH  77  81
ENDBRANCH  19  77
ENDBRANCH  16  19
ENDBRANCH  13  15
BRANCH  13  85
ATOM     85  CB  GLU d   1     -39.307  76.719  23.529  0.00  0.00    -0.029 C 
ATOM     86  H40 GLU d   1     -40.135  76.189  23.036  0.00  0.00     0.037 H 
ATOM     87  H41 GLU d   1     -38.498  76.008  23.753  0.00  0.00     0.037 H 
BRANCH  85  88
ATOM     88  CG  GLU d   1     -38.767  77.764  22.559  0.00  0.00     0.018 C 
ATOM     89  H42 GLU d   1     -39.132  78.754  22.872  0.00  0.00     0.049 H 
ATOM     90  H43 GLU d   1     -39.145  77.535  21.552  0.00  0.00     0.049 H 
BRANCH  88  91
ATOM     91  CD  GLU d   1     -37.247  77.802  22.508  0.00  0.00     0.172 C 
ATOM     92  OE1 GLU d   1     -36.597  77.478  23.526  0.00  0.00    -0.648 OA
ATOM     93  OE2 GLU d   1     -36.700  78.154  21.442  0.00  0.00    -0.648 OA
ENDBRANCH  88  91
ENDBRANCH  85  88
ENDBRANCH  13  85
ENDBRANCH  10  13
ENDBRANCH   7   9
BRANCH   7  94
ATOM     94  CB  PHE d   1     -37.893  74.252  28.102  0.00  0.00    -0.014 C 
ATOM     95  H46 PHE d   1     -38.013  74.068  29.180  0.00  0.00     0.043 H 
ATOM     96  H47 PHE d   1     -37.206  75.097  27.949  0.00  0.00     0.043 H 
BRANCH  94  97
ATOM     97  CG  PHE d   1     -37.288  73.030  27.477  0.00  0.00    -0.056 A 
ATOM     98  CD1 PHE d   1     -37.116  72.949  26.107  0.00  0.00    -0.077 A 
ATOM     99  CE1 PHE d   1     -36.557  71.825  25.532  0.00  0.00    -0.082 A 
ATOM    100  H48 PHE d   1     -37.423  73.777  25.478  0.00  0.00     0.084 H 
ATOM    101  CZ  PHE d   1     -36.159  70.770  26.327  0.00  0.00    -0.083 A 
ATOM    102  H50 PHE d   1     -36.431  71.772  24.457  0.00  0.00     0.083 H 
ATOM    103  CE2 PHE d   1     -36.322  70.840  27.694  0.00  0.00    -0.082 A 
ATOM    104  H52 PHE d   1     -35.719  69.887  25.877  0.00  0.00     0.083 H 
ATOM    105  CD2 PHE d   1     -36.882  71.965  28.263  0.00  0.00    -0.077 A 
ATOM    106  H51 PHE d   1     -36.011  70.012  28.321  0.00  0.00     0.083 H 
ATOM    107  H49 PHE d   1     -37.006  72.016  29.339  0.00  0.00     0.084 H 
ENDBRANCH  94  97
ENDBRANCH   7  94
ENDBRANCH   4   7
ENDBRANCH   1   3
BRANCH   1 108
ATOM    108  C   ASN d   1     -42.349  76.625  29.905  0.00  0.00     0.241 C 
ATOM    109  O   ASN d   1     -43.254  76.121  30.569  0.00  0.00    -0.271 OA
ATOM    110  N   GLN d   1     -42.553  77.260  28.756  0.00  0.00    -0.346 N 
ATOM    111  H59 GLN d   1     -41.767  77.626  28.258  0.00  0.00     0.163 HD
BRANCH 110 112
ATOM    112  CA  GLN d   1     -43.888  77.439  28.199  0.00  0.00     0.090 C 
ATOM    113  H60 GLN d   1     -44.478  78.044  28.903  0.00  0.00     0.087 H 
BRANCH 112 114
ATOM    114  C   GLN d   1     -44.592  76.097  28.012  0.00  0.00     0.241 C 
ATOM    115  O   GLN d   1     -45.787  75.974  28.271  0.00  0.00    -0.271 OA
ATOM    116  N   ALA d   1     -43.842  75.094  27.568  0.00  0.00    -0.346 N 
ATOM    117  H67 ALA d   1     -42.874  75.255  27.376  0.00  0.00     0.163 HD
BRANCH 116 118
ATOM    118  CA  ALA d   1     -44.399  73.764  27.354  0.00  0.00     0.086 C 
ATOM    119  H68 ALA d   1     -45.359  73.871  26.828  0.00  0.00     0.086 H 
BRANCH 118 120
ATOM    120  C   ALA d   1     -44.657  73.063  28.685  0.00  0.00     0.240 C 
ATOM    121  O   ALA d   1     -45.601  72.283  28.812  0.00  0.00    -0.271 OA
ATOM    122  N   LEU d   1     -43.814  73.345  29.674  0.00  0.00    -0.346 N 
ATOM    123  H72 LEU d   1     -43.050  73.967  29.501  0.00  0.00     0.163 HD
BRANCH 122 124
ATOM    124  CA  LEU d   1     -43.975  72.770  31.006  0.00  0.00     0.089 C 
ATOM    125  H73 LEU d   1     -44.172  71.694  30.894  0.00  0.00     0.087 H 
BRANCH 124 126
ATOM    126  C   LEU d   1     -45.150  73.399  31.744  0.00  0.00     0.241 C 
ATOM    127  O   LEU d   1     -45.932  72.703  32.392  0.00  0.00    -0.271 OA
ATOM    128  N   GLU d   1     -45.268  74.719  31.645  0.00  0.00    -0.346 N 
ATOM    129  H83 GLU d   1     -44.590  75.231  31.117  0.00  0.00     0.163 HD
BRANCH 128 130
ATOM    130  CA  GLU d   1     -46.361  75.439  32.287  0.00  0.00     0.090 C 
ATOM    131  H84 GLU d   1     -46.403  75.135  33.343  0.00  0.00     0.087 H 
BRANCH 130 132
ATOM    132  C   GLU d   1     -47.699  75.097  31.633  0.00  0.00     0.241 C 
ATOM    133  O   GLU d   1     -48.760  75.418  32.170  0.00  0.00    -0.271 OA
ATOM    134  N   GLU d   1     -47.643  74.437  30.478  0.00  0.00    -0.346 N 
ATOM    135  H89 GLU d   1     -46.748  74.201  30.098  0.00  0.00     0.163 HD
BRANCH 134 136
ATOM    136  CA  GLU d   1     -48.846  74.046  29.748  0.00  0.00     0.090 C 
ATOM    137  H90 GLU d   1     -49.607  74.826  29.897  0.00  0.00     0.087 H 
BRANCH 136 138
ATOM    138  C   GLU d   1     -49.412  72.720  30.263  0.00  0.00     0.241 C 
ATOM    139  O   GLU d   1     -50.174  72.048  29.567  0.00  0.00    -0.271 OA
ATOM    140  N   ILE d   1     -49.034  72.351  31.484  0.00  0.00    -0.344 N 
ATOM    141  H95 ILE d   1     -48.383  72.922  31.984  0.00  0.00     0.163 HD
BRANCH 140 142
ATOM    142  CA  ILE d   1     -49.542  71.138  32.115  0.00  0.00     0.099 C 
ATOM    143  H96 ILE d   1     -50.611  71.048  31.874  0.00  0.00     0.090 H 
BRANCH 142 144
ATOM    144  C   ILE d   1     -49.389  71.223  33.631  0.00  0.00     0.197 C 
ATOM    145  O   ILE d   1     -50.253  70.761  34.378  0.00  0.00    -0.646 OA
ATOM    146  OXT ILE d   1     -48.399  71.755  34.135  0.00  0.00    -0.646 OA
ENDBRANCH 142 144
BRANCH 142 147
ATOM    147  CB  ILE d   1     -48.818  69.876  31.598  0.00  0.00    -0.029 C 
ATOM    148  H97 ILE d   1     -49.130  69.695  30.559  0.00  0.00     0.043 H 
BRANCH 147 149
ATOM    149  CG1 ILE d   1     -49.207  68.660  32.442  0.00  0.00    -0.063 C 
ATOM    150  H98 ILE d   1     -50.298  68.668  32.578  0.00  0.00     0.033 H 
ATOM    151  H99 ILE d   1     -48.714  68.746  33.422  0.00  0.00     0.033 H 
BRANCH 149 152
ATOM    152  CD1 ILE d   1     -48.816  67.347  31.830  0.00  0.00    -0.076 C 
ATOM    153 3H10 ILE d   1     -49.128  66.526  32.493  0.00  0.00     0.027 H 
ATOM    154 4H10 ILE d   1     -47.725  67.315  31.696  0.00  0.00     0.027 H 
ATOM    155 5H10 ILE d   1     -49.309  67.237  30.853  0.00  0.00     0.027 H 
ENDBRANCH 149 152
ENDBRANCH 147 149
BRANCH 147 156
ATOM    156  CG2 ILE d   1     -47.308  70.075  31.621  0.00  0.00    -0.070 C 
ATOM    157 0H10 ILE d   1     -47.044  70.951  31.011  0.00  0.00     0.028 H 
ATOM    158 1H10 ILE d   1     -46.814  69.181  31.212  0.00  0.00     0.028 H 
ATOM    159 2H10 ILE d   1     -46.975  70.236  32.657  0.00  0.00     0.028 H 
ENDBRANCH 147 156
ENDBRANCH 142 147
ENDBRANCH 140 142
ENDBRANCH 136 138
BRANCH 136 160
ATOM    160  CB  GLU d   1     -48.545  73.941  28.250  0.00  0.00    -0.029 C 
ATOM    161  H91 GLU d   1     -48.498  72.875  27.981  0.00  0.00     0.037 H 
ATOM    162  H92 GLU d   1     -47.569  74.410  28.060  0.00  0.00     0.037 H 
BRANCH 160 163
ATOM    163  CG  GLU d   1     -49.579  74.613  27.359  0.00  0.00     0.018 C 
ATOM    164  H93 GLU d   1     -50.580  74.276  27.666  0.00  0.00     0.049 H 
ATOM    165  H94 GLU d   1     -49.395  74.312  26.317  0.00  0.00     0.049 H 
BRANCH 163 166
ATOM    166  CD  GLU d   1     -49.529  76.128  27.443  0.00  0.00     0.172 C 
ATOM    167  OE1 GLU d   1     -50.601  76.753  27.586  0.00  0.00    -0.648 OA
ATOM    168  OE2 GLU d   1     -48.419  76.696  27.358  0.00  0.00    -0.648 OA
ENDBRANCH 163 166
ENDBRANCH 160 163
ENDBRANCH 136 160
ENDBRANCH 134 136
ENDBRANCH 130 132
BRANCH 130 169
ATOM    169  CB  GLU d   1     -46.117  76.949  32.225  0.00  0.00    -0.029 C 
ATOM    170  H85 GLU d   1     -46.985  77.456  32.672  0.00  0.00     0.037 H 
ATOM    171  H86 GLU d   1     -46.027  77.240  31.168  0.00  0.00     0.037 H 
BRANCH 169 172
ATOM    172  CG  GLU d   1     -44.861  77.418  32.957  0.00  0.00     0.018 C 
ATOM    173  H87 GLU d   1     -44.665  78.464  32.679  0.00  0.00     0.049 H 
ATOM    174  H88 GLU d   1     -44.016  76.790  32.639  0.00  0.00     0.049 H 
BRANCH 172 175
ATOM    175  CD  GLU d   1     -44.981  77.335  34.469  0.00  0.00     0.172 C 
ATOM    176  OE1 GLU d   1     -46.086  77.040  34.971  0.00  0.00    -0.648 OA
ATOM    177  OE2 GLU d   1     -43.964  77.568  35.156  0.00  0.00    -0.648 OA
ENDBRANCH 172 175
ENDBRANCH 169 172
ENDBRANCH 130 169
ENDBRANCH 128 130
ENDBRANCH 124 126
BRANCH 124 178
ATOM    178  CB  LEU d   1     -42.697  72.948  31.828  0.00  0.00    -0.035 C 
ATOM    179  H74 LEU d   1     -42.982  72.946  32.891  0.00  0.00     0.037 H 
ATOM    180  H75 LEU d   1     -42.266  73.926  31.566  0.00  0.00     0.037 H 
BRANCH 178 181
ATOM    181  CG  LEU d   1     -41.604  71.896  31.640  0.00  0.00    -0.059 C 
ATOM    182  H76 LEU d   1     -41.396  71.797  30.564  0.00  0.00     0.038 H 
BRANCH 181 183
ATOM    183  CD1 LEU d   1     -40.336  72.343  32.340  0.00  0.00    -0.073 C 
ATOM    184  H77 LEU d   1     -39.553  71.583  32.202  0.00  0.00     0.028 H 
ATOM    185  H78 LEU d   1     -40.536  72.472  33.414  0.00  0.00     0.028 H 
ATOM    186  H79 LEU d   1     -39.998  73.299  31.913  0.00  0.00     0.028 H 
ENDBRANCH 181 183
BRANCH 181 187
ATOM    187  CD2 LEU d   1     -42.051  70.540  32.169  0.00  0.00    -0.073 C 
ATOM    188  H80 LEU d   1     -42.971  70.230  31.652  0.00  0.00     0.028 H 
ATOM    189  H81 LEU d   1     -42.245  70.614  33.249  0.00  0.00     0.028 H 
ATOM    190  H82 LEU d   1     -41.260  69.797  31.988  0.00  0.00     0.028 H 
ENDBRANCH 181 187
ENDBRANCH 178 181
ENDBRANCH 124 178
ENDBRANCH 122 124
ENDBRANCH 118 120
BRANCH 118 191
ATOM    191  CB  ALA d   1     -43.466  72.933  26.486  0.00  0.00    -0.049 C 
ATOM    192  H69 ALA d   1     -43.900  71.934  26.334  0.00  0.00     0.030 H 
ATOM    193  H70 ALA d   1     -42.490  72.837  26.984  0.00  0.00     0.030 H 
ATOM    194  H71 ALA d   1     -43.334  73.427  25.512  0.00  0.00     0.030 H 
ENDBRANCH 118 191
ENDBRANCH 116 118
ENDBRANCH 112 114
BRANCH 112 195
ATOM    195  CB  GLN d   1     -43.810  78.184  26.865  0.00  0.00    -0.030 C 
ATOM    196  H61 GLN d   1     -43.210  77.581  26.168  0.00  0.00     0.037 H 
ATOM    197  H62 GLN d   1     -43.311  79.149  27.038  0.00  0.00     0.037 H 
BRANCH 195 198
ATOM    198  CG  GLN d   1     -45.160  78.454  26.221  0.00  0.00     0.011 C 
ATOM    199  H63 GLN d   1     -45.756  79.082  26.900  0.00  0.00     0.047 H 
ATOM    200  H64 GLN d   1     -45.674  77.494  26.063  0.00  0.00     0.047 H 
BRANCH 198 201
ATOM    201  CD  GLN d   1     -45.034  79.163  24.889  0.00  0.00     0.215 C 
ATOM    202  OE1 GLN d   1     -44.265  80.114  24.749  0.00  0.00    -0.274 OA
ATOM    203  NE2 GLN d   1     -45.785  78.697  23.897  0.00  0.00    -0.370 N 
ATOM    204  H65 GLN d   1     -45.743  79.126  22.994  0.00  0.00     0.159 HD
ATOM    205  H66 GLN d   1     -46.392  77.918  24.053  0.00  0.00     0.159 HD
ENDBRANCH 198 201
ENDBRANCH 195 198
ENDBRANCH 112 195
ENDBRANCH 110 112
ENDBRANCH   1 108
BRANCH   1 206
ATOM    206  CB  ASN d   1     -40.452  77.891  30.918  0.00  0.00     0.036 C 
ATOM    207  H55 ASN d   1     -41.199  78.244  31.645  0.00  0.00     0.051 H 
ATOM    208  H56 ASN d   1     -40.386  78.605  30.084  0.00  0.00     0.051 H 
BRANCH 206 209
ATOM    209  CG  ASN d   1     -39.105  77.821  31.603  0.00  0.00     0.217 C 
ATOM    210  OD1 ASN d   1     -38.063  77.941  30.960  0.00  0.00    -0.274 OA
ATOM    211  ND2 ASN d   1     -39.119  77.627  32.918  0.00  0.00    -0.370 N 
ATOM    212  H57 ASN d   1     -38.258  77.572  33.425  0.00  0.00     0.159 HD
ATOM    213  H58 ASN d   1     -39.990  77.536  33.401  0.00  0.00     0.159 HD
ENDBRANCH 206 209
ENDBRANCH   1 206
TORSDOF 63
