REMARK  8 active torsions:
REMARK  status: ('A' for Active; 'I' for Inactive)
REMARK    1  A    between atoms: CAX_9  and  CAZ_8 
REMARK    2  A    between atoms: CAR_15  and  NAS_14 
REMARK    3  A    between atoms: CAQ_16  and  CAR_15 
REMARK    4  A    between atoms: CAP_17  and  CAQ_16 
REMARK    5  A    between atoms: NAO_18  and  CAP_17 
REMARK       I    between atoms: C_19  and  NAO_18 
REMARK    6  A    between atoms: CA_24  and  C_19 
REMARK    7  A    between atoms: N_25  and  CAG_26 
REMARK    8  A    between atoms: CAG_26  and  CAF_27 
ROOT
ATOM      1  CAP DGV d   1     -10.982  30.341  -4.959  0.00  0.00    -0.003 C 
ATOM      2  H18 DGV d   1     -11.715  31.019  -5.422  0.00  0.00     0.064 H 
ATOM      3  H19 DGV d   1     -11.511  29.521  -4.451  0.00  0.00     0.064 H 
ENDROOT
BRANCH   1   4
ATOM      4  CAQ DGV d   1     -10.114  31.122  -3.936  0.00  0.00    -0.028 C 
ATOM      5  H16 DGV d   1      -9.280  30.492  -3.595  0.00  0.00     0.037 H 
ATOM      6  H17 DGV d   1      -9.717  32.035  -4.403  0.00  0.00     0.037 H 
BRANCH   4   7
ATOM      7  CAR DGV d   1     -11.016  31.493  -2.739  0.00  0.00     0.085 C 
ATOM      8  H14 DGV d   1     -11.794  32.198  -3.068  0.00  0.00     0.076 H 
ATOM      9  H15 DGV d   1     -11.490  30.585  -2.339  0.00  0.00     0.076 H 
BRANCH   7  10
ATOM     10  NAS DGV d   1     -10.291  32.044  -1.821  0.00  0.00    -0.071 N 
ATOM     11  CAT DGV d   1      -9.975  31.104  -0.983  0.00  0.00     0.084 C 
ATOM     12  CAU DGV d   1      -9.279  31.572   0.253  0.00  0.00    -0.035 C 
ATOM     13  H7  DGV d   1     -10.900  30.590  -0.681  0.00  0.00     0.076 H 
ATOM     14  H8  DGV d   1      -9.313  30.394  -1.500  0.00  0.00     0.076 H 
ATOM     15  CAX DGV d   1     -10.113  32.565   0.972  0.00  0.00    -0.022 C 
ATOM     16  H5  DGV d   1      -9.092  30.711   0.912  0.00  0.00     0.036 H 
ATOM     17  H6  DGV d   1      -8.321  32.036  -0.024  0.00  0.00     0.036 H 
ATOM     18  CAW DGV d   1     -10.516  33.664  -0.001  0.00  0.00    -0.035 C 
ATOM     19  H4  DGV d   1     -11.027  32.039   1.285  0.00  0.00     0.047 H 
ATOM     20  CAV DGV d   1     -11.124  32.959  -1.275  0.00  0.00     0.084 C 
ATOM     21  H9  DGV d   1      -9.635  34.259  -0.284  0.00  0.00     0.036 H 
ATOM     22  H10 DGV d   1     -11.268  34.320   0.462  0.00  0.00     0.036 H 
ATOM     23  H11 DGV d   1     -11.343  33.728  -2.030  0.00  0.00     0.076 H 
ATOM     24  H12 DGV d   1     -12.057  32.454  -0.984  0.00  0.00     0.076 H 
ATOM     25  H13 DGV d   1      -9.463  32.480  -2.194  0.00  0.00     0.279 HD
BRANCH  15  26
ATOM     26  CAZ DGV d   1      -9.494  33.201   2.284  0.00  0.00    -0.010 A 
ATOM     27  CBA DGV d   1     -10.344  33.307   3.412  0.00  0.00     0.042 A 
ATOM     28 CLAY DGV d   1     -12.018  32.729   3.300  0.00  0.00    -0.084 Cl
ATOM     29  CBB DGV d   1      -9.884  33.850   4.600  0.00  0.00    -0.061 A 
ATOM     30  CBF DGV d   1      -8.620  34.301   4.697  0.00  0.00    -0.080 A 
ATOM     31  H1  DGV d   1     -10.546  33.912   5.456  0.00  0.00     0.086 H 
ATOM     32  CBE DGV d   1      -7.765  34.224   3.650  0.00  0.00    -0.061 A 
ATOM     33  H2  DGV d   1      -8.280  34.734   5.631  0.00  0.00     0.083 H 
ATOM     34  CBD DGV d   1      -8.182  33.684   2.434  0.00  0.00     0.042 A 
ATOM     35  H3  DGV d   1      -6.749  34.585   3.758  0.00  0.00     0.086 H 
ATOM     36 CLBC DGV d   1      -7.006  33.627   1.098  0.00  0.00    -0.084 Cl
ENDBRANCH  15  26
ENDBRANCH   7  10
ENDBRANCH   4   7
ENDBRANCH   1   4
BRANCH   1  37
ATOM     37  NAO DGV d   1     -10.066  29.783  -6.013  0.00  0.00    -0.359 N 
ATOM     38  C   DGV d   1     -10.146  28.336  -6.424  0.00  0.00     0.248 C 
ATOM     39  O   DGV d   1     -10.967  27.734  -5.845  0.00  0.00    -0.271 OA
ATOM     40  H20 DGV d   1      -9.393  30.382  -6.448  0.00  0.00     0.162 HD
BRANCH  38  41
ATOM     41  CA  DGV d   1      -9.339  27.427  -7.464  0.00  0.00     0.180 C 
ATOM     42  CB  DGV d   1      -9.485  27.996  -8.859  0.00  0.00    -0.028 C 
ATOM     43  CG  DGV d   1      -8.121  27.723  -9.546  0.00  0.00    -0.040 C 
ATOM     44  H25 DGV d   1     -10.299  27.491  -9.400  0.00  0.00     0.036 H 
ATOM     45  H26 DGV d   1      -9.688  29.076  -8.817  0.00  0.00     0.036 H 
ATOM     46  CD  DGV d   1      -7.213  27.127  -8.411  0.00  0.00     0.085 C 
ATOM     47  H23 DGV d   1      -8.239  27.001 -10.368  0.00  0.00     0.035 H 
ATOM     48  H24 DGV d   1      -7.690  28.657  -9.937  0.00  0.00     0.035 H 
ATOM     49  N   DGV d   1      -7.923  27.421  -7.193  0.00  0.00    -0.054 N 
ATOM     50  H21 DGV d   1      -6.224  27.608  -8.411  0.00  0.00     0.076 H 
ATOM     51  H22 DGV d   1      -7.093  26.041  -8.539  0.00  0.00     0.076 H 
ATOM     52  H28 DGV d   1      -7.735  26.682  -6.534  0.00  0.00     0.281 HD
ATOM     53  H27 DGV d   1      -9.732  26.400  -7.426  0.00  0.00     0.100 H 
BRANCH  49  54
ATOM     54  CAG DGV d   1      -7.477  28.651  -6.601  0.00  0.00     0.108 C 
ATOM     55  H29 DGV d   1      -8.232  29.413  -6.843  0.00  0.00     0.083 H 
ATOM     56  H30 DGV d   1      -6.525  28.911  -7.086  0.00  0.00     0.083 H 
BRANCH  54  57
ATOM     57  CAF DGV d   1      -7.239  28.726  -5.085  0.00  0.00    -0.033 A 
ATOM     58  CAE DGV d   1      -7.295  27.657  -4.334  0.00  0.00    -0.075 A 
ATOM     59  CAD DGV d   1      -7.041  27.785  -2.824  0.00  0.00    -0.082 A 
ATOM     60  H31 DGV d   1      -7.518  26.691  -4.772  0.00  0.00     0.084 H 
ATOM     61  CAA DGV d   1      -6.771  28.951  -2.299  0.00  0.00    -0.083 A 
ATOM     62  H32 DGV d   1      -7.086  26.905  -2.192  0.00  0.00     0.083 H 
ATOM     63  CAB DGV d   1      -6.704  30.194  -3.185  0.00  0.00    -0.082 A 
ATOM     64  H33 DGV d   1      -6.594  29.036  -1.233  0.00  0.00     0.083 H 
ATOM     65  CAC DGV d   1      -6.919  30.091  -4.481  0.00  0.00    -0.075 A 
ATOM     66  H34 DGV d   1      -6.480  31.160  -2.748  0.00  0.00     0.083 H 
ATOM     67  H35 DGV d   1      -6.869  30.970  -5.114  0.00  0.00     0.084 H 
ENDBRANCH  54  57
ENDBRANCH  49  54
ENDBRANCH  38  41
ENDBRANCH   1  37
TORSDOF 8
