REMARK  5 active torsions:
REMARK  status: ('A' for Active; 'I' for Inactive)
REMARK    1  A    between atoms: CAX_8  and  CBA_9 
REMARK    2  A    between atoms: NBB_14  and  CAR_15 
REMARK    3  A    between atoms: CAR_15  and  CAZ_16 
REMARK    4  A    between atoms: CAY_18  and  OAB_19 
REMARK    5  A    between atoms: CAS_24  and  CAA_25 
ROOT
ATOM      1  CAR DGW d   1     -10.354  29.543  -3.676  0.00  0.00     0.087 C 
ATOM      2  H14 DGW d   1     -10.012  30.327  -4.368  0.00  0.00     0.076 H 
ATOM      3  H15 DGW d   1     -11.446  29.608  -3.558  0.00  0.00     0.076 H 
ENDROOT
BRANCH   1   4
ATOM      4  NBB DGW d   1      -9.770  29.859  -2.361  0.00  0.00    -0.071 N 
ATOM      5  CAO DGW d   1     -10.223  31.218  -2.044  0.00  0.00     0.084 C 
ATOM      6  CAM DGW d   1      -9.652  31.664  -0.715  0.00  0.00    -0.035 C 
ATOM      7  H7  DGW d   1      -9.886  31.906  -2.833  0.00  0.00     0.076 H 
ATOM      8  H8  DGW d   1     -11.322  31.231  -1.990  0.00  0.00     0.076 H 
ATOM      9  CBA DGW d   1     -10.074  30.760   0.400  0.00  0.00    -0.022 C 
ATOM     10  H5  DGW d   1      -8.554  31.661  -0.780  0.00  0.00     0.036 H 
ATOM     11  H6  DGW d   1     -10.004  32.684  -0.500  0.00  0.00     0.036 H 
ATOM     12  CAN DGW d   1      -9.709  29.303   0.055  0.00  0.00    -0.035 C 
ATOM     13  H4  DGW d   1     -11.170  30.818   0.477  0.00  0.00     0.047 H 
ATOM     14  CAP DGW d   1     -10.311  28.959  -1.313  0.00  0.00     0.084 C 
ATOM     15  H9  DGW d   1     -10.118  28.627   0.820  0.00  0.00     0.036 H 
ATOM     16  H10 DGW d   1      -8.615  29.194   0.017  0.00  0.00     0.036 H 
ATOM     17  H11 DGW d   1     -11.404  29.074  -1.266  0.00  0.00     0.076 H 
ATOM     18  H12 DGW d   1     -10.062  27.918  -1.566  0.00  0.00     0.076 H 
ATOM     19  H13 DGW d   1      -8.764  29.801  -2.392  0.00  0.00     0.279 HD
BRANCH   9  20
ATOM     20  CAX DGW d   1      -9.550  31.163   1.649  0.00  0.00    -0.010 A 
ATOM     21  CAT DGW d   1     -10.435  31.404   2.702  0.00  0.00     0.042 A 
ATOM     22 CLAC DGW d   1     -12.118  31.211   2.501  0.00  0.00    -0.084 Cl
ATOM     23  CAH DGW d   1      -9.974  31.808   3.947  0.00  0.00    -0.061 A 
ATOM     24  CAE DGW d   1      -8.617  31.986   4.158  0.00  0.00    -0.080 A 
ATOM     25  H1  DGW d   1     -10.676  31.984   4.754  0.00  0.00     0.086 H 
ATOM     26  CAI DGW d   1      -7.727  31.752   3.124  0.00  0.00    -0.061 A 
ATOM     27  H2  DGW d   1      -8.254  32.307   5.128  0.00  0.00     0.083 H 
ATOM     28  CAU DGW d   1      -8.168  31.347   1.872  0.00  0.00     0.042 A 
ATOM     29  H3  DGW d   1      -6.665  31.888   3.295  0.00  0.00     0.086 H 
ATOM     30 CLAD DGW d   1      -6.892  31.099   0.672  0.00  0.00    -0.084 Cl
ENDBRANCH   9  20
ENDBRANCH   1   4
BRANCH   1  31
ATOM     31  CAZ DGW d   1     -10.066  28.199  -4.360  0.00  0.00    -0.028 C 
ATOM     32  CAQ DGW d   1      -8.552  28.063  -4.385  0.00  0.00    -0.032 C 
ATOM     33  CAY DGW d   1      -7.948  26.793  -5.024  0.00  0.00     0.062 C 
ATOM     34  H17 DGW d   1      -8.203  28.102  -3.343  0.00  0.00     0.037 H 
ATOM     35  H18 DGW d   1      -8.155  28.927  -4.938  0.00  0.00     0.037 H 
ATOM     36  CAV DGW d   1      -8.266  26.602  -6.376  0.00  0.00    -0.023 A 
ATOM     37  H19 DGW d   1      -8.390  25.942  -4.485  0.00  0.00     0.090 H 
ATOM     38  CAJ DGW d   1      -7.115  26.179  -7.030  0.00  0.00    -0.074 A 
ATOM     39  CAW DGW d   1      -9.430  26.784  -7.117  0.00  0.00    -0.043 A 
ATOM     40  CAF DGW d   1      -7.112  25.920  -8.393  0.00  0.00    -0.082 A 
ATOM     41  H21 DGW d   1      -6.200  26.049  -6.463  0.00  0.00     0.084 H 
ATOM     42  CAG DGW d   1      -8.276  26.092  -9.131  0.00  0.00    -0.077 A 
ATOM     43  H22 DGW d   1      -6.204  25.584  -8.880  0.00  0.00     0.083 H 
ATOM     44  CAS DGW d   1      -9.437  26.524  -8.496  0.00  0.00    -0.055 A 
ATOM     45  H23 DGW d   1      -8.280  25.891 -10.196  0.00  0.00     0.084 H 
ATOM     46  CAK DGW d   1     -10.686  27.198  -6.706  0.00  0.00    -0.040 C 
ATOM     47  CAL DGW d   1     -10.747  28.353  -5.721  0.00  0.00    -0.056 C 
ATOM     48  H27 DGW d   1     -11.182  26.336  -6.236  0.00  0.00     0.040 H 
ATOM     49  H28 DGW d   1     -11.246  27.499  -7.604  0.00  0.00     0.040 H 
ATOM     50  H29 DGW d   1     -10.289  29.223  -6.215  0.00  0.00     0.034 H 
ATOM     51  H30 DGW d   1     -11.810  28.558  -5.529  0.00  0.00     0.034 H 
ATOM     52  H16 DGW d   1     -10.503  27.351  -3.812  0.00  0.00     0.042 H 
BRANCH  33  53
ATOM     53  OAB DGW d   1      -6.527  26.726  -4.810  0.00  0.00    -0.391 OA
ATOM     54  H20 DGW d   1      -6.184  25.937  -5.213  0.00  0.00     0.210 HD
ENDBRANCH  33  53
BRANCH  44  55
ATOM     55  CAA DGW d   1     -10.605  26.692  -9.255  0.00  0.00    -0.051 C 
ATOM     56  H24 DGW d   1     -10.399  26.438 -10.305  0.00  0.00     0.033 H 
ATOM     57  H25 DGW d   1     -10.938  27.738  -9.190  0.00  0.00     0.033 H 
ATOM     58  H26 DGW d   1     -11.394  26.032  -8.865  0.00  0.00     0.033 H 
ENDBRANCH  44  55
ENDBRANCH   1  31
TORSDOF 5
