REMARK  2 active torsions:
REMARK  status: ('A' for Active; 'I' for Inactive)
REMARK    1  A    between atoms: C2_2  and  C1_6 
REMARK    2  A    between atoms: C8_9  and  C11_11 
ROOT
ATOM      1  C7  5E5 d   1      22.575  35.448   0.375  0.00  0.00    -0.040 A 
ATOM      2  C2  5E5 d   1      23.427  37.940   0.544  0.00  0.00     0.063 A 
ATOM      3  C10 5E5 d   1      22.890  35.489   3.117  0.00  0.00     0.031 A 
ATOM      4  N3  5E5 d   1      23.788  38.647   1.585  0.00  0.00    -0.178 NA
ATOM      5  C6  5E5 d   1      23.033  36.640   0.986  0.00  0.00     0.022 A 
ATOM      6  N4  5E5 d   1      23.651  37.883   2.757  0.00  0.00    -0.276 N 
ATOM      7  C5  5E5 d   1      23.193  36.639   2.397  0.00  0.00     0.080 A 
ATOM      8  C8  5E5 d   1      22.303  34.344   1.193  0.00  0.00     0.069 A 
ATOM      9  N9  5E5 d   1      22.471  34.402   2.511  0.00  0.00    -0.258 NA
ATOM     10  H1  5E5 d   1      22.438  35.391  -0.699  0.00  0.00     0.088 H 
ATOM     11  H2  5E5 d   1      23.001  35.490   4.195  0.00  0.00     0.118 H 
ATOM     12  H6  5E5 d   1      23.857  38.200   3.715  0.00  0.00     0.189 HD
ENDROOT
BRANCH   8  13
ATOM     13  C11 5E5 d   1      21.829  33.045   0.655  0.00  0.00     0.010 A 
ATOM     14  C12 5E5 d   1      21.914  32.744  -0.713  0.00  0.00    -0.068 A 
ATOM     15  C13 5E5 d   1      21.463  31.495  -1.135  0.00  0.00    -0.065 A 
ATOM     16  H7  5E5 d   1      22.318  33.461  -1.419  0.00  0.00     0.085 H 
ATOM     17  C14 5E5 d   1      20.950  30.606  -0.198  0.00  0.00     0.002 A 
ATOM     18  H8  5E5 d   1      21.512  31.220  -2.182  0.00  0.00     0.085 H 
ATOM     19  N15 5E5 d   1      20.895  30.917   1.091  0.00  0.00    -0.272 NA
ATOM     20  H9  5E5 d   1      20.587  29.639  -0.527  0.00  0.00     0.114 H 
ATOM     21  C16 5E5 d   1      21.310  32.089   1.539  0.00  0.00     0.014 A 
ATOM     22  H10 5E5 d   1      21.249  32.313   2.598  0.00  0.00     0.116 H 
ENDBRANCH   8  13
BRANCH   2  23
ATOM     23  C1  5E5 d   1      23.471  38.453  -0.882  0.00  0.00    -0.033 C 
ATOM     24  H3  5E5 d   1      23.117  37.667  -1.565  0.00  0.00     0.035 H 
ATOM     25  H4  5E5 d   1      24.504  38.727  -1.142  0.00  0.00     0.035 H 
ATOM     26  H5  5E5 d   1      22.823  39.337  -0.974  0.00  0.00     0.035 H 
ENDBRANCH   2  23
TORSDOF 2
