REMARK  12 active torsions:
REMARK  status: ('A' for Active; 'I' for Inactive)
REMARK    1  A    between atoms: C6_4  and  N6_21 
REMARK    2  A    between atoms: N9_5  and  C1'_24 
REMARK    3  A    between atoms: CAY_12  and  CAZ_11 
REMARK    4  A    between atoms: CAX_13  and  CAY_12 
REMARK    5  A    between atoms: NAW_14  and  CAX_13 
REMARK       I    between atoms: CAV_15  and  NAW_14 
REMARK    6  A    between atoms: CAU_17  and  CAV_15 
REMARK    7  A    between atoms: SAT_18  and  CAU_17 
REMARK    8  A    between atoms: SAT_18  and  C8_19 
REMARK    9  A    between atoms: C4'_26  and  C5'_27 
REMARK   10  A    between atoms: C5'_27  and  O5'_28 
REMARK   11  A    between atoms: C3'_29  and  O3'_30 
REMARK   12  A    between atoms: C2'_31  and  O2'_32 
ROOT
ATOM      1  C2  5AQ d   1      13.909 -19.318 -44.909  0.00  0.00     0.091 A 
ATOM      2  C4  5AQ d   1      11.716 -18.805 -44.820  0.00  0.00     0.168 A 
ATOM      3  C5  5AQ d   1      11.707 -18.316 -46.097  0.00  0.00     0.151 A 
ATOM      4  C6  5AQ d   1      12.869 -18.327 -46.802  0.00  0.00     0.155 A 
ATOM      5  N9  5AQ d   1      10.521 -18.695 -44.359  0.00  0.00    -0.278 N 
ATOM      6  C8  5AQ d   1       9.785 -18.143 -45.296  0.00  0.00     0.173 A 
ATOM      7  N7  5AQ d   1      10.494 -17.912 -46.368  0.00  0.00    -0.217 NA
ATOM      8  N1  5AQ d   1      13.964 -18.828 -46.192  0.00  0.00    -0.222 NA
ATOM      9  N3  5AQ d   1      12.795 -19.298 -44.253  0.00  0.00    -0.221 NA
ATOM     10  H1  5AQ d   1      14.802 -19.722 -44.446  0.00  0.00     0.146 H 
ENDROOT
BRANCH   6  11
ATOM     11  SAT 5AQ d   1       8.149 -17.806 -45.140  0.00  0.00    -0.082 SA
BRANCH  11  12
ATOM     12  CAU 5AQ d   1       7.869 -16.533 -46.410  0.00  0.00     0.058 C 
ATOM     13  H12 5AQ d   1       7.043 -15.888 -46.076  0.00  0.00     0.064 H 
ATOM     14  H13 5AQ d   1       8.786 -15.934 -46.506  0.00  0.00     0.064 H 
BRANCH  12  15
ATOM     15  CAV 5AQ d   1       7.517 -17.087 -47.778  0.00  0.00     0.227 C 
ATOM     16  NAW 5AQ d   1       8.533 -17.449 -48.500  0.00  0.00    -0.360 N 
ATOM     17  H11 5AQ d   1       9.457 -17.335 -48.134  0.00  0.00     0.162 HD
ATOM     18  OBF 5AQ d   1       6.380 -17.152 -48.186  0.00  0.00    -0.273 OA
BRANCH  16  19
ATOM     19  CAX 5AQ d   1       8.363 -18.012 -49.818  0.00  0.00    -0.001 C 
ATOM     20  H9  5AQ d   1       7.504 -17.538 -50.316  0.00  0.00     0.064 H 
ATOM     21  H10 5AQ d   1       9.272 -17.842 -50.414  0.00  0.00     0.064 H 
BRANCH  19  22
ATOM     22  CAY 5AQ d   1       8.115 -19.499 -49.677  0.00  0.00    -0.026 C 
ATOM     23  H7  5AQ d   1       7.067 -19.639 -49.373  0.00  0.00     0.042 H 
ATOM     24  H8  5AQ d   1       8.276 -19.962 -50.662  0.00  0.00     0.042 H 
BRANCH  22  25
ATOM     25  CAZ 5AQ d   1       8.999 -20.232 -48.663  0.00  0.00    -0.057 A 
ATOM     26  CBA 5AQ d   1       8.473 -20.638 -47.456  0.00  0.00    -0.077 A 
ATOM     27  CBB 5AQ d   1       9.236 -21.319 -46.535  0.00  0.00    -0.082 A 
ATOM     28  H2  5AQ d   1       7.437 -20.416 -47.227  0.00  0.00     0.084 H 
ATOM     29  CBC 5AQ d   1      10.542 -21.614 -46.837  0.00  0.00    -0.083 A 
ATOM     30  H3  5AQ d   1       8.811 -21.618 -45.584  0.00  0.00     0.083 H 
ATOM     31  CBD 5AQ d   1      11.067 -21.224 -48.056  0.00  0.00    -0.082 A 
ATOM     32  H4  5AQ d   1      11.159 -22.150 -46.124  0.00  0.00     0.083 H 
ATOM     33  CBE 5AQ d   1      10.300 -20.543 -48.967  0.00  0.00    -0.077 A 
ATOM     34  H5  5AQ d   1      12.098 -21.460 -48.294  0.00  0.00     0.083 H 
ATOM     35  H6  5AQ d   1      10.720 -20.252 -49.923  0.00  0.00     0.084 H 
ENDBRANCH  22  25
ENDBRANCH  19  22
ENDBRANCH  16  19
ENDBRANCH  12  15
ENDBRANCH  11  12
ENDBRANCH   6  11
BRANCH   5  36
ATOM     36  C1' 5AQ d   1      10.166 -19.127 -43.042  0.00  0.00     0.141 C 
ATOM     37  O4' 5AQ d   1       9.121 -20.076 -43.132  0.00  0.00    -0.353 OA
ATOM     38  C4' 5AQ d   1       8.464 -20.022 -41.915  0.00  0.00     0.088 C 
ATOM     39  C3' 5AQ d   1       8.330 -18.528 -41.662  0.00  0.00     0.091 C 
ATOM     40  H17 5AQ d   1       8.957 -20.578 -41.104  0.00  0.00     0.090 H 
ATOM     41  C2' 5AQ d   1       9.642 -17.986 -42.195  0.00  0.00     0.105 C 
ATOM     42  H21 5AQ d   1       7.477 -18.110 -42.217  0.00  0.00     0.091 H 
ATOM     43  H23 5AQ d   1       9.515 -17.051 -42.760  0.00  0.00     0.093 H 
ATOM     44  H16 5AQ d   1      11.047 -19.574 -42.558  0.00  0.00     0.123 H 
BRANCH  38  45
ATOM     45  C5' 5AQ d   1       7.079 -20.488 -42.223  0.00  0.00     0.043 C 
ATOM     46  H18 5AQ d   1       6.917 -20.448 -43.310  0.00  0.00     0.078 H 
ATOM     47  H19 5AQ d   1       6.355 -19.830 -41.720  0.00  0.00     0.078 H 
BRANCH  45  48
ATOM     48  O5' 5AQ d   1       6.894 -21.806 -41.776  0.00  0.00    -0.398 OA
ATOM     49  H20 5AQ d   1       7.031 -21.843 -40.837  0.00  0.00     0.209 HD
ENDBRANCH  45  48
ENDBRANCH  38  45
BRANCH  39  50
ATOM     50  O3' 5AQ d   1       8.173 -18.248 -40.294  0.00  0.00    -0.390 OA
ATOM     51  H22 5AQ d   1       8.092 -17.309 -40.171  0.00  0.00     0.210 HD
ENDBRANCH  39  50
BRANCH  41  52
ATOM     52  O2' 5AQ d   1      10.519 -17.839 -41.151  0.00  0.00    -0.388 OA
ATOM     53  H24 5AQ d   1      10.155 -17.233 -40.516  0.00  0.00     0.210 HD
ENDBRANCH  41  52
ENDBRANCH   5  36
BRANCH   4  54
ATOM     54  N6  5AQ d   1      12.946 -17.869 -48.013  0.00  0.00    -0.382 N 
ATOM     55  H14 5AQ d   1      13.844 -17.894 -48.517  0.00  0.00     0.157 HD
ATOM     56  H15 5AQ d   1      12.109 -17.481 -48.471  0.00  0.00     0.157 HD
ENDBRANCH   4  54
TORSDOF 12
