REMARK  12 active torsions:
REMARK  status: ('A' for Active; 'I' for Inactive)
REMARK    1  A    between atoms: C6_3  and  N6_22 
REMARK    2  A    between atoms: SAU_20  and  C8_4 
REMARK    3  A    between atoms: CAN_14  and  CAY_13 
REMARK    4  A    between atoms: CAM_15  and  CAN_14 
REMARK    5  A    between atoms: NAS_16  and  CAM_15 
REMARK       I    between atoms: CAV_17  and  NAS_16 
REMARK    6  A    between atoms: CAO_19  and  CAV_17 
REMARK    7  A    between atoms: CAO_19  and  SAU_20 
REMARK    8  A    between atoms: N9_24  and  C1'_25 
REMARK    9  A    between atoms: C4'_27  and  C5'_28 
REMARK   10  A    between atoms: C5'_28  and  O5'_29 
REMARK   11  A    between atoms: C3'_30  and  O3'_31 
REMARK   12  A    between atoms: C2'_32  and  O2'_33 
ROOT
ATOM      1  C4  5AK d   1      11.265 -18.084 -44.874  0.00  0.00     0.146 A 
ATOM      2  C5  5AK d   1      11.249 -17.556 -46.102  0.00  0.00     0.151 A 
ATOM      3  C6  5AK d   1      12.341 -17.553 -46.861  0.00  0.00     0.176 A 
ATOM      4  C8  5AK d   1       9.301 -17.343 -45.260  0.00  0.00     0.173 A 
ATOM      5  N1  5AK d   1      13.508 -18.069 -46.457  0.00  0.00    -0.223 NA
ATOM      6  N3  5AK d   1      12.380 -18.629 -44.365  0.00  0.00    -0.335 N 
ATOM      7  N7  5AK d   1      10.023 -17.093 -46.343  0.00  0.00    -0.217 NA
ATOM      8  C2  5AK d   1      13.652 -18.682 -45.119  0.00  0.00     0.068 A 
ATOM      9  N9  5AK d   1      10.048 -17.950 -44.350  0.00  0.00    -0.279 N 
ATOM     10  H1  5AK d   1      12.350 -19.025 -43.415  0.00  0.00     0.168 HD
ATOM     11  H14 5AK d   1      14.575 -19.116 -44.738  0.00  0.00     0.143 H 
ENDROOT
BRANCH   4  12
ATOM     12  SAU 5AK d   1       7.611 -16.931 -45.061  0.00  0.00    -0.082 SA
BRANCH  12  13
ATOM     13  CAO 5AK d   1       7.472 -15.567 -46.273  0.00  0.00     0.058 C 
ATOM     14  H11 5AK d   1       6.842 -14.768 -45.855  0.00  0.00     0.064 H 
ATOM     15  H12 5AK d   1       8.473 -15.168 -46.492  0.00  0.00     0.064 H 
BRANCH  13  16
ATOM     16  CAV 5AK d   1       6.840 -16.092 -47.563  0.00  0.00     0.227 C 
ATOM     17  NAS 5AK d   1       7.691 -16.689 -48.408  0.00  0.00    -0.360 N 
ATOM     18  H10 5AK d   1       8.657 -16.756 -48.157  0.00  0.00     0.162 HD
ATOM     19  OAB 5AK d   1       5.636 -15.961 -47.778  0.00  0.00    -0.273 OA
BRANCH  17  20
ATOM     20  CAM 5AK d   1       7.248 -17.249 -49.693  0.00  0.00    -0.001 C 
ATOM     21  H8  5AK d   1       6.173 -17.474 -49.644  0.00  0.00     0.064 H 
ATOM     22  H9  5AK d   1       7.433 -16.519 -50.495  0.00  0.00     0.064 H 
BRANCH  20  23
ATOM     23  CAN 5AK d   1       8.026 -18.535 -49.984  0.00  0.00    -0.026 C 
ATOM     24  H6  5AK d   1       7.428 -19.185 -50.639  0.00  0.00     0.042 H 
ATOM     25  H7  5AK d   1       8.974 -18.285 -50.482  0.00  0.00     0.042 H 
BRANCH  23  26
ATOM     26  CAY 5AK d   1       8.290 -19.197 -48.792  0.00  0.00    -0.055 A 
ATOM     27  CAK 5AK d   1       9.564 -19.692 -48.539  0.00  0.00    -0.060 A 
ATOM     28  CAW 5AK d   1       9.829 -20.355 -47.346  0.00  0.00     0.011 A 
ATOM     29  H2  5AK d   1      10.351 -19.561 -49.272  0.00  0.00     0.086 H 
ATOM     30 BR   5AK d   1      11.548 -21.022 -47.005  0.00  0.00    -0.051 Br
ATOM     31  CAI 5AK d   1       8.819 -20.523 -46.406  0.00  0.00    -0.066 A 
ATOM     32  CAG 5AK d   1       7.545 -20.028 -46.658  0.00  0.00    -0.081 A 
ATOM     33  H3  5AK d   1       9.025 -21.040 -45.476  0.00  0.00     0.085 H 
ATOM     34  CAJ 5AK d   1       7.280 -19.365 -47.851  0.00  0.00    -0.077 A 
ATOM     35  H4  5AK d   1       6.758 -20.159 -45.924  0.00  0.00     0.083 H 
ATOM     36  H5  5AK d   1       6.286 -18.979 -48.048  0.00  0.00     0.084 H 
ENDBRANCH  23  26
ENDBRANCH  20  23
ENDBRANCH  17  20
ENDBRANCH  13  16
ENDBRANCH  12  13
ENDBRANCH   4  12
BRANCH   9  37
ATOM     37  C1' 5AK d   1       9.613 -18.395 -43.008  0.00  0.00     0.141 C 
ATOM     38  O4' 5AK d   1       8.507 -19.300 -43.138  0.00  0.00    -0.353 OA
ATOM     39  C4' 5AK d   1       7.914 -19.313 -41.832  0.00  0.00     0.088 C 
ATOM     40  C3' 5AK d   1       7.899 -17.849 -41.421  0.00  0.00     0.091 C 
ATOM     41  H16 5AK d   1       8.498 -19.925 -41.129  0.00  0.00     0.090 H 
ATOM     42  C2' 5AK d   1       9.047 -17.233 -42.206  0.00  0.00     0.105 C 
ATOM     43  H20 5AK d   1       6.939 -17.370 -41.666  0.00  0.00     0.091 H 
ATOM     44  H22 5AK d   1       8.698 -16.422 -42.862  0.00  0.00     0.093 H 
ATOM     45  H15 5AK d   1      10.454 -18.866 -42.479  0.00  0.00     0.123 H 
BRANCH  39  46
ATOM     46  C5' 5AK d   1       6.478 -19.831 -41.928  0.00  0.00     0.043 C 
ATOM     47  H17 5AK d   1       6.101 -19.679 -42.950  0.00  0.00     0.078 H 
ATOM     48  H18 5AK d   1       5.842 -19.282 -41.217  0.00  0.00     0.078 H 
BRANCH  46  49
ATOM     49  O5' 5AK d   1       6.451 -21.225 -41.613  0.00  0.00    -0.398 OA
ATOM     50  H19 5AK d   1       5.559 -21.545 -41.673  0.00  0.00     0.209 HD
ENDBRANCH  46  49
ENDBRANCH  39  46
BRANCH  40  51
ATOM     51  O3' 5AK d   1       8.169 -17.743 -40.016  0.00  0.00    -0.390 OA
ATOM     52  H21 5AK d   1       8.159 -16.828 -39.761  0.00  0.00     0.210 HD
ENDBRANCH  40  51
BRANCH  42  53
ATOM     53  O2' 5AK d   1      10.044 -16.748 -41.296  0.00  0.00    -0.388 OA
ATOM     54  H23 5AK d   1       9.660 -16.090 -40.728  0.00  0.00     0.210 HD
ENDBRANCH  42  53
ENDBRANCH   9  37
BRANCH   3  55
ATOM     55  N6  5AK d   1      12.210 -17.002 -48.065  0.00  0.00    -0.280 NA
ATOM     56  H13 5AK d   1      12.999 -16.966 -48.692  0.00  0.00     0.188 HD
ENDBRANCH   3  55
TORSDOF 12
