REMARK  12 active torsions:
REMARK  status: ('A' for Active; 'I' for Inactive)
REMARK    1  A    between atoms: C6_4  and  N6_19 
REMARK    2  A    between atoms: CAZ_16  and  N9_5 
REMARK    3  A    between atoms: CBE_9  and  NBF_8 
REMARK    4  A    between atoms: CBC_10  and  CBE_9 
REMARK    5  A    between atoms: CBB_12  and  OBI_13 
REMARK    6  A    between atoms: CBA_14  and  OBJ_15 
REMARK    7  A    between atoms: C8_21  and  SAP_22 
REMARK    8  A    between atoms: SAP_22  and  CAO_23 
REMARK    9  A    between atoms: CAO_23  and  CAM_24 
REMARK       I    between atoms: CAM_24  and  NAL_26 
REMARK   10  A    between atoms: NAL_26  and  CAK_27 
REMARK   11  A    between atoms: CAK_27  and  CAJ_28 
REMARK   12  A    between atoms: CAJ_28  and  CAH_29 
ROOT
ATOM      1  NBH 5AJ d   1      -8.737  17.102  -2.623  0.00  0.00     0.068 N 
ATOM      2  NBG 5AJ d   1      -8.994  16.310  -1.610  0.00  0.00    -0.168 NA
ATOM      3  NBF 5AJ d   1      -9.241  15.521  -0.600  0.00  0.00    -0.113 NA
ENDROOT
BRANCH   3   4
ATOM      4  CBE 5AJ d   1      -9.090  14.064  -0.695  0.00  0.00     0.073 C 
ATOM      5  H2  5AJ d   1      -8.096  13.821  -1.099  0.00  0.00     0.075 H 
ATOM      6  H3  5AJ d   1      -9.866  13.655  -1.359  0.00  0.00     0.075 H 
BRANCH   4   7
ATOM      7  CBC 5AJ d   1      -9.237  13.465   0.691  0.00  0.00     0.088 C 
ATOM      8  OBD 5AJ d   1     -10.582  13.411   1.055  0.00  0.00    -0.354 OA
ATOM      9  CAZ 5AJ d   1     -10.593  12.637   2.195  0.00  0.00     0.141 C 
ATOM     10  CBA 5AJ d   1      -9.612  11.520   1.911  0.00  0.00     0.105 C 
ATOM     11  H9  5AJ d   1     -10.310  13.200   3.096  0.00  0.00     0.123 H 
ATOM     12  CBB 5AJ d   1      -8.902  11.994   0.655  0.00  0.00     0.091 C 
ATOM     13  H7  5AJ d   1     -10.112  10.550   1.771  0.00  0.00     0.093 H 
ATOM     14  H5  5AJ d   1      -9.270  11.495  -0.254  0.00  0.00     0.091 H 
ATOM     15  H4  5AJ d   1      -8.626  14.019   1.419  0.00  0.00     0.090 H 
BRANCH   9  16
ATOM     16  N9  5AJ d   1     -11.920  12.150   2.284  0.00  0.00    -0.278 N 
ATOM     17  C4  5AJ d   1     -12.641  12.240   3.352  0.00  0.00     0.168 A 
ATOM     18  C5  5AJ d   1     -13.852  11.694   3.102  0.00  0.00     0.151 A 
ATOM     19  N3  5AJ d   1     -12.378  12.721   4.537  0.00  0.00    -0.221 NA
ATOM     20  C6  5AJ d   1     -14.778  11.661   4.104  0.00  0.00     0.155 A 
ATOM     21  N7  5AJ d   1     -13.827  11.275   1.869  0.00  0.00    -0.217 NA
ATOM     22  N1  5AJ d   1     -14.452  12.164   5.251  0.00  0.00    -0.222 NA
ATOM     23  C2  5AJ d   1     -13.280  12.682   5.461  0.00  0.00     0.091 A 
ATOM     24  H1  5AJ d   1     -13.052  13.093   6.438  0.00  0.00     0.146 H 
ATOM     25  C8  5AJ d   1     -12.655  11.575   1.379  0.00  0.00     0.173 A 
BRANCH  20  26
ATOM     26  N6  5AJ d   1     -15.961  11.149   3.958  0.00  0.00    -0.382 N 
ATOM     27  H10 5AJ d   1     -16.623  11.149   4.747  0.00  0.00     0.157 HD
ATOM     28  H11 5AJ d   1     -16.238  10.742   3.053  0.00  0.00     0.157 HD
ENDBRANCH  20  26
BRANCH  25  29
ATOM     29  SAP 5AJ d   1     -12.183  11.232  -0.198  0.00  0.00    -0.082 SA
BRANCH  29  30
ATOM     30  CAO 5AJ d   1     -13.353   9.894  -0.572  0.00  0.00     0.058 C 
ATOM     31  H12 5AJ d   1     -13.688   9.462   0.383  0.00  0.00     0.064 H 
ATOM     32  H13 5AJ d   1     -12.817   9.129  -1.153  0.00  0.00     0.064 H 
BRANCH  30  33
ATOM     33  CAM 5AJ d   1     -14.587  10.297  -1.360  0.00  0.00     0.227 C 
ATOM     34  OAN 5AJ d   1     -14.589  10.351  -2.577  0.00  0.00    -0.273 OA
ATOM     35  NAL 5AJ d   1     -15.648  10.503  -0.632  0.00  0.00    -0.360 N 
ATOM     36  H14 5AJ d   1     -15.593  10.365   0.357  0.00  0.00     0.162 HD
BRANCH  35  37
ATOM     37  CAK 5AJ d   1     -16.900  10.925  -1.212  0.00  0.00     0.002 C 
ATOM     38  H15 5AJ d   1     -17.710  10.802  -0.478  0.00  0.00     0.064 H 
ATOM     39  H16 5AJ d   1     -17.119  10.320  -2.104  0.00  0.00     0.064 H 
BRANCH  37  40
ATOM     40  CAJ 5AJ d   1     -16.781  12.384  -1.601  0.00  0.00     0.005 C 
ATOM     41  H17 5AJ d   1     -17.791  12.812  -1.685  0.00  0.00     0.047 H 
ATOM     42  H18 5AJ d   1     -16.273  12.451  -2.574  0.00  0.00     0.047 H 
BRANCH  40  43
ATOM     43  CAH 5AJ d   1     -15.996  13.185  -0.586  0.00  0.00     0.106 A 
ATOM     44  NAI 5AJ d   1     -16.431  13.496   0.607  0.00  0.00    -0.233 NA
ATOM     45  CAD 5AJ d   1     -15.513  14.192   1.217  0.00  0.00     0.085 A 
ATOM     46  CAC 5AJ d   1     -15.464  14.757   2.465  0.00  0.00    -0.053 A 
ATOM     47  CAE 5AJ d   1     -14.475  14.315   0.349  0.00  0.00     0.062 A 
ATOM     48  CAB 5AJ d   1     -14.348  15.448   2.845  0.00  0.00    -0.081 A 
ATOM     49  H19 5AJ d   1     -16.303  14.657   3.144  0.00  0.00     0.087 H 
ATOM     50  CAA 5AJ d   1     -13.297  15.579   1.968  0.00  0.00    -0.081 A 
ATOM     51  H20 5AJ d   1     -14.291  15.891   3.833  0.00  0.00     0.083 H 
ATOM     52  CAF 5AJ d   1     -13.357  15.007   0.723  0.00  0.00    -0.055 A 
ATOM     53  H21 5AJ d   1     -12.416  16.138   2.262  0.00  0.00     0.083 H 
ATOM     54  H22 5AJ d   1     -12.522  15.103   0.039  0.00  0.00     0.087 H 
ATOM     55  NAG 5AJ d   1     -14.801  13.700  -0.752  0.00  0.00    -0.343 N 
ATOM     56  H23 5AJ d   1     -14.223  13.630  -1.602  0.00  0.00     0.167 HD
ENDBRANCH  40  43
ENDBRANCH  37  40
ENDBRANCH  35  37
ENDBRANCH  30  33
ENDBRANCH  29  30
ENDBRANCH  25  29
ENDBRANCH   9  16
BRANCH  10  57
ATOM     57  OBJ 5AJ d   1      -8.682  11.465   2.943  0.00  0.00    -0.388 OA
ATOM     58  H8  5AJ d   1      -7.989  10.858   2.711  0.00  0.00     0.210 HD
ENDBRANCH  10  57
BRANCH  12  59
ATOM     59  OBI 5AJ d   1      -7.514  11.827   0.790  0.00  0.00    -0.390 OA
ATOM     60  H6  5AJ d   1      -7.304  10.901   0.767  0.00  0.00     0.210 HD
ENDBRANCH  12  59
ENDBRANCH   4   7
ENDBRANCH   3   4
TORSDOF 12
