REMARK  13 active torsions:
REMARK  status: ('A' for Active; 'I' for Inactive)
REMARK    1  A    between atoms: C6_4  and  N6_23 
REMARK    2  A    between atoms: N9_5  and  CAV_26 
REMARK    3  A    between atoms: CAC_8  and  CAB_7 
REMARK    4  A    between atoms: CAF_14  and  CAE_13 
REMARK    5  A    between atoms: CAG_15  and  CAF_14 
REMARK    6  A    between atoms: NAH_16  and  CAG_15 
REMARK       I    between atoms: CAI_17  and  NAH_16 
REMARK    7  A    between atoms: CAJ_19  and  CAI_17 
REMARK    8  A    between atoms: SAK_20  and  CAJ_19 
REMARK    9  A    between atoms: SAK_20  and  C8_21 
REMARK   10  A    between atoms: CAW_28  and  OAX_29 
REMARK   11  A    between atoms: CAY_30  and  OAZ_31 
REMARK   12  A    between atoms: CBA_32  and  CBB_33 
REMARK   13  A    between atoms: CBB_33  and  NBC_34 
ROOT
ATOM      1  CAA 5AG d   1      11.491 -21.883 -44.128  0.00  0.00    -0.149 C 
ATOM      2  CAB 5AG d   1      10.721 -21.417 -44.884  0.00  0.00    -0.078 C 
ATOM      3  H2  5AG d   1      12.183 -22.302 -43.449  0.00  0.00     0.166 H 
ENDROOT
BRANCH   2   4
ATOM      4  CAC 5AG d   1       9.761 -20.861 -45.787  0.00  0.00     0.017 A 
ATOM      5  CAD 5AG d   1      10.130 -20.113 -46.897  0.00  0.00    -0.059 A 
ATOM      6  CAE 5AG d   1       9.138 -19.608 -47.716  0.00  0.00    -0.055 A 
ATOM      7  H3  5AG d   1      11.175 -19.929 -47.117  0.00  0.00     0.086 H 
ATOM      8  CBH 5AG d   1       7.812 -19.833 -47.438  0.00  0.00    -0.077 A 
ATOM      9  CBI 5AG d   1       7.450 -20.579 -46.336  0.00  0.00    -0.081 A 
ATOM     10  H6  5AG d   1       7.047 -19.423 -48.087  0.00  0.00     0.084 H 
ATOM     11  CBJ 5AG d   1       8.428 -21.091 -45.515  0.00  0.00    -0.065 A 
ATOM     12  H5  5AG d   1       6.404 -20.760 -46.118  0.00  0.00     0.083 H 
ATOM     13  H4  5AG d   1       8.149 -21.679 -44.648  0.00  0.00     0.085 H 
BRANCH   6  14
ATOM     14  CAF 5AG d   1       9.457 -18.790 -48.935  0.00  0.00    -0.026 C 
ATOM     15  H7  5AG d   1       9.396 -19.427 -49.830  0.00  0.00     0.042 H 
ATOM     16  H8  5AG d   1      10.474 -18.381 -48.845  0.00  0.00     0.042 H 
BRANCH  14  17
ATOM     17  CAG 5AG d   1       8.457 -17.642 -49.060  0.00  0.00    -0.001 C 
ATOM     18  H9  5AG d   1       7.457 -18.042 -49.282  0.00  0.00     0.064 H 
ATOM     19  H10 5AG d   1       8.768 -16.963 -49.868  0.00  0.00     0.064 H 
BRANCH  17  20
ATOM     20  NAH 5AG d   1       8.431 -16.917 -47.784  0.00  0.00    -0.360 N 
ATOM     21  CAI 5AG d   1       7.491 -16.053 -47.465  0.00  0.00     0.227 C 
ATOM     22  OBG 5AG d   1       6.581 -15.726 -48.213  0.00  0.00    -0.273 OA
ATOM     23  H11 5AG d   1       9.163 -17.088 -47.125  0.00  0.00     0.162 HD
BRANCH  21  24
ATOM     24  CAJ 5AG d   1       7.641 -15.448 -46.082  0.00  0.00     0.058 C 
ATOM     25  H12 5AG d   1       6.709 -14.919 -45.834  0.00  0.00     0.064 H 
ATOM     26  H13 5AG d   1       8.474 -14.730 -46.109  0.00  0.00     0.064 H 
BRANCH  24  27
ATOM     27  SAK 5AG d   1       7.976 -16.661 -44.766  0.00  0.00    -0.082 SA
BRANCH  27  28
ATOM     28  C8  5AG d   1       9.603 -16.981 -45.039  0.00  0.00     0.173 A 
ATOM     29  N9  5AG d   1      10.408 -17.550 -44.172  0.00  0.00    -0.278 N 
ATOM     30  C4  5AG d   1      11.598 -17.633 -44.739  0.00  0.00     0.168 A 
ATOM     31  C5  5AG d   1      11.470 -17.068 -45.984  0.00  0.00     0.151 A 
ATOM     32  N3  5AG d   1      12.779 -18.112 -44.345  0.00  0.00    -0.221 NA
ATOM     33  C6  5AG d   1      12.551 -16.988 -46.813  0.00  0.00     0.155 A 
ATOM     34  N7  5AG d   1      10.223 -16.670 -46.145  0.00  0.00    -0.217 NA
ATOM     35  N1  5AG d   1      13.764 -17.478 -46.393  0.00  0.00    -0.222 NA
ATOM     36  C2  5AG d   1      13.838 -18.045 -45.125  0.00  0.00     0.091 A 
ATOM     37  H1  5AG d   1      14.784 -18.439 -44.773  0.00  0.00     0.146 H 
BRANCH  29  38
ATOM     38  CAV 5AG d   1      10.007 -18.021 -42.881  0.00  0.00     0.141 C 
ATOM     39  OBF 5AG d   1       8.754 -18.532 -43.247  0.00  0.00    -0.354 OA
ATOM     40  CBA 5AG d   1       8.117 -18.654 -41.992  0.00  0.00     0.088 C 
ATOM     41  CAY 5AG d   1       8.214 -17.247 -41.486  0.00  0.00     0.091 C 
ATOM     42  H21 5AG d   1       8.632 -19.384 -41.350  0.00  0.00     0.090 H 
ATOM     43  CAW 5AG d   1       9.640 -16.916 -41.896  0.00  0.00     0.105 C 
ATOM     44  H19 5AG d   1       7.476 -16.570 -41.940  0.00  0.00     0.091 H 
ATOM     45  H17 5AG d   1       9.730 -15.914 -42.342  0.00  0.00     0.093 H 
ATOM     46  H16 5AG d   1      10.711 -18.747 -42.448  0.00  0.00     0.123 H 
BRANCH  40  47
ATOM     47  CBB 5AG d   1       6.642 -18.959 -42.060  0.00  0.00     0.073 C 
ATOM     48  H22 5AG d   1       6.308 -18.988 -43.108  0.00  0.00     0.075 H 
ATOM     49  H23 5AG d   1       6.071 -18.194 -41.514  0.00  0.00     0.075 H 
BRANCH  47  50
ATOM     50  NBC 5AG d   1       6.458 -20.260 -41.439  0.00  0.00    -0.113 NA
ATOM     51  NBD 5AG d   1       6.683 -21.329 -42.141  0.00  0.00    -0.168 NA
ATOM     52  NBE 5AG d   1       6.901 -22.397 -42.839  0.00  0.00     0.068 N 
ENDBRANCH  47  50
ENDBRANCH  40  47
BRANCH  41  53
ATOM     53  OAZ 5AG d   1       8.075 -17.277 -40.074  0.00  0.00    -0.390 OA
ATOM     54  H20 5AG d   1       8.654 -17.938 -39.714  0.00  0.00     0.210 HD
ENDBRANCH  41  53
BRANCH  43  55
ATOM     55  OAX 5AG d   1      10.440 -17.046 -40.746  0.00  0.00    -0.388 OA
ATOM     56  H18 5AG d   1      10.217 -16.360 -40.127  0.00  0.00     0.210 HD
ENDBRANCH  43  55
ENDBRANCH  29  38
BRANCH  33  57
ATOM     57  N6  5AG d   1      12.382 -16.435 -47.987  0.00  0.00    -0.382 N 
ATOM     58  H14 5AG d   1      13.176 -16.358 -48.639  0.00  0.00     0.157 HD
ATOM     59  H15 5AG d   1      11.455 -16.077 -48.259  0.00  0.00     0.157 HD
ENDBRANCH  33  57
ENDBRANCH  27  28
ENDBRANCH  24  27
ENDBRANCH  21  24
ENDBRANCH  17  20
ENDBRANCH  14  17
ENDBRANCH   6  14
ENDBRANCH   2   4
TORSDOF 13
