REMARK  12 active torsions:
REMARK  status: ('A' for Active; 'I' for Inactive)
REMARK    1  A    between atoms: C6_3  and  N6_22 
REMARK    2  A    between atoms: SAH_20  and  C8_4 
REMARK    3  A    between atoms: CAM_14  and  CAV_13 
REMARK    4  A    between atoms: CAL_15  and  CAM_14 
REMARK    5  A    between atoms: NAK_16  and  CAL_15 
REMARK       I    between atoms: CAJ_17  and  NAK_16 
REMARK    6  A    between atoms: CAI_19  and  CAJ_17 
REMARK    7  A    between atoms: CAI_19  and  SAH_20 
REMARK    8  A    between atoms: N9_24  and  CAR_25 
REMARK    9  A    between atoms: CAZ_27  and  OAY_28 
REMARK   10  A    between atoms: CBA_29  and  OBF_30 
REMARK   11  A    between atoms: CAT_31  and  CAU_32 
REMARK   12  A    between atoms: CAU_32  and  NBB_33 
ROOT
ATOM      1  NBB 5A9 d   1       6.681 -22.631 -41.697  0.00  0.00    -0.113 NA
ATOM      2  NBG 5A9 d   1       6.824 -23.132 -42.689  0.00  0.00    -0.168 NA
ATOM      3  NBI 5A9 d   1       6.966 -23.633 -43.680  0.00  0.00     0.068 N 
ENDROOT
BRANCH   1   4
ATOM      4  CAU 5A9 d   1       6.610 -21.163 -41.721  0.00  0.00     0.073 C 
ATOM      5  H21 5A9 d   1       6.125 -20.835 -42.652  0.00  0.00     0.075 H 
ATOM      6  H22 5A9 d   1       6.026 -20.810 -40.858  0.00  0.00     0.075 H 
BRANCH   4   7
ATOM      7  CAT 5A9 d   1       8.024 -20.582 -41.651  0.00  0.00     0.088 C 
ATOM      8  OAS 5A9 d   1       8.644 -20.672 -42.942  0.00  0.00    -0.354 OA
ATOM      9  CAR 5A9 d   1       9.708 -19.712 -42.882  0.00  0.00     0.141 C 
ATOM     10  CAZ 5A9 d   1       9.072 -18.501 -42.219  0.00  0.00     0.105 C 
ATOM     11  H15 5A9 d   1      10.553 -20.089 -42.287  0.00  0.00     0.123 H 
ATOM     12  CBA 5A9 d   1       7.945 -19.087 -41.383  0.00  0.00     0.091 C 
ATOM     13  H16 5A9 d   1       8.693 -17.785 -42.963  0.00  0.00     0.093 H 
ATOM     14  H18 5A9 d   1       6.968 -18.675 -41.676  0.00  0.00     0.091 H 
ATOM     15  H20 5A9 d   1       8.615 -21.100 -40.882  0.00  0.00     0.090 H 
BRANCH   9  16
ATOM     16  N9  5A9 d   1      10.161 -19.389 -44.253  0.00  0.00    -0.278 N 
ATOM     17  C4  5A9 d   1      11.397 -19.519 -44.731  0.00  0.00     0.168 A 
ATOM     18  C5  5A9 d   1      11.394 -19.123 -46.009  0.00  0.00     0.151 A 
ATOM     19  N3  5A9 d   1      12.527 -19.952 -44.153  0.00  0.00    -0.221 NA
ATOM     20  C6  5A9 d   1      12.513 -19.151 -46.731  0.00  0.00     0.155 A 
ATOM     21  N7  5A9 d   1      10.156 -18.746 -46.328  0.00  0.00    -0.217 NA
ATOM     22  N1  5A9 d   1      13.677 -19.571 -46.220  0.00  0.00    -0.222 NA
ATOM     23  C2  5A9 d   1      13.714 -19.991 -44.890  0.00  0.00     0.091 A 
ATOM     24  H14 5A9 d   1      14.638 -20.338 -44.441  0.00  0.00     0.146 H 
ATOM     25  C8  5A9 d   1       9.415 -18.916 -45.241  0.00  0.00     0.173 A 
BRANCH  20  26
ATOM     26  N6  5A9 d   1      12.411 -18.738 -47.991  0.00  0.00    -0.382 N 
ATOM     27  H12 5A9 d   1      13.241 -18.736 -48.601  0.00  0.00     0.157 HD
ATOM     28  H13 5A9 d   1      11.502 -18.420 -48.357  0.00  0.00     0.157 HD
ENDBRANCH  20  26
BRANCH  25  29
ATOM     29  SAH 5A9 d   1       7.704 -18.566 -45.129  0.00  0.00    -0.082 SA
BRANCH  29  30
ATOM     30  CAI 5A9 d   1       7.597 -17.136 -46.266  0.00  0.00     0.058 C 
ATOM     31  H10 5A9 d   1       6.948 -16.365 -45.825  0.00  0.00     0.064 H 
ATOM     32  H11 5A9 d   1       8.602 -16.720 -46.428  0.00  0.00     0.064 H 
BRANCH  30  33
ATOM     33  CAJ 5A9 d   1       7.012 -17.591 -47.605  0.00  0.00     0.227 C 
ATOM     34  NAK 5A9 d   1       7.805 -18.397 -48.325  0.00  0.00    -0.360 N 
ATOM     35  H9  5A9 d   1       8.702 -18.646 -47.960  0.00  0.00     0.162 HD
ATOM     36  OAB 5A9 d   1       5.894 -17.226 -47.965  0.00  0.00    -0.273 OA
BRANCH  34  37
ATOM     37  CAL 5A9 d   1       7.396 -18.925 -49.634  0.00  0.00    -0.001 C 
ATOM     38  H7  5A9 d   1       6.328 -19.185 -49.607  0.00  0.00     0.064 H 
ATOM     39  H8  5A9 d   1       7.568 -18.162 -50.407  0.00  0.00     0.064 H 
BRANCH  37  40
ATOM     40  CAM 5A9 d   1       8.217 -20.174 -49.960  0.00  0.00    -0.026 C 
ATOM     41  H5  5A9 d   1       7.664 -20.800 -50.676  0.00  0.00     0.042 H 
ATOM     42  H6  5A9 d   1       9.179 -19.875 -50.401  0.00  0.00     0.042 H 
BRANCH  40  43
ATOM     43  CAV 5A9 d   1       8.446 -20.896 -48.794  0.00  0.00    -0.055 A 
ATOM     44  CBC 5A9 d   1       9.715 -21.393 -48.523  0.00  0.00    -0.060 A 
ATOM     45  CBD 5A9 d   1       9.944 -22.115 -47.357  0.00  0.00     0.011 A 
ATOM     46  H1  5A9 d   1      10.526 -21.218 -49.220  0.00  0.00     0.086 H 
ATOM     47 BR   5A9 d   1      11.656 -22.786 -46.990  0.00  0.00    -0.051 Br
ATOM     48  CBE 5A9 d   1       8.903 -22.340 -46.463  0.00  0.00    -0.066 A 
ATOM     49  CAX 5A9 d   1       7.634 -21.842 -46.735  0.00  0.00    -0.081 A 
ATOM     50  H2  5A9 d   1       9.081 -22.904 -45.554  0.00  0.00     0.085 H 
ATOM     51  CAW 5A9 d   1       7.405 -21.121 -47.901  0.00  0.00    -0.077 A 
ATOM     52  H3  5A9 d   1       6.823 -22.016 -46.038  0.00  0.00     0.083 H 
ATOM     53  H4  5A9 d   1       6.415 -20.734 -48.114  0.00  0.00     0.084 H 
ENDBRANCH  40  43
ENDBRANCH  37  40
ENDBRANCH  34  37
ENDBRANCH  30  33
ENDBRANCH  29  30
ENDBRANCH  25  29
ENDBRANCH   9  16
BRANCH  10  54
ATOM     54  OAY 5A9 d   1      10.029 -17.869 -41.357  0.00  0.00    -0.388 OA
ATOM     55  H17 5A9 d   1       9.630 -17.113 -40.944  0.00  0.00     0.210 HD
ENDBRANCH  10  54
BRANCH  12  56
ATOM     56  OBF 5A9 d   1       8.199 -18.836 -39.993  0.00  0.00    -0.390 OA
ATOM     57  H19 5A9 d   1       8.249 -17.899 -39.846  0.00  0.00     0.210 HD
ENDBRANCH  12  56
ENDBRANCH   4   7
ENDBRANCH   1   4
TORSDOF 12
