REMARK  6 active torsions:
REMARK  status: ('A' for Active; 'I' for Inactive)
REMARK    1  A    between atoms: C6_2  and  C7_1 
REMARK    2  A    between atoms: C2_9  and  C14_17 
REMARK    3  A    between atoms: C3_10  and  N13_16 
REMARK    4  A    between atoms: C10_13  and  O24_24 
REMARK    5  A    between atoms: C17_19  and  S20_20 
REMARK    6  A    between atoms: S20_20  and  C23_23 
ROOT
ATOM      1  C6  5DF d   1      74.302  51.463  20.538  0.00  0.00    -0.007 A 
ATOM      2  C1  5DF d   1      75.363  51.167  19.648  0.00  0.00    -0.056 A 
ATOM      3  C2  5DF d   1      75.640  52.066  18.599  0.00  0.00     0.020 A 
ATOM      4  C3  5DF d   1      74.805  53.214  18.451  0.00  0.00     0.132 A 
ATOM      5  N4  5DF d   1      73.798  53.428  19.302  0.00  0.00    -0.242 NA
ATOM      6  C5  5DF d   1      73.531  52.615  20.316  0.00  0.00     0.015 A 
ATOM      7  H6  5DF d   1      75.951  50.265  19.771  0.00  0.00     0.086 H 
ATOM      8  H7  5DF d   1      72.707  52.843  20.982  0.00  0.00     0.116 H 
ENDROOT
BRANCH   3   9
ATOM      9  C14 5DF d   1      76.772  51.789  17.649  0.00  0.00    -0.022 A 
ATOM     10  C19 5DF d   1      77.725  52.771  17.375  0.00  0.00    -0.071 A 
ATOM     11  C18 5DF d   1      78.775  52.499  16.520  0.00  0.00    -0.061 A 
ATOM     12  H5  5DF d   1      77.641  53.749  17.834  0.00  0.00     0.084 H 
ATOM     13  C17 5DF d   1      78.854  51.276  15.871  0.00  0.00     0.058 A 
ATOM     14  H3  5DF d   1      79.543  53.246  16.355  0.00  0.00     0.085 H 
ATOM     15  C16 5DF d   1      77.921  50.294  16.150  0.00  0.00    -0.061 A 
ATOM     16  C15 5DF d   1      76.900  50.531  17.055  0.00  0.00    -0.071 A 
ATOM     17  H4  5DF d   1      77.990  49.331  15.656  0.00  0.00     0.085 H 
ATOM     18  H12 5DF d   1      76.200  49.741  17.302  0.00  0.00     0.084 H 
BRANCH  13  19
ATOM     19  S20 5DF d   1      80.161  50.977  14.687  0.00  0.00     0.171 S 
ATOM     20  O21 5DF d   1      81.337  50.959  15.471  0.00  0.00    -0.223 OA
ATOM     21  O22 5DF d   1      79.754  49.817  13.974  0.00  0.00    -0.223 OA
BRANCH  19  22
ATOM     22  C23 5DF d   1      80.158  52.443  13.589  0.00  0.00     0.020 C 
ATOM     23  H13 5DF d   1      80.943  52.332  12.827  0.00  0.00     0.049 H 
ATOM     24  H14 5DF d   1      80.351  53.347  14.184  0.00  0.00     0.049 H 
ATOM     25  H15 5DF d   1      79.178  52.530  13.097  0.00  0.00     0.049 H 
ENDBRANCH  19  22
ENDBRANCH  13  19
ENDBRANCH   3   9
BRANCH   4  26
ATOM     26  N13 5DF d   1      74.979  54.096  17.389  0.00  0.00    -0.383 N 
ATOM     27  H10 5DF d   1      74.367  54.919  17.298  0.00  0.00     0.157 HD
ATOM     28  H11 5DF d   1      75.720  53.925  16.694  0.00  0.00     0.157 HD
ENDBRANCH   4  26
BRANCH   1  29
ATOM     29  C7  5DF d   1      73.964  50.532  21.657  0.00  0.00    -0.024 A 
ATOM     30  C8  5DF d   1      73.995  49.142  21.448  0.00  0.00    -0.070 A 
ATOM     31  C9  5DF d   1      73.616  48.284  22.462  0.00  0.00    -0.050 A 
ATOM     32  H2  5DF d   1      74.316  48.744  20.492  0.00  0.00     0.085 H 
ATOM     33  C10 5DF d   1      73.228  48.794  23.709  0.00  0.00     0.065 A 
ATOM     34  H1  5DF d   1      73.619  47.213  22.293  0.00  0.00     0.087 H 
ATOM     35  C11 5DF d   1      73.177  50.175  23.920  0.00  0.00    -0.050 A 
ATOM     36  C12 5DF d   1      73.505  51.041  22.890  0.00  0.00    -0.070 A 
ATOM     37  H8  5DF d   1      72.882  50.567  24.887  0.00  0.00     0.087 H 
ATOM     38  H9  5DF d   1      73.409  52.111  23.032  0.00  0.00     0.085 H 
BRANCH  33  39
ATOM     39  O24 5DF d   1      72.895  47.946  24.714  0.00  0.00    -0.361 OA
ATOM     40  H16 5DF d   1      72.981  47.049  24.412  0.00  0.00     0.217 HD
ENDBRANCH  33  39
ENDBRANCH   1  29
TORSDOF 6
