REMARK  5 active torsions:
REMARK  status: ('A' for Active; 'I' for Inactive)
REMARK    1  A    between atoms: C3_6  and  C15_15 
REMARK    2  A    between atoms: N7_9  and  C5_8 
REMARK    3  A    between atoms: N7_9  and  C8_10 
REMARK    4  A    between atoms: C12_12  and  N14_14 
REMARK    5  A    between atoms: C18_18  and  C25_24 
ROOT
ATOM      1  C2  5E6 d   1      23.692 -38.893   1.892  0.00  0.00    -0.053 A 
ATOM      2  C6  5E6 d   1      23.595 -38.278   4.155  0.00  0.00    -0.039 A 
ATOM      3  C1  5E6 d   1      23.751 -39.242   3.211  0.00  0.00    -0.077 A 
ATOM      4  C3  5E6 d   1      23.451 -37.601   1.547  0.00  0.00     0.090 A 
ATOM      5  N4  5E6 d   1      23.321 -36.716   2.482  0.00  0.00    -0.229 NA
ATOM      6  C5  5E6 d   1      23.388 -36.991   3.736  0.00  0.00     0.124 A 
ATOM      7  H3  5E6 d   1      23.837 -39.644   1.123  0.00  0.00     0.087 H 
ATOM      8  H6  5E6 d   1      23.633 -38.521   5.211  0.00  0.00     0.089 H 
ATOM      9  H7  5E6 d   1      23.920 -40.273   3.500  0.00  0.00     0.083 H 
ENDROOT
BRANCH   4  10
ATOM     10  C15 5E6 d   1      23.392 -37.207   0.125  0.00  0.00     0.118 A 
ATOM     11  C16 5E6 d   1      23.008 -35.912  -0.389  0.00  0.00     0.029 A 
ATOM     12  C17 5E6 d   1      22.605 -34.711   0.160  0.00  0.00    -0.040 A 
ATOM     13  C21 5E6 d   1      23.117 -36.000  -1.755  0.00  0.00     0.080 A 
ATOM     14  C18 5E6 d   1      22.323 -33.654  -0.665  0.00  0.00     0.069 A 
ATOM     15  H18 5E6 d   1      22.512 -34.605   1.235  0.00  0.00     0.088 H 
ATOM     16  N19 5E6 d   1      22.454 -33.785  -1.955  0.00  0.00    -0.258 NA
ATOM     17  C20 5E6 d   1      22.812 -34.894  -2.499  0.00  0.00     0.031 A 
ATOM     18  H19 5E6 d   1      22.874 -34.954  -3.580  0.00  0.00     0.118 H 
ATOM     19  N22 5E6 d   1      23.516 -37.243  -2.028  0.00  0.00    -0.275 N 
ATOM     20  N24 5E6 d   1      23.677 -37.940  -0.882  0.00  0.00    -0.171 NA
ATOM     21  H20 5E6 d   1      23.678 -37.617  -2.974  0.00  0.00     0.189 HD
BRANCH  14  22
ATOM     22  C25 5E6 d   1      21.889 -32.351  -0.136  0.00  0.00     0.010 A 
ATOM     23  C26 5E6 d   1      22.011 -32.016   1.201  0.00  0.00    -0.068 A 
ATOM     24  C27 5E6 d   1      21.590 -30.786   1.609  0.00  0.00    -0.065 A 
ATOM     25  H21 5E6 d   1      22.433 -32.719   1.910  0.00  0.00     0.085 H 
ATOM     26  C28 5E6 d   1      21.076 -29.927   0.681  0.00  0.00     0.002 A 
ATOM     27  H22 5E6 d   1      21.662 -30.495   2.651  0.00  0.00     0.085 H 
ATOM     28  N29 5E6 d   1      20.973 -30.268  -0.567  0.00  0.00    -0.272 NA
ATOM     29  H23 5E6 d   1      20.748 -28.942   0.992  0.00  0.00     0.114 H 
ATOM     30  C30 5E6 d   1      21.359 -31.418  -0.997  0.00  0.00     0.014 A 
ATOM     31  H24 5E6 d   1      21.265 -31.654  -2.051  0.00  0.00     0.116 H 
ENDBRANCH  14  22
ENDBRANCH   4  10
BRANCH   6  32
ATOM     32  N7  5E6 d   1      23.263 -35.977   4.652  0.00  0.00    -0.370 N 
ATOM     33  H8  5E6 d   1      23.337 -36.175   5.660  0.00  0.00     0.161 HD
BRANCH  32  34
ATOM     34  C8  5E6 d   1      23.027 -34.629   4.190  0.00  0.00     0.013 C 
ATOM     35  C9  5E6 d   1      21.569 -34.256   4.281  0.00  0.00    -0.046 C 
ATOM     36  C10 5E6 d   1      21.196 -34.068   5.729  0.00  0.00    -0.061 C 
ATOM     37  H1  5E6 d   1      21.394 -33.320   3.731  0.00  0.00     0.035 H 
ATOM     38  H2  5E6 d   1      20.956 -35.058   3.844  0.00  0.00     0.035 H 
ATOM     39  C11 5E6 d   1      22.003 -32.901   6.252  0.00  0.00    -0.038 C 
ATOM     40  H4  5E6 d   1      21.434 -34.977   6.301  0.00  0.00     0.033 H 
ATOM     41  H5  5E6 d   1      20.121 -33.852   5.816  0.00  0.00     0.033 H 
ATOM     42  C12 5E6 d   1      23.504 -33.165   6.220  0.00  0.00     0.102 C 
ATOM     43  H10 5E6 d   1      21.702 -32.702   7.291  0.00  0.00     0.036 H 
ATOM     44  H11 5E6 d   1      21.787 -32.018   5.633  0.00  0.00     0.036 H 
ATOM     45  C13 5E6 d   1      23.926 -33.576   4.828  0.00  0.00    -0.020 C 
ATOM     46  H12 5E6 d   1      23.725 -33.990   6.913  0.00  0.00     0.083 H 
ATOM     47  H13 5E6 d   1      23.919 -32.682   4.187  0.00  0.00     0.039 H 
ATOM     48  H14 5E6 d   1      24.947 -33.981   4.882  0.00  0.00     0.039 H 
ATOM     49  H9  5E6 d   1      23.280 -34.630   3.119  0.00  0.00     0.072 H 
BRANCH  42  50
ATOM     50  N14 5E6 d   1      24.263 -31.992   6.645  0.00  0.00    -0.075 N 
ATOM     51  H15 5E6 d   1      23.976 -31.724   7.574  0.00  0.00     0.274 HD
ATOM     52  H16 5E6 d   1      24.090 -31.231   6.007  0.00  0.00     0.274 HD
ATOM     53  H17 5E6 d   1      25.247 -32.211   6.648  0.00  0.00     0.274 HD
ENDBRANCH  42  50
ENDBRANCH  32  34
ENDBRANCH   6  32
TORSDOF 5
