REMARK WARNING: 32 MAX_TORS EXCEEDED!!!
REMARK  74 active torsions:
REMARK  status: ('A' for Active; 'I' for Inactive)
REMARK    1  A    between atoms: N_1  and  CA_2 
REMARK    2  A    between atoms: CA_2  and  C_3 
REMARK    3  A    between atoms: CA_2  and  CB_5 
REMARK       I    between atoms: C_3  and  N_12 
REMARK    4  A    between atoms: CB_5  and  CG_6 
REMARK    5  A    between atoms: CG_6  and  CD_7 
REMARK    6  A    between atoms: CD_7  and  NE_8 
REMARK       I    between atoms: NE_8  and  CZ_9 
REMARK       I    between atoms: CZ_9  and  NH1_10 
REMARK    7  A    between atoms: N_12  and  CA_13 
REMARK    8  A    between atoms: CA_13  and  C_14 
REMARK    9  A    between atoms: CA_13  and  CB_16 
REMARK       I    between atoms: C_14  and  N_19 
REMARK   10  A    between atoms: CB_16  and  OG1_17 
REMARK   11  A    between atoms: CB_16  and  CG2_18 
REMARK   12  A    between atoms: N_19  and  CA_20 
REMARK   13  A    between atoms: CA_20  and  C_21 
REMARK   14  A    between atoms: CA_20  and  CB_23 
REMARK       I    between atoms: C_21  and  N_30 
REMARK   15  A    between atoms: CB_23  and  CG_24 
REMARK   16  A    between atoms: N_30  and  CA_31 
REMARK   17  A    between atoms: CA_31  and  C_32 
REMARK   18  A    between atoms: CA_31  and  CB_34 
REMARK       I    between atoms: C_32  and  N_38 
REMARK   19  A    between atoms: CB_34  and  CG_35 
REMARK   20  A    between atoms: N_38  and  CA_39 
REMARK   21  A    between atoms: CA_39  and  C_40 
REMARK   22  A    between atoms: CA_39  and  CB_42 
REMARK       I    between atoms: C_40  and  N_46 
REMARK   23  A    between atoms: CB_42  and  CG_43 
REMARK   24  A    between atoms: CG_43  and  SD_44 
REMARK   25  A    between atoms: SD_44  and  CE_45 
REMARK   26  A    between atoms: N_46  and  CA_47 
REMARK   27  A    between atoms: CA_47  and  C_48 
REMARK   28  A    between atoms: CA_47  and  CB_50 
REMARK       I    between atoms: C_48  and  N_56 
REMARK   29  A    between atoms: CB_50  and  CG_51 
REMARK   30  A    between atoms: N_56  and  CA_57 
REMARK   31  A    between atoms: CA_57  and  C_58 
REMARK   32  A    between atoms: CA_57  and  CB_60 
REMARK       I    between atoms: C_58  and  N_62 
REMARK   33  A    between atoms: CB_60  and  OG_61 
REMARK   34  A    between atoms: N_62  and  CA_63 
REMARK   35  A    between atoms: CA_63  and  C_64 
REMARK   36  A    between atoms: CA_63  and  CB_66 
REMARK       I    between atoms: C_64  and  N_70 
REMARK   37  A    between atoms: CB_66  and  CG_67 
REMARK   38  A    between atoms: CG_67  and  CD1_68 
REMARK   39  A    between atoms: CG_67  and  CD2_69 
REMARK   40  A    between atoms: N_70  and  CA_71 
REMARK   41  A    between atoms: CA_71  and  C_72 
REMARK   42  A    between atoms: CA_71  and  CB_74 
REMARK       I    between atoms: C_72  and  N_79 
REMARK   43  A    between atoms: CB_74  and  CG_75 
REMARK   44  A    between atoms: CG_75  and  CD_76 
REMARK   45  A    between atoms: N_79  and  CA_80 
REMARK   46  A    between atoms: CA_80  and  C_81 
REMARK   47  A    between atoms: CA_80  and  CB_83 
REMARK       I    between atoms: C_81  and  N_85 
REMARK   48  A    between atoms: CB_83  and  OG_84 
REMARK   49  A    between atoms: N_85  and  CA_86 
REMARK   50  A    between atoms: CA_86  and  C_87 
REMARK   51  A    between atoms: CA_86  and  CB_89 
REMARK       I    between atoms: C_87  and  N_91 
REMARK   52  A    between atoms: CB_89  and  OG_90 
REMARK   53  A    between atoms: N_91  and  CA_92 
REMARK   54  A    between atoms: CA_92  and  C_93 
REMARK   55  A    between atoms: CA_92  and  CB_95 
REMARK       I    between atoms: C_93  and  N_99 
REMARK   56  A    between atoms: CB_95  and  CG_96 
REMARK   57  A    between atoms: CG_96  and  CD1_97 
REMARK   58  A    between atoms: CG_96  and  CD2_98 
REMARK   59  A    between atoms: N_99  and  CA_100 
REMARK   60  A    between atoms: CA_100  and  C_101 
REMARK   61  A    between atoms: CA_100  and  CB_103 
REMARK       I    between atoms: C_101  and  N_107 
REMARK   62  A    between atoms: CB_103  and  CG1_104 
REMARK   63  A    between atoms: CB_103  and  CG2_105 
REMARK   64  A    between atoms: CG1_104  and  CD1_106 
REMARK   65  A    between atoms: N_107  and  CA_108 
REMARK   66  A    between atoms: CA_108  and  C_109 
REMARK   67  A    between atoms: CA_108  and  CB_111 
REMARK       I    between atoms: C_109  and  N_115 
REMARK   68  A    between atoms: CB_111  and  CG_112 
REMARK   69  A    between atoms: N_115  and  CA_116 
REMARK   70  A    between atoms: CA_116  and  C_117 
REMARK   71  A    between atoms: CA_116  and  CB_119 
REMARK   72  A    between atoms: CB_119  and  CG1_120 
REMARK   73  A    between atoms: CB_119  and  CG2_121 
REMARK   74  A    between atoms: CG1_120  and  CD1_122 
ROOT
ATOM      1  CA  LEU d   1     -39.767  73.203  27.387  0.00  0.00     0.089 C 
ATOM      2  H58 LEU d   1     -40.273  72.441  26.775  0.00  0.00     0.087 H 
ENDROOT
BRANCH   1   3
ATOM      3  N   LEU d   1     -39.539  74.382  26.555  0.00  0.00    -0.346 N 
ATOM      4  C   SER d   1     -40.526  74.947  25.866  0.00  0.00     0.243 C 
ATOM      5  O   SER d   1     -41.675  74.502  25.855  0.00  0.00    -0.271 OA
ATOM      6  H57 LEU d   1     -38.620  74.773  26.503  0.00  0.00     0.163 HD
BRANCH   4   7
ATOM      7  CA  SER d   1     -40.172  76.207  25.077  0.00  0.00     0.109 C 
ATOM      8  H53 SER d   1     -41.099  76.767  24.883  0.00  0.00     0.090 H 
BRANCH   7   9
ATOM      9  N   SER d   1     -39.273  77.057  25.846  0.00  0.00    -0.344 N 
ATOM     10  C   HIS d   1     -39.618  77.538  27.036  0.00  0.00     0.241 C 
ATOM     11  O   HIS d   1     -40.728  77.356  27.535  0.00  0.00    -0.271 OA
ATOM     12  H52 SER d   1     -38.375  77.284  25.470  0.00  0.00     0.163 HD
BRANCH  10  13
ATOM     13  CA  HIS d   1     -38.551  78.345  27.772  0.00  0.00     0.094 C 
ATOM     14  H46 HIS d   1     -38.705  78.217  28.854  0.00  0.00     0.088 H 
BRANCH  13  15
ATOM     15  N   HIS d   1     -37.210  77.870  27.443  0.00  0.00    -0.346 N 
ATOM     16  C   MET d   1     -36.841  76.617  27.689  0.00  0.00     0.241 C 
ATOM     17  O   MET d   1     -37.610  75.775  28.150  0.00  0.00    -0.271 OA
ATOM     18  H45 HIS d   1     -36.556  78.500  27.024  0.00  0.00     0.163 HD
BRANCH  16  19
ATOM     19  CA  MET d   1     -35.395  76.249  27.378  0.00  0.00     0.090 C 
ATOM     20  H37 MET d   1     -35.379  75.683  26.435  0.00  0.00     0.087 H 
BRANCH  19  21
ATOM     21  N   MET d   1     -34.548  77.425  27.217  0.00  0.00    -0.346 N 
ATOM     22  C   ASP d   1     -34.241  77.916  26.020  0.00  0.00     0.241 C 
ATOM     23  O   ASP d   1     -34.747  77.510  24.972  0.00  0.00    -0.271 OA
ATOM     24  H36 MET d   1     -34.187  77.877  28.033  0.00  0.00     0.163 HD
BRANCH  22  25
ATOM     25  CA  ASP d   1     -33.208  79.035  26.003  0.00  0.00     0.098 C 
ATOM     26  H33 ASP d   1     -32.983  79.327  27.039  0.00  0.00     0.088 H 
BRANCH  25  27
ATOM     27  N   ASP d   1     -31.986  78.542  25.379  0.00  0.00    -0.345 N 
ATOM     28  C   PHE d   1     -31.106  77.822  26.069  0.00  0.00     0.241 C 
ATOM     29  O   PHE d   1     -31.215  77.619  27.278  0.00  0.00    -0.271 OA
ATOM     30  H32 ASP d   1     -31.807  78.749  24.417  0.00  0.00     0.163 HD
BRANCH  28  31
ATOM     31  CA  PHE d   1     -29.929  77.242  25.287  0.00  0.00     0.093 C 
ATOM     32  H24 PHE d   1     -30.184  76.211  25.000  0.00  0.00     0.088 H 
BRANCH  31  33
ATOM     33  N   PHE d   1     -29.659  77.998  24.069  0.00  0.00    -0.346 N 
ATOM     34  C   THR d   1     -30.122  77.616  22.883  0.00  0.00     0.243 C 
ATOM     35  O   THR d   1     -30.845  76.630  22.728  0.00  0.00    -0.271 OA
ATOM     36  H23 PHE d   1     -29.108  78.830  24.128  0.00  0.00     0.163 HD
BRANCH  34  37
ATOM     37  CA  THR d   1     -29.720  78.480  21.690  0.00  0.00     0.113 C 
ATOM     38  H17 THR d   1     -30.396  78.252  20.853  0.00  0.00     0.091 H 
BRANCH  37  39
ATOM     39  N   THR d   1     -29.847  79.900  21.996  0.00  0.00    -0.344 N 
ATOM     40  C   ARG d   1     -31.024  80.455  22.268  0.00  0.00     0.249 C 
ATOM     41  O   ARG d   1     -32.083  79.825  22.269  0.00  0.00    -0.271 OA
ATOM     42  H16 THR d   1     -29.027  80.472  22.001  0.00  0.00     0.163 HD
BRANCH  40  43
ATOM     43  CA  ARG d   1     -30.998  81.949  22.582  0.00  0.00     0.176 C 
ATOM     44  H4  ARG d   1     -31.983  82.243  22.975  0.00  0.00     0.099 H 
BRANCH  43  45
ATOM     45  N   ARG d   1     -29.990  82.240  23.594  0.00  0.00    -0.067 N 
ATOM     46  H1  ARG d   1     -29.986  83.229  23.790  0.00  0.00     0.275 HD
ATOM     47  H2  ARG d   1     -29.083  81.961  23.255  0.00  0.00     0.275 HD
ATOM     48  H3  ARG d   1     -30.204  81.732  24.438  0.00  0.00     0.275 HD
ENDBRANCH  43  45
BRANCH  43  49
ATOM     49  CB  ARG d   1     -30.724  82.746  21.306  0.00  0.00    -0.029 C 
ATOM     50  H5  ARG d   1     -29.935  82.231  20.739  0.00  0.00     0.036 H 
ATOM     51  H6  ARG d   1     -30.375  83.749  21.593  0.00  0.00     0.036 H 
BRANCH  49  52
ATOM     52  CG  ARG d   1     -31.937  82.902  20.404  0.00  0.00    -0.047 C 
ATOM     53  H7  ARG d   1     -32.487  83.808  20.700  0.00  0.00     0.035 H 
ATOM     54  H8  ARG d   1     -32.587  82.022  20.525  0.00  0.00     0.035 H 
BRANCH  52  55
ATOM     55  CD  ARG d   1     -31.540  83.023  18.943  0.00  0.00     0.009 C 
ATOM     56  H9  ARG d   1     -30.834  83.859  18.833  0.00  0.00     0.064 H 
ATOM     57  H10 ARG d   1     -32.441  83.223  18.344  0.00  0.00     0.064 H 
BRANCH  55  58
ATOM     58  NE  ARG d   1     -30.907  81.800  18.454  0.00  0.00    -0.227 N 
ATOM     59  CZ  ARG d   1     -31.568  80.697  18.113  0.00  0.00     0.665 C 
ATOM     60  NH1 ARG d   1     -32.891  80.651  18.208  0.00  0.00    -0.235 N 
ATOM     61  NH2 ARG d   1     -30.903  79.634  17.682  0.00  0.00    -0.235 N 
ATOM     62  H12 ARG d   1     -33.397  79.794  17.942  0.00  0.00     0.174 HD
ATOM     63  H13 ARG d   1     -33.412  81.472  18.547  0.00  0.00     0.174 HD
ATOM     64  H14 ARG d   1     -29.876  79.665  17.607  0.00  0.00     0.174 HD
ATOM     65  H15 ARG d   1     -31.413  78.778  17.423  0.00  0.00     0.174 HD
ATOM     66  H11 ARG d   1     -29.881  81.791  18.368  0.00  0.00     0.177 HD
ENDBRANCH  55  58
ENDBRANCH  52  55
ENDBRANCH  49  52
ENDBRANCH  43  49
ENDBRANCH  40  43
ENDBRANCH  37  39
BRANCH  37  67
ATOM     67  CB  THR d   1     -28.276  78.116  21.263  0.00  0.00     0.060 C 
ATOM     68  H18 THR d   1     -28.055  78.616  20.308  0.00  0.00     0.086 H 
BRANCH  67  69
ATOM     69  OG1 THR d   1     -28.170  76.698  21.084  0.00  0.00    -0.393 OA
ATOM     70  H19 THR d   1     -27.284  76.478  20.822  0.00  0.00     0.210 HD
ENDBRANCH  67  69
BRANCH  67  71
ATOM     71  CG2 THR d   1     -27.251  78.571  22.303  0.00  0.00    -0.050 C 
ATOM     72  H20 THR d   1     -26.240  78.296  21.966  0.00  0.00     0.031 H 
ATOM     73  H21 THR d   1     -27.463  78.082  23.265  0.00  0.00     0.031 H 
ATOM     74  H22 THR d   1     -27.312  79.662  22.425  0.00  0.00     0.031 H 
ENDBRANCH  67  71
ENDBRANCH  37  67
ENDBRANCH  34  37
ENDBRANCH  31  33
BRANCH  31  75
ATOM     75  CB  PHE d   1     -28.678  77.203  26.173  0.00  0.00    -0.014 C 
ATOM     76  H25 PHE d   1     -28.962  76.794  27.154  0.00  0.00     0.043 H 
ATOM     77  H26 PHE d   1     -28.310  78.232  26.297  0.00  0.00     0.043 H 
BRANCH  75  78
ATOM     78  CG  PHE d   1     -27.560  76.364  25.616  0.00  0.00    -0.056 A 
ATOM     79  CD1 PHE d   1     -27.802  75.090  25.128  0.00  0.00    -0.077 A 
ATOM     80  CE1 PHE d   1     -26.773  74.319  24.618  0.00  0.00    -0.082 A 
ATOM     81  H27 PHE d   1     -28.810  74.692  25.146  0.00  0.00     0.084 H 
ATOM     82  CZ  PHE d   1     -25.487  74.818  24.592  0.00  0.00    -0.083 A 
ATOM     83  H29 PHE d   1     -26.977  73.324  24.239  0.00  0.00     0.083 H 
ATOM     84  CE2 PHE d   1     -25.232  76.085  25.075  0.00  0.00    -0.082 A 
ATOM     85  H31 PHE d   1     -24.679  74.216  24.193  0.00  0.00     0.083 H 
ATOM     86  CD2 PHE d   1     -26.264  76.851  25.584  0.00  0.00    -0.077 A 
ATOM     87  H30 PHE d   1     -24.223  76.480  25.055  0.00  0.00     0.083 H 
ATOM     88  H28 PHE d   1     -26.056  77.845  25.963  0.00  0.00     0.084 H 
ENDBRANCH  75  78
ENDBRANCH  31  75
ENDBRANCH  28  31
ENDBRANCH  25  27
BRANCH  25  89
ATOM     89  CB  ASP d   1     -33.754  80.258  25.264  0.00  0.00     0.043 C 
ATOM     90  H34 ASP d   1     -34.087  79.946  24.263  0.00  0.00     0.052 H 
ATOM     91  H35 ASP d   1     -32.949  81.001  25.167  0.00  0.00     0.052 H 
BRANCH  89  92
ATOM     92  CG  ASP d   1     -34.923  80.899  25.989  0.00  0.00     0.175 C 
ATOM     93  OD1 ASP d   1     -34.683  81.752  26.869  0.00  0.00    -0.648 OA
ATOM     94  OD2 ASP d   1     -36.082  80.548  25.681  0.00  0.00    -0.648 OA
ENDBRANCH  89  92
ENDBRANCH  25  89
ENDBRANCH  22  25
ENDBRANCH  19  21
BRANCH  19  95
ATOM     95  CB  MET d   1     -34.846  75.358  28.494  0.00  0.00    -0.030 C 
ATOM     96  H38 MET d   1     -35.432  74.427  28.511  0.00  0.00     0.037 H 
ATOM     97  H39 MET d   1     -34.971  75.887  29.450  0.00  0.00     0.037 H 
BRANCH  95  98
ATOM     98  CG  MET d   1     -33.376  74.993  28.341  0.00  0.00    -0.021 C 
ATOM     99  H40 MET d   1     -33.082  74.367  29.196  0.00  0.00     0.049 H 
ATOM    100  H41 MET d   1     -32.785  75.921  28.345  0.00  0.00     0.049 H 
BRANCH  98 101
ATOM    101  SD  MET d   1     -33.013  74.090  26.821  0.00  0.00    -0.173 SA
BRANCH 101 102
ATOM    102  CE  MET d   1     -34.028  72.630  27.029  0.00  0.00    -0.035 C 
ATOM    103  H42 MET d   1     -33.906  71.971  26.157  0.00  0.00     0.041 H 
ATOM    104  H43 MET d   1     -35.083  72.927  27.119  0.00  0.00     0.041 H 
ATOM    105  H44 MET d   1     -33.719  72.095  27.939  0.00  0.00     0.041 H 
ENDBRANCH 101 102
ENDBRANCH  98 101
ENDBRANCH  95  98
ENDBRANCH  19  95
ENDBRANCH  16  19
ENDBRANCH  13  15
BRANCH  13 106
ATOM    106  CB  HIS d   1     -38.694  79.829  27.435  0.00  0.00     0.004 C 
ATOM    107  H47 HIS d   1     -38.870  79.924  26.353  0.00  0.00     0.046 H 
ATOM    108  H48 HIS d   1     -37.755  80.337  27.700  0.00  0.00     0.046 H 
BRANCH 106 109
ATOM    109  CG  HIS d   1     -39.818  80.505  28.158  0.00  0.00     0.053 A 
ATOM    110  ND1 HIS d   1     -40.805  79.807  28.822  0.00  0.00    -0.247 NA
ATOM    111  CE1 HIS d   1     -41.655  80.660  29.365  0.00  0.00     0.064 A 
ATOM    112  NE2 HIS d   1     -41.254  81.886  29.081  0.00  0.00    -0.359 N 
ATOM    113  H50 HIS d   1     -42.537  80.397  29.948  0.00  0.00     0.143 H 
ATOM    114  CD2 HIS d   1     -40.107  81.817  28.328  0.00  0.00     0.002 A 
ATOM    115  H51 HIS d   1     -41.725  82.753  29.376  0.00  0.00     0.166 HD
ATOM    116  H49 HIS d   1     -39.537  82.660  27.940  0.00  0.00     0.114 H 
ENDBRANCH 106 109
ENDBRANCH  13 106
ENDBRANCH  10  13
ENDBRANCH   7   9
BRANCH   7 117
ATOM    117  CB  SER d   1     -39.539  75.837  23.733  0.00  0.00     0.044 C 
ATOM    118  H54 SER d   1     -39.462  76.742  23.112  0.00  0.00     0.077 H 
ATOM    119  H55 SER d   1     -40.178  75.099  23.227  0.00  0.00     0.077 H 
BRANCH 117 120
ATOM    120  OG  SER d   1     -38.245  75.285  23.907  0.00  0.00    -0.398 OA
ATOM    121  H56 SER d   1     -37.879  75.066  23.058  0.00  0.00     0.209 HD
ENDBRANCH 117 120
ENDBRANCH   7 117
ENDBRANCH   4   7
ENDBRANCH   1   3
BRANCH   1 122
ATOM    122  C   LEU d   1     -40.665  73.546  28.573  0.00  0.00     0.241 C 
ATOM    123  O   LEU d   1     -41.558  72.777  28.926  0.00  0.00    -0.271 OA
ATOM    124  N   GLU d   1     -40.418  74.701  29.183  0.00  0.00    -0.346 N 
ATOM    125  H68 GLU d   1     -39.664  75.271  28.857  0.00  0.00     0.163 HD
BRANCH 124 126
ATOM    126  CA  GLU d   1     -41.216  75.161  30.315  0.00  0.00     0.090 C 
ATOM    127  H69 GLU d   1     -41.110  74.430  31.130  0.00  0.00     0.087 H 
BRANCH 126 128
ATOM    128  C   GLU d   1     -42.691  75.266  29.948  0.00  0.00     0.241 C 
ATOM    129  O   GLU d   1     -43.547  74.686  30.617  0.00  0.00    -0.271 OA
ATOM    130  N   SER d   1     -42.975  76.010  28.883  0.00  0.00    -0.344 N 
ATOM    131  H74 SER d   1     -42.223  76.407  28.357  0.00  0.00     0.163 HD
BRANCH 130 132
ATOM    132  CA  SER d   1     -44.346  76.267  28.456  0.00  0.00     0.109 C 
ATOM    133  H75 SER d   1     -44.865  76.799  29.267  0.00  0.00     0.090 H 
BRANCH 132 134
ATOM    134  C   SER d   1     -45.098  74.973  28.174  0.00  0.00     0.243 C 
ATOM    135  O   SER d   1     -46.274  74.840  28.506  0.00  0.00    -0.271 OA
ATOM    136  N   SER d   1     -44.409  74.019  27.559  0.00  0.00    -0.344 N 
ATOM    137  H79 SER d   1     -43.452  74.184  27.320  0.00  0.00     0.163 HD
BRANCH 136 138
ATOM    138  CA  SER d   1     -45.013  72.739  27.224  0.00  0.00     0.109 C 
ATOM    139  H80 SER d   1     -45.971  72.928  26.717  0.00  0.00     0.090 H 
BRANCH 138 140
ATOM    140  C   SER d   1     -45.284  71.925  28.481  0.00  0.00     0.243 C 
ATOM    141  O   SER d   1     -46.208  71.111  28.522  0.00  0.00    -0.271 OA
ATOM    142  N   LEU d   1     -44.473  72.153  29.507  0.00  0.00    -0.346 N 
ATOM    143  H84 LEU d   1     -43.774  72.864  29.428  0.00  0.00     0.163 HD
BRANCH 142 144
ATOM    144  CA  LEU d   1     -44.577  71.393  30.744  0.00  0.00     0.089 C 
ATOM    145  H85 LEU d   1     -44.877  70.364  30.496  0.00  0.00     0.087 H 
BRANCH 144 146
ATOM    146  C   LEU d   1     -45.640  71.995  31.659  0.00  0.00     0.241 C 
ATOM    147  O   LEU d   1     -46.357  71.270  32.345  0.00  0.00    -0.271 OA
ATOM    148  N   ILE d   1     -45.741  73.321  31.662  0.00  0.00    -0.346 N 
ATOM    149  H95 ILE d   1     -45.077  73.862  31.145  0.00  0.00     0.163 HD
BRANCH 148 150
ATOM    150  CA  ILE d   1     -46.796  74.007  32.401  0.00  0.00     0.092 C 
ATOM    151  H96 ILE d   1     -46.779  73.649  33.441  0.00  0.00     0.088 H 
BRANCH 150 152
ATOM    152  C   ILE d   1     -48.157  73.683  31.792  0.00  0.00     0.241 C 
ATOM    153  O   ILE d   1     -49.155  73.562  32.503  0.00  0.00    -0.271 OA
ATOM    154  N   ASP d   1     -48.185  73.540  30.470  0.00  0.00    -0.345 N 
ATOM    155 6H10 ASP d   1     -47.331  73.626  29.957  0.00  0.00     0.163 HD
BRANCH 154 156
ATOM    156  CA  ASP d   1     -49.419  73.262  29.741  0.00  0.00     0.098 C 
ATOM    157 7H10 ASP d   1     -50.127  74.079  29.944  0.00  0.00     0.088 H 
BRANCH 156 158
ATOM    158  C   ASP d   1     -50.069  71.950  30.182  0.00  0.00     0.241 C 
ATOM    159  O   ASP d   1     -51.255  71.726  29.939  0.00  0.00    -0.271 OA
ATOM    160  N   ILE d   1     -49.288  71.088  30.828  0.00  0.00    -0.344 N 
ATOM    161 0H11 ILE d   1     -48.338  71.339  31.013  0.00  0.00     0.163 HD
BRANCH 160 162
ATOM    162  CA  ILE d   1     -49.776  69.788  31.274  0.00  0.00     0.099 C 
ATOM    163 1H11 ILE d   1     -50.096  69.222  30.387  0.00  0.00     0.090 H 
BRANCH 162 164
ATOM    164  C   ILE d   1     -50.973  69.936  32.210  0.00  0.00     0.197 C 
ATOM    165  O   ILE d   1     -51.074  70.908  32.959  0.00  0.00    -0.646 OA
ATOM    166  OXT ILE d   1     -51.864  69.087  32.237  0.00  0.00    -0.646 OA
ENDBRANCH 162 164
BRANCH 162 167
ATOM    167  CB  ILE d   1     -48.663  68.985  31.991  0.00  0.00    -0.029 C 
ATOM    168 2H11 ILE d   1     -47.715  69.175  31.467  0.00  0.00     0.043 H 
BRANCH 167 169
ATOM    169  CG1 ILE d   1     -48.956  67.485  31.915  0.00  0.00    -0.063 C 
ATOM    170 3H11 ILE d   1     -49.142  67.220  30.864  0.00  0.00     0.033 H 
ATOM    171 4H11 ILE d   1     -49.857  67.276  32.511  0.00  0.00     0.033 H 
BRANCH 169 172
ATOM    172  CD1 ILE d   1     -47.828  66.619  32.434  0.00  0.00    -0.076 C 
ATOM    173 8H11 ILE d   1     -48.110  65.559  32.348  0.00  0.00     0.027 H 
ATOM    174 9H11 ILE d   1     -47.635  66.862  33.489  0.00  0.00     0.027 H 
ATOM    175 0H12 ILE d   1     -46.920  66.806  31.842  0.00  0.00     0.027 H 
ENDBRANCH 169 172
ENDBRANCH 167 169
BRANCH 167 176
ATOM    176  CG2 ILE d   1     -48.496  69.441  33.450  0.00  0.00    -0.070 C 
ATOM    177 5H11 ILE d   1     -48.287  70.521  33.475  0.00  0.00     0.028 H 
ATOM    178 6H11 ILE d   1     -47.660  68.895  33.911  0.00  0.00     0.028 H 
ATOM    179 7H11 ILE d   1     -49.422  69.234  34.007  0.00  0.00     0.028 H 
ENDBRANCH 167 176
ENDBRANCH 162 167
ENDBRANCH 160 162
ENDBRANCH 156 158
BRANCH 156 180
ATOM    180  CB  ASP d   1     -49.138  73.224  28.236  0.00  0.00     0.043 C 
ATOM    181 8H10 ASP d   1     -48.426  72.411  28.031  0.00  0.00     0.052 H 
ATOM    182 9H10 ASP d   1     -48.694  74.185  27.937  0.00  0.00     0.052 H 
BRANCH 180 183
ATOM    183  CG  ASP d   1     -50.391  72.991  27.412  0.00  0.00     0.175 C 
ATOM    184  OD1 ASP d   1     -51.057  73.983  27.048  0.00  0.00    -0.648 OA
ATOM    185  OD2 ASP d   1     -50.708  71.817  27.128  0.00  0.00    -0.648 OA
ENDBRANCH 180 183
ENDBRANCH 156 180
ENDBRANCH 154 156
ENDBRANCH 150 152
BRANCH 150 186
ATOM    186  CB  ILE d   1     -46.583  75.539  32.407  0.00  0.00    -0.030 C 
ATOM    187  H97 ILE d   1     -46.479  75.882  31.367  0.00  0.00     0.043 H 
BRANCH 186 188
ATOM    188  CG1 ILE d   1     -45.302  75.889  33.171  0.00  0.00    -0.063 C 
ATOM    189  H98 ILE d   1     -44.478  75.291  32.755  0.00  0.00     0.033 H 
ATOM    190  H99 ILE d   1     -45.449  75.625  34.229  0.00  0.00     0.033 H 
BRANCH 188 191
ATOM    191  CD1 ILE d   1     -44.910  77.356  33.096  0.00  0.00    -0.076 C 
ATOM    192 3H10 ILE d   1     -43.985  77.518  33.668  0.00  0.00     0.027 H 
ATOM    193 4H10 ILE d   1     -45.716  77.973  33.520  0.00  0.00     0.027 H 
ATOM    194 5H10 ILE d   1     -44.745  77.638  32.046  0.00  0.00     0.027 H 
ENDBRANCH 188 191
ENDBRANCH 186 188
BRANCH 186 195
ATOM    195  CG2 ILE d   1     -47.781  76.256  33.039  0.00  0.00    -0.071 C 
ATOM    196 0H10 ILE d   1     -48.696  75.999  32.485  0.00  0.00     0.028 H 
ATOM    197 1H10 ILE d   1     -47.621  77.344  32.998  0.00  0.00     0.028 H 
ATOM    198 2H10 ILE d   1     -47.886  75.940  34.087  0.00  0.00     0.028 H 
ENDBRANCH 186 195
ENDBRANCH 150 186
ENDBRANCH 148 150
ENDBRANCH 144 146
BRANCH 144 199
ATOM    199  CB  LEU d   1     -43.220  71.345  31.450  0.00  0.00    -0.035 C 
ATOM    200  H86 LEU d   1     -43.147  72.244  32.079  0.00  0.00     0.037 H 
ATOM    201  H87 LEU d   1     -42.444  71.379  30.671  0.00  0.00     0.037 H 
BRANCH 199 202
ATOM    202  CG  LEU d   1     -42.916  70.138  32.343  0.00  0.00    -0.059 C 
ATOM    203  H88 LEU d   1     -43.639  70.131  33.172  0.00  0.00     0.038 H 
BRANCH 202 204
ATOM    204  CD1 LEU d   1     -43.047  68.819  31.586  0.00  0.00    -0.073 C 
ATOM    205  H89 LEU d   1     -42.821  67.983  32.264  0.00  0.00     0.028 H 
ATOM    206  H90 LEU d   1     -42.341  68.809  30.743  0.00  0.00     0.028 H 
ATOM    207  H91 LEU d   1     -44.074  68.715  31.206  0.00  0.00     0.028 H 
ENDBRANCH 202 204
BRANCH 202 208
ATOM    208  CD2 LEU d   1     -41.517  70.272  32.920  0.00  0.00    -0.073 C 
ATOM    209  H92 LEU d   1     -41.434  71.225  33.463  0.00  0.00     0.028 H 
ATOM    210  H93 LEU d   1     -40.780  70.250  32.104  0.00  0.00     0.028 H 
ATOM    211  H94 LEU d   1     -41.324  69.438  33.611  0.00  0.00     0.028 H 
ENDBRANCH 202 208
ENDBRANCH 199 202
ENDBRANCH 144 199
ENDBRANCH 142 144
ENDBRANCH 138 140
BRANCH 138 212
ATOM    212  CB  SER d   1     -44.108  71.952  26.277  0.00  0.00     0.044 C 
ATOM    213  H81 SER d   1     -43.099  71.887  26.711  0.00  0.00     0.077 H 
ATOM    214  H82 SER d   1     -44.058  72.472  25.309  0.00  0.00     0.077 H 
BRANCH 212 215
ATOM    215  OG  SER d   1     -44.614  70.645  26.077  0.00  0.00    -0.398 OA
ATOM    216  H83 SER d   1     -45.484  70.698  25.700  0.00  0.00     0.209 HD
ENDBRANCH 212 215
ENDBRANCH 138 212
ENDBRANCH 136 138
ENDBRANCH 132 134
BRANCH 132 217
ATOM    217  CB  SER d   1     -44.354  77.152  27.209  0.00  0.00     0.044 C 
ATOM    218  H76 SER d   1     -45.395  77.376  26.933  0.00  0.00     0.077 H 
ATOM    219  H77 SER d   1     -43.863  76.615  26.384  0.00  0.00     0.077 H 
BRANCH 217 220
ATOM    220  OG  SER d   1     -43.666  78.368  27.444  0.00  0.00    -0.398 OA
ATOM    221  H78 SER d   1     -42.765  78.180  27.679  0.00  0.00     0.209 HD
ENDBRANCH 217 220
ENDBRANCH 132 217
ENDBRANCH 130 132
ENDBRANCH 126 128
BRANCH 126 222
ATOM    222  CB  GLU d   1     -40.722  76.522  30.811  0.00  0.00    -0.029 C 
ATOM    223  H70 GLU d   1     -41.346  76.822  31.666  0.00  0.00     0.037 H 
ATOM    224  H71 GLU d   1     -40.845  77.249  29.995  0.00  0.00     0.037 H 
BRANCH 222 225
ATOM    225  CG  GLU d   1     -39.268  76.549  31.254  0.00  0.00     0.018 C 
ATOM    226  H72 GLU d   1     -38.632  76.296  30.393  0.00  0.00     0.049 H 
ATOM    227  H73 GLU d   1     -39.127  75.800  32.047  0.00  0.00     0.049 H 
BRANCH 225 228
ATOM    228  CD  GLU d   1     -38.849  77.907  31.787  0.00  0.00     0.172 C 
ATOM    229  OE1 GLU d   1     -37.630  78.173  31.845  0.00  0.00    -0.648 OA
ATOM    230  OE2 GLU d   1     -39.738  78.706  32.153  0.00  0.00    -0.648 OA
ENDBRANCH 225 228
ENDBRANCH 222 225
ENDBRANCH 126 222
ENDBRANCH 124 126
ENDBRANCH   1 122
BRANCH   1 231
ATOM    231  CB  LEU d   1     -38.442  72.620  27.889  0.00  0.00    -0.035 C 
ATOM    232  H59 LEU d   1     -38.667  72.007  28.774  0.00  0.00     0.037 H 
ATOM    233  H60 LEU d   1     -37.801  73.465  28.182  0.00  0.00     0.037 H 
BRANCH 231 234
ATOM    234  CG  LEU d   1     -37.635  71.748  26.922  0.00  0.00    -0.059 C 
ATOM    235  H61 LEU d   1     -36.661  71.539  27.390  0.00  0.00     0.038 H 
BRANCH 234 236
ATOM    236  CD1 LEU d   1     -38.336  70.422  26.680  0.00  0.00    -0.073 C 
ATOM    237  H62 LEU d   1     -37.740  69.814  25.984  0.00  0.00     0.028 H 
ATOM    238  H63 LEU d   1     -39.330  70.606  26.247  0.00  0.00     0.028 H 
ATOM    239  H64 LEU d   1     -38.446  69.886  27.634  0.00  0.00     0.028 H 
ENDBRANCH 234 236
BRANCH 234 240
ATOM    240  CD2 LEU d   1     -37.376  72.463  25.603  0.00  0.00    -0.073 C 
ATOM    241  H65 LEU d   1     -36.869  73.419  25.798  0.00  0.00     0.028 H 
ATOM    242  H66 LEU d   1     -38.333  72.652  25.095  0.00  0.00     0.028 H 
ATOM    243  H67 LEU d   1     -36.739  71.834  24.964  0.00  0.00     0.028 H 
ENDBRANCH 234 240
ENDBRANCH 231 234
ENDBRANCH   1 231
TORSDOF 74
