REMARK  4 active torsions:
REMARK  status: ('A' for Active; 'I' for Inactive)
REMARK    1  A    between atoms: C5_14  and  C2_2 
REMARK    2  A    between atoms: O10_19  and  C13_6 
REMARK    3  A    between atoms: C14_7  and  C17_10 
REMARK    4  A    between atoms: C5_14  and  O10_19 
ROOT
ATOM      1  C1  5B9 d   1       3.395  76.752  28.520  0.00  0.00    -0.018 A 
ATOM      2  C2  5B9 d   1       2.765  75.477  28.489  0.00  0.00    -0.023 A 
ATOM      3  C3  5B9 d   1       2.644  77.909  28.169  0.00  0.00    -0.025 A 
ATOM      4  C11 5B9 d   1       0.684  76.528  27.729  0.00  0.00    -0.082 A 
ATOM      5  C12 5B9 d   1       4.581  79.328  28.574  0.00  0.00    -0.082 A 
ATOM      6  C4  5B9 d   1       4.758  76.923  28.887  0.00  0.00    -0.072 A 
ATOM      7  C6  5B9 d   1       1.426  75.385  28.064  0.00  0.00    -0.074 A 
ATOM      8  C7  5B9 d   1       1.304  77.785  27.742  0.00  0.00    -0.072 A 
ATOM      9  C8  5B9 d   1       3.241  79.192  28.179  0.00  0.00    -0.072 A 
ATOM     10  C9  5B9 d   1       5.347  78.200  28.909  0.00  0.00    -0.082 A 
ATOM     11  H1  5B9 d   1      -0.363  76.439  27.462  0.00  0.00     0.083 H 
ATOM     12  H2  5B9 d   1       5.029  80.314  28.621  0.00  0.00     0.083 H 
ATOM     13  H7  5B9 d   1       5.352  76.056  29.154  0.00  0.00     0.084 H 
ATOM     14  H10 5B9 d   1       0.958  74.410  27.994  0.00  0.00     0.084 H 
ATOM     15  H11 5B9 d   1       0.754  78.663  27.424  0.00  0.00     0.084 H 
ATOM     16  H12 5B9 d   1       2.668  80.063  27.884  0.00  0.00     0.084 H 
ATOM     17  H13 5B9 d   1       6.389  78.313  29.184  0.00  0.00     0.083 H 
ENDROOT
BRANCH   2  18
ATOM     18  C5  5B9 d   1       3.501  74.167  28.882  0.00  0.00     0.051 C 
ATOM     19  H8  5B9 d   1       2.747  73.375  28.998  0.00  0.00     0.082 H 
ATOM     20  H9  5B9 d   1       4.006  74.336  29.845  0.00  0.00     0.082 H 
BRANCH  18  21
ATOM     21  O10 5B9 d   1       4.493  73.705  27.931  0.00  0.00    -0.346 OA
BRANCH  21  22
ATOM     22  C13 5B9 d   1       5.666  72.983  28.252  0.00  0.00     0.086 A 
ATOM     23  C14 5B9 d   1       6.880  73.295  27.579  0.00  0.00     0.074 A 
ATOM     24  C16 5B9 d   1       8.063  72.594  27.891  0.00  0.00    -0.064 A 
ATOM     25  C19 5B9 d   1       8.047  71.580  28.869  0.00  0.00    -0.082 A 
ATOM     26  H4  5B9 d   1       8.986  72.836  27.377  0.00  0.00     0.085 H 
ATOM     27  C18 5B9 d   1       6.852  71.263  29.534  0.00  0.00    -0.080 A 
ATOM     28  H6  5B9 d   1       8.958  71.044  29.108  0.00  0.00     0.083 H 
ATOM     29  C15 5B9 d   1       5.663  71.947  29.220  0.00  0.00    -0.050 A 
ATOM     30  H5  5B9 d   1       6.845  70.488  30.292  0.00  0.00     0.083 H 
ATOM     31  H3  5B9 d   1       4.739  71.680  29.721  0.00  0.00     0.087 H 
BRANCH  23  32
ATOM     32  C17 5B9 d   1       6.945  74.369  26.501  0.00  0.00     0.212 C 
ATOM     33  O20 5B9 d   1       8.072  75.067  26.321  0.00  0.00    -0.644 OA
ATOM     34  O21 5B9 d   1       5.975  74.589  25.792  0.00  0.00    -0.644 OA
ENDBRANCH  23  32
ENDBRANCH  21  22
ENDBRANCH  18  21
ENDBRANCH   2  18
TORSDOF 4
