REMARK  22 active torsions:
REMARK  status: ('A' for Active; 'I' for Inactive)
REMARK    1  A    between atoms: CAC_1  and  OBH_2 
REMARK    2  A    between atoms: OBH_2  and  CBU_3 
REMARK    3  A    between atoms: CBW_5  and  OBJ_6 
REMARK    4  A    between atoms: OBJ_6  and  CAE_7 
REMARK    5  A    between atoms: CBV_8  and  OBI_9 
REMARK    6  A    between atoms: OBI_9  and  CAD_10 
REMARK    7  A    between atoms: CBR_12  and  CCA_13 
REMARK    8  A    between atoms: CCA_13  and  CBY_14 
REMARK    9  A    between atoms: CCA_13  and  CBN_20 
REMARK       I    between atoms: CBN_20  and  N_22 
REMARK   10  A    between atoms: CA_27  and  C_28 
REMARK       I    between atoms: C_28  and  NBE_30 
REMARK   11  A    between atoms: NBE_30  and  CBX_31 
REMARK   12  A    between atoms: CBX_31  and  CBQ_32 
REMARK   13  A    between atoms: CBX_31  and  CBA_43 
REMARK   14  A    between atoms: CBP_37  and  OBK_38 
REMARK   15  A    between atoms: OBK_38  and  CBC_39 
REMARK   16  A    between atoms: CBC_39  and  CBL_40 
REMARK   17  A    between atoms: CBA_43  and  CAX_44 
REMARK   18  A    between atoms: CAX_44  and  CBO_45 
REMARK   19  A    between atoms: CBS_49  and  OBF_50 
REMARK   20  A    between atoms: OBF_50  and  CAA_51 
REMARK   21  A    between atoms: CBT_52  and  OBG_53 
REMARK   22  A    between atoms: OBG_53  and  CAB_54 
ROOT
ATOM      1  CBN 5BG d   1      12.554  -5.079 -10.765  0.00  0.00     0.229 C 
ATOM      2  OAH 5BG d   1      13.251  -4.394 -11.491  0.00  0.00    -0.273 OA
ATOM      3  N   5BG d   1      11.448  -4.491 -10.166  0.00  0.00    -0.338 N 
ATOM      4  CBD 5BG d   1      10.597  -5.170  -9.137  0.00  0.00    -0.001 C 
ATOM      5  CAW 5BG d   1       9.147  -4.856  -9.315  0.00  0.00    -0.050 C 
ATOM      6  CAV 5BG d   1       8.842  -3.349  -9.465  0.00  0.00    -0.061 C 
ATOM      7  CB  5BG d   1       9.695  -2.804 -10.592  0.00  0.00    -0.038 C 
ATOM      8  CA  5BG d   1      11.209  -3.068 -10.387  0.00  0.00     0.091 C 
ATOM      9  H24 5BG d   1      10.913  -4.835  -8.138  0.00  0.00     0.064 H 
ATOM     10  H25 5BG d   1      10.738  -6.258  -9.221  0.00  0.00     0.064 H 
ATOM     11  H26 5BG d   1       8.601  -5.233  -8.437  0.00  0.00     0.035 H 
ATOM     12  H27 5BG d   1       8.790  -5.372 -10.218  0.00  0.00     0.035 H 
ATOM     13  H28 5BG d   1       9.083  -2.825  -8.528  0.00  0.00     0.033 H 
ATOM     14  H29 5BG d   1       7.777  -3.206  -9.701  0.00  0.00     0.033 H 
ATOM     15  H30 5BG d   1       9.534  -1.718 -10.660  0.00  0.00     0.036 H 
ATOM     16  H31 5BG d   1       9.380  -3.280 -11.532  0.00  0.00     0.036 H 
ATOM     17  H32 5BG d   1      11.756  -2.772 -11.294  0.00  0.00     0.087 H 
ENDROOT
BRANCH   8  18
ATOM     18  C   5BG d   1      11.669  -2.154  -9.211  0.00  0.00     0.241 C 
ATOM     19  O   5BG d   1      11.245  -1.037  -9.147  0.00  0.00    -0.271 OA
ATOM     20  NBE 5BG d   1      12.560  -2.708  -8.372  0.00  0.00    -0.351 N 
ATOM     21  H33 5BG d   1      12.959  -3.603  -8.573  0.00  0.00     0.163 HD
BRANCH  20  22
ATOM     22  CBX 5BG d   1      12.949  -1.959  -7.122  0.00  0.00     0.038 C 
ATOM     23  H34 5BG d   1      12.651  -0.904  -7.216  0.00  0.00     0.080 H 
BRANCH  22  24
ATOM     24  CBQ 5BG d   1      12.187  -2.568  -6.023  0.00  0.00    -0.033 A 
ATOM     25  CAP 5BG d   1      11.153  -1.857  -5.464  0.00  0.00    -0.043 A 
ATOM     26  CBP 5BG d   1      10.311  -2.505  -4.496  0.00  0.00     0.070 A 
ATOM     27  H35 5BG d   1      10.975  -0.826  -5.748  0.00  0.00     0.088 H 
ATOM     28  CAK 5BG d   1      10.526  -3.832  -4.214  0.00  0.00    -0.051 A 
ATOM     29  CAJ 5BG d   1      11.544  -4.583  -4.810  0.00  0.00    -0.080 A 
ATOM     30  H38 5BG d   1       9.876  -4.320  -3.496  0.00  0.00     0.087 H 
ATOM     31  CAL 5BG d   1      12.319  -3.893  -5.722  0.00  0.00    -0.075 A 
ATOM     32  H37 5BG d   1      11.712  -5.628  -4.574  0.00  0.00     0.083 H 
ATOM     33  H36 5BG d   1      13.093  -4.448  -6.240  0.00  0.00     0.084 H 
BRANCH  26  34
ATOM     34  OBK 5BG d   1       9.282  -1.716  -3.979  0.00  0.00    -0.341 OA
BRANCH  34  35
ATOM     35  CBC 5BG d   1       8.354  -2.318  -3.074  0.00  0.00     0.105 C 
ATOM     36  H39 5BG d   1       7.996  -3.264  -3.507  0.00  0.00     0.091 H 
ATOM     37  H40 5BG d   1       7.503  -1.636  -2.930  0.00  0.00     0.091 H 
BRANCH  35  38
ATOM     38  CBL 5BG d   1       8.997  -2.607  -1.710  0.00  0.00     0.198 C 
ATOM     39  OAI 5BG d   1       8.370  -3.432  -1.059  0.00  0.00    -0.646 OA
ATOM     40  OAF 5BG d   1      10.068  -2.072  -1.420  0.00  0.00    -0.646 OA
ENDBRANCH  35  38
ENDBRANCH  34  35
ENDBRANCH  26  34
ENDBRANCH  22  24
BRANCH  22  41
ATOM     41  CBA 5BG d   1      14.440  -2.005  -6.938  0.00  0.00    -0.038 C 
ATOM     42  H41 5BG d   1      14.935  -1.849  -7.908  0.00  0.00     0.036 H 
ATOM     43  H42 5BG d   1      14.731  -2.985  -6.531  0.00  0.00     0.036 H 
BRANCH  41  44
ATOM     44  CAX 5BG d   1      14.871  -0.873  -5.940  0.00  0.00    -0.039 C 
ATOM     45  H43 5BG d   1      15.924  -1.036  -5.666  0.00  0.00     0.040 H 
ATOM     46  H44 5BG d   1      14.242  -0.947  -5.041  0.00  0.00     0.040 H 
BRANCH  44  47
ATOM     47  CBO 5BG d   1      14.745   0.444  -6.467  0.00  0.00    -0.055 A 
ATOM     48  CAO 5BG d   1      15.601   0.869  -7.497  0.00  0.00    -0.042 A 
ATOM     49  CBT 5BG d   1      15.403   2.154  -8.011  0.00  0.00     0.102 A 
ATOM     50  H45 5BG d   1      16.385   0.225  -7.879  0.00  0.00     0.088 H 
ATOM     51  CBS 5BG d   1      14.474   3.054  -7.612  0.00  0.00     0.101 A 
ATOM     52  CAN 5BG d   1      13.596   2.612  -6.576  0.00  0.00    -0.048 A 
ATOM     53  CAM 5BG d   1      13.739   1.355  -6.065  0.00  0.00    -0.074 A 
ATOM     54  H47 5BG d   1      12.822   3.270  -6.199  0.00  0.00     0.087 H 
ATOM     55  H46 5BG d   1      13.038   1.034  -5.303  0.00  0.00     0.084 H 
BRANCH  49  56
ATOM     56  OBG 5BG d   1      16.085   2.715  -9.108  0.00  0.00    -0.353 OA
BRANCH  56  57
ATOM     57  CAB 5BG d   1      17.216   1.974  -9.531  0.00  0.00     0.010 C 
ATOM     58  H51 5BG d   1      17.686   2.480 -10.387  0.00  0.00     0.066 H 
ATOM     59  H52 5BG d   1      16.901   0.963  -9.830  0.00  0.00     0.066 H 
ATOM     60  H53 5BG d   1      17.938   1.904  -8.704  0.00  0.00     0.066 H 
ENDBRANCH  56  57
ENDBRANCH  49  56
BRANCH  51  61
ATOM     61  OBF 5BG d   1      14.416   4.295  -8.188  0.00  0.00    -0.353 OA
BRANCH  61  62
ATOM     62  CAA 5BG d   1      13.513   5.279  -7.719  0.00  0.00     0.010 C 
ATOM     63  H48 5BG d   1      13.628   6.196  -8.315  0.00  0.00     0.066 H 
ATOM     64  H49 5BG d   1      13.727   5.499  -6.663  0.00  0.00     0.066 H 
ATOM     65  H50 5BG d   1      12.482   4.906  -7.815  0.00  0.00     0.066 H 
ENDBRANCH  61  62
ENDBRANCH  51  61
ENDBRANCH  44  47
ENDBRANCH  41  44
ENDBRANCH  22  41
ENDBRANCH  20  22
ENDBRANCH   8  18
BRANCH   1  66
ATOM     66  CCA 5BG d   1      12.860  -6.521 -10.419  0.00  0.00     0.053 C 
ATOM     67  H12 5BG d   1      11.912  -7.074 -10.338  0.00  0.00     0.062 H 
BRANCH  66  68
ATOM     68  CBR 5BG d   1      13.548  -6.550  -9.043  0.00  0.00    -0.039 A 
ATOM     69  CAQ 5BG d   1      14.732  -5.832  -8.830  0.00  0.00    -0.041 A 
ATOM     70  CBU 5BG d   1      15.323  -5.874  -7.543  0.00  0.00     0.104 A 
ATOM     71  H4  5BG d   1      15.185  -5.258  -9.630  0.00  0.00     0.088 H 
ATOM     72  CBW 5BG d   1      14.752  -6.639  -6.587  0.00  0.00     0.135 A 
ATOM     73  CBV 5BG d   1      13.607  -7.326  -6.799  0.00  0.00     0.104 A 
ATOM     74  CAR 5BG d   1      12.979  -7.330  -8.046  0.00  0.00    -0.041 A 
ATOM     75  H11 5BG d   1      12.086  -7.917  -8.227  0.00  0.00     0.088 H 
BRANCH  70  76
ATOM     76  OBH 5BG d   1      16.450  -5.219  -7.254  0.00  0.00    -0.353 OA
BRANCH  76  77
ATOM     77  CAC 5BG d   1      17.126  -4.521  -8.297  0.00  0.00     0.010 C 
ATOM     78  H1  5BG d   1      18.028  -4.040  -7.891  0.00  0.00     0.066 H 
ATOM     79  H2  5BG d   1      16.459  -3.754  -8.717  0.00  0.00     0.066 H 
ATOM     80  H3  5BG d   1      17.412  -5.230  -9.087  0.00  0.00     0.066 H 
ENDBRANCH  76  77
ENDBRANCH  70  76
BRANCH  72  81
ATOM     81  OBJ 5BG d   1      15.287  -6.642  -5.256  0.00  0.00    -0.351 OA
BRANCH  81  82
ATOM     82  CAE 5BG d   1      16.360  -7.541  -5.144  0.00  0.00     0.011 C 
ATOM     83  H5  5BG d   1      16.749  -7.522  -4.115  0.00  0.00     0.067 H 
ATOM     84  H6  5BG d   1      17.158  -7.249  -5.843  0.00  0.00     0.067 H 
ATOM     85  H7  5BG d   1      16.014  -8.557  -5.386  0.00  0.00     0.067 H 
ENDBRANCH  81  82
ENDBRANCH  72  81
BRANCH  73  86
ATOM     86  OBI 5BG d   1      13.057  -8.066  -5.739  0.00  0.00    -0.353 OA
BRANCH  86  87
ATOM     87  CAD 5BG d   1      11.724  -8.630  -5.835  0.00  0.00     0.010 C 
ATOM     88  H8  5BG d   1      11.486  -9.168  -4.905  0.00  0.00     0.066 H 
ATOM     89  H9  5BG d   1      11.682  -9.329  -6.684  0.00  0.00     0.066 H 
ATOM     90  H10 5BG d   1      10.994  -7.822  -5.989  0.00  0.00     0.066 H 
ENDBRANCH  86  87
ENDBRANCH  73  86
ENDBRANCH  66  68
BRANCH  66  91
ATOM     91  CBY 5BG d   1      13.691  -7.179 -11.546  0.00  0.00    -0.038 C 
ATOM     92  CAY 5BG d   1      14.256  -8.503 -11.141  0.00  0.00    -0.061 C 
ATOM     93  CAT 5BG d   1      15.013  -9.255 -12.255  0.00  0.00    -0.065 C 
ATOM     94  H14 5BG d   1      13.425  -9.140 -10.803  0.00  0.00     0.033 H 
ATOM     95  H15 5BG d   1      14.953  -8.336 -10.307  0.00  0.00     0.033 H 
ATOM     96  CAS 5BG d   1      14.134  -9.320 -13.553  0.00  0.00    -0.065 C 
ATOM     97  H16 5BG d   1      15.238 -10.277 -11.916  0.00  0.00     0.033 H 
ATOM     98  H17 5BG d   1      15.952  -8.727 -12.477  0.00  0.00     0.033 H 
ATOM     99  CAU 5BG d   1      13.665  -7.975 -13.979  0.00  0.00    -0.065 C 
ATOM    100  H18 5BG d   1      13.258  -9.955 -13.357  0.00  0.00     0.033 H 
ATOM    101  H19 5BG d   1      14.732  -9.761 -14.364  0.00  0.00     0.033 H 
ATOM    102  CAZ 5BG d   1      12.906  -7.275 -12.825  0.00  0.00    -0.061 C 
ATOM    103  H20 5BG d   1      12.992  -8.083 -14.842  0.00  0.00     0.033 H 
ATOM    104  H21 5BG d   1      14.533  -7.363 -14.265  0.00  0.00     0.033 H 
ATOM    105  H22 5BG d   1      12.647  -6.256 -13.149  0.00  0.00     0.033 H 
ATOM    106  H23 5BG d   1      11.985  -7.841 -12.624  0.00  0.00     0.033 H 
ATOM    107  H13 5BG d   1      14.546  -6.515 -11.742  0.00  0.00     0.041 H 
ENDBRANCH  66  91
ENDBRANCH   1  66
TORSDOF 22
