REMARK  12 active torsions:
REMARK  status: ('A' for Active; 'I' for Inactive)
REMARK    1  A    between atoms: CBL_5  and  CBA_6 
REMARK    2  A    between atoms: CBL_5  and  NAW_9 
REMARK       I    between atoms: CBA_6  and  NAD_8 
REMARK       I    between atoms: NAW_9  and  C_10 
REMARK    3  A    between atoms: C_10  and  CA_12 
REMARK       I    between atoms: N_17  and  CBC_18 
REMARK    4  A    between atoms: CBC_18  and  CBJ_20 
REMARK    5  A    between atoms: CBJ_20  and  CBH_21 
REMARK    6  A    between atoms: CBJ_20  and  CBD_27 
REMARK    7  A    between atoms: CBE_30  and  OAX_31 
REMARK    8  A    between atoms: OAX_31  and  CAA_32 
REMARK    9  A    between atoms: CBG_33  and  OAZ_34 
REMARK   10  A    between atoms: OAZ_34  and  CAC_35 
REMARK   11  A    between atoms: CBF_36  and  OAY_37 
REMARK   12  A    between atoms: OAY_37  and  CAB_38 
ROOT
ATOM      1  CBJ 5BH d   1      29.982 -25.967  -4.423  0.00  0.00     0.053 C 
ATOM      2  H21 5BH d   1      29.693 -26.905  -4.920  0.00  0.00     0.062 H 
ENDROOT
BRANCH   1   3
ATOM      3  CBC 5BH d   1      29.458 -25.975  -2.969  0.00  0.00     0.229 C 
ATOM      4  N   5BH d   1      29.558 -27.121  -2.264  0.00  0.00    -0.338 N 
ATOM      5  CA  5BH d   1      29.153 -27.159  -0.827  0.00  0.00     0.091 C 
ATOM      6  CAT 5BH d   1      30.094 -28.372  -2.829  0.00  0.00    -0.001 C 
ATOM      7  CB  5BH d   1      28.211 -28.387  -0.651  0.00  0.00    -0.038 C 
ATOM      8  H12 5BH d   1      28.590 -26.240  -0.605  0.00  0.00     0.087 H 
ATOM      9  CAM 5BH d   1      28.874 -29.611  -1.035  0.00  0.00    -0.061 C 
ATOM     10  H13 5BH d   1      27.320 -28.249  -1.280  0.00  0.00     0.036 H 
ATOM     11  H14 5BH d   1      27.908 -28.459   0.404  0.00  0.00     0.036 H 
ATOM     12  CAN 5BH d   1      29.131 -29.509  -2.530  0.00  0.00    -0.050 C 
ATOM     13  H15 5BH d   1      28.231 -30.477  -0.818  0.00  0.00     0.033 H 
ATOM     14  H16 5BH d   1      29.825 -29.715  -0.492  0.00  0.00     0.033 H 
ATOM     15  H17 5BH d   1      28.179 -29.323  -3.049  0.00  0.00     0.035 H 
ATOM     16  H18 5BH d   1      29.565 -30.454  -2.888  0.00  0.00     0.035 H 
ATOM     17  H19 5BH d   1      30.209 -28.264  -3.918  0.00  0.00     0.064 H 
ATOM     18  H20 5BH d   1      31.073 -28.590  -2.377  0.00  0.00     0.064 H 
ATOM     19  OAG 5BH d   1      28.967 -24.945  -2.533  0.00  0.00    -0.273 OA
BRANCH   5  20
ATOM     20  C   5BH d   1      30.262 -27.233   0.115  0.00  0.00     0.241 C 
ATOM     21  NAW 5BH d   1      31.504 -26.926  -0.361  0.00  0.00    -0.341 N 
ATOM     22  H11 5BH d   1      31.584 -26.581  -1.296  0.00  0.00     0.163 HD
ATOM     23  O   5BH d   1      30.101 -27.430   1.335  0.00  0.00    -0.271 OA
BRANCH  21  24
ATOM     24  CBL 5BH d   1      32.738 -27.080   0.443  0.00  0.00     0.113 C 
ATOM     25  CAU 5BH d   1      32.937 -28.575   0.893  0.00  0.00    -0.033 C 
ATOM     26  CAO 5BH d   1      33.441 -29.265  -0.325  0.00  0.00    -0.062 C 
ATOM     27  H1  5BH d   1      33.671 -28.641   1.710  0.00  0.00     0.037 H 
ATOM     28  H2  5BH d   1      31.983 -29.013   1.221  0.00  0.00     0.037 H 
ATOM     29  CAP 5BH d   1      33.950 -28.156  -1.273  0.00  0.00    -0.062 C 
ATOM     30  H3  5BH d   1      32.630 -29.833  -0.804  0.00  0.00     0.033 H 
ATOM     31  H4  5BH d   1      34.262 -29.948  -0.063  0.00  0.00     0.033 H 
ATOM     32  CAV 5BH d   1      33.932 -26.852  -0.462  0.00  0.00    -0.033 C 
ATOM     33  H5  5BH d   1      33.288 -28.070  -2.147  0.00  0.00     0.033 H 
ATOM     34  H6  5BH d   1      34.973 -28.382  -1.608  0.00  0.00     0.033 H 
ATOM     35  H7  5BH d   1      33.784 -25.976  -1.111  0.00  0.00     0.037 H 
ATOM     36  H8  5BH d   1      34.858 -26.726   0.118  0.00  0.00     0.037 H 
BRANCH  24  37
ATOM     37  CBA 5BH d   1      32.793 -26.171   1.667  0.00  0.00     0.243 C 
ATOM     38  OAE 5BH d   1      33.329 -26.577   2.687  0.00  0.00    -0.271 OA
ATOM     39  NAD 5BH d   1      32.123 -25.050   1.624  0.00  0.00    -0.368 N 
ATOM     40  H9  5BH d   1      32.136 -24.429   2.408  0.00  0.00     0.159 HD
ATOM     41  H10 5BH d   1      31.597 -24.813   0.807  0.00  0.00     0.159 HD
ENDBRANCH  24  37
ENDBRANCH  21  24
ENDBRANCH   5  20
ENDBRANCH   1   3
BRANCH   1  42
ATOM     42  CBH 5BH d   1      29.385 -24.757  -5.212  0.00  0.00    -0.038 C 
ATOM     43  CAQ 5BH d   1      30.084 -24.547  -6.561  0.00  0.00    -0.061 C 
ATOM     44  CAK 5BH d   1      29.516 -23.370  -7.289  0.00  0.00    -0.065 C 
ATOM     45  H23 5BH d   1      29.951 -25.448  -7.178  0.00  0.00     0.033 H 
ATOM     46  H24 5BH d   1      31.157 -24.377  -6.386  0.00  0.00     0.033 H 
ATOM     47  CAJ 5BH d   1      28.054 -23.740  -7.597  0.00  0.00    -0.065 C 
ATOM     48  H25 5BH d   1      30.071 -23.191  -8.222  0.00  0.00     0.033 H 
ATOM     49  H26 5BH d   1      29.559 -22.470  -6.657  0.00  0.00     0.033 H 
ATOM     50  CAL 5BH d   1      27.311 -23.879  -6.278  0.00  0.00    -0.065 C 
ATOM     51  H27 5BH d   1      28.019 -24.692  -8.146  0.00  0.00     0.033 H 
ATOM     52  H28 5BH d   1      27.590 -22.949  -8.204  0.00  0.00     0.033 H 
ATOM     53  CAR 5BH d   1      27.867 -25.017  -5.503  0.00  0.00    -0.061 C 
ATOM     54  H29 5BH d   1      26.244 -24.060  -6.477  0.00  0.00     0.033 H 
ATOM     55  H30 5BH d   1      27.423 -22.952  -5.697  0.00  0.00     0.033 H 
ATOM     56  H31 5BH d   1      27.323 -25.114  -4.552  0.00  0.00     0.033 H 
ATOM     57  H32 5BH d   1      27.758 -25.945  -6.084  0.00  0.00     0.033 H 
ATOM     58  H22 5BH d   1      29.495 -23.848  -4.603  0.00  0.00     0.041 H 
ENDBRANCH   1  42
BRANCH   1  59
ATOM     59  CBD 5BH d   1      31.415 -25.852  -4.402  0.00  0.00    -0.039 A 
ATOM     60  CAI 5BH d   1      32.063 -24.896  -3.608  0.00  0.00    -0.041 A 
ATOM     61  CBF 5BH d   1      33.462 -24.758  -3.660  0.00  0.00     0.104 A 
ATOM     62  H33 5BH d   1      31.483 -24.259  -2.950  0.00  0.00     0.088 H 
ATOM     63  CBG 5BH d   1      34.190 -25.596  -4.486  0.00  0.00     0.135 A 
ATOM     64  CBE 5BH d   1      33.580 -26.546  -5.283  0.00  0.00     0.104 A 
ATOM     65  CAH 5BH d   1      32.183 -26.662  -5.252  0.00  0.00    -0.041 A 
ATOM     66  H34 5BH d   1      31.691 -27.386  -5.892  0.00  0.00     0.088 H 
BRANCH  61  67
ATOM     67  OAY 5BH d   1      34.205 -23.875  -2.883  0.00  0.00    -0.353 OA
BRANCH  67  68
ATOM     68  CAB 5BH d   1      33.466 -22.840  -2.226  0.00  0.00     0.010 C 
ATOM     69  H41 5BH d   1      34.155 -22.209  -1.646  0.00  0.00     0.066 H 
ATOM     70  H42 5BH d   1      32.725 -23.291  -1.550  0.00  0.00     0.066 H 
ATOM     71  H43 5BH d   1      32.950 -22.224  -2.977  0.00  0.00     0.066 H 
ENDBRANCH  67  68
ENDBRANCH  61  67
BRANCH  63  72
ATOM     72  OAZ 5BH d   1      35.573 -25.468  -4.515  0.00  0.00    -0.351 OA
BRANCH  72  73
ATOM     73  CAC 5BH d   1      36.283 -26.388  -3.688  0.00  0.00     0.011 C 
ATOM     74  H38 5BH d   1      37.364 -26.206  -3.781  0.00  0.00     0.067 H 
ATOM     75  H39 5BH d   1      36.056 -27.417  -4.005  0.00  0.00     0.067 H 
ATOM     76  H40 5BH d   1      35.977 -26.251  -2.640  0.00  0.00     0.067 H 
ENDBRANCH  72  73
ENDBRANCH  63  72
BRANCH  64  77
ATOM     77  OAX 5BH d   1      34.423 -27.275  -6.076  0.00  0.00    -0.353 OA
BRANCH  77  78
ATOM     78  CAA 5BH d   1      33.883 -28.153  -7.099  0.00  0.00     0.010 C 
ATOM     79  H35 5BH d   1      34.709 -28.650  -7.629  0.00  0.00     0.066 H 
ATOM     80  H36 5BH d   1      33.291 -27.562  -7.814  0.00  0.00     0.066 H 
ATOM     81  H37 5BH d   1      33.240 -28.912  -6.629  0.00  0.00     0.066 H 
ENDBRANCH  77  78
ENDBRANCH  64  77
ENDBRANCH   1  59
TORSDOF 12
