REMARK  3 active torsions:
REMARK  status: ('A' for Active; 'I' for Inactive)
REMARK    1  A    between atoms: O3_20  and  C12_12 
REMARK    2  A    between atoms: C13_13  and  O3_20 
REMARK    3  A    between atoms: C15_15  and  C17_17 
ROOT
ATOM      1  C1  GR2 d   1     -33.304  14.250 -23.293  0.00  0.00    -0.049 A 
ATOM      2  C2  GR2 d   1     -33.833  13.667 -24.452  0.00  0.00    -0.076 A 
ATOM      3  C3  GR2 d   1     -35.214  13.562 -24.668  0.00  0.00    -0.082 A 
ATOM      4  C4  GR2 d   1     -36.101  14.042 -23.701  0.00  0.00    -0.082 A 
ATOM      5  C5  GR2 d   1     -35.585  14.625 -22.538  0.00  0.00    -0.074 A 
ATOM      6  C6  GR2 d   1     -34.200  14.733 -22.324  0.00  0.00    -0.022 A 
ATOM      7  C7  GR2 d   1     -33.398  15.328 -21.155  0.00  0.00     0.082 C 
ATOM      8  C8  GR2 d   1     -31.937  15.424 -21.647  0.00  0.00     0.013 C 
ATOM      9  C9  GR2 d   1     -31.845  14.475 -22.855  0.00  0.00    -0.030 C 
ATOM     10  C10 GR2 d   1     -32.112  14.412 -19.479  0.00  0.00     0.292 C 
ATOM     11  C11 GR2 d   1     -31.147  14.974 -20.449  0.00  0.00     0.047 C 
ATOM     12  C12 GR2 d   1     -29.832  15.085 -20.210  0.00  0.00     0.034 C 
ATOM     13  O1  GR2 d   1     -31.774  13.978 -18.402  0.00  0.00    -0.259 OA
ATOM     14  O2  GR2 d   1     -33.448  14.457 -19.996  0.00  0.00    -0.307 OA
ATOM     15  H1  GR2 d   1     -33.153  13.285 -25.205  0.00  0.00     0.084 H 
ATOM     16  H2  GR2 d   1     -35.591  13.111 -25.579  0.00  0.00     0.083 H 
ATOM     17  H3  GR2 d   1     -37.172  13.964 -23.849  0.00  0.00     0.083 H 
ATOM     18  H4  GR2 d   1     -36.269  15.002 -21.786  0.00  0.00     0.084 H 
ATOM     19  H5  GR2 d   1     -33.787  16.322 -20.891  0.00  0.00     0.093 H 
ATOM     20  H6  GR2 d   1     -31.655  16.446 -21.941  0.00  0.00     0.052 H 
ATOM     21  H7  GR2 d   1     -31.264  14.937 -23.667  0.00  0.00     0.041 H 
ATOM     22  H8  GR2 d   1     -31.377  13.523 -22.565  0.00  0.00     0.041 H 
ATOM     23  H9  GR2 d   1     -29.446  14.732 -19.255  0.00  0.00     0.124 H 
ENDROOT
BRANCH  12  24
ATOM     24  O3  GR2 d   1     -28.926  15.638 -21.139  0.00  0.00    -0.299 OA
BRANCH  24  25
ATOM     25  C13 GR2 d   1     -27.635  15.365 -20.686  0.00  0.00     0.190 A 
ATOM     26  C14 GR2 d   1     -27.117  16.051 -19.590  0.00  0.00    -0.033 A 
ATOM     27  C15 GR2 d   1     -26.249  15.293 -18.947  0.00  0.00     0.048 A 
ATOM     28  H10 GR2 d   1     -27.389  17.066 -19.305  0.00  0.00     0.085 H 
ATOM     29  C16 GR2 d   1     -26.113  14.012 -19.704  0.00  0.00     0.273 A 
ATOM     30  H11 GR2 d   1     -27.028  14.861 -18.302  0.00  0.00     0.061 H 
ATOM     31  O4  GR2 d   1     -25.383  13.080 -19.444  0.00  0.00    -0.264 OA
ATOM     32  O5  GR2 d   1     -26.994  14.096 -20.826  0.00  0.00    -0.255 OA
BRANCH  27  33
ATOM     33  C17 GR2 d   1     -25.512  15.746 -17.681  0.00  0.00    -0.061 C 
ATOM     34  H12 GR2 d   1     -25.859  16.750 -17.394  0.00  0.00     0.029 H 
ATOM     35  H13 GR2 d   1     -24.430  15.774 -17.877  0.00  0.00     0.029 H 
ATOM     36  H14 GR2 d   1     -25.718  15.039 -16.864  0.00  0.00     0.029 H 
ENDBRANCH  27  33
ENDBRANCH  24  25
ENDBRANCH  12  24
TORSDOF 3
