REMARK  2 active torsions:
REMARK  status: ('A' for Active; 'I' for Inactive)
REMARK    1  A    between atoms: C2_2  and  C5_15 
REMARK    2  A    between atoms: C9_19  and  C13_6 
ROOT
ATOM      1  C1  5BJ d   1       3.862  73.856  25.483  0.00  0.00     0.004 A 
ATOM      2  C2  5BJ d   1       2.643  74.277  26.053  0.00  0.00    -0.013 A 
ATOM      3  C3  5BJ d   1       4.443  72.631  25.804  0.00  0.00     0.044 A 
ATOM      4  C12 5BJ d   1       2.591  72.107  27.241  0.00  0.00    -0.080 A 
ATOM      5  C4  5BJ d   1       4.865  74.475  24.538  0.00  0.00    -0.037 A 
ATOM      6  C6  5BJ d   1       2.015  73.364  26.937  0.00  0.00    -0.071 A 
ATOM      7  N7  5BJ d   1       5.609  72.516  25.142  0.00  0.00    -0.350 N 
ATOM      8  C8  5BJ d   1       3.828  71.723  26.681  0.00  0.00    -0.056 A 
ATOM      9  C9  5BJ d   1       5.853  73.573  24.407  0.00  0.00     0.111 A 
ATOM     10  H2  5BJ d   1       2.075  71.431  27.913  0.00  0.00     0.083 H 
ATOM     11  H9  5BJ d   1       4.801  75.452  24.061  0.00  0.00     0.088 H 
ATOM     12  H10 5BJ d   1       1.069  73.635  27.392  0.00  0.00     0.084 H 
ATOM     13  H11 5BJ d   1       6.232  71.698  25.205  0.00  0.00     0.166 HD
ATOM     14  H12 5BJ d   1       4.284  70.768  26.918  0.00  0.00     0.086 H 
ENDROOT
BRANCH   2  15
ATOM     15  C5  5BJ d   1       2.045  75.612  25.729  0.00  0.00    -0.014 A 
ATOM     16  C11 5BJ d   1       0.733  75.586  25.215  0.00  0.00    -0.071 A 
ATOM     17  C16 5BJ d   1       0.052  76.766  24.887  0.00  0.00    -0.081 A 
ATOM     18  H1  5BJ d   1       0.240  74.632  25.070  0.00  0.00     0.084 H 
ATOM     19  C19 5BJ d   1       0.695  78.001  25.066  0.00  0.00    -0.072 A 
ATOM     20  H4  5BJ d   1      -0.960  76.726  24.500  0.00  0.00     0.083 H 
ATOM     21  C14 5BJ d   1       2.003  78.066  25.598  0.00  0.00    -0.025 A 
ATOM     22  H5  5BJ d   1       0.182  78.916  24.793  0.00  0.00     0.084 H 
ATOM     23  C20 5BJ d   1       2.615  79.328  25.784  0.00  0.00    -0.072 A 
ATOM     24  C10 5BJ d   1       2.699  76.868  25.939  0.00  0.00    -0.015 A 
ATOM     25  C22 5BJ d   1       3.910  79.413  26.319  0.00  0.00    -0.082 A 
ATOM     26  H6  5BJ d   1       2.082  80.232  25.512  0.00  0.00     0.084 H 
ATOM     27  C21 5BJ d   1       4.622  78.241  26.623  0.00  0.00    -0.082 A 
ATOM     28  H8  5BJ d   1       4.360  80.383  26.497  0.00  0.00     0.083 H 
ATOM     29  C15 5BJ d   1       4.012  76.993  26.459  0.00  0.00    -0.071 A 
ATOM     30  H7  5BJ d   1       5.642  78.304  26.984  0.00  0.00     0.083 H 
ATOM     31  H3  5BJ d   1       4.557  76.098  26.737  0.00  0.00     0.084 H 
ENDBRANCH   2  15
BRANCH   9  32
ATOM     32  C13 5BJ d   1       7.091  73.742  23.630  0.00  0.00     0.226 C 
ATOM     33  O17 5BJ d   1       7.848  74.823  23.850  0.00  0.00    -0.643 OA
ATOM     34  O18 5BJ d   1       7.426  72.882  22.836  0.00  0.00    -0.643 OA
ENDBRANCH   9  32
TORSDOF 2
