REMARK  2 active torsions:
REMARK  status: ('A' for Active; 'I' for Inactive)
REMARK    1  A    between atoms: C17_9  and  C12_5 
REMARK    2  A    between atoms: C6_16  and  C8_18 
ROOT
ATOM      1  C1  5BK d   1       2.736  72.861  29.526  0.00  0.00    -0.080 A 
ATOM      2  C2  5BK d   1       3.717  72.123  28.832  0.00  0.00    -0.056 A 
ATOM      3  C3  5BK d   1       4.611  74.236  28.016  0.00  0.00     0.004 A 
ATOM      4  C11 5BK d   1       2.704  74.273  29.466  0.00  0.00    -0.071 A 
ATOM      5  C12 5BK d   1       3.648  74.995  28.704  0.00  0.00    -0.012 A 
ATOM      6  C4  5BK d   1       4.654  72.848  28.078  0.00  0.00     0.044 A 
ATOM      7  N5  5BK d   1       5.686  72.405  27.329  0.00  0.00    -0.350 N 
ATOM      8  C6  5BK d   1       6.331  73.397  26.763  0.00  0.00     0.111 A 
ATOM      9  C7  5BK d   1       5.770  74.566  27.110  0.00  0.00    -0.037 A 
ATOM     10  H1  5BK d   1       1.993  72.336  30.116  0.00  0.00     0.083 H 
ATOM     11  H2  5BK d   1       3.747  71.040  28.879  0.00  0.00     0.086 H 
ATOM     12  H3  5BK d   1       1.940  74.811  30.015  0.00  0.00     0.084 H 
ATOM     13  H9  5BK d   1       5.936  71.412  27.216  0.00  0.00     0.166 HD
ATOM     14  H10 5BK d   1       6.090  75.559  26.798  0.00  0.00     0.088 H 
ENDROOT
BRANCH   5  15
ATOM     15  C17 5BK d   1       3.648  76.480  28.596  0.00  0.00    -0.013 A 
ATOM     16  C16 5BK d   1       2.504  77.179  28.187  0.00  0.00     0.003 A 
ATOM     17  C13 5BK d   1       1.099  76.792  27.800  0.00  0.00    -0.055 A 
ATOM     18  C21 5BK d   1       2.494  78.560  28.049  0.00  0.00     0.043 A 
ATOM     19  C15 5BK d   1       0.466  77.935  27.497  0.00  0.00    -0.022 A 
ATOM     20  H4  5BK d   1       0.682  75.786  27.772  0.00  0.00     0.087 H 
ATOM     21  N14 5BK d   1       1.278  78.951  27.637  0.00  0.00    -0.365 N 
ATOM     22  H5  5BK d   1      -0.574  78.007  27.180  0.00  0.00     0.111 H 
ATOM     23  H11 5BK d   1       1.016  79.930  27.454  0.00  0.00     0.165 HD
ATOM     24  C20 5BK d   1       3.626  79.343  28.310  0.00  0.00    -0.056 A 
ATOM     25  C19 5BK d   1       4.792  78.662  28.706  0.00  0.00    -0.080 A 
ATOM     26  H8  5BK d   1       3.605  80.422  28.212  0.00  0.00     0.086 H 
ATOM     27  C18 5BK d   1       4.795  77.260  28.868  0.00  0.00    -0.071 A 
ATOM     28  H7  5BK d   1       5.702  79.223  28.889  0.00  0.00     0.083 H 
ATOM     29  H6  5BK d   1       5.699  76.769  29.209  0.00  0.00     0.084 H 
ENDBRANCH   5  15
BRANCH   8  30
ATOM     30  C8  5BK d   1       7.525  73.240  25.912  0.00  0.00     0.226 C 
ATOM     31  O9  5BK d   1       7.528  72.356  24.910  0.00  0.00    -0.643 OA
ATOM     32  O10 5BK d   1       8.502  73.936  26.149  0.00  0.00    -0.643 OA
ENDBRANCH   8  30
TORSDOF 2
