REMARK  3 active torsions:
REMARK  status: ('A' for Active; 'I' for Inactive)
REMARK    1  A    between atoms: C8_23  and  C3_3 
REMARK    2  A    between atoms: C24_17  and  C26_18 
REMARK    3  A    between atoms: C6_21  and  C10_25 
ROOT
ATOM      1  C20 5BL d   1       4.473  73.821  25.740  0.00  0.00     0.079 A 
ATOM      2  C21 5BL d   1       5.211  72.641  26.030  0.00  0.00    -0.005 A 
ATOM      3  C22 5BL d   1       6.286  72.299  25.191  0.00  0.00    -0.068 A 
ATOM      4  C23 5BL d   1       6.595  73.117  24.088  0.00  0.00    -0.048 A 
ATOM      5  C24 5BL d   1       5.851  74.291  23.847  0.00  0.00     0.133 A 
ATOM      6  C6  5BL d   1       3.401  74.186  26.594  0.00  0.00     0.005 A 
ATOM      7  C7  5BL d   1       3.103  73.390  27.718  0.00  0.00    -0.058 A 
ATOM      8  C8  5BL d   1       3.805  72.203  27.991  0.00  0.00    -0.008 A 
ATOM      9  C9  5BL d   1       4.870  71.841  27.141  0.00  0.00    -0.059 A 
ATOM     10  N25 5BL d   1       4.821  74.603  24.673  0.00  0.00    -0.240 NA
ATOM     11  H10 5BL d   1       6.873  71.410  25.392  0.00  0.00     0.085 H 
ATOM     12  H11 5BL d   1       7.406  72.844  23.423  0.00  0.00     0.087 H 
ATOM     13  H14 5BL d   1       2.311  73.701  28.390  0.00  0.00     0.086 H 
ATOM     14  H15 5BL d   1       5.434  70.937  27.343  0.00  0.00     0.086 H 
ENDROOT
BRANCH   6  15
ATOM     15  C10 5BL d   1       2.606  75.434  26.394  0.00  0.00    -0.013 A 
ATOM     16  C11 5BL d   1       1.236  75.262  26.091  0.00  0.00    -0.071 A 
ATOM     17  C12 5BL d   1       0.393  76.371  25.906  0.00  0.00    -0.081 A 
ATOM     18  H3  5BL d   1       0.830  74.261  26.000  0.00  0.00     0.084 H 
ATOM     19  C13 5BL d   1       0.923  77.664  26.067  0.00  0.00    -0.072 A 
ATOM     20  H4  5BL d   1      -0.649  76.232  25.643  0.00  0.00     0.083 H 
ATOM     21  C15 5BL d   1       2.282  77.862  26.402  0.00  0.00    -0.025 A 
ATOM     22  H5  5BL d   1       0.278  78.524  25.932  0.00  0.00     0.084 H 
ATOM     23  C14 5BL d   1       3.148  76.740  26.562  0.00  0.00    -0.015 A 
ATOM     24  C16 5BL d   1       2.784  79.172  26.560  0.00  0.00    -0.072 A 
ATOM     25  C19 5BL d   1       4.502  76.980  26.918  0.00  0.00    -0.071 A 
ATOM     26  C18 5BL d   1       4.992  78.285  27.087  0.00  0.00    -0.082 A 
ATOM     27  H9  5BL d   1       5.170  76.139  27.062  0.00  0.00     0.084 H 
ATOM     28  C17 5BL d   1       4.130  79.381  26.921  0.00  0.00    -0.082 A 
ATOM     29  H8  5BL d   1       6.032  78.446  27.345  0.00  0.00     0.083 H 
ATOM     30  H7  5BL d   1       4.500  80.389  27.071  0.00  0.00     0.083 H 
ATOM     31  H6  5BL d   1       2.130  80.022  26.403  0.00  0.00     0.084 H 
ENDBRANCH   6  15
BRANCH   8  32
ATOM     32  C3  5BL d   1       3.405  71.349  29.186  0.00  0.00     0.042 A 
ATOM     33  C2  5BL d   1       4.225  70.592  29.923  0.00  0.00    -0.055 A 
ATOM     34  C1  5BL d   1       3.380  69.977  30.949  0.00  0.00    -0.066 A 
ATOM     35  H2  5BL d   1       5.298  70.460  29.788  0.00  0.00     0.087 H 
ATOM     36  C5  5BL d   1       2.152  70.451  30.732  0.00  0.00    -0.022 A 
ATOM     37  H1  5BL d   1       3.689  69.279  31.726  0.00  0.00     0.085 H 
ATOM     38  N4  5BL d   1       2.212  71.234  29.698  0.00  0.00    -0.365 N 
ATOM     39  H13 5BL d   1       1.262  70.223  31.316  0.00  0.00     0.111 H 
ATOM     40  H12 5BL d   1       1.389  71.722  29.316  0.00  0.00     0.165 HD
ENDBRANCH   8  32
BRANCH   5  41
ATOM     41  C26 5BL d   1       6.178  75.197  22.674  0.00  0.00     0.229 C 
ATOM     42  O27 5BL d   1       5.176  75.837  22.067  0.00  0.00    -0.643 OA
ATOM     43  O28 5BL d   1       7.334  75.323  22.273  0.00  0.00    -0.643 OA
ENDBRANCH   5  41
TORSDOF 3
