REMARK  5 active torsions:
REMARK  status: ('A' for Active; 'I' for Inactive)
REMARK    1  A    between atoms: C01_1  and  N02_2 
REMARK    2  A    between atoms: N02_2  and  C03_3 
REMARK    3  A    between atoms: C07_7  and  C09_9 
REMARK    4  A    between atoms: C09_9  and  C10_10 
REMARK    5  A    between atoms: C09_9  and  C11_11 
ROOT
ATOM      1  C09 5BX d   1       8.778  22.919  96.992  0.00  0.00     0.004 C 
ATOM      2  H6  5BX d   1       7.879  23.419  96.602  0.00  0.00     0.051 H 
ENDROOT
BRANCH   1   3
ATOM      3  C07 5BX d   1       8.302  21.621  97.591  0.00  0.00     0.134 C 
ATOM      4  C05 5BX d   1       7.755  20.774  96.510  0.00  0.00     0.277 C 
ATOM      5  N04 5BX d   1       8.350  19.547  96.624  0.00  0.00    -0.171 NA
ATOM      6  O06 5BX d   1       6.940  21.098  95.664  0.00  0.00    -0.268 OA
ATOM      7  C03 5BX d   1       9.346  19.614  97.629  0.00  0.00     0.245 C 
ATOM      8  O08 5BX d   1       9.371  20.917  98.157  0.00  0.00    -0.305 OA
ATOM      9  H5  5BX d   1       7.534  21.821  98.352  0.00  0.00     0.100 H 
BRANCH   7  10
ATOM     10  N02 5BX d   1      10.210  18.580  98.074  0.00  0.00    -0.359 N 
ATOM     11  H4  5BX d   1      10.882  18.790  98.826  0.00  0.00     0.162 HD
BRANCH  10  12
ATOM     12  C01 5BX d   1      10.189  17.191  97.498  0.00  0.00    -0.018 C 
ATOM     13  H1  5BX d   1      10.946  16.573  98.003  0.00  0.00     0.056 H 
ATOM     14  H2  5BX d   1      10.412  17.237  96.422  0.00  0.00     0.056 H 
ATOM     15  H3  5BX d   1       9.194  16.747  97.648  0.00  0.00     0.056 H 
ENDBRANCH  10  12
ENDBRANCH   7  10
ENDBRANCH   1   3
BRANCH   1  16
ATOM     16  C10 5BX d   1       9.706  22.808  95.813  0.00  0.00    -0.066 C 
ATOM     17  H7  5BX d   1       9.982  23.815  95.467  0.00  0.00     0.028 H 
ATOM     18  H8  5BX d   1       9.202  22.266  94.999  0.00  0.00     0.028 H 
ATOM     19  H9  5BX d   1      10.613  22.262  96.111  0.00  0.00     0.028 H 
ENDBRANCH   1  16
BRANCH   1  20
ATOM     20  C11 5BX d   1       9.318  23.810  98.111  0.00  0.00    -0.024 A 
ATOM     21  C12 5BX d   1      10.325  23.473  99.054  0.00  0.00    -0.015 A 
ATOM     22  N13 5BX d   1      10.507  24.564  99.866  0.00  0.00    -0.365 N 
ATOM     23  H10 5BX d   1      10.855  22.524  99.120  0.00  0.00     0.112 H 
ATOM     24  C14 5BX d   1       9.656  25.603  99.472  0.00  0.00     0.042 A 
ATOM     25  H11 5BX d   1      11.172  24.611 100.651  0.00  0.00     0.165 HD
ATOM     26  C15 5BX d   1       9.465  26.934  99.992  0.00  0.00    -0.056 A 
ATOM     27  C19 5BX d   1       8.899  25.165  98.370  0.00  0.00    -0.001 A 
ATOM     28  C16 5BX d   1       8.535  27.797  99.413  0.00  0.00    -0.081 A 
ATOM     29  H12 5BX d   1      10.050  27.267 100.841  0.00  0.00     0.086 H 
ATOM     30  C17 5BX d   1       7.759  27.358  98.268  0.00  0.00    -0.082 A 
ATOM     31  H13 5BX d   1       8.392  28.793  99.817  0.00  0.00     0.083 H 
ATOM     32  C18 5BX d   1       7.940  26.044  97.765  0.00  0.00    -0.070 A 
ATOM     33  H14 5BX d   1       7.047  28.029  97.801  0.00  0.00     0.083 H 
ATOM     34  H15 5BX d   1       7.352  25.703  96.921  0.00  0.00     0.084 H 
ENDBRANCH   1  20
TORSDOF 5
