REMARK  7 active torsions:
REMARK  status: ('A' for Active; 'I' for Inactive)
REMARK    1  A    between atoms: C2_1  and  C8_4 
REMARK    2  A    between atoms: C20_8  and  O19_22 
REMARK    3  A    between atoms: C26_25  and  N29_12 
REMARK    4  A    between atoms: C32_15  and  C34_17 
REMARK    5  A    between atoms: C34_17  and  N35_27 
REMARK    6  A    between atoms: O19_22  and  C5_19 
REMARK    7  A    between atoms: C23_23  and  C26_25 
ROOT
ATOM      1  C2  5CZ d   1      -0.673 -23.008  15.871  0.00  0.00    -0.009 A 
ATOM      2  C3  5CZ d   1      -0.484 -21.702  16.290  0.00  0.00    -0.068 A 
ATOM      3  C7  5CZ d   1       0.229 -23.971  16.265  0.00  0.00    -0.068 A 
ATOM      4  C4  5CZ d   1       0.595 -21.378  17.111  0.00  0.00    -0.049 A 
ATOM      5  C5  5CZ d   1       1.495 -22.361  17.507  0.00  0.00     0.076 A 
ATOM      6  C6  5CZ d   1       1.308 -23.662  17.079  0.00  0.00    -0.049 A 
ATOM      7  H1  5CZ d   1      -1.177 -20.929  15.979  0.00  0.00     0.085 H 
ATOM      8  H2  5CZ d   1       0.092 -24.993  15.931  0.00  0.00     0.085 H 
ATOM      9  H12 5CZ d   1       0.733 -20.355  17.442  0.00  0.00     0.087 H 
ATOM     10  H13 5CZ d   1       2.003 -24.438  17.379  0.00  0.00     0.087 H 
ENDROOT
BRANCH   1  11
ATOM     11  C8  5CZ d   1      -1.814 -23.397  14.994  0.00  0.00     0.043 A 
ATOM     12  C9  5CZ d   1      -2.401 -24.663  14.930  0.00  0.00    -0.044 A 
ATOM     13  C10 5CZ d   1      -3.425 -24.481  13.948  0.00  0.00    -0.007 A 
ATOM     14  H3  5CZ d   1      -2.144 -25.562  15.488  0.00  0.00     0.088 H 
ATOM     15  C11 5CZ d   1      -3.437 -23.190  13.468  0.00  0.00     0.043 A 
ATOM     16  C30 5CZ d   1      -4.344 -25.413  13.467  0.00  0.00    -0.070 A 
ATOM     17  C33 5CZ d   1      -4.352 -22.789  12.499  0.00  0.00    -0.043 A 
ATOM     18  N12 5CZ d   1      -2.444 -22.556  14.127  0.00  0.00    -0.355 N 
ATOM     19  C32 5CZ d   1      -5.275 -23.712  12.018  0.00  0.00     0.009 A 
ATOM     20  H11 5CZ d   1      -4.346 -21.772  12.124  0.00  0.00     0.088 H 
ATOM     21  C31 5CZ d   1      -5.272 -25.026  12.498  0.00  0.00    -0.069 A 
ATOM     22  H10 5CZ d   1      -5.990 -25.744  12.118  0.00  0.00     0.085 H 
ATOM     23  H14 5CZ d   1      -2.195 -21.566  13.992  0.00  0.00     0.166 HD
ATOM     24  H9  5CZ d   1      -4.338 -26.430  13.842  0.00  0.00     0.084 H 
BRANCH  19  25
ATOM     25  C34 5CZ d   1      -6.264 -23.276  10.975  0.00  0.00     0.102 C 
ATOM     26  N38 5CZ d   1      -6.822 -22.146  11.076  0.00  0.00    -0.385 N 
ATOM     27  H20 5CZ d   1      -6.595 -21.528  11.868  0.00  0.00     0.157 HD
ATOM     28  H21 5CZ d   1      -7.504 -21.843  10.366  0.00  0.00     0.157 HD
BRANCH  25  29
ATOM     29  N35 5CZ d   1      -6.572 -24.135   9.884  0.00  0.00    -0.385 N 
ATOM     30  H18 5CZ d   1      -7.250 -23.836   9.169  0.00  0.00     0.157 HD
ATOM     31  H19 5CZ d   1      -6.117 -25.056   9.809  0.00  0.00     0.157 HD
ENDBRANCH  25  29
ENDBRANCH  19  25
ENDBRANCH   1  11
BRANCH   5  32
ATOM     32  O19 5CZ d   1       2.563 -22.069  18.307  0.00  0.00    -0.311 OA
BRANCH  32  33
ATOM     33  C20 5CZ d   1       2.437 -21.940  19.674  0.00  0.00     0.076 A 
ATOM     34  C21 5CZ d   1       3.476 -21.337  20.364  0.00  0.00    -0.049 A 
ATOM     35  C22 5CZ d   1       3.395 -21.179  21.749  0.00  0.00    -0.067 A 
ATOM     36  H4  5CZ d   1       4.352 -20.988  19.829  0.00  0.00     0.087 H 
ATOM     37  C23 5CZ d   1       2.287 -21.634  22.446  0.00  0.00     0.007 A 
ATOM     38  H5  5CZ d   1       4.205 -20.697  22.283  0.00  0.00     0.085 H 
ATOM     39  C24 5CZ d   1       1.230 -22.230  21.761  0.00  0.00    -0.067 A 
ATOM     40  C25 5CZ d   1       1.311 -22.389  20.369  0.00  0.00    -0.049 A 
ATOM     41  H6  5CZ d   1       0.352 -22.568  22.299  0.00  0.00     0.085 H 
ATOM     42  H15 5CZ d   1       0.497 -22.862  19.831  0.00  0.00     0.087 H 
BRANCH  37  43
ATOM     43  C26 5CZ d   1       2.246 -21.403  23.935  0.00  0.00     0.102 C 
ATOM     44  N27 5CZ d   1       1.649 -22.184  24.716  0.00  0.00    -0.385 N 
ATOM     45  H16 5CZ d   1       1.202 -23.036  24.350  0.00  0.00     0.157 HD
ATOM     46  H17 5CZ d   1       1.607 -21.972  25.723  0.00  0.00     0.157 HD
BRANCH  43  47
ATOM     47  N29 5CZ d   1       2.855 -20.237  24.453  0.00  0.00    -0.385 N 
ATOM     48  H7  5CZ d   1       2.841 -20.056  25.467  0.00  0.00     0.157 HD
ATOM     49  H8  5CZ d   1       3.313 -19.569  23.817  0.00  0.00     0.157 HD
ENDBRANCH  43  47
ENDBRANCH  37  43
ENDBRANCH  32  33
ENDBRANCH   5  32
TORSDOF 7
