REMARK  7 active torsions:
REMARK  status: ('A' for Active; 'I' for Inactive)
REMARK    1  A    between atoms: N3_1  and  C4_2 
REMARK       I    between atoms: C2_19  and  N3_1 
REMARK    2  A    between atoms: C4_2  and  C5_3 
REMARK    3  A    between atoms: C8_5  and  C9_23 
REMARK    4  A    between atoms: C15_7  and  C2_19 
REMARK    5  A    between atoms: C21_9  and  C22_10 
REMARK    6  A    between atoms: C21_9  and  C23_13 
REMARK    7  A    between atoms: N20_14  and  C21_9 
ROOT
ATOM      1  C15 5C2 d   1     -48.133 -16.741   5.540  0.00  0.00     0.050 A 
ATOM      2  C17 5C2 d   1     -46.847 -15.182   6.703  0.00  0.00     0.032 A 
ATOM      3  C24 5C2 d   1     -47.656 -14.213   6.385  0.00  0.00     0.157 A 
ATOM      4  C26 5C2 d   1     -48.967 -15.721   5.178  0.00  0.00     0.020 A 
ATOM      5  N20 5C2 d   1     -47.177 -13.120   6.941  0.00  0.00    -0.248 N 
ATOM      6  N19 5C2 d   1     -46.329 -13.298   7.459  0.00  0.00    -0.182 NA
ATOM      7  C18 5C2 d   1     -45.955 -14.569   7.429  0.00  0.00     0.035 A 
ATOM      8  C16 5C2 d   1     -47.027 -16.435   6.311  0.00  0.00    -0.051 A 
ATOM      9  N25 5C2 d   1     -48.712 -14.446   5.633  0.00  0.00    -0.240 NA
ATOM     10  H10 5C2 d   1     -49.821 -15.913   4.539  0.00  0.00     0.116 H 
ATOM     11  H14 5C2 d   1     -45.084 -15.010   7.911  0.00  0.00     0.118 H 
ATOM     12  H15 5C2 d   1     -46.319 -17.207   6.590  0.00  0.00     0.086 H 
ENDROOT
BRANCH   1  13
ATOM     13  C2  5C2 d   1     -48.371 -18.004   5.035  0.00  0.00     0.253 C 
ATOM     14  N3  5C2 d   1     -48.320 -19.066   5.821  0.00  0.00    -0.351 N 
ATOM     15  H1  5C2 d   1     -48.137 -18.960   6.798  0.00  0.00     0.163 HD
ATOM     16  O1  5C2 d   1     -48.573 -18.096   3.844  0.00  0.00    -0.268 OA
BRANCH  14  17
ATOM     17  C4  5C2 d   1     -48.533 -20.396   5.254  0.00  0.00     0.037 C 
ATOM     18  H2  5C2 d   1     -49.540 -20.451   4.814  0.00  0.00     0.073 H 
ATOM     19  H3  5C2 d   1     -48.437 -21.153   6.047  0.00  0.00     0.073 H 
BRANCH  17  20
ATOM     20  C5  5C2 d   1     -47.491 -20.657   4.173  0.00  0.00     0.077 A 
ATOM     21  C6  5C2 d   1     -47.605 -20.420   2.890  0.00  0.00     0.046 A 
ATOM     22  O7  5C2 d   1     -46.539 -20.777   2.323  0.00  0.00    -0.301 OA
ATOM     23  H4  5C2 d   1     -48.474 -19.988   2.397  0.00  0.00     0.126 H 
ATOM     24  C8  5C2 d   1     -45.779 -21.242   3.160  0.00  0.00     0.186 A 
ATOM     25  N14 5C2 d   1     -46.315 -21.184   4.361  0.00  0.00    -0.224 NA
BRANCH  24  26
ATOM     26  C9  5C2 d   1     -44.545 -21.663   2.894  0.00  0.00     0.058 A 
ATOM     27  C10 5C2 d   1     -44.116 -22.190   1.761  0.00  0.00    -0.062 A 
ATOM     28  C11 5C2 d   1     -42.810 -22.485   1.772  0.00  0.00    -0.075 A 
ATOM     29  H5  5C2 d   1     -44.761 -22.367   0.902  0.00  0.00     0.085 H 
ATOM     30  C12 5C2 d   1     -42.221 -22.169   2.907  0.00  0.00    -0.044 A 
ATOM     31  H17 5C2 d   1     -42.289 -22.939   0.930  0.00  0.00     0.084 H 
ATOM     32  S13 5C2 d   1     -43.351 -21.541   3.839  0.00  0.00    -0.098 SA
ATOM     33  H16 5C2 d   1     -41.171 -22.309   3.159  0.00  0.00     0.095 H 
ENDBRANCH  24  26
ENDBRANCH  17  20
ENDBRANCH  14  17
ENDBRANCH   1  13
BRANCH   5  34
ATOM     34  C21 5C2 d   1     -47.703 -11.786   6.882  0.00  0.00     0.029 C 
ATOM     35  H6  5C2 d   1     -47.313 -11.213   7.736  0.00  0.00     0.074 H 
BRANCH  34  36
ATOM     36  C22 5C2 d   1     -47.255 -11.136   5.591  0.00  0.00    -0.056 C 
ATOM     37  H7  5C2 d   1     -47.654 -10.112   5.538  0.00  0.00     0.030 H 
ATOM     38  H8  5C2 d   1     -47.629 -11.720   4.737  0.00  0.00     0.030 H 
ATOM     39  H9  5C2 d   1     -46.156 -11.103   5.559  0.00  0.00     0.030 H 
ENDBRANCH  34  36
BRANCH  34  40
ATOM     40  C23 5C2 d   1     -49.213 -11.770   6.930  0.00  0.00    -0.056 C 
ATOM     41  H11 5C2 d   1     -49.555 -12.240   7.864  0.00  0.00     0.030 H 
ATOM     42  H12 5C2 d   1     -49.613 -12.328   6.071  0.00  0.00     0.030 H 
ATOM     43  H13 5C2 d   1     -49.570 -10.730   6.890  0.00  0.00     0.030 H 
ENDBRANCH  34  40
ENDBRANCH   5  34
TORSDOF 7
