REMARK  14 active torsions:
REMARK  status: ('A' for Active; 'I' for Inactive)
REMARK    1  A    between atoms: N24_27  and  C4_1 
REMARK    2  A    between atoms: C2_11  and  C8_3 
REMARK    3  A    between atoms: C15_5  and  O17_20 
REMARK    4  A    between atoms: N21_15  and  C22_6 
REMARK    5  A    between atoms: C25_28  and  C26_7 
REMARK    6  A    between atoms: N21_15  and  C23_8 
REMARK    7  A    between atoms: C18_9  and  C19_17 
REMARK    8  A    between atoms: O17_20  and  C18_9 
REMARK    9  A    between atoms: C20_16  and  N21_15 
REMARK   10  A    between atoms: C19_17  and  C20_16 
REMARK   11  A    between atoms: C19_17  and  C39_18 
REMARK   12  A    between atoms: C19_17  and  C40_19 
REMARK       I    between atoms: N24_27  and  C25_28 
REMARK   13  A    between atoms: N29_33  and  C32_34 
REMARK   14  A    between atoms: C32_34  and  C33_35 
ROOT
ATOM      1  C8  5CV d   1       2.435  -3.833  19.479  0.00  0.00     0.049 A 
ATOM      2  C10 5CV d   1       1.662  -4.855  19.090  0.00  0.00    -0.044 A 
ATOM      3  C15 5CV d   1      -1.926  -4.787  20.064  0.00  0.00     0.069 A 
ATOM      4  C16 5CV d   1      -0.786  -5.345  19.477  0.00  0.00    -0.039 A 
ATOM      5  C12 5CV d   1       0.424  -3.405  20.180  0.00  0.00     0.043 A 
ATOM      6  C11 5CV d   1       0.405  -4.629  19.533  0.00  0.00    -0.005 A 
ATOM      7  C14 5CV d   1      -1.891  -3.561  20.695  0.00  0.00    -0.049 A 
ATOM      8  C13 5CV d   1      -0.707  -2.863  20.771  0.00  0.00    -0.054 A 
ATOM      9  N9  5CV d   1       1.652  -2.943  20.123  0.00  0.00    -0.355 N 
ATOM     10  H2  5CV d   1       1.990  -5.720  18.515  0.00  0.00     0.088 H 
ATOM     11  H11 5CV d   1      -0.830  -6.312  18.990  0.00  0.00     0.089 H 
ATOM     12  H21 5CV d   1      -2.794  -3.148  21.130  0.00  0.00     0.087 H 
ATOM     13  H22 5CV d   1      -0.660  -1.909  21.283  0.00  0.00     0.087 H 
ATOM     14  H23 5CV d   1       1.968  -2.042  20.509  0.00  0.00     0.166 HD
ENDROOT
BRANCH   1  15
ATOM     15  C2  5CV d   1       3.792  -3.596  19.232  0.00  0.00     0.061 A 
ATOM     16  C3  5CV d   1       4.532  -4.360  18.351  0.00  0.00    -0.038 A 
ATOM     17  C4  5CV d   1       5.870  -4.046  18.087  0.00  0.00     0.051 A 
ATOM     18  H24 5CV d   1       4.070  -5.214  17.858  0.00  0.00     0.088 H 
ATOM     19  C5  5CV d   1       6.442  -2.975  18.753  0.00  0.00     0.006 A 
ATOM     20  N6  5CV d   1       5.695  -2.172  19.619  0.00  0.00    -0.331 N 
ATOM     21  H1  5CV d   1       7.497  -2.754  18.599  0.00  0.00     0.115 H 
ATOM     22  C1  5CV d   1       4.384  -2.507  19.882  0.00  0.00     0.257 A 
ATOM     23  H25 5CV d   1       6.106  -1.365  20.042  0.00  0.00     0.168 HD
ATOM     24  O7  5CV d   1       3.762  -1.791  20.700  0.00  0.00    -0.267 OA
BRANCH  17  25
ATOM     25  N24 5CV d   1       6.591  -4.810  17.234  0.00  0.00    -0.322 N 
ATOM     26  C25 5CV d   1       7.759  -4.497  16.578  0.00  0.00     0.259 C 
ATOM     27  O27 5CV d   1       8.350  -3.408  16.694  0.00  0.00    -0.267 OA
ATOM     28  H26 5CV d   1       6.226  -5.724  17.057  0.00  0.00     0.169 HD
BRANCH  26  29
ATOM     29  C26 5CV d   1       8.433  -5.600  15.767  0.00  0.00     0.068 A 
ATOM     30  C28 5CV d   1       7.730  -6.676  15.348  0.00  0.00     0.015 A 
ATOM     31  N29 5CV d   1       8.551  -7.520  14.715  0.00  0.00    -0.276 N 
ATOM     32  H27 5CV d   1       6.663  -6.831  15.502  0.00  0.00     0.115 H 
ATOM     33  N30 5CV d   1       9.872  -6.910  14.713  0.00  0.00    -0.184 NA
ATOM     34  C31 5CV d   1       9.746  -5.726  15.412  0.00  0.00     0.038 A 
ATOM     35  H28 5CV d   1      10.546  -5.022  15.639  0.00  0.00     0.119 H 
BRANCH  31  36
ATOM     36  C32 5CV d   1       8.047  -8.776  14.145  0.00  0.00     0.040 C 
ATOM     37  H29 5CV d   1       8.351  -8.852  13.091  0.00  0.00     0.074 H 
ATOM     38  H30 5CV d   1       6.949  -8.799  14.213  0.00  0.00     0.074 H 
BRANCH  36  39
ATOM     39  C33 5CV d   1       8.635  -9.941  14.934  0.00  0.00    -0.038 A 
ATOM     40  C34 5CV d   1       8.159 -10.199  16.241  0.00  0.00    -0.075 A 
ATOM     41  C35 5CV d   1       8.693 -11.255  17.004  0.00  0.00    -0.082 A 
ATOM     42  H31 5CV d   1       7.375  -9.578  16.659  0.00  0.00     0.084 H 
ATOM     43  C36 5CV d   1       9.706 -12.042  16.439  0.00  0.00    -0.083 A 
ATOM     44  H32 5CV d   1       8.329 -11.455  18.005  0.00  0.00     0.083 H 
ATOM     45  C37 5CV d   1      10.182 -11.798  15.133  0.00  0.00    -0.082 A 
ATOM     46  H33 5CV d   1      10.132 -12.854  17.017  0.00  0.00     0.083 H 
ATOM     47  C38 5CV d   1       9.649 -10.743  14.376  0.00  0.00    -0.075 A 
ATOM     48  H34 5CV d   1      10.960 -12.426  14.714  0.00  0.00     0.083 H 
ATOM     49  H35 5CV d   1      10.014 -10.548  13.374  0.00  0.00     0.084 H 
ENDBRANCH  36  39
ENDBRANCH  31  36
ENDBRANCH  26  29
ENDBRANCH  17  25
ENDBRANCH   1  15
BRANCH   3  50
ATOM     50  O17 5CV d   1      -3.147  -5.380  20.042  0.00  0.00    -0.350 OA
BRANCH  50  51
ATOM     51  C18 5CV d   1      -3.049  -6.738  19.593  0.00  0.00     0.034 C 
ATOM     52  H9  5CV d   1      -3.349  -6.827  18.539  0.00  0.00     0.076 H 
ATOM     53  H10 5CV d   1      -2.025  -7.121  19.716  0.00  0.00     0.076 H 
BRANCH  51  54
ATOM     54  C19 5CV d   1      -4.017  -7.474  20.498  0.00  0.00    -0.002 C 
BRANCH  54  55
ATOM     55  C20 5CV d   1      -4.503  -8.695  19.710  0.00  0.00     0.091 C 
ATOM     56  H13 5CV d   1      -3.696  -9.441  19.662  0.00  0.00     0.077 H 
ATOM     57  H14 5CV d   1      -5.375  -9.131  20.219  0.00  0.00     0.077 H 
BRANCH  55  58
ATOM     58  N21 5CV d   1      -4.885  -8.302  18.338  0.00  0.00    -0.078 N 
ATOM     59  H12 5CV d   1      -4.428  -7.422  18.156  0.00  0.00     0.279 HD
BRANCH  58  60
ATOM     60  C22 5CV d   1      -6.337  -8.054  18.184  0.00  0.00     0.066 C 
ATOM     61  H3  5CV d   1      -6.552  -7.767  17.144  0.00  0.00     0.068 H 
ATOM     62  H4  5CV d   1      -6.644  -7.242  18.859  0.00  0.00     0.068 H 
ATOM     63  H5  5CV d   1      -6.894  -8.969  18.434  0.00  0.00     0.068 H 
ENDBRANCH  58  60
BRANCH  58  64
ATOM     64  C23 5CV d   1      -4.370  -9.259  17.338  0.00  0.00     0.066 C 
ATOM     65  H6  5CV d   1      -3.292  -9.408  17.495  0.00  0.00     0.068 H 
ATOM     66  H7  5CV d   1      -4.542  -8.861  16.327  0.00  0.00     0.068 H 
ATOM     67  H8  5CV d   1      -4.893 -10.221  17.447  0.00  0.00     0.068 H 
ENDBRANCH  58  64
ENDBRANCH  55  58
ENDBRANCH  54  55
BRANCH  54  68
ATOM     68  C39 5CV d   1      -3.203  -7.898  21.741  0.00  0.00    -0.066 C 
ATOM     69  H15 5CV d   1      -2.869  -7.002  22.284  0.00  0.00     0.028 H 
ATOM     70  H16 5CV d   1      -2.326  -8.482  21.424  0.00  0.00     0.028 H 
ATOM     71  H17 5CV d   1      -3.834  -8.512  22.400  0.00  0.00     0.028 H 
ENDBRANCH  54  68
BRANCH  54  72
ATOM     72  C40 5CV d   1      -5.217  -6.566  20.886  0.00  0.00    -0.066 C 
ATOM     73  H18 5CV d   1      -5.772  -6.285  19.979  0.00  0.00     0.028 H 
ATOM     74  H19 5CV d   1      -4.844  -5.659  21.384  0.00  0.00     0.028 H 
ATOM     75  H20 5CV d   1      -5.884  -7.112  21.569  0.00  0.00     0.028 H 
ENDBRANCH  54  72
ENDBRANCH  51  54
ENDBRANCH  50  51
ENDBRANCH   3  50
TORSDOF 14
