REMARK  12 active torsions:
REMARK  status: ('A' for Active; 'I' for Inactive)
REMARK    1  A    between atoms: C3_3  and  O3_12 
REMARK    2  A    between atoms: C7_7  and  O7_34 
REMARK    3  A    between atoms: C10_10  and  C19_33 
REMARK       I    between atoms: C24_14  and  N26_15 
REMARK    4  A    between atoms: C23_22  and  C24_14 
REMARK    5  A    between atoms: N26_15  and  C25_16 
REMARK    6  A    between atoms: C25_16  and  C26_17 
REMARK    7  A    between atoms: C26_17  and  S27_18 
REMARK    8  A    between atoms: C22_23  and  C23_22 
REMARK    9  A    between atoms: C20_24  and  C22_23 
REMARK   10  A    between atoms: C20_24  and  C21_25 
REMARK   11  A    between atoms: C17_26  and  C20_24 
REMARK   12  A    between atoms: C13_27  and  C18_28 
ROOT
ATOM      1  C1  5D5 d   1      47.103  43.761  12.200  0.00  0.00    -0.055 C 
ATOM      2  C2  5D5 d   1      45.671  43.342  12.524  0.00  0.00    -0.040 C 
ATOM      3  C3  5D5 d   1      44.644  44.049  11.647  0.00  0.00     0.036 C 
ATOM      4  C4  5D5 d   1      44.837  45.558  11.762  0.00  0.00    -0.037 C 
ATOM      5  C5  5D5 d   1      46.235  45.934  11.283  0.00  0.00    -0.042 C 
ATOM      6  C6  5D5 d   1      46.403  47.454  11.254  0.00  0.00    -0.037 C 
ATOM      7  C7  5D5 d   1      46.496  48.050  12.659  0.00  0.00     0.040 C 
ATOM      8  C8  5D5 d   1      47.560  47.353  13.499  0.00  0.00    -0.021 C 
ATOM      9  C9  5D5 d   1      47.268  45.858  13.553  0.00  0.00    -0.041 C 
ATOM     10  C10 5D5 d   1      47.305  45.274  12.146  0.00  0.00    -0.036 C 
ATOM     11  C11 5D5 d   1      48.212  45.112  14.501  0.00  0.00    -0.060 C 
ATOM     12  C17 5D5 d   1      48.701  48.058  17.008  0.00  0.00    -0.044 C 
ATOM     13  C13 5D5 d   1      48.676  47.211  15.743  0.00  0.00    -0.036 C 
ATOM     14  C14 5D5 d   1      47.600  47.886  14.923  0.00  0.00    -0.041 C 
ATOM     15  C15 5D5 d   1      47.869  49.368  15.111  0.00  0.00    -0.060 C 
ATOM     16  C16 5D5 d   1      48.489  49.484  16.507  0.00  0.00    -0.060 C 
ATOM     17  C12 5D5 d   1      48.284  45.752  15.891  0.00  0.00    -0.057 C 
ATOM     18  H1  5D5 d   1      47.375  43.340  11.221  0.00  0.00     0.034 H 
ATOM     19  H2  5D5 d   1      47.768  43.350  12.973  0.00  0.00     0.034 H 
ATOM     20  H3  5D5 d   1      45.462  43.584  13.577  0.00  0.00     0.036 H 
ATOM     21  H4  5D5 d   1      45.578  42.257  12.371  0.00  0.00     0.036 H 
ATOM     22  H5  5D5 d   1      44.793  43.745  10.600  0.00  0.00     0.082 H 
ATOM     23  H6  5D5 d   1      44.715  45.864  12.812  0.00  0.00     0.037 H 
ATOM     24  H7  5D5 d   1      44.087  46.071  11.142  0.00  0.00     0.037 H 
ATOM     25  H8  5D5 d   1      46.354  45.561  10.255  0.00  0.00     0.041 H 
ATOM     26  H9  5D5 d   1      45.538  47.897  10.738  0.00  0.00     0.037 H 
ATOM     27  H10 5D5 d   1      47.323  47.699  10.704  0.00  0.00     0.037 H 
ATOM     28  H11 5D5 d   1      45.522  47.927  13.156  0.00  0.00     0.083 H 
ATOM     29  H12 5D5 d   1      48.541  47.516  13.030  0.00  0.00     0.045 H 
ATOM     30  H13 5D5 d   1      46.247  45.731  13.943  0.00  0.00     0.042 H 
ATOM     31  H14 5D5 d   1      49.221  45.109  14.062  0.00  0.00     0.033 H 
ATOM     32  H15 5D5 d   1      47.856  44.077  14.609  0.00  0.00     0.033 H 
ATOM     33  H30 5D5 d   1      47.852  47.770  17.645  0.00  0.00     0.041 H 
ATOM     34  H34 5D5 d   1      46.618  47.663  15.366  0.00  0.00     0.042 H 
ATOM     35  H35 5D5 d   1      46.932  49.941  15.055  0.00  0.00     0.033 H 
ATOM     36  H36 5D5 d   1      48.569  49.734  14.345  0.00  0.00     0.033 H 
ATOM     37  H37 5D5 d   1      49.451  50.014  16.452  0.00  0.00     0.033 H 
ATOM     38  H38 5D5 d   1      47.809  50.026  17.181  0.00  0.00     0.033 H 
ATOM     39  H39 5D5 d   1      49.035  45.228  16.500  0.00  0.00     0.034 H 
ATOM     40  H40 5D5 d   1      47.302  45.682  16.381  0.00  0.00     0.034 H 
ENDROOT
BRANCH  12  41
ATOM     41  C20 5D5 d   1      49.965  47.899  17.846  0.00  0.00    -0.053 C 
ATOM     42  H26 5D5 d   1      50.716  47.381  17.232  0.00  0.00     0.040 H 
BRANCH  41  43
ATOM     43  C22 5D5 d   1      50.555  49.247  18.266  0.00  0.00    -0.054 C 
ATOM     44  H24 5D5 d   1      51.453  49.446  17.663  0.00  0.00     0.034 H 
ATOM     45  H25 5D5 d   1      49.809  50.035  18.084  0.00  0.00     0.034 H 
BRANCH  43  46
ATOM     46  C23 5D5 d   1      50.940  49.261  19.747  0.00  0.00     0.009 C 
ATOM     47  H22 5D5 d   1      50.164  49.796  20.313  0.00  0.00     0.047 H 
ATOM     48  H23 5D5 d   1      51.009  48.224  20.108  0.00  0.00     0.047 H 
BRANCH  46  49
ATOM     49  C24 5D5 d   1      52.271  49.948  19.966  0.00  0.00     0.217 C 
ATOM     50  O25 5D5 d   1      53.087  49.470  20.741  0.00  0.00    -0.274 OA
ATOM     51  N26 5D5 d   1      52.501  51.068  19.277  0.00  0.00    -0.360 N 
ATOM     52  H17 5D5 d   1      51.784  51.432  18.682  0.00  0.00     0.162 HD
BRANCH  51  53
ATOM     53  C25 5D5 d   1      53.771  51.771  19.372  0.00  0.00     0.010 C 
ATOM     54  H18 5D5 d   1      54.305  51.665  18.416  0.00  0.00     0.065 H 
ATOM     55  H19 5D5 d   1      54.366  51.316  20.177  0.00  0.00     0.065 H 
BRANCH  53  56
ATOM     56  C26 5D5 d   1      53.597  53.251  19.671  0.00  0.00     0.060 C 
ATOM     57  H20 5D5 d   1      54.561  53.771  19.569  0.00  0.00     0.062 H 
ATOM     58  H21 5D5 d   1      53.214  53.385  20.694  0.00  0.00     0.062 H 
BRANCH  56  59
ATOM     59  S27 5D5 d   1      52.510  53.855  18.576  0.00  0.00     0.103 S 
ATOM     60  O30 5D5 d   1      51.333  52.959  18.523  0.00  0.00    -0.595 OA
ATOM     61  O28 5D5 d   1      53.180  53.902  17.260  0.00  0.00    -0.595 OA
ATOM     62  O29 5D5 d   1      52.076  55.212  18.983  0.00  0.00    -0.595 OA
ENDBRANCH  56  59
ENDBRANCH  53  56
ENDBRANCH  51  53
ENDBRANCH  46  49
ENDBRANCH  43  46
ENDBRANCH  41  43
BRANCH  41  63
ATOM     63  C21 5D5 d   1      49.667  47.034  19.065  0.00  0.00    -0.072 C 
ATOM     64  H27 5D5 d   1      49.245  46.072  18.738  0.00  0.00     0.028 H 
ATOM     65  H28 5D5 d   1      48.944  47.550  19.713  0.00  0.00     0.028 H 
ATOM     66  H29 5D5 d   1      50.597  46.855  19.624  0.00  0.00     0.028 H 
ENDBRANCH  41  63
ENDBRANCH  12  41
BRANCH  13  67
ATOM     67  C18 5D5 d   1      50.024  47.317  15.037  0.00  0.00    -0.068 C 
ATOM     68  H31 5D5 d   1      50.008  46.706  14.123  0.00  0.00     0.028 H 
ATOM     69  H32 5D5 d   1      50.818  46.955  15.707  0.00  0.00     0.028 H 
ATOM     70  H33 5D5 d   1      50.218  48.367  14.773  0.00  0.00     0.028 H 
ENDBRANCH  13  67
BRANCH   7  71
ATOM     71  O7  5D5 d   1      46.799  49.445  12.569  0.00  0.00    -0.395 OA
ATOM     72  H44 5D5 d   1      47.650  49.557  12.161  0.00  0.00     0.210 HD
ENDBRANCH   7  71
BRANCH  10  73
ATOM     73  C19 5D5 d   1      48.668  45.576  11.531  0.00  0.00    -0.068 C 
ATOM     74  H41 5D5 d   1      48.711  45.160  10.513  0.00  0.00     0.028 H 
ATOM     75  H42 5D5 d   1      49.457  45.120  12.147  0.00  0.00     0.028 H 
ATOM     76  H43 5D5 d   1      48.818  46.665  11.489  0.00  0.00     0.028 H 
ENDBRANCH  10  73
BRANCH   3  77
ATOM     77  O3  5D5 d   1      43.317  43.686  12.053  0.00  0.00    -0.396 OA
ATOM     78  H16 5D5 d   1      43.210  42.745  11.977  0.00  0.00     0.210 HD
ENDBRANCH   3  77
TORSDOF 12
