REMARK  11 active torsions:
REMARK  status: ('A' for Active; 'I' for Inactive)
REMARK    1  A    between atoms: CBG_1  and  CBC_2 
REMARK    2  A    between atoms: CBA_7  and  CAZ_8 
REMARK    3  A    between atoms: CAZ_8  and  NAW_9 
REMARK    4  A    between atoms: CAT_14  and  CBH_15 
REMARK    5  A    between atoms: CBH_15  and  NAR_16 
REMARK       I    between atoms: NAR_16  and  CAQ_17 
REMARK    6  A    between atoms: CAQ_17  and  CAP_19 
REMARK    7  A    between atoms: CAP_19  and  CAO_20 
REMARK    8  A    between atoms: CAO_20  and  CAN_21 
REMARK    9  A    between atoms: CAN_21  and  OAM_22 
REMARK   10  A    between atoms: OAM_22  and  CAJ_23 
REMARK   11  A    between atoms: NAG_30  and  CAK_31 
ROOT
ATOM      1  CBH 5D1 d   1     -11.426 -13.136   5.230  0.00  0.00    -0.001 C 
ATOM      2  H20 5D1 d   1     -12.057 -13.212   6.128  0.00  0.00     0.064 H 
ATOM      3  H21 5D1 d   1     -12.061 -13.164   4.332  0.00  0.00     0.064 H 
ENDROOT
BRANCH   1   4
ATOM      4  CAT 5D1 d   1     -10.392 -14.302   5.197  0.00  0.00    -0.036 C 
ATOM      5  CAY 5D1 d   1     -11.115 -15.677   5.425  0.00  0.00    -0.037 C 
ATOM      6  CAX 5D1 d   1     -10.096 -16.806   5.399  0.00  0.00     0.084 C 
ATOM      7  H13 5D1 d   1     -11.622 -15.665   6.401  0.00  0.00     0.036 H 
ATOM      8  H14 5D1 d   1     -11.857 -15.836   4.628  0.00  0.00     0.036 H 
ATOM      9  NAW 5D1 d   1      -9.056 -16.572   4.355  0.00  0.00    -0.067 N 
ATOM     10  H11 5D1 d   1      -9.608 -16.871   6.383  0.00  0.00     0.076 H 
ATOM     11  H12 5D1 d   1     -10.614 -17.752   5.183  0.00  0.00     0.076 H 
ATOM     12  CAV 5D1 d   1      -9.420 -15.620   3.278  0.00  0.00     0.084 C 
ATOM     13  H10 5D1 d   1      -8.303 -16.124   4.854  0.00  0.00     0.280 HD
ATOM     14  CAU 5D1 d   1      -9.574 -14.232   3.863  0.00  0.00    -0.037 C 
ATOM     15  H15 5D1 d   1     -10.370 -15.932   2.818  0.00  0.00     0.076 H 
ATOM     16  H16 5D1 d   1      -8.629 -15.610   2.514  0.00  0.00     0.076 H 
ATOM     17  H17 5D1 d   1     -10.104 -13.590   3.144  0.00  0.00     0.036 H 
ATOM     18  H18 5D1 d   1      -8.579 -13.810   4.067  0.00  0.00     0.036 H 
ATOM     19  H19 5D1 d   1      -9.685 -14.160   6.028  0.00  0.00     0.042 H 
BRANCH   9  20
ATOM     20  CAZ 5D1 d   1      -8.452 -17.826   3.775  0.00  0.00     0.107 C 
ATOM     21  H8  5D1 d   1      -7.575 -17.539   3.176  0.00  0.00     0.083 H 
ATOM     22  H9  5D1 d   1      -8.132 -18.470   4.608  0.00  0.00     0.083 H 
BRANCH  20  23
ATOM     23  CBA 5D1 d   1      -9.327 -18.575   2.948  0.00  0.00    -0.032 A 
ATOM     24  CBB 5D1 d   1     -10.154 -19.583   3.505  0.00  0.00    -0.070 A 
ATOM     25  CBC 5D1 d   1     -11.003 -20.350   2.698  0.00  0.00    -0.061 A 
ATOM     26  H4  5D1 d   1     -10.129 -19.763   4.574  0.00  0.00     0.085 H 
ATOM     27  CBD 5D1 d   1     -11.021 -20.130   1.305  0.00  0.00    -0.077 A 
ATOM     28  CBE 5D1 d   1     -10.213 -19.140   0.725  0.00  0.00    -0.082 A 
ATOM     29  H5  5D1 d   1     -11.666 -20.732   0.675  0.00  0.00     0.084 H 
ATOM     30  CBF 5D1 d   1      -9.353 -18.373   1.542  0.00  0.00    -0.075 A 
ATOM     31  H6  5D1 d   1     -10.249 -18.965  -0.344  0.00  0.00     0.083 H 
ATOM     32  H7  5D1 d   1      -8.709 -17.625   1.093  0.00  0.00     0.084 H 
BRANCH  25  33
ATOM     33  CBG 5D1 d   1     -11.806 -21.321   3.287  0.00  0.00    -0.051 C 
ATOM     34  H1  5D1 d   1     -11.638 -21.326   4.374  0.00  0.00     0.033 H 
ATOM     35  H2  5D1 d   1     -11.552 -22.308   2.872  0.00  0.00     0.033 H 
ATOM     36  H3  5D1 d   1     -12.863 -21.097   3.080  0.00  0.00     0.033 H 
ENDBRANCH  25  33
ENDBRANCH  20  23
ENDBRANCH   9  20
ENDBRANCH   1   4
BRANCH   1  37
ATOM     37  NAR 5D1 d   1     -10.638 -11.883   5.262  0.00  0.00    -0.361 N 
ATOM     38  CAQ 5D1 d   1     -11.030 -10.616   4.976  0.00  0.00     0.217 C 
ATOM     39  OAS 5D1 d   1     -10.151  -9.755   5.132  0.00  0.00    -0.274 OA
ATOM     40  H22 5D1 d   1      -9.681 -11.985   5.533  0.00  0.00     0.162 HD
BRANCH  38  41
ATOM     41  CAP 5D1 d   1     -12.499 -10.278   4.376  0.00  0.00     0.011 C 
ATOM     42  H23 5D1 d   1     -13.207 -11.065   4.676  0.00  0.00     0.047 H 
ATOM     43  H24 5D1 d   1     -12.445 -10.233   3.278  0.00  0.00     0.047 H 
BRANCH  41  44
ATOM     44  CAO 5D1 d   1     -12.982  -8.915   4.924  0.00  0.00    -0.037 C 
ATOM     45  H25 5D1 d   1     -12.121  -8.395   5.370  0.00  0.00     0.036 H 
ATOM     46  H26 5D1 d   1     -13.739  -9.102   5.700  0.00  0.00     0.036 H 
BRANCH  44  47
ATOM     47  CAN 5D1 d   1     -13.603  -7.995   3.848  0.00  0.00     0.026 C 
ATOM     48  H27 5D1 d   1     -13.935  -7.050   4.303  0.00  0.00     0.075 H 
ATOM     49  H28 5D1 d   1     -14.460  -8.494   3.371  0.00  0.00     0.075 H 
BRANCH  47  50
ATOM     50  OAM 5D1 d   1     -12.552  -7.737   2.857  0.00  0.00    -0.350 OA
BRANCH  50  51
ATOM     51  CAJ 5D1 d   1     -12.649  -6.817   1.814  0.00  0.00     0.086 A 
ATOM     52  CAB 5D1 d   1     -11.461  -6.610   1.060  0.00  0.00     0.024 A 
ATOM     53  CAC 5D1 d   1     -10.274  -7.275   1.380  0.00  0.00    -0.068 A 
ATOM     54  CAA 5D1 d   1     -11.469  -5.650   0.004  0.00  0.00     0.050 A 
ATOM     55  CAD 5D1 d   1      -9.146  -7.081   0.611  0.00  0.00    -0.082 A 
ATOM     56  H29 5D1 d   1     -10.240  -7.943   2.233  0.00  0.00     0.085 H 
ATOM     57  CAE 5D1 d   1      -9.168  -6.216  -0.469  0.00  0.00    -0.081 A 
ATOM     58  H30 5D1 d   1      -8.233  -7.612   0.855  0.00  0.00     0.083 H 
ATOM     59  CAF 5D1 d   1     -10.309  -5.516  -0.795  0.00  0.00    -0.056 A 
ATOM     60  H31 5D1 d   1      -8.274  -6.087  -1.068  0.00  0.00     0.083 H 
ATOM     61  H32 5D1 d   1     -10.318  -4.864  -1.661  0.00  0.00     0.087 H 
ATOM     62  NAG 5D1 d   1     -12.646  -4.991  -0.324  0.00  0.00    -0.318 N 
ATOM     63  CAH 5D1 d   1     -13.787  -5.138   0.374  0.00  0.00     0.250 A 
ATOM     64  OAL 5D1 d   1     -14.799  -4.457   0.093  0.00  0.00    -0.268 OA
ATOM     65  CAI 5D1 d   1     -13.803  -6.059   1.463  0.00  0.00     0.016 A 
ATOM     66  H36 5D1 d   1     -14.718  -6.186   2.039  0.00  0.00     0.096 H 
BRANCH  62  67
ATOM     67  CAK 5D1 d   1     -12.618  -4.001  -1.442  0.00  0.00    -0.011 C 
ATOM     68  H33 5D1 d   1     -11.621  -4.002  -1.907  0.00  0.00     0.057 H 
ATOM     69  H34 5D1 d   1     -12.838  -2.998  -1.049  0.00  0.00     0.057 H 
ATOM     70  H35 5D1 d   1     -13.374  -4.275  -2.193  0.00  0.00     0.057 H 
ENDBRANCH  62  67
ENDBRANCH  50  51
ENDBRANCH  47  50
ENDBRANCH  44  47
ENDBRANCH  41  44
ENDBRANCH  38  41
ENDBRANCH   1  37
TORSDOF 11
