REMARK  28 active torsions:
REMARK  status: ('A' for Active; 'I' for Inactive)
REMARK    1  A    between atoms: N_1  and  CA_2 
REMARK    2  A    between atoms: CA_2  and  C_3 
REMARK    3  A    between atoms: CA_2  and  CB_5 
REMARK       I    between atoms: C_3  and  N_10 
REMARK    4  A    between atoms: CB_5  and  CG_6 
REMARK    5  A    between atoms: CG_6  and  CD_7 
REMARK    6  A    between atoms: CD_7  and  CE_8 
REMARK    7  A    between atoms: CE_8  and  NZ_9 
REMARK    8  A    between atoms: N_10  and  CA_11 
REMARK    9  A    between atoms: CA_11  and  C_12 
REMARK   10  A    between atoms: CA_11  and  CB_14 
REMARK       I    between atoms: C_12  and  N_17 
REMARK   11  A    between atoms: CB_14  and  OG1_15 
REMARK   12  A    between atoms: CB_14  and  CG2_16 
REMARK   13  A    between atoms: N_17  and  CA_18 
REMARK   14  A    between atoms: CA_18  and  C_19 
REMARK   15  A    between atoms: CA_18  and  CB_21 
REMARK       I    between atoms: C_19  and  N_23 
REMARK   16  A    between atoms: CB_21  and  OG_22 
REMARK   17  A    between atoms: N_23  and  CA_24 
REMARK   18  A    between atoms: CA_24  and  CB_25 
REMARK   19  A    between atoms: CA_24  and  C_32 
REMARK   20  A    between atoms: CB_25  and  CG2_26 
REMARK   21  A    between atoms: CB_25  and  OG1_27 
REMARK   22  A    between atoms: OG1_27  and  P_28 
REMARK       I    between atoms: C_32  and  N_34 
REMARK   23  A    between atoms: N_34  and  CA_35 
REMARK   24  A    between atoms: CA_35  and  C_36 
REMARK   25  A    between atoms: CA_35  and  CB_38 
REMARK   26  A    between atoms: CB_38  and  CG1_39 
REMARK   27  A    between atoms: CB_38  and  CG2_40 
REMARK   28  A    between atoms: CG1_39  and  CD1_41 
ROOT
ATOM      1  CA  SER d   1     -48.570  -3.224  76.666  0.00  0.00     0.109 C 
ATOM      2  H24 SER d   1     -47.937  -2.676  75.953  0.00  0.00     0.090 H 
ENDROOT
BRANCH   1   3
ATOM      3  N   SER d   1     -49.891  -3.407  76.077  0.00  0.00    -0.344 N 
ATOM      4  C   THR d   1     -50.079  -3.823  74.826  0.00  0.00     0.243 C 
ATOM      5  O   THR d   1     -49.168  -3.927  73.994  0.00  0.00    -0.271 OA
ATOM      6  H23 SER d   1     -50.694  -3.211  76.639  0.00  0.00     0.163 HD
BRANCH   4   7
ATOM      7  CA  THR d   1     -51.525  -4.176  74.475  0.00  0.00     0.113 C 
ATOM      8  H17 THR d   1     -52.148  -3.284  74.640  0.00  0.00     0.091 H 
BRANCH   7   9
ATOM      9  N   THR d   1     -51.704  -4.585  73.086  0.00  0.00    -0.344 N 
ATOM     10  C   LYS d   1     -52.739  -4.166  72.363  0.00  0.00     0.249 C 
ATOM     11  O   LYS d   1     -53.550  -3.328  72.772  0.00  0.00    -0.271 OA
ATOM     12  H16 THR d   1     -51.032  -5.196  72.667  0.00  0.00     0.163 HD
BRANCH  10  13
ATOM     13  CA  LYS d   1     -52.883  -4.780  70.969  0.00  0.00     0.176 C 
ATOM     14  H4  LYS d   1     -52.000  -5.405  70.773  0.00  0.00     0.099 H 
BRANCH  13  15
ATOM     15  N   LYS d   1     -54.071  -5.627  70.884  0.00  0.00    -0.067 N 
ATOM     16  H1  LYS d   1     -54.140  -6.017  69.957  0.00  0.00     0.275 HD
ATOM     17  H2  LYS d   1     -54.892  -5.075  71.078  0.00  0.00     0.275 HD
ATOM     18  H3  LYS d   1     -54.001  -6.373  71.558  0.00  0.00     0.275 HD
ENDBRANCH  13  15
BRANCH  13  19
ATOM     19  CB  LYS d   1     -52.937  -3.679  69.918  0.00  0.00    -0.030 C 
ATOM     20  H5  LYS d   1     -53.914  -3.179  69.990  0.00  0.00     0.036 H 
ATOM     21  H6  LYS d   1     -52.834  -4.142  68.925  0.00  0.00     0.036 H 
BRANCH  19  22
ATOM     22  CG  LYS d   1     -51.857  -2.638  70.072  0.00  0.00    -0.061 C 
ATOM     23  H7  LYS d   1     -51.929  -2.193  71.075  0.00  0.00     0.033 H 
ATOM     24  H8  LYS d   1     -52.002  -1.856  69.312  0.00  0.00     0.033 H 
BRANCH  22  25
ATOM     25  CD  LYS d   1     -50.475  -3.248  69.898  0.00  0.00    -0.043 C 
ATOM     26  H9  LYS d   1     -50.354  -3.571  68.853  0.00  0.00     0.035 H 
ATOM     27  H10 LYS d   1     -50.381  -4.119  70.564  0.00  0.00     0.035 H 
BRANCH  25  28
ATOM     28  CE  LYS d   1     -49.381  -2.243  70.237  0.00  0.00     0.080 C 
ATOM     29  H11 LYS d   1     -48.408  -2.753  70.190  0.00  0.00     0.075 H 
ATOM     30  H12 LYS d   1     -49.550  -1.870  71.258  0.00  0.00     0.075 H 
BRANCH  28  31
ATOM     31  NZ  LYS d   1     -49.356  -1.075  69.298  0.00  0.00    -0.079 N 
ATOM     32  H13 LYS d   1     -48.617  -0.444  69.566  0.00  0.00     0.274 HD
ATOM     33  H14 LYS d   1     -50.240  -0.593  69.338  0.00  0.00     0.274 HD
ATOM     34  H15 LYS d   1     -49.194  -1.403  68.359  0.00  0.00     0.274 HD
ENDBRANCH  28  31
ENDBRANCH  25  28
ENDBRANCH  22  25
ENDBRANCH  19  22
ENDBRANCH  13  19
ENDBRANCH  10  13
ENDBRANCH   7   9
BRANCH   7  35
ATOM     35  CB  THR d   1     -51.979  -5.287  75.453  0.00  0.00     0.060 C 
ATOM     36  H18 THR d   1     -52.100  -4.845  76.453  0.00  0.00     0.086 H 
BRANCH  35  37
ATOM     37  OG1 THR d   1     -50.973  -6.305  75.512  0.00  0.00    -0.393 OA
ATOM     38  H19 THR d   1     -50.157  -5.925  75.817  0.00  0.00     0.210 HD
ENDBRANCH  35  37
BRANCH  35  39
ATOM     39  CG2 THR d   1     -53.315  -5.905  75.030  0.00  0.00    -0.050 C 
ATOM     40  H20 THR d   1     -53.601  -6.687  75.749  0.00  0.00     0.031 H 
ATOM     41  H21 THR d   1     -53.214  -6.347  74.028  0.00  0.00     0.031 H 
ATOM     42  H22 THR d   1     -54.090  -5.125  75.010  0.00  0.00     0.031 H 
ENDBRANCH  35  39
ENDBRANCH   7  35
ENDBRANCH   4   7
ENDBRANCH   1   3
BRANCH   1  43
ATOM     43  C   SER d   1     -47.952  -4.585  76.931  0.00  0.00     0.243 C 
ATOM     44  O   SER d   1     -48.582  -5.611  76.666  0.00  0.00    -0.271 OA
ATOM     45  N   TPO d   1     -46.731  -4.584  77.469  0.00  0.00    -0.344 N 
ATOM     46  H28 TPO d   1     -46.355  -3.720  77.804  0.00  0.00     0.163 HD
BRANCH  45  47
ATOM     47  CA  TPO d   1     -45.921  -5.792  77.588  0.00  0.00     0.114 C 
ATOM     48  H29 TPO d   1     -45.804  -6.186  76.568  0.00  0.00     0.091 H 
BRANCH  47  49
ATOM     49  CB  TPO d   1     -44.511  -5.445  78.114  0.00  0.00     0.076 C 
ATOM     50  H30 TPO d   1     -44.586  -4.935  79.086  0.00  0.00     0.087 H 
BRANCH  49  51
ATOM     51  CG2 TPO d   1     -43.671  -6.713  78.243  0.00  0.00    -0.049 C 
ATOM     52  H31 TPO d   1     -42.670  -6.453  78.618  0.00  0.00     0.031 H 
ATOM     53  H32 TPO d   1     -43.580  -7.194  77.258  0.00  0.00     0.031 H 
ATOM     54  H33 TPO d   1     -44.158  -7.405  78.946  0.00  0.00     0.031 H 
ENDBRANCH  49  51
BRANCH  49  55
ATOM     55  OG1 TPO d   1     -43.868  -4.619  77.164  0.00  0.00    -0.275 OA
BRANCH  55  56
ATOM     56  P   TPO d   1     -43.670  -3.114  77.708  0.00  0.00     0.422 P 
ATOM     57  O1P TPO d   1     -42.911  -2.352  76.502  0.00  0.00    -0.617 OA
ATOM     58  O2P TPO d   1     -45.070  -2.370  77.957  0.00  0.00    -0.617 OA
ATOM     59  O3P TPO d   1     -42.844  -3.094  78.943  0.00  0.00    -0.617 OA
ENDBRANCH  55  56
ENDBRANCH  49  55
ENDBRANCH  47  49
BRANCH  47  60
ATOM     60  C   TPO d   1     -46.525  -6.920  78.417  0.00  0.00     0.243 C 
ATOM     61  O   TPO d   1     -46.907  -6.729  79.575  0.00  0.00    -0.271 OA
ATOM     62  N   ILE d   1     -46.600  -8.096  77.802  0.00  0.00    -0.344 N 
ATOM     63  H34 ILE d   1     -46.376  -8.143  76.829  0.00  0.00     0.163 HD
BRANCH  62  64
ATOM     64  CA  ILE d   1     -46.995  -9.318  78.488  0.00  0.00     0.099 C 
ATOM     65  H35 ILE d   1     -47.865  -9.092  79.122  0.00  0.00     0.090 H 
BRANCH  64  66
ATOM     66  C   ILE d   1     -45.866  -9.833  79.377  0.00  0.00     0.197 C 
ATOM     67  O   ILE d   1     -44.700  -9.857  78.962  0.00  0.00    -0.646 OA
ATOM     68  OXT ILE d   1     -46.102 -10.233  80.524  0.00  0.00    -0.646 OA
ENDBRANCH  64  66
BRANCH  64  69
ATOM     69  CB  ILE d   1     -47.392 -10.413  77.484  0.00  0.00    -0.029 C 
ATOM     70  H36 ILE d   1     -46.613 -10.476  76.710  0.00  0.00     0.043 H 
BRANCH  69  71
ATOM     71  CG1 ILE d   1     -48.715 -10.048  76.806  0.00  0.00    -0.063 C 
ATOM     72  H37 ILE d   1     -49.117  -9.146  77.290  0.00  0.00     0.033 H 
ATOM     73  H38 ILE d   1     -49.419 -10.882  76.944  0.00  0.00     0.033 H 
BRANCH  71  74
ATOM     74  CD1 ILE d   1     -48.581  -9.777  75.328  0.00  0.00    -0.076 C 
ATOM     75  H42 ILE d   1     -49.567  -9.523  74.911  0.00  0.00     0.027 H 
ATOM     76  H43 ILE d   1     -48.190 -10.674  74.825  0.00  0.00     0.027 H 
ATOM     77  H44 ILE d   1     -47.888  -8.937  75.171  0.00  0.00     0.027 H 
ENDBRANCH  71  74
ENDBRANCH  69  71
BRANCH  69  78
ATOM     78  CG2 ILE d   1     -47.481 -11.765  78.181  0.00  0.00    -0.070 C 
ATOM     79  H39 ILE d   1     -46.517 -11.996  78.657  0.00  0.00     0.028 H 
ATOM     80  H40 ILE d   1     -47.721 -12.543  77.442  0.00  0.00     0.028 H 
ATOM     81  H41 ILE d   1     -48.269 -11.731  78.948  0.00  0.00     0.028 H 
ENDBRANCH  69  78
ENDBRANCH  64  69
ENDBRANCH  62  64
ENDBRANCH  47  60
ENDBRANCH  45  47
ENDBRANCH   1  43
BRANCH   1  82
ATOM     82  CB  SER d   1     -48.651  -2.416  77.967  0.00  0.00     0.044 C 
ATOM     83  H25 SER d   1     -49.051  -1.416  77.741  0.00  0.00     0.077 H 
ATOM     84  H26 SER d   1     -47.640  -2.320  78.390  0.00  0.00     0.077 H 
BRANCH  82  85
ATOM     85  OG  SER d   1     -49.494  -3.044  78.925  0.00  0.00    -0.398 OA
ATOM     86  H27 SER d   1     -49.152  -3.906  79.129  0.00  0.00     0.209 HD
ENDBRANCH  82  85
ENDBRANCH   1  82
TORSDOF 28
