REMARK  8 active torsions:
REMARK  status: ('A' for Active; 'I' for Inactive)
REMARK    1  A    between atoms: C8_3  and  S24_4 
REMARK    2  A    between atoms: S24_4  and  C25_5 
REMARK    3  A    between atoms: C25_5  and  C26_6 
REMARK    4  A    between atoms: C26_6  and  O27_7 
REMARK    5  A    between atoms: C10_12  and  N14_18 
REMARK    6  A    between atoms: C5_13  and  S1_14 
REMARK    7  A    between atoms: S1_14  and  N4_16 
REMARK    8  A    between atoms: N14_18  and  C15_19 
ROOT
ATOM      1  F13 5DU d   1      -5.303   5.424   3.969  0.00  0.00    -0.202 F 
ATOM      2  C9  5DU d   1      -4.938   5.218   2.677  0.00  0.00     0.164 C 
ATOM      3  C8  5DU d   1      -4.562   6.360   2.010  0.00  0.00     0.083 C 
ATOM      4  C7  5DU d   1      -4.161   6.240   0.722  0.00  0.00     0.176 C 
ATOM      5  F12 5DU d   1      -3.707   7.360   0.149  0.00  0.00    -0.201 F 
ATOM      6  C6  5DU d   1      -4.246   5.059   0.074  0.00  0.00     0.181 C 
ATOM      7  F11 5DU d   1      -3.842   5.144  -1.217  0.00  0.00    -0.201 F 
ATOM      8  C10 5DU d   1      -5.097   3.982   2.101  0.00  0.00     0.096 C 
ATOM      9  C5  5DU d   1      -4.749   3.945   0.759  0.00  0.00     0.150 C 
ENDROOT
BRANCH   8  10
ATOM     10  N14 5DU d   1      -5.622   2.824   2.733  0.00  0.00    -0.377 N 
ATOM     11  H8  5DU d   1      -5.846   1.992   2.168  0.00  0.00     0.160 HD
BRANCH  10  12
ATOM     12  C15 5DU d   1      -5.853   2.800   4.210  0.00  0.00     0.036 C 
ATOM     13  C19 5DU d   1      -6.320   1.422   4.391  0.00  0.00    -0.029 A 
ATOM     14  C20 5DU d   1      -5.597   0.310   4.228  0.00  0.00    -0.074 A 
ATOM     15  C18 5DU d   1      -7.668   1.366   4.590  0.00  0.00    -0.050 A 
ATOM     16  C21 5DU d   1      -6.209  -0.996   4.341  0.00  0.00    -0.082 A 
ATOM     17  H10 5DU d   1      -4.538   0.388   4.008  0.00  0.00     0.084 H 
ATOM     18  C22 5DU d   1      -7.597  -1.098   4.493  0.00  0.00    -0.082 A 
ATOM     19  H11 5DU d   1      -5.597  -1.890   4.308  0.00  0.00     0.083 H 
ATOM     20  C23 5DU d   1      -8.332   0.116   4.677  0.00  0.00    -0.076 A 
ATOM     21  H12 5DU d   1      -8.096  -2.060   4.472  0.00  0.00     0.083 H 
ATOM     22  H13 5DU d   1      -9.396   0.080   4.883  0.00  0.00     0.084 H 
ATOM     23  C17 5DU d   1      -8.298   2.732   4.690  0.00  0.00    -0.038 C 
ATOM     24  C16 5DU d   1      -7.053   3.643   4.724  0.00  0.00    -0.039 C 
ATOM     25  H14 5DU d   1      -8.895   2.833   5.608  0.00  0.00     0.040 H 
ATOM     26  H15 5DU d   1      -8.930   2.948   3.816  0.00  0.00     0.040 H 
ATOM     27  H16 5DU d   1      -7.207   4.516   4.073  0.00  0.00     0.036 H 
ATOM     28  H17 5DU d   1      -6.862   3.982   5.753  0.00  0.00     0.036 H 
ATOM     29  H9  5DU d   1      -4.934   3.042   4.765  0.00  0.00     0.080 H 
ENDBRANCH  10  12
ENDBRANCH   8  10
BRANCH   9  30
ATOM     30  S1  5DU d   1      -4.735   2.426  -0.242  0.00  0.00     0.262 S 
ATOM     31  O3  5DU d   1      -5.972   2.213  -1.125  0.00  0.00    -0.201 OA
ATOM     32  O2  5DU d   1      -3.561   2.334  -1.232  0.00  0.00    -0.201 OA
BRANCH  30  33
ATOM     33  N4  5DU d   1      -4.629   0.912   0.664  0.00  0.00    -0.324 N 
ATOM     34  H6  5DU d   1      -4.617   0.038   0.178  0.00  0.00     0.169 HD
ATOM     35  H7  5DU d   1      -4.581   0.929   1.663  0.00  0.00     0.169 HD
ENDBRANCH  30  33
ENDBRANCH   9  30
BRANCH   3  36
ATOM     36  S24 5DU d   1      -4.627   7.824   2.899  0.00  0.00    -0.121 SA
BRANCH  36  37
ATOM     37  C25 5DU d   1      -2.984   7.746   3.050  0.00  0.00     0.001 C 
ATOM     38  H1  5DU d   1      -2.457   7.857   2.091  0.00  0.00     0.052 H 
ATOM     39  H2  5DU d   1      -2.640   6.830   3.553  0.00  0.00     0.052 H 
BRANCH  37  40
ATOM     40  C26 5DU d   1      -2.883   9.012   3.952  0.00  0.00     0.025 C 
ATOM     41  H3  5DU d   1      -3.406   9.832   3.438  0.00  0.00     0.075 H 
ATOM     42  H4  5DU d   1      -1.817   9.265   4.056  0.00  0.00     0.075 H 
BRANCH  40  43
ATOM     43  O27 5DU d   1      -3.432   8.902   5.263  0.00  0.00    -0.400 OA
ATOM     44  H5  5DU d   1      -3.317   9.725   5.723  0.00  0.00     0.209 HD
ENDBRANCH  40  43
ENDBRANCH  37  40
ENDBRANCH  36  37
ENDBRANCH   3  36
TORSDOF 8
