REMARK  13 active torsions:
REMARK  status: ('A' for Active; 'I' for Inactive)
REMARK    1  A    between atoms: C16_12  and  O2_2 
REMARK    2  A    between atoms: O2_2  and  C18_14 
REMARK    3  A    between atoms: C2_24  and  C3_3 
REMARK    4  A    between atoms: C3_3  and  C4_26 
REMARK    5  A    between atoms: C11_18  and  C12_7 
REMARK    6  A    between atoms: C14_10  and  C15_11 
REMARK    7  A    between atoms: C10_17  and  C14_10 
REMARK    8  A    between atoms: C15_11  and  C16_12 
REMARK       I    between atoms: N_22  and  C17_13 
REMARK    9  A    between atoms: C17_13  and  C2_24 
REMARK   10  A    between atoms: C18_14  and  C19_16 
REMARK   11  A    between atoms: C10_17  and  C11_18 
REMARK   12  A    between atoms: C10_17  and  N_22 
REMARK   13  A    between atoms: C2_24  and  C1_25 
ROOT
ATOM      1  C10 5E8 d   1      26.696   4.656  24.526  0.00  0.00     0.013 C 
ATOM      2  H17 5E8 d   1      27.213   4.726  25.494  0.00  0.00     0.072 H 
ENDROOT
BRANCH   1   3
ATOM      3  C14 5E8 d   1      25.745   5.859  24.329  0.00  0.00    -0.038 C 
ATOM      4  H8  5E8 d   1      26.336   6.765  24.131  0.00  0.00     0.036 H 
ATOM      5  H9  5E8 d   1      25.077   5.663  23.477  0.00  0.00     0.036 H 
BRANCH   3   6
ATOM      6  C15 5E8 d   1      24.914   6.059  25.591  0.00  0.00     0.018 C 
ATOM      7  H10 5E8 d   1      24.412   5.109  25.824  0.00  0.00     0.048 H 
ATOM      8  H11 5E8 d   1      24.159   6.832  25.385  0.00  0.00     0.048 H 
BRANCH   6   9
ATOM      9  C16 5E8 d   1      25.713   6.491  26.824  0.00  0.00     0.258 C 
ATOM     10  O3  5E8 d   1      26.879   6.943  26.804  0.00  0.00    -0.265 OA
BRANCH   9  11
ATOM     11  O2  5E8 d   1      24.984   6.386  28.094  0.00  0.00    -0.322 OA
BRANCH  11  12
ATOM     12  C18 5E8 d   1      25.605   6.418  29.388  0.00  0.00     0.025 C 
ATOM     13  H12 5E8 d   1      24.865   6.114  30.143  0.00  0.00     0.074 H 
ATOM     14  H13 5E8 d   1      25.939   7.445  29.595  0.00  0.00     0.074 H 
BRANCH  12  15
ATOM     15  C19 5E8 d   1      26.812   5.480  29.476  0.00  0.00    -0.056 C 
ATOM     16  H14 5E8 d   1      27.251   5.541  30.483  0.00  0.00     0.030 H 
ATOM     17  H15 5E8 d   1      27.563   5.778  28.730  0.00  0.00     0.030 H 
ATOM     18  H16 5E8 d   1      26.489   4.447  29.279  0.00  0.00     0.030 H 
ENDBRANCH  12  15
ENDBRANCH  11  12
ENDBRANCH   9  11
ENDBRANCH   6   9
ENDBRANCH   3   6
ENDBRANCH   1   3
BRANCH   1  19
ATOM     19  C11 5E8 d   1      27.711   4.532  23.405  0.00  0.00    -0.035 C 
ATOM     20  H18 5E8 d   1      27.186   4.269  22.475  0.00  0.00     0.037 H 
ATOM     21  H19 5E8 d   1      28.222   5.498  23.277  0.00  0.00     0.037 H 
BRANCH  19  22
ATOM     22  C12 5E8 d   1      28.749   3.460  23.706  0.00  0.00     0.027 C 
ATOM     23  C13 5E8 d   1      29.952   3.572  22.814  0.00  0.00     0.221 C 
ATOM     24  O1  5E8 d   1      29.994   3.981  21.677  0.00  0.00    -0.273 OA
ATOM     25  N1  5E8 d   1      30.971   3.155  23.489  0.00  0.00    -0.361 N 
ATOM     26  C25 5E8 d   1      30.740   2.941  24.910  0.00  0.00    -0.004 C 
ATOM     27  H24 5E8 d   1      31.861   2.990  23.063  0.00  0.00     0.162 HD
ATOM     28  C26 5E8 d   1      29.372   3.581  25.080  0.00  0.00    -0.039 C 
ATOM     29  H22 5E8 d   1      30.719   1.870  25.159  0.00  0.00     0.064 H 
ATOM     30  H23 5E8 d   1      31.501   3.445  25.523  0.00  0.00     0.064 H 
ATOM     31  H20 5E8 d   1      28.776   3.041  25.830  0.00  0.00     0.036 H 
ATOM     32  H21 5E8 d   1      29.466   4.636  25.377  0.00  0.00     0.036 H 
ATOM     33  H6  5E8 d   1      28.271   2.476  23.590  0.00  0.00     0.054 H 
ENDBRANCH  19  22
ENDBRANCH   1  19
BRANCH   1  34
ATOM     34  N   5E8 d   1      25.816   3.475  24.466  0.00  0.00    -0.356 N 
ATOM     35  C17 5E8 d   1      25.566   2.764  25.596  0.00  0.00     0.222 C 
ATOM     36  O4  5E8 d   1      26.051   3.040  26.682  0.00  0.00    -0.273 OA
ATOM     37  H25 5E8 d   1      25.405   3.199  23.597  0.00  0.00     0.162 HD
BRANCH  35  38
ATOM     38  C2  5E8 d   1      24.600   1.619  25.477  0.00  0.00     0.024 C 
ATOM     39  H26 5E8 d   1      24.334   1.444  24.424  0.00  0.00     0.054 H 
BRANCH  38  40
ATOM     40  C3  5E8 d   1      23.367   2.101  26.228  0.00  0.00    -0.030 C 
ATOM     41  H1  5E8 d   1      22.885   2.881  25.620  0.00  0.00     0.041 H 
ATOM     42  H2  5E8 d   1      23.701   2.534  27.182  0.00  0.00     0.041 H 
BRANCH  40  43
ATOM     43  C4  5E8 d   1      22.321   1.039  26.539  0.00  0.00    -0.057 A 
ATOM     44  C5  5E8 d   1      21.966   0.748  27.882  0.00  0.00    -0.077 A 
ATOM     45  C6  5E8 d   1      20.992  -0.215  28.205  0.00  0.00    -0.082 A 
ATOM     46  H3  5E8 d   1      22.460   1.284  28.684  0.00  0.00     0.084 H 
ATOM     47  C7  5E8 d   1      20.353  -0.906  27.169  0.00  0.00    -0.083 A 
ATOM     48  H30 5E8 d   1      20.741  -0.418  29.240  0.00  0.00     0.083 H 
ATOM     49  C8  5E8 d   1      20.692  -0.621  25.834  0.00  0.00    -0.082 A 
ATOM     50  H4  5E8 d   1      19.602  -1.655  27.394  0.00  0.00     0.083 H 
ATOM     51  C9  5E8 d   1      21.675   0.349  25.515  0.00  0.00    -0.077 A 
ATOM     52  H5  5E8 d   1      20.192  -1.154  25.033  0.00  0.00     0.083 H 
ATOM     53  H7  5E8 d   1      21.923   0.553  24.480  0.00  0.00     0.084 H 
ENDBRANCH  40  43
ENDBRANCH  38  40
BRANCH  38  54
ATOM     54  C1  5E8 d   1      25.260   0.371  26.009  0.00  0.00    -0.064 C 
ATOM     55  H27 5E8 d   1      26.133   0.125  25.387  0.00  0.00     0.028 H 
ATOM     56  H28 5E8 d   1      24.543  -0.463  25.981  0.00  0.00     0.028 H 
ATOM     57  H29 5E8 d   1      25.584   0.541  27.046  0.00  0.00     0.028 H 
ENDBRANCH  38  54
ENDBRANCH  35  38
ENDBRANCH   1  34
TORSDOF 13
