REMARK  16 active torsions:
REMARK  status: ('A' for Active; 'I' for Inactive)
REMARK    1  A    between atoms: C2_1  and  C3_2 
REMARK    2  A    between atoms: C2_1  and  N2_8 
REMARK    3  A    between atoms: C17_18  and  C2_1 
REMARK    4  A    between atoms: C3_2  and  C4_3 
REMARK       I    between atoms: N2_8  and  C20_11 
REMARK    5  A    between atoms: C20_11  and  C22_12 
REMARK    6  A    between atoms: C22_12  and  C23_13 
REMARK    7  A    between atoms: C23_13  and  C27_14 
REMARK       I    between atoms: N_20  and  C17_18 
REMARK    8  A    between atoms: C10_21  and  N_20 
REMARK    9  A    between atoms: C10_21  and  C14_22 
REMARK   10  A    between atoms: C11_29  and  C10_21 
REMARK   11  A    between atoms: C14_22  and  C15_23 
REMARK   12  A    between atoms: C15_23  and  C16_24 
REMARK   13  A    between atoms: C16_24  and  O2_25 
REMARK   14  A    between atoms: O2_25  and  C18_26 
REMARK   15  A    between atoms: C18_26  and  C19_27 
REMARK   16  A    between atoms: C12_30  and  C11_29 
ROOT
ATOM      1  C17 5EB d   1     -25.299  13.920 -18.429  0.00  0.00     0.241 C 
ATOM      2  O4  5EB d   1     -25.897  13.524 -17.447  0.00  0.00    -0.271 OA
ATOM      3  N   5EB d   1     -24.085  14.242 -18.439  0.00  0.00    -0.355 N 
ATOM      4  H20 5EB d   1     -23.673  14.574 -19.287  0.00  0.00     0.162 HD
ENDROOT
BRANCH   1   5
ATOM      5  C2  5EB d   1     -26.007  14.012 -19.716  0.00  0.00     0.093 C 
ATOM      6  H1  5EB d   1     -25.631  14.857 -20.312  0.00  0.00     0.088 H 
BRANCH   5   7
ATOM      7  C3  5EB d   1     -27.505  14.152 -19.497  0.00  0.00    -0.014 C 
ATOM      8  H2  5EB d   1     -27.675  14.505 -18.469  0.00  0.00     0.043 H 
ATOM      9  H3  5EB d   1     -27.970  13.164 -19.627  0.00  0.00     0.043 H 
BRANCH   7  10
ATOM     10  C4  5EB d   1     -28.160  15.114 -20.445  0.00  0.00    -0.056 A 
ATOM     11  C5  5EB d   1     -27.527  15.630 -21.531  0.00  0.00    -0.077 A 
ATOM     12  C6  5EB d   1     -28.238  16.519 -22.319  0.00  0.00    -0.082 A 
ATOM     13  H4  5EB d   1     -26.506  15.357 -21.771  0.00  0.00     0.084 H 
ATOM     14  C7  5EB d   1     -29.549  16.898 -22.139  0.00  0.00    -0.083 A 
ATOM     15  H5  5EB d   1     -27.712  16.959 -23.158  0.00  0.00     0.083 H 
ATOM     16  C8  5EB d   1     -30.202  16.370 -21.059  0.00  0.00    -0.082 A 
ATOM     17  H6  5EB d   1     -30.041  17.582 -22.821  0.00  0.00     0.083 H 
ATOM     18  C9  5EB d   1     -29.497  15.488 -20.227  0.00  0.00    -0.077 A 
ATOM     19  H9  5EB d   1     -31.235  16.626 -20.852  0.00  0.00     0.083 H 
ATOM     20  H19 5EB d   1     -30.012  15.072 -19.369  0.00  0.00     0.084 H 
ENDBRANCH   7  10
ENDBRANCH   5   7
BRANCH   5  21
ATOM     21  N2  5EB d   1     -25.749  12.745 -20.375  0.00  0.00    -0.347 N 
ATOM     22  C20 5EB d   1     -26.317  12.254 -21.391  0.00  0.00     0.218 C 
ATOM     23  O21 5EB d   1     -27.238  12.811 -21.962  0.00  0.00    -0.274 OA
ATOM     24  H8  5EB d   1     -25.025  12.186 -19.971  0.00  0.00     0.163 HD
BRANCH  22  25
ATOM     25  C22 5EB d   1     -25.724  10.926 -21.744  0.00  0.00     0.010 C 
ATOM     26  H10 5EB d   1     -25.381  10.425 -20.827  0.00  0.00     0.047 H 
ATOM     27  H11 5EB d   1     -24.870  11.077 -22.420  0.00  0.00     0.047 H 
BRANCH  25  28
ATOM     28  C23 5EB d   1     -26.742  10.075 -22.419  0.00  0.00    -0.054 C 
ATOM     29  H12 5EB d   1     -27.707  10.602 -22.396  0.00  0.00     0.034 H 
ATOM     30  H13 5EB d   1     -26.828   9.129 -21.865  0.00  0.00     0.034 H 
BRANCH  28  31
ATOM     31  C27 5EB d   1     -26.402   9.759 -23.858  0.00  0.00    -0.054 A 
ATOM     32  C21 5EB d   1     -24.945   9.587 -24.260  0.00  0.00    -0.061 A 
ATOM     33  C24 5EB d   1     -25.720  10.857 -24.648  0.00  0.00    -0.061 A 
ATOM     34  H15 5EB d   1     -24.668   8.852 -25.031  0.00  0.00     0.033 H 
ATOM     35  H16 5EB d   1     -24.153   9.635 -23.498  0.00  0.00     0.033 H 
ATOM     36  H17 5EB d   1     -25.482  11.816 -24.165  0.00  0.00     0.033 H 
ATOM     37  H18 5EB d   1     -25.997  11.034 -25.698  0.00  0.00     0.033 H 
ATOM     38  H14 5EB d   1     -27.182   9.130 -24.311  0.00  0.00     0.040 H 
ENDBRANCH  28  31
ENDBRANCH  25  28
ENDBRANCH  22  25
ENDBRANCH   5  21
ENDBRANCH   1   5
BRANCH   3  39
ATOM     39  C10 5EB d   1     -23.269  14.141 -17.243  0.00  0.00     0.013 C 
ATOM     40  H21 5EB d   1     -23.836  13.716 -16.402  0.00  0.00     0.072 H 
BRANCH  39  41
ATOM     41  C14 5EB d   1     -22.716  15.490 -16.890  0.00  0.00    -0.038 C 
ATOM     42  H22 5EB d   1     -22.378  15.985 -17.812  0.00  0.00     0.036 H 
ATOM     43  H23 5EB d   1     -21.861  15.354 -16.212  0.00  0.00     0.036 H 
BRANCH  41  44
ATOM     44  C15 5EB d   1     -23.711  16.352 -16.229  0.00  0.00     0.018 C 
ATOM     45  H24 5EB d   1     -24.461  16.645 -16.979  0.00  0.00     0.048 H 
ATOM     46  H25 5EB d   1     -23.193  17.249 -15.858  0.00  0.00     0.048 H 
BRANCH  44  47
ATOM     47  C16 5EB d   1     -24.417  15.729 -15.095  0.00  0.00     0.258 C 
ATOM     48  O3  5EB d   1     -24.041  15.762 -13.951  0.00  0.00    -0.265 OA
BRANCH  47  49
ATOM     49  O2  5EB d   1     -25.654  15.121 -15.395  0.00  0.00    -0.322 OA
BRANCH  49  50
ATOM     50  C18 5EB d   1     -26.878  15.741 -14.903  0.00  0.00     0.025 C 
ATOM     51  H26 5EB d   1     -27.668  14.976 -14.884  0.00  0.00     0.074 H 
ATOM     52  H27 5EB d   1     -27.162  16.544 -15.599  0.00  0.00     0.074 H 
BRANCH  50  53
ATOM     53  C19 5EB d   1     -26.757  16.344 -13.495  0.00  0.00    -0.056 C 
ATOM     54  H28 5EB d   1     -27.720  16.788 -13.203  0.00  0.00     0.030 H 
ATOM     55  H29 5EB d   1     -25.979  17.122 -13.495  0.00  0.00     0.030 H 
ATOM     56  H30 5EB d   1     -26.486  15.554 -12.780  0.00  0.00     0.030 H 
ENDBRANCH  50  53
ENDBRANCH  49  50
ENDBRANCH  47  49
ENDBRANCH  44  47
ENDBRANCH  41  44
ENDBRANCH  39  41
BRANCH  39  57
ATOM     57  C11 5EB d   1     -22.100  13.256 -17.646  0.00  0.00    -0.035 C 
ATOM     58  H31 5EB d   1     -21.541  12.976 -16.741  0.00  0.00     0.037 H 
ATOM     59  H32 5EB d   1     -21.443  13.825 -18.321  0.00  0.00     0.037 H 
BRANCH  57  60
ATOM     60  C12 5EB d   1     -22.544  11.994 -18.352  0.00  0.00     0.027 A 
ATOM     61  C26 5EB d   1     -23.728  11.344 -17.645  0.00  0.00    -0.039 A 
ATOM     62  C25 5EB d   1     -23.233   9.961 -17.210  0.00  0.00    -0.004 A 
ATOM     63  H34 5EB d   1     -24.581  11.249 -18.332  0.00  0.00     0.036 H 
ATOM     64  H35 5EB d   1     -24.027  11.939 -16.769  0.00  0.00     0.036 H 
ATOM     65  N1  5EB d   1     -21.873   9.876 -17.740  0.00  0.00    -0.361 N 
ATOM     66  H36 5EB d   1     -23.229   9.877 -16.113  0.00  0.00     0.064 H 
ATOM     67  H37 5EB d   1     -23.867   9.169 -17.636  0.00  0.00     0.064 H 
ATOM     68  C13 5EB d   1     -21.440  10.973 -18.322  0.00  0.00     0.221 A 
ATOM     69  H7  5EB d   1     -21.316   9.049 -17.666  0.00  0.00     0.162 HD
ATOM     70  O1  5EB d   1     -20.317  11.177 -18.757  0.00  0.00    -0.273 OA
ATOM     71  H33 5EB d   1     -22.812  12.236 -19.391  0.00  0.00     0.054 H 
ENDBRANCH  57  60
ENDBRANCH  39  57
ENDBRANCH   3  39
TORSDOF 16
