REMARK  17 active torsions:
REMARK  status: ('A' for Active; 'I' for Inactive)
REMARK    1  A    between atoms: C2_1  and  C3_2 
REMARK    2  A    between atoms: C2_1  and  N5_15 
REMARK    3  A    between atoms: C17_17  and  C2_1 
REMARK    4  A    between atoms: C3_2  and  C4_3 
REMARK    5  A    between atoms: C20_9  and  C22_10 
REMARK    6  A    between atoms: C_13  and  C20_9 
REMARK    7  A    between atoms: C22_10  and  C23_11 
REMARK    8  A    between atoms: C22_10  and  C24_12 
REMARK       I    between atoms: N5_15  and  C_13 
REMARK       I    between atoms: N_19  and  C17_17 
REMARK    9  A    between atoms: C10_20  and  N_19 
REMARK   10  A    between atoms: C11_21  and  C10_20 
REMARK   11  A    between atoms: C10_20  and  C14_27 
REMARK   12  A    between atoms: C12_22  and  C11_21 
REMARK   13  A    between atoms: C14_27  and  C15_28 
REMARK   14  A    between atoms: C15_28  and  C16_29 
REMARK   15  A    between atoms: C16_29  and  O2_31 
REMARK   16  A    between atoms: O2_31  and  C18_32 
REMARK   17  A    between atoms: C18_32  and  C19_33 
ROOT
ATOM      1  C17 5EC d   1       6.909   7.385  -2.637  0.00  0.00     0.241 C 
ATOM      2  O4  5EC d   1       6.233   6.389  -2.862  0.00  0.00    -0.271 OA
ATOM      3  N   5EC d   1       6.870   8.430  -3.488  0.00  0.00    -0.355 N 
ATOM      4  H20 5EC d   1       7.395   9.258  -3.292  0.00  0.00     0.162 HD
ENDROOT
BRANCH   1   5
ATOM      5  C2  5EC d   1       7.768   7.404  -1.378  0.00  0.00     0.093 C 
ATOM      6  H1  5EC d   1       8.393   8.307  -1.312  0.00  0.00     0.088 H 
BRANCH   5   7
ATOM      7  C3  5EC d   1       8.588   6.151  -1.622  0.00  0.00    -0.014 C 
ATOM      8  H2  5EC d   1       8.878   6.145  -2.683  0.00  0.00     0.043 H 
ATOM      9  H3  5EC d   1       7.942   5.285  -1.413  0.00  0.00     0.043 H 
BRANCH   7  10
ATOM     10  C4  5EC d   1       9.834   5.991  -0.813  0.00  0.00    -0.056 A 
ATOM     11  C5  5EC d   1      10.760   7.004  -0.839  0.00  0.00    -0.077 A 
ATOM     12  C6  5EC d   1      11.944   6.834  -0.099  0.00  0.00    -0.082 A 
ATOM     13  H4  5EC d   1      10.584   7.907  -1.412  0.00  0.00     0.084 H 
ATOM     14  C7  5EC d   1      12.197   5.676   0.645  0.00  0.00    -0.083 A 
ATOM     15  H5  5EC d   1      12.684   7.626  -0.105  0.00  0.00     0.083 H 
ATOM     16  C8  5EC d   1      11.269   4.641   0.643  0.00  0.00    -0.082 A 
ATOM     17  H6  5EC d   1      13.112   5.587   1.220  0.00  0.00     0.083 H 
ATOM     18  C9  5EC d   1      10.086   4.808  -0.086  0.00  0.00    -0.077 A 
ATOM     19  H8  5EC d   1      11.457   3.726   1.193  0.00  0.00     0.083 H 
ATOM     20  H19 5EC d   1       9.349   4.013  -0.092  0.00  0.00     0.084 H 
ENDBRANCH   7  10
ENDBRANCH   5   7
BRANCH   5  21
ATOM     21  N5  5EC d   1       6.950   7.272  -0.169  0.00  0.00    -0.347 N 
ATOM     22  C   5EC d   1       5.842   8.021   0.084  0.00  0.00     0.218 C 
ATOM     23  O   5EC d   1       5.391   8.907  -0.646  0.00  0.00    -0.274 OA
ATOM     24  H18 5EC d   1       7.222   6.591   0.511  0.00  0.00     0.163 HD
BRANCH  22  25
ATOM     25  C20 5EC d   1       5.107   7.690   1.365  0.00  0.00     0.012 C 
ATOM     26  H9  5EC d   1       4.052   7.514   1.108  0.00  0.00     0.047 H 
ATOM     27  H10 5EC d   1       5.545   6.766   1.771  0.00  0.00     0.047 H 
BRANCH  25  28
ATOM     28  C22 5EC d   1       5.145   8.757   2.483  0.00  0.00    -0.053 C 
ATOM     29  H11 5EC d   1       4.096   9.001   2.706  0.00  0.00     0.039 H 
BRANCH  28  30
ATOM     30  C23 5EC d   1       5.769   8.178   3.733  0.00  0.00    -0.073 C 
ATOM     31  H12 5EC d   1       5.791   8.945   4.521  0.00  0.00     0.028 H 
ATOM     32  H13 5EC d   1       6.795   7.850   3.512  0.00  0.00     0.028 H 
ATOM     33  H14 5EC d   1       5.175   7.318   4.075  0.00  0.00     0.028 H 
ENDBRANCH  28  30
BRANCH  28  34
ATOM     34  C24 5EC d   1       5.845  10.083   2.187  0.00  0.00    -0.073 C 
ATOM     35  H15 5EC d   1       5.413  10.531   1.280  0.00  0.00     0.028 H 
ATOM     36  H16 5EC d   1       6.919   9.904   2.031  0.00  0.00     0.028 H 
ATOM     37  H17 5EC d   1       5.707  10.768   3.036  0.00  0.00     0.028 H 
ENDBRANCH  28  34
ENDBRANCH  25  28
ENDBRANCH  22  25
ENDBRANCH   5  21
ENDBRANCH   1   5
BRANCH   3  38
ATOM     38  C10 5EC d   1       6.049   8.345  -4.708  0.00  0.00     0.013 C 
ATOM     39  H21 5EC d   1       5.650   7.322  -4.774  0.00  0.00     0.072 H 
BRANCH  38  40
ATOM     40  C11 5EC d   1       4.855   9.239  -4.744  0.00  0.00    -0.035 C 
ATOM     41  H22 5EC d   1       4.325   9.080  -5.695  0.00  0.00     0.037 H 
ATOM     42  H23 5EC d   1       5.196  10.283  -4.685  0.00  0.00     0.037 H 
BRANCH  40  43
ATOM     43  C12 5EC d   1       3.883   8.977  -3.594  0.00  0.00     0.027 C 
ATOM     44  C13 5EC d   1       2.743   9.955  -3.641  0.00  0.00     0.221 C 
ATOM     45  N1  5EC d   1       1.642   9.305  -3.261  0.00  0.00    -0.361 N 
ATOM     46  O1  5EC d   1       2.899  11.188  -3.929  0.00  0.00    -0.273 OA
ATOM     47  C25 5EC d   1       1.834   7.901  -2.952  0.00  0.00    -0.004 C 
ATOM     48  H7  5EC d   1       0.750   9.753  -3.194  0.00  0.00     0.162 HD
ATOM     49  C26 5EC d   1       3.221   7.599  -3.549  0.00  0.00    -0.039 C 
ATOM     50  H25 5EC d   1       1.057   7.283  -3.425  0.00  0.00     0.064 H 
ATOM     51  H26 5EC d   1       1.826   7.731  -1.865  0.00  0.00     0.064 H 
ATOM     52  H27 5EC d   1       3.787   6.909  -2.905  0.00  0.00     0.036 H 
ATOM     53  H28 5EC d   1       3.132   7.170  -4.558  0.00  0.00     0.036 H 
ATOM     54  H24 5EC d   1       4.445   9.116  -2.659  0.00  0.00     0.054 H 
ENDBRANCH  40  43
ENDBRANCH  38  40
BRANCH  38  55
ATOM     55  C14 5EC d   1       7.063   8.523  -5.842  0.00  0.00    -0.038 C 
ATOM     56  H29 5EC d   1       7.814   9.261  -5.525  0.00  0.00     0.036 H 
ATOM     57  H30 5EC d   1       6.532   8.898  -6.729  0.00  0.00     0.036 H 
BRANCH  55  58
ATOM     58  C15 5EC d   1       7.783   7.230  -6.219  0.00  0.00     0.018 C 
ATOM     59  H31 5EC d   1       8.341   6.902  -5.330  0.00  0.00     0.048 H 
ATOM     60  H32 5EC d   1       8.490   7.479  -7.024  0.00  0.00     0.048 H 
BRANCH  58  61
ATOM     61  C16 5EC d   1       6.982   6.057  -6.689  0.00  0.00     0.258 C 
ATOM     62  O3  5EC d   1       6.033   6.129  -7.430  0.00  0.00    -0.265 OA
BRANCH  61  63
ATOM     63  O2  5EC d   1       7.417   4.737  -6.271  0.00  0.00    -0.322 OA
BRANCH  63  64
ATOM     64  C18 5EC d   1       6.598   3.960  -5.414  0.00  0.00     0.025 C 
ATOM     65  H33 5EC d   1       5.796   4.585  -4.995  0.00  0.00     0.074 H 
ATOM     66  H34 5EC d   1       7.203   3.542  -4.596  0.00  0.00     0.074 H 
BRANCH  64  67
ATOM     67  C19 5EC d   1       6.004   2.847  -6.229  0.00  0.00    -0.056 C 
ATOM     68  H35 5EC d   1       5.362   2.226  -5.588  0.00  0.00     0.030 H 
ATOM     69  H36 5EC d   1       6.811   2.229  -6.649  0.00  0.00     0.030 H 
ATOM     70  H37 5EC d   1       5.404   3.272  -7.048  0.00  0.00     0.030 H 
ENDBRANCH  64  67
ENDBRANCH  63  64
ENDBRANCH  61  63
ENDBRANCH  58  61
ENDBRANCH  55  58
ENDBRANCH  38  55
ENDBRANCH   3  38
TORSDOF 17
