REMARK  17 active torsions:
REMARK  status: ('A' for Active; 'I' for Inactive)
REMARK    1  A    between atoms: C3_17  and  C4_2 
REMARK    2  A    between atoms: C10_7  and  C11_19 
REMARK    3  A    between atoms: C10_7  and  C14_21 
REMARK    4  A    between atoms: N_30  and  C10_7 
REMARK    5  A    between atoms: C14_21  and  C15_9 
REMARK    6  A    between atoms: C15_9  and  C16_22 
REMARK    7  A    between atoms: C2_16  and  C17_10 
REMARK       I    between atoms: C17_10  and  N_30 
REMARK    8  A    between atoms: C22_12  and  C20_11 
REMARK       I    between atoms: C20_11  and  N2_32 
REMARK       I    between atoms: N6_35  and  C22_12 
REMARK    9  A    between atoms: C23_24  and  C1_15 
REMARK   10  A    between atoms: C2_16  and  C3_17 
REMARK   11  A    between atoms: N2_32  and  C2_16 
REMARK   12  A    between atoms: C11_19  and  C12_20 
REMARK   13  A    between atoms: C16_22  and  O2_27 
REMARK   14  A    between atoms: O2_27  and  C18_23 
REMARK   15  A    between atoms: C18_23  and  C19_28 
REMARK   16  A    between atoms: C21_36  and  C23_24 
REMARK   17  A    between atoms: N6_35  and  C21_36 
ROOT
ATOM      1  C2  5ED d   1      -8.086  -7.286  -1.213  0.00  0.00     0.093 C 
ATOM      2  H14 5ED d   1      -8.359  -8.351  -1.220  0.00  0.00     0.088 H 
ENDROOT
BRANCH   1   3
ATOM      3  C17 5ED d   1      -7.214  -7.008  -2.374  0.00  0.00     0.241 C 
ATOM      4  N   5ED d   1      -6.964  -8.044  -3.193  0.00  0.00    -0.355 N 
ATOM      5  H32 5ED d   1      -7.364  -8.936  -2.981  0.00  0.00     0.162 HD
ATOM      6  O4  5ED d   1      -6.774  -5.870  -2.501  0.00  0.00    -0.271 OA
BRANCH   4   7
ATOM      7  C10 5ED d   1      -6.125  -7.910  -4.387  0.00  0.00     0.013 C 
ATOM      8  H6  5ED d   1      -5.715  -6.889  -4.383  0.00  0.00     0.072 H 
BRANCH   7   9
ATOM      9  C11 5ED d   1      -4.926  -8.880  -4.389  0.00  0.00    -0.035 C 
ATOM     10  H18 5ED d   1      -4.329  -8.703  -5.295  0.00  0.00     0.037 H 
ATOM     11  H19 5ED d   1      -5.306  -9.912  -4.396  0.00  0.00     0.037 H 
BRANCH   9  12
ATOM     12  C12 5ED d   1      -4.032  -8.695  -3.168  0.00  0.00     0.027 C 
ATOM     13  C13 5ED d   1      -2.767  -9.504  -3.210  0.00  0.00     0.221 C 
ATOM     14  N1  5ED d   1      -1.755  -8.756  -2.827  0.00  0.00    -0.361 N 
ATOM     15  O1  5ED d   1      -2.686 -10.677  -3.528  0.00  0.00    -0.273 OA
ATOM     16  C25 5ED d   1      -2.106  -7.396  -2.505  0.00  0.00    -0.004 C 
ATOM     17  H1  5ED d   1      -0.819  -9.103  -2.764  0.00  0.00     0.162 HD
ATOM     18  C26 5ED d   1      -3.526  -7.262  -3.022  0.00  0.00    -0.039 C 
ATOM     19  H27 5ED d   1      -1.435  -6.687  -3.012  0.00  0.00     0.064 H 
ATOM     20  H28 5ED d   1      -2.066  -7.227  -1.419  0.00  0.00     0.064 H 
ATOM     21  H11 5ED d   1      -4.147  -6.704  -2.306  0.00  0.00     0.036 H 
ATOM     22  H12 5ED d   1      -3.536  -6.748  -3.994  0.00  0.00     0.036 H 
ATOM     23  H20 5ED d   1      -4.617  -8.975  -2.280  0.00  0.00     0.054 H 
ENDBRANCH   9  12
ENDBRANCH   7   9
BRANCH   7  24
ATOM     24  C14 5ED d   1      -6.976  -8.065  -5.673  0.00  0.00    -0.038 C 
ATOM     25  H21 5ED d   1      -7.675  -8.906  -5.553  0.00  0.00     0.036 H 
ATOM     26  H22 5ED d   1      -6.315  -8.257  -6.531  0.00  0.00     0.036 H 
BRANCH  24  27
ATOM     27  C15 5ED d   1      -7.773  -6.760  -5.915  0.00  0.00     0.018 C 
ATOM     28  H7  5ED d   1      -8.184  -6.439  -4.947  0.00  0.00     0.048 H 
ATOM     29  H8  5ED d   1      -8.598  -6.998  -6.603  0.00  0.00     0.048 H 
BRANCH  27  30
ATOM     30  C16 5ED d   1      -7.015  -5.584  -6.502  0.00  0.00     0.258 C 
ATOM     31  O3  5ED d   1      -5.981  -5.683  -7.150  0.00  0.00    -0.265 OA
BRANCH  30  32
ATOM     32  O2  5ED d   1      -7.554  -4.263  -6.299  0.00  0.00    -0.322 OA
BRANCH  32  33
ATOM     33  C18 5ED d   1      -6.753  -3.288  -5.664  0.00  0.00     0.025 C 
ATOM     34  H23 5ED d   1      -7.156  -2.282  -5.854  0.00  0.00     0.074 H 
ATOM     35  H24 5ED d   1      -5.719  -3.345  -6.036  0.00  0.00     0.074 H 
BRANCH  33  36
ATOM     36  C19 5ED d   1      -6.794  -3.598  -4.178  0.00  0.00    -0.056 C 
ATOM     37  H29 5ED d   1      -6.182  -2.864  -3.633  0.00  0.00     0.030 H 
ATOM     38  H30 5ED d   1      -6.396  -4.609  -4.003  0.00  0.00     0.030 H 
ATOM     39  H31 5ED d   1      -7.833  -3.546  -3.821  0.00  0.00     0.030 H 
ENDBRANCH  33  36
ENDBRANCH  32  33
ENDBRANCH  30  32
ENDBRANCH  27  30
ENDBRANCH  24  27
ENDBRANCH   7  24
ENDBRANCH   4   7
ENDBRANCH   1   3
BRANCH   1  40
ATOM     40  C3  5ED d   1      -9.330  -6.434  -1.413  0.00  0.00    -0.014 C 
ATOM     41  H15 5ED d   1      -9.059  -5.383  -1.236  0.00  0.00     0.043 H 
ATOM     42  H16 5ED d   1      -9.667  -6.556  -2.453  0.00  0.00     0.043 H 
BRANCH  40  43
ATOM     43  C4  5ED d   1     -10.486  -6.788  -0.495  0.00  0.00    -0.056 A 
ATOM     44  C5  5ED d   1     -10.860  -8.115  -0.255  0.00  0.00    -0.077 A 
ATOM     45  C6  5ED d   1     -11.955  -8.372   0.593  0.00  0.00    -0.082 A 
ATOM     46  H2  5ED d   1     -10.316  -8.932  -0.714  0.00  0.00     0.084 H 
ATOM     47  C7  5ED d   1     -12.667  -7.327   1.190  0.00  0.00    -0.083 A 
ATOM     48  H3  5ED d   1     -12.251  -9.397   0.786  0.00  0.00     0.083 H 
ATOM     49  C8  5ED d   1     -12.296  -6.001   0.932  0.00  0.00    -0.082 A 
ATOM     50  H4  5ED d   1     -13.501  -7.542   1.848  0.00  0.00     0.083 H 
ATOM     51  C9  5ED d   1     -11.206  -5.736   0.093  0.00  0.00    -0.077 A 
ATOM     52  H5  5ED d   1     -12.850  -5.184   1.380  0.00  0.00     0.083 H 
ATOM     53  H17 5ED d   1     -10.916  -4.710  -0.104  0.00  0.00     0.084 H 
ENDBRANCH  40  43
ENDBRANCH   1  40
BRANCH   1  54
ATOM     54  N2  5ED d   1      -7.483  -6.983   0.072  0.00  0.00    -0.339 N 
ATOM     55  C20 5ED d   1      -6.304  -7.408   0.559  0.00  0.00     0.310 C 
ATOM     56  O21 5ED d   1      -5.523  -8.139  -0.087  0.00  0.00    -0.262 OA
ATOM     57  H33 5ED d   1      -8.012  -6.382   0.671  0.00  0.00     0.163 HD
BRANCH  55  58
ATOM     58  C22 5ED d   1      -6.112  -6.830   1.935  0.00  0.00     0.309 C 
ATOM     59  O5  5ED d   1      -6.976  -6.046   2.314  0.00  0.00    -0.262 OA
ATOM     60  N6  5ED d   1      -5.161  -6.987   2.855  0.00  0.00    -0.353 N 
ATOM     61  H34 5ED d   1      -5.273  -6.438   3.683  0.00  0.00     0.162 HD
BRANCH  60  62
ATOM     62  C21 5ED d   1      -3.999  -7.829   2.830  0.00  0.00    -0.004 C 
ATOM     63  H35 5ED d   1      -4.192  -8.703   2.190  0.00  0.00     0.064 H 
ATOM     64  H36 5ED d   1      -3.144  -7.264   2.431  0.00  0.00     0.064 H 
BRANCH  62  65
ATOM     65  C23 5ED d   1      -3.683  -8.298   4.257  0.00  0.00    -0.047 C 
ATOM     66  H25 5ED d   1      -2.799  -8.952   4.225  0.00  0.00     0.035 H 
ATOM     67  H26 5ED d   1      -3.464  -7.416   4.877  0.00  0.00     0.035 H 
BRANCH  65  68
ATOM     68  C1  5ED d   1      -4.846  -9.073   4.896  0.00  0.00    -0.053 A 
ATOM     69  C24 5ED d   1      -4.409 -10.235   5.793  0.00  0.00    -0.061 A 
ATOM     70  C27 5ED d   1      -5.082 -10.520   4.458  0.00  0.00    -0.061 A 
ATOM     71  H9  5ED d   1      -4.945 -10.436   6.732  0.00  0.00     0.033 H 
ATOM     72  H10 5ED d   1      -3.339 -10.454   5.927  0.00  0.00     0.033 H 
ATOM     73  H37 5ED d   1      -6.104 -10.927   4.434  0.00  0.00     0.033 H 
ATOM     74  H38 5ED d   1      -4.498 -10.945   3.628  0.00  0.00     0.033 H 
ATOM     75  H13 5ED d   1      -5.686  -8.410   5.152  0.00  0.00     0.040 H 
ENDBRANCH  65  68
ENDBRANCH  62  65
ENDBRANCH  60  62
ENDBRANCH  55  58
ENDBRANCH   1  54
TORSDOF 17
