REMARK  16 active torsions:
REMARK  status: ('A' for Active; 'I' for Inactive)
REMARK    1  A    between atoms: C21_3  and  C23_1 
REMARK    2  A    between atoms: C20_4  and  C22_2 
REMARK       I    between atoms: C22_2  and  N6_36 
REMARK    3  A    between atoms: N6_36  and  C21_3 
REMARK       I    between atoms: N2_30  and  C20_4 
REMARK    4  A    between atoms: O2_25  and  C18_8 
REMARK    5  A    between atoms: C18_8  and  C19_28 
REMARK    6  A    between atoms: C10_9  and  C11_16 
REMARK    7  A    between atoms: C10_9  and  C14_19 
REMARK    8  A    between atoms: N_32  and  C10_9 
REMARK    9  A    between atoms: C2_13  and  C3_14 
REMARK   10  A    between atoms: C17_22  and  C2_13 
REMARK   11  A    between atoms: C2_13  and  N2_30 
REMARK   12  A    between atoms: C3_14  and  C4_15 
REMARK   13  A    between atoms: C11_16  and  C12_17 
REMARK   14  A    between atoms: C14_19  and  C15_20 
REMARK   15  A    between atoms: C15_20  and  C16_21 
REMARK   16  A    between atoms: C16_21  and  O2_25 
REMARK       I    between atoms: C17_22  and  N_32 
ROOT
ATOM      1  C2  5EX d   1      -7.925  -7.290  -1.279  0.00  0.00     0.093 C 
ATOM      2  H16 5EX d   1      -8.190  -8.357  -1.298  0.00  0.00     0.088 H 
ENDROOT
BRANCH   1   3
ATOM      3  C3  5EX d   1      -9.179  -6.448  -1.522  0.00  0.00    -0.014 C 
ATOM      4  H17 5EX d   1      -9.506  -6.630  -2.556  0.00  0.00     0.043 H 
ATOM      5  H18 5EX d   1      -8.897  -5.391  -1.407  0.00  0.00     0.043 H 
BRANCH   3   6
ATOM      6  C4  5EX d   1     -10.365  -6.708  -0.614  0.00  0.00    -0.056 A 
ATOM      7  C5  5EX d   1     -10.789  -7.996  -0.288  0.00  0.00    -0.077 A 
ATOM      8  C6  5EX d   1     -11.896  -8.179   0.541  0.00  0.00    -0.082 A 
ATOM      9  H14 5EX d   1     -10.258  -8.856  -0.679  0.00  0.00     0.084 H 
ATOM     10  C7  5EX d   1     -12.583  -7.083   1.050  0.00  0.00    -0.083 A 
ATOM     11  H15 5EX d   1     -12.223  -9.182   0.790  0.00  0.00     0.083 H 
ATOM     12  C8  5EX d   1     -12.169  -5.797   0.723  0.00  0.00    -0.082 A 
ATOM     13  H13 5EX d   1     -13.438  -7.231   1.699  0.00  0.00     0.083 H 
ATOM     14  C9  5EX d   1     -11.073  -5.612  -0.110  0.00  0.00    -0.077 A 
ATOM     15  H26 5EX d   1     -12.701  -4.939   1.118  0.00  0.00     0.083 H 
ATOM     16  H27 5EX d   1     -10.763  -4.607  -0.372  0.00  0.00     0.084 H 
ENDBRANCH   3   6
ENDBRANCH   1   3
BRANCH   1  17
ATOM     17  C17 5EX d   1      -7.044  -6.993  -2.453  0.00  0.00     0.241 C 
ATOM     18  N   5EX d   1      -6.856  -8.010  -3.310  0.00  0.00    -0.355 N 
ATOM     19  H35 5EX d   1      -7.298  -8.882  -3.102  0.00  0.00     0.162 HD
ATOM     20  O4  5EX d   1      -6.550  -5.884  -2.560  0.00  0.00    -0.271 OA
BRANCH  18  21
ATOM     21  C10 5EX d   1      -6.052  -7.929  -4.522  0.00  0.00     0.013 C 
ATOM     22  H12 5EX d   1      -5.635  -6.912  -4.577  0.00  0.00     0.072 H 
BRANCH  21  23
ATOM     23  C11 5EX d   1      -4.870  -8.901  -4.548  0.00  0.00    -0.035 C 
ATOM     24  H19 5EX d   1      -4.230  -8.658  -5.409  0.00  0.00     0.037 H 
ATOM     25  H20 5EX d   1      -5.255  -9.926  -4.655  0.00  0.00     0.037 H 
BRANCH  23  26
ATOM     26  C12 5EX d   1      -4.030  -8.820  -3.269  0.00  0.00     0.027 C 
ATOM     27  C26 5EX d   1      -3.383  -7.459  -3.032  0.00  0.00    -0.039 C 
ATOM     28  C25 5EX d   1      -1.963  -7.763  -2.560  0.00  0.00    -0.004 C 
ATOM     29  H6  5EX d   1      -3.933  -6.900  -2.261  0.00  0.00     0.036 H 
ATOM     30  H7  5EX d   1      -3.362  -6.875  -3.964  0.00  0.00     0.036 H 
ATOM     31  N1  5EX d   1      -1.754  -9.143  -2.934  0.00  0.00    -0.361 N 
ATOM     32  H33 5EX d   1      -1.878  -7.637  -1.471  0.00  0.00     0.064 H 
ATOM     33  H34 5EX d   1      -1.236  -7.108  -3.063  0.00  0.00     0.064 H 
ATOM     34  C13 5EX d   1      -2.869  -9.751  -3.333  0.00  0.00     0.221 C 
ATOM     35  H28 5EX d   1      -0.863  -9.595  -2.897  0.00  0.00     0.162 HD
ATOM     36  O1  5EX d   1      -2.994 -10.897  -3.704  0.00  0.00    -0.273 OA
ATOM     37  H21 5EX d   1      -4.677  -9.075  -2.417  0.00  0.00     0.054 H 
ENDBRANCH  23  26
ENDBRANCH  21  23
BRANCH  21  38
ATOM     38  C14 5EX d   1      -6.978  -8.136  -5.747  0.00  0.00    -0.038 C 
ATOM     39  H22 5EX d   1      -7.678  -8.963  -5.557  0.00  0.00     0.036 H 
ATOM     40  H23 5EX d   1      -6.378  -8.361  -6.641  0.00  0.00     0.036 H 
BRANCH  38  41
ATOM     41  C15 5EX d   1      -7.746  -6.832  -5.943  0.00  0.00     0.018 C 
ATOM     42  H24 5EX d   1      -8.243  -6.597  -4.990  0.00  0.00     0.048 H 
ATOM     43  H25 5EX d   1      -8.506  -7.012  -6.718  0.00  0.00     0.048 H 
BRANCH  41  44
ATOM     44  C16 5EX d   1      -6.961  -5.609  -6.356  0.00  0.00     0.258 C 
ATOM     45  O3  5EX d   1      -6.036  -5.620  -7.157  0.00  0.00    -0.265 OA
BRANCH  44  46
ATOM     46  O2  5EX d   1      -7.338  -4.340  -5.771  0.00  0.00    -0.322 OA
BRANCH  46  47
ATOM     47  C18 5EX d   1      -6.529  -3.181  -5.955  0.00  0.00     0.025 C 
ATOM     48  H10 5EX d   1      -5.965  -3.275  -6.895  0.00  0.00     0.074 H 
ATOM     49  H11 5EX d   1      -5.827  -3.088  -5.113  0.00  0.00     0.074 H 
BRANCH  47  50
ATOM     50  C19 5EX d   1      -7.406  -1.951  -6.016  0.00  0.00    -0.056 C 
ATOM     51  H29 5EX d   1      -6.778  -1.059  -6.158  0.00  0.00     0.030 H 
ATOM     52  H30 5EX d   1      -7.970  -1.856  -5.077  0.00  0.00     0.030 H 
ATOM     53  H31 5EX d   1      -8.108  -2.043  -6.858  0.00  0.00     0.030 H 
ENDBRANCH  47  50
ENDBRANCH  46  47
ENDBRANCH  44  46
ENDBRANCH  41  44
ENDBRANCH  38  41
ENDBRANCH  21  38
ENDBRANCH  18  21
ENDBRANCH   1  17
BRANCH   1  54
ATOM     54  N2  5EX d   1      -7.341  -7.010   0.030  0.00  0.00    -0.339 N 
ATOM     55  C20 5EX d   1      -6.182  -7.462   0.507  0.00  0.00     0.310 C 
ATOM     56  O21 5EX d   1      -5.426  -8.176  -0.165  0.00  0.00    -0.262 OA
ATOM     57  H32 5EX d   1      -7.869  -6.414   0.635  0.00  0.00     0.163 HD
BRANCH  55  58
ATOM     58  C22 5EX d   1      -5.919  -6.964   1.895  0.00  0.00     0.309 C 
ATOM     59  O5  5EX d   1      -6.585  -6.012   2.261  0.00  0.00    -0.262 OA
ATOM     60  N6  5EX d   1      -5.070  -7.378   2.828  0.00  0.00    -0.353 N 
ATOM     61  H36 5EX d   1      -5.082  -6.864   3.686  0.00  0.00     0.162 HD
BRANCH  60  62
ATOM     62  C21 5EX d   1      -4.138  -8.465   2.768  0.00  0.00    -0.001 C 
ATOM     63  H2  5EX d   1      -4.498  -9.223   2.058  0.00  0.00     0.064 H 
ATOM     64  H3  5EX d   1      -3.156  -8.094   2.441  0.00  0.00     0.064 H 
BRANCH  62  65
ATOM     65  C23 5EX d   1      -4.019  -9.076   4.152  0.00  0.00    -0.039 A 
ATOM     66  C24 5EX d   1      -3.838 -10.592   4.180  0.00  0.00    -0.060 A 
ATOM     67  C27 5EX d   1      -5.178 -10.765   4.874  0.00  0.00    -0.064 A 
ATOM     68  H4  5EX d   1      -2.979 -10.927   4.780  0.00  0.00     0.033 H 
ATOM     69  H5  5EX d   1      -3.790 -11.053   3.183  0.00  0.00     0.033 H 
ATOM     70  C28 5EX d   1      -5.344  -9.253   4.877  0.00  0.00    -0.060 A 
ATOM     71  H8  5EX d   1      -5.114 -11.215   5.876  0.00  0.00     0.033 H 
ATOM     72  H9  5EX d   1      -5.931 -11.302   4.278  0.00  0.00     0.033 H 
ATOM     73  H37 5EX d   1      -6.215  -8.900   4.305  0.00  0.00     0.033 H 
ATOM     74  H38 5EX d   1      -5.363  -8.810   5.884  0.00  0.00     0.033 H 
ATOM     75  H1  5EX d   1      -3.261  -8.524   4.726  0.00  0.00     0.042 H 
ENDBRANCH  62  65
ENDBRANCH  60  62
ENDBRANCH  55  58
ENDBRANCH   1  54
TORSDOF 16
