REMARK  14 active torsions:
REMARK  status: ('A' for Active; 'I' for Inactive)
REMARK    1  A    between atoms: C2_2  and  C3_3 
REMARK    2  A    between atoms: C17_27  and  C2_2 
REMARK    3  A    between atoms: C2_2  and  N2_29 
REMARK    4  A    between atoms: C3_3  and  C4_4 
REMARK    5  A    between atoms: C18_16  and  C19_10 
REMARK    6  A    between atoms: C20_11  and  C22_12 
REMARK       I    between atoms: N2_29  and  C20_11 
REMARK    7  A    between atoms: C16_14  and  O2_15 
REMARK    8  A    between atoms: C15_17  and  C16_14 
REMARK    9  A    between atoms: O2_15  and  C18_16 
REMARK   10  A    between atoms: C14_18  and  C15_17 
REMARK   11  A    between atoms: C10_19  and  C14_18 
REMARK   12  A    between atoms: C10_19  and  C11_20 
REMARK   13  A    between atoms: N_26  and  C10_19 
REMARK   14  A    between atoms: C11_20  and  C12_21 
REMARK       I    between atoms: N_26  and  C17_27 
ROOT
ATOM      1  C10 5F2 d   1      -6.006  -7.998  -4.438  0.00  0.00     0.013 C 
ATOM      2  H22 5F2 d   1      -5.511  -7.016  -4.406  0.00  0.00     0.072 H 
ENDROOT
BRANCH   1   3
ATOM      3  C14 5F2 d   1      -6.927  -8.084  -5.691  0.00  0.00    -0.038 C 
ATOM      4  H20 5F2 d   1      -6.301  -8.240  -6.582  0.00  0.00     0.036 H 
ATOM      5  H21 5F2 d   1      -7.612  -8.936  -5.571  0.00  0.00     0.036 H 
BRANCH   3   6
ATOM      6  C15 5F2 d   1      -7.748  -6.814  -5.882  0.00  0.00     0.018 C 
ATOM      7  H18 5F2 d   1      -8.573  -7.050  -6.570  0.00  0.00     0.048 H 
ATOM      8  H19 5F2 d   1      -8.158  -6.531  -4.901  0.00  0.00     0.048 H 
BRANCH   6   9
ATOM      9  C16 5F2 d   1      -7.010  -5.600  -6.443  0.00  0.00     0.258 C 
ATOM     10  O3  5F2 d   1      -6.142  -5.608  -7.324  0.00  0.00    -0.265 OA
BRANCH   9  11
ATOM     11  O2  5F2 d   1      -7.442  -4.331  -5.900  0.00  0.00    -0.322 OA
BRANCH  11  12
ATOM     12  C18 5F2 d   1      -6.645  -3.164  -6.015  0.00  0.00     0.025 C 
ATOM     13  H16 5F2 d   1      -5.658  -3.417  -6.430  0.00  0.00     0.074 H 
ATOM     14  H17 5F2 d   1      -7.139  -2.428  -6.666  0.00  0.00     0.074 H 
BRANCH  12  15
ATOM     15  C19 5F2 d   1      -6.498  -2.609  -4.615  0.00  0.00    -0.056 C 
ATOM     16  H10 5F2 d   1      -5.884  -1.696  -4.645  0.00  0.00     0.030 H 
ATOM     17  H11 5F2 d   1      -6.011  -3.358  -3.973  0.00  0.00     0.030 H 
ATOM     18  H12 5F2 d   1      -7.492  -2.369  -4.209  0.00  0.00     0.030 H 
ENDBRANCH  12  15
ENDBRANCH  11  12
ENDBRANCH   9  11
ENDBRANCH   6   9
ENDBRANCH   3   6
ENDBRANCH   1   3
BRANCH   1  19
ATOM     19  C11 5F2 d   1      -4.914  -9.074  -4.569  0.00  0.00    -0.035 C 
ATOM     20  H23 5F2 d   1      -4.201  -8.731  -5.333  0.00  0.00     0.037 H 
ATOM     21  H24 5F2 d   1      -5.400 -10.000  -4.910  0.00  0.00     0.037 H 
BRANCH  19  22
ATOM     22  C12 5F2 d   1      -4.110  -9.413  -3.306  0.00  0.00     0.027 C 
ATOM     23  C26 5F2 d   1      -3.986  -8.254  -2.309  0.00  0.00    -0.039 C 
ATOM     24  C25 5F2 d   1      -2.626  -7.618  -2.549  0.00  0.00    -0.004 C 
ATOM     25  H26 5F2 d   1      -4.052  -8.632  -1.278  0.00  0.00     0.036 H 
ATOM     26  H27 5F2 d   1      -4.785  -7.518  -2.482  0.00  0.00     0.036 H 
ATOM     27  N1  5F2 d   1      -1.884  -8.680  -3.174  0.00  0.00    -0.361 N 
ATOM     28  H28 5F2 d   1      -2.708  -6.747  -3.215  0.00  0.00     0.064 H 
ATOM     29  H29 5F2 d   1      -2.159  -7.312  -1.601  0.00  0.00     0.064 H 
ATOM     30  C13 5F2 d   1      -2.653  -9.675  -3.601  0.00  0.00     0.221 C 
ATOM     31  H1  5F2 d   1      -0.889  -8.670  -3.277  0.00  0.00     0.162 HD
ATOM     32  O1  5F2 d   1      -2.245 -10.672  -4.158  0.00  0.00    -0.273 OA
ATOM     33  H25 5F2 d   1      -4.576 -10.286  -2.826  0.00  0.00     0.054 H 
ENDBRANCH  19  22
ENDBRANCH   1  19
BRANCH   1  34
ATOM     34  N   5F2 d   1      -6.876  -8.108  -3.271  0.00  0.00    -0.355 N 
ATOM     35  C17 5F2 d   1      -7.237  -7.064  -2.485  0.00  0.00     0.241 C 
ATOM     36  O4  5F2 d   1      -6.847  -5.908  -2.607  0.00  0.00    -0.271 OA
ATOM     37  H30 5F2 d   1      -7.229  -9.014  -3.036  0.00  0.00     0.162 HD
BRANCH  35  38
ATOM     38  C2  5F2 d   1      -8.152  -7.334  -1.331  0.00  0.00     0.093 C 
ATOM     39  H2  5F2 d   1      -8.341  -8.416  -1.282  0.00  0.00     0.088 H 
BRANCH  38  40
ATOM     40  C3  5F2 d   1      -9.453  -6.605  -1.547  0.00  0.00    -0.014 C 
ATOM     41  H3  5F2 d   1      -9.816  -6.822  -2.562  0.00  0.00     0.043 H 
ATOM     42  H4  5F2 d   1      -9.274  -5.524  -1.445  0.00  0.00     0.043 H 
BRANCH  40  43
ATOM     43  C4  5F2 d   1     -10.507  -7.016  -0.559  0.00  0.00    -0.056 A 
ATOM     44  C5  5F2 d   1     -10.748  -8.364  -0.253  0.00  0.00    -0.077 A 
ATOM     45  C6  5F2 d   1     -11.776  -8.710   0.634  0.00  0.00    -0.082 A 
ATOM     46  H5  5F2 d   1     -10.138  -9.139  -0.703  0.00  0.00     0.084 H 
ATOM     47  C7  5F2 d   1     -12.547  -7.715   1.226  0.00  0.00    -0.083 A 
ATOM     48  H6  5F2 d   1     -11.970  -9.752   0.859  0.00  0.00     0.083 H 
ATOM     49  C8  5F2 d   1     -12.305  -6.363   0.922  0.00  0.00    -0.082 A 
ATOM     50  H7  5F2 d   1     -13.334  -7.981   1.922  0.00  0.00     0.083 H 
ATOM     51  C9  5F2 d   1     -11.291  -6.012   0.018  0.00  0.00    -0.077 A 
ATOM     52  H8  5F2 d   1     -12.904  -5.589   1.388  0.00  0.00     0.083 H 
ATOM     53  H9  5F2 d   1     -11.117  -4.971  -0.231  0.00  0.00     0.084 H 
ENDBRANCH  40  43
ENDBRANCH  38  40
BRANCH  38  54
ATOM     54  N2  5F2 d   1      -7.602  -6.896  -0.054  0.00  0.00    -0.348 N 
ATOM     55  C20 5F2 d   1      -6.445  -7.363   0.419  0.00  0.00     0.214 C 
ATOM     56  O21 5F2 d   1      -5.779  -8.183  -0.185  0.00  0.00    -0.274 OA
ATOM     57  H31 5F2 d   1      -8.109  -6.223   0.485  0.00  0.00     0.163 HD
BRANCH  55  58
ATOM     58  C22 5F2 d   1      -6.025  -6.788   1.746  0.00  0.00    -0.003 C 
ATOM     59  H13 5F2 d   1      -5.066  -7.232   2.051  0.00  0.00     0.040 H 
ATOM     60  H14 5F2 d   1      -6.790  -7.015   2.503  0.00  0.00     0.040 H 
ATOM     61  H15 5F2 d   1      -5.912  -5.698   1.654  0.00  0.00     0.040 H 
ENDBRANCH  55  58
ENDBRANCH  38  54
ENDBRANCH  35  38
ENDBRANCH   1  34
TORSDOF 14
