REMARK WARNING: 32 MAX_TORS EXCEEDED!!!
REMARK  42 active torsions:
REMARK  status: ('A' for Active; 'I' for Inactive)
REMARK    1  A    between atoms: N_1  and  CA_2 
REMARK    2  A    between atoms: CA_2  and  C_3 
REMARK    3  A    between atoms: CA_2  and  CB_5 
REMARK       I    between atoms: C_3  and  N_10 
REMARK    4  A    between atoms: CB_5  and  CG_6 
REMARK    5  A    between atoms: CG_6  and  CD_7 
REMARK    6  A    between atoms: N_10  and  CA_11 
REMARK    7  A    between atoms: CA_11  and  C_12 
REMARK    8  A    between atoms: CA_11  and  CB_14 
REMARK       I    between atoms: C_12  and  N_18 
REMARK    9  A    between atoms: CB_14  and  CG_15 
REMARK   10  A    between atoms: N_18  and  CA_19 
REMARK   11  A    between atoms: CA_19  and  C_20 
REMARK   12  A    between atoms: CA_19  and  CB_22 
REMARK       I    between atoms: C_20  and  N_27 
REMARK   13  A    between atoms: CB_22  and  CG_23 
REMARK   14  A    between atoms: CG_23  and  CD_24 
REMARK   15  A    between atoms: N_27  and  CA_28 
REMARK   16  A    between atoms: CA_28  and  C_29 
REMARK   17  A    between atoms: CA_28  and  CB_31 
REMARK       I    between atoms: C_29  and  N_41 
REMARK   18  A    between atoms: CB_31  and  CG_32 
REMARK   19  A    between atoms: N_41  and  CA_42 
REMARK   20  A    between atoms: CA_42  and  C_43 
REMARK   21  A    between atoms: CA_42  and  CB_45 
REMARK       I    between atoms: C_43  and  N_48 
REMARK   22  A    between atoms: CB_45  and  CG1_46 
REMARK   23  A    between atoms: CB_45  and  CG2_47 
REMARK   24  A    between atoms: N_48  and  CA_49 
REMARK   25  A    between atoms: CA_49  and  C_50 
REMARK   26  A    between atoms: CA_49  and  CB_52 
REMARK       I    between atoms: C_50  and  N_56 
REMARK   27  A    between atoms: CB_52  and  CG_53 
REMARK       I    between atoms: CG_53  and  ND2_55 
REMARK   28  A    between atoms: N_56  and  CA_57 
REMARK   29  A    between atoms: CA_57  and  C_58 
REMARK   30  A    between atoms: CA_57  and  CB_60 
REMARK       I    between atoms: C_58  and  N_63 
REMARK   31  A    between atoms: CB_60  and  CG1_61 
REMARK   32  A    between atoms: CB_60  and  CG2_62 
REMARK   33  A    between atoms: N_63  and  CA_64 
REMARK   34  A    between atoms: CA_64  and  C_65 
REMARK   35  A    between atoms: CA_64  and  CB_67 
REMARK       I    between atoms: C_65  and  N_72 
REMARK   36  A    between atoms: CB_67  and  CG_68 
REMARK   37  A    between atoms: CG_68  and  CD_69 
REMARK       I    between atoms: CD_69  and  NE2_71 
REMARK   38  A    between atoms: N_72  and  CA_73 
REMARK   39  A    between atoms: CA_73  and  C_74 
REMARK   40  A    between atoms: CA_73  and  CB_76 
REMARK   41  A    between atoms: CB_76  and  CG_77 
REMARK   42  A    between atoms: CZ_82  and  OH_83 
ROOT
ATOM      1  CA  VAL d   1       5.611 -59.352   6.341  0.00  0.00     0.092 C 
ATOM      2  H30 VAL d   1       5.948 -59.617   5.328  0.00  0.00     0.088 H 
ENDROOT
BRANCH   1   3
ATOM      3  N   VAL d   1       6.750 -59.386   7.245  0.00  0.00    -0.346 N 
ATOM      4  C   TRP d   1       8.007 -59.445   6.816  0.00  0.00     0.241 C 
ATOM      5  O   TRP d   1       8.322 -59.722   5.660  0.00  0.00    -0.271 OA
ATOM      6  H29 VAL d   1       6.580 -59.364   8.230  0.00  0.00     0.163 HD
BRANCH   4   7
ATOM      7  CA  TRP d   1       9.059 -59.144   7.872  0.00  0.00     0.093 C 
ATOM      8  H20 TRP d   1       8.636 -59.415   8.851  0.00  0.00     0.088 H 
BRANCH   7   9
ATOM      9  N   TRP d   1      10.309 -59.876   7.717  0.00  0.00    -0.346 N 
ATOM     10  C   GLU d   1      10.440 -61.144   8.088  0.00  0.00     0.241 C 
ATOM     11  O   GLU d   1       9.485 -61.861   8.389  0.00  0.00    -0.271 OA
ATOM     12  H19 TRP d   1      11.096 -59.407   7.317  0.00  0.00     0.163 HD
BRANCH  10  13
ATOM     13  CA  GLU d   1      11.867 -61.681   8.115  0.00  0.00     0.090 C 
ATOM     14  H14 GLU d   1      12.528 -60.889   8.496  0.00  0.00     0.087 H 
BRANCH  13  15
ATOM     15  N   GLU d   1      11.958 -62.827   9.013  0.00  0.00    -0.346 N 
ATOM     16  C   ASP d   1      13.120 -63.228   9.516  0.00  0.00     0.241 C 
ATOM     17  O   ASP d   1      14.196 -62.713   9.211  0.00  0.00    -0.271 OA
ATOM     18  H13 GLU d   1      11.124 -63.323   9.256  0.00  0.00     0.163 HD
BRANCH  16  19
ATOM     19  CA  ASP d   1      13.058 -64.389  10.507  0.00  0.00     0.098 C 
ATOM     20  H10 ASP d   1      12.249 -64.184  11.224  0.00  0.00     0.088 H 
BRANCH  19  21
ATOM     21  N   ASP d   1      12.760 -65.654   9.837  0.00  0.00    -0.345 N 
ATOM     22  C   GLU d   1      13.498 -66.126   8.833  0.00  0.00     0.249 C 
ATOM     23  O   GLU d   1      14.489 -65.542   8.392  0.00  0.00    -0.271 OA
ATOM     24  H9  ASP d   1      11.971 -66.186  10.145  0.00  0.00     0.163 HD
BRANCH  22  25
ATOM     25  CA  GLU d   1      13.055 -67.464   8.239  0.00  0.00     0.176 C 
ATOM     26  H4  GLU d   1      13.798 -68.226   8.517  0.00  0.00     0.099 H 
BRANCH  25  27
ATOM     27  N   GLU d   1      11.759 -67.879   8.762  0.00  0.00    -0.066 N 
ATOM     28  H1  GLU d   1      11.498 -68.762   8.351  0.00  0.00     0.275 HD
ATOM     29  H2  GLU d   1      11.066 -67.184   8.533  0.00  0.00     0.275 HD
ATOM     30  H3  GLU d   1      11.817 -67.979   9.763  0.00  0.00     0.275 HD
ENDBRANCH  25  27
BRANCH  25  31
ATOM     31  CB  GLU d   1      13.004 -67.370   6.712  0.00  0.00    -0.021 C 
ATOM     32  H5  GLU d   1      13.939 -66.909   6.362  0.00  0.00     0.037 H 
ATOM     33  H6  GLU d   1      12.153 -66.731   6.433  0.00  0.00     0.037 H 
BRANCH  31  34
ATOM     34  CG  GLU d   1      12.843 -68.713   6.016  0.00  0.00     0.018 C 
ATOM     35  H7  GLU d   1      11.966 -69.225   6.438  0.00  0.00     0.049 H 
ATOM     36  H8  GLU d   1      13.744 -69.316   6.202  0.00  0.00     0.049 H 
BRANCH  34  37
ATOM     37  CD  GLU d   1      12.651 -68.576   4.518  0.00  0.00     0.172 C 
ATOM     38  OE1 GLU d   1      12.907 -69.560   3.792  0.00  0.00    -0.648 OA
ATOM     39  OE2 GLU d   1      12.240 -67.486   4.066  0.00  0.00    -0.648 OA
ENDBRANCH  34  37
ENDBRANCH  31  34
ENDBRANCH  25  31
ENDBRANCH  22  25
ENDBRANCH  19  21
BRANCH  19  40
ATOM     40  CB  ASP d   1      14.376 -64.490  11.283  0.00  0.00     0.043 C 
ATOM     41  H11 ASP d   1      15.193 -64.668  10.568  0.00  0.00     0.052 H 
ATOM     42  H12 ASP d   1      14.309 -65.336  11.982  0.00  0.00     0.052 H 
BRANCH  40  43
ATOM     43  CG  ASP d   1      14.687 -63.229  12.073  0.00  0.00     0.175 C 
ATOM     44  OD1 ASP d   1      14.231 -63.121  13.230  0.00  0.00    -0.648 OA
ATOM     45  OD2 ASP d   1      15.390 -62.347  11.536  0.00  0.00    -0.648 OA
ENDBRANCH  40  43
ENDBRANCH  19  40
ENDBRANCH  16  19
ENDBRANCH  13  15
BRANCH  13  46
ATOM     46  CB  GLU d   1      12.332 -62.058   6.705  0.00  0.00    -0.029 C 
ATOM     47  H15 GLU d   1      11.647 -62.823   6.311  0.00  0.00     0.037 H 
ATOM     48  H16 GLU d   1      13.346 -62.477   6.779  0.00  0.00     0.037 H 
BRANCH  46  49
ATOM     49  CG  GLU d   1      12.368 -60.896   5.715  0.00  0.00     0.018 C 
ATOM     50  H17 GLU d   1      11.341 -60.532   5.564  0.00  0.00     0.049 H 
ATOM     51  H18 GLU d   1      12.771 -61.262   4.760  0.00  0.00     0.049 H 
BRANCH  49  52
ATOM     52  CD  GLU d   1      13.227 -59.736   6.190  0.00  0.00     0.172 C 
ATOM     53  OE1 GLU d   1      14.172 -59.970   6.974  0.00  0.00    -0.648 OA
ATOM     54  OE2 GLU d   1      12.954 -58.588   5.780  0.00  0.00    -0.648 OA
ENDBRANCH  49  52
ENDBRANCH  46  49
ENDBRANCH  13  46
ENDBRANCH  10  13
ENDBRANCH   7   9
BRANCH   7  55
ATOM     55  CB  TRP d   1       9.348 -57.646   7.860  0.00  0.00    -0.012 C 
ATOM     56  H21 TRP d   1       8.410 -57.105   8.051  0.00  0.00     0.044 H 
ATOM     57  H22 TRP d   1       9.735 -57.370   6.868  0.00  0.00     0.044 H 
BRANCH  55  58
ATOM     58  CG  TRP d   1      10.341 -57.249   8.883  0.00  0.00    -0.028 A 
ATOM     59  CD1 TRP d   1      11.690 -57.139   8.718  0.00  0.00    -0.015 A 
ATOM     60  NE1 TRP d   1      12.279 -56.754   9.897  0.00  0.00    -0.365 N 
ATOM     61  H23 TRP d   1      12.222 -57.329   7.787  0.00  0.00     0.112 H 
ATOM     62  CE2 TRP d   1      11.305 -56.613  10.851  0.00  0.00     0.042 A 
ATOM     63  H24 TRP d   1      13.287 -56.597  10.041  0.00  0.00     0.165 HD
ATOM     64  CD2 TRP d   1      10.072 -56.916  10.246  0.00  0.00    -0.002 A 
ATOM     65  CZ2 TRP d   1      11.407 -56.240  12.187  0.00  0.00    -0.056 A 
ATOM     66  CE3 TRP d   1       8.907 -56.845  11.014  0.00  0.00    -0.070 A 
ATOM     67  CZ3 TRP d   1       9.010 -56.475  12.340  0.00  0.00    -0.082 A 
ATOM     68  H25 TRP d   1       7.942 -57.076  10.578  0.00  0.00     0.084 H 
ATOM     69  CH2 TRP d   1      10.251 -56.176  12.912  0.00  0.00    -0.081 A 
ATOM     70  H27 TRP d   1       8.114 -56.415  12.948  0.00  0.00     0.083 H 
ATOM     71  H28 TRP d   1      10.296 -55.887  13.956  0.00  0.00     0.083 H 
ATOM     72  H26 TRP d   1      12.367 -56.009  12.636  0.00  0.00     0.086 H 
ENDBRANCH  55  58
ENDBRANCH   7  55
ENDBRANCH   4   7
ENDBRANCH   1   3
BRANCH   1  73
ATOM     73  C   VAL d   1       5.073 -57.931   6.341  0.00  0.00     0.241 C 
ATOM     74  O   VAL d   1       4.505 -57.476   7.333  0.00  0.00    -0.271 OA
ATOM     75  N   ASN d   1       5.269 -57.228   5.231  0.00  0.00    -0.346 N 
ATOM     76  H38 ASN d   1       5.718 -57.664   4.451  0.00  0.00     0.163 HD
BRANCH  75  77
ATOM     77  CA  ASN d   1       4.846 -55.838   5.121  0.00  0.00     0.097 C 
ATOM     78  H39 ASN d   1       4.834 -55.406   6.132  0.00  0.00     0.088 H 
BRANCH  77  79
ATOM     79  C   ASN d   1       3.448 -55.701   4.532  0.00  0.00     0.241 C 
ATOM     80  O   ASN d   1       3.237 -55.972   3.350  0.00  0.00    -0.271 OA
ATOM     81  N   VAL d   1       2.500 -55.277   5.363  0.00  0.00    -0.346 N 
ATOM     82  H44 VAL d   1       2.737 -55.088   6.316  0.00  0.00     0.163 HD
BRANCH  81  83
ATOM     83  CA  VAL d   1       1.123 -55.080   4.921  0.00  0.00     0.092 C 
ATOM     84  H45 VAL d   1       1.010 -55.518   3.918  0.00  0.00     0.088 H 
BRANCH  83  85
ATOM     85  C   VAL d   1       0.874 -53.574   4.841  0.00  0.00     0.241 C 
ATOM     86  O   VAL d   1       1.528 -52.804   5.540  0.00  0.00    -0.271 OA
ATOM     87  N   GLN d   1      -0.063 -53.154   3.994  0.00  0.00    -0.346 N 
ATOM     88  H53 GLN d   1      -0.597 -53.827   3.482  0.00  0.00     0.163 HD
BRANCH  87  89
ATOM     89  CA  GLN d   1      -0.329 -51.730   3.795  0.00  0.00     0.090 C 
ATOM     90  H54 GLN d   1      -0.101 -51.206   4.735  0.00  0.00     0.087 H 
BRANCH  89  91
ATOM     91  C   GLN d   1      -1.787 -51.463   3.441  0.00  0.00     0.241 C 
ATOM     92  O   GLN d   1      -2.422 -52.261   2.751  0.00  0.00    -0.271 OA
ATOM     93  N   TYR d   1      -2.302 -50.331   3.916  0.00  0.00    -0.344 N 
ATOM     94  H61 TYR d   1      -1.756 -49.783   4.549  0.00  0.00     0.163 HD
BRANCH  93  95
ATOM     95  CA  TYR d   1      -3.635 -49.858   3.548  0.00  0.00     0.100 C 
ATOM     96  H62 TYR d   1      -3.855 -48.960   4.144  0.00  0.00     0.090 H 
BRANCH  95  97
ATOM     97  C   TYR d   1      -4.715 -50.894   3.844  0.00  0.00     0.197 C 
ATOM     98  O   TYR d   1      -5.578 -50.678   4.696  0.00  0.00    -0.646 OA
ATOM     99  OXT TYR d   1      -4.743 -51.965   3.236  0.00  0.00    -0.646 OA
ENDBRANCH  95  97
BRANCH  95 100
ATOM    100  CB  TYR d   1      -3.655 -49.472   2.065  0.00  0.00    -0.013 C 
ATOM    101  H63 TYR d   1      -2.794 -49.950   1.575  0.00  0.00     0.043 H 
ATOM    102  H64 TYR d   1      -3.557 -48.379   1.994  0.00  0.00     0.043 H 
BRANCH 100 103
ATOM    103  CG  TYR d   1      -4.906 -49.882   1.325  0.00  0.00    -0.056 A 
ATOM    104  CD1 TYR d   1      -4.996 -51.126   0.713  0.00  0.00    -0.074 A 
ATOM    105  CE1 TYR d   1      -6.135 -51.505   0.032  0.00  0.00    -0.051 A 
ATOM    106  H65 TYR d   1      -4.157 -51.810   0.771  0.00  0.00     0.084 H 
ATOM    107  CZ  TYR d   1      -7.200 -50.636  -0.050  0.00  0.00     0.065 A 
ATOM    108  H67 TYR d   1      -6.191 -52.481  -0.436  0.00  0.00     0.087 H 
ATOM    109  CE2 TYR d   1      -7.133 -49.393   0.544  0.00  0.00    -0.051 A 
ATOM    110  CD2 TYR d   1      -5.990 -49.022   1.225  0.00  0.00    -0.074 A 
ATOM    111  H68 TYR d   1      -7.973 -48.711   0.477  0.00  0.00     0.087 H 
ATOM    112  H66 TYR d   1      -5.939 -48.044   1.689  0.00  0.00     0.084 H 
BRANCH 107 113
ATOM    113  OH  TYR d   1      -8.334 -51.013  -0.730  0.00  0.00    -0.361 OA
ATOM    114  H69 TYR d   1      -8.218 -51.890  -1.076  0.00  0.00     0.217 HD
ENDBRANCH 107 113
ENDBRANCH 100 103
ENDBRANCH  95 100
ENDBRANCH  93  95
ENDBRANCH  89  91
BRANCH  89 115
ATOM    115  CB  GLN d   1       0.573 -51.169   2.692  0.00  0.00    -0.030 C 
ATOM    116  H55 GLN d   1      -0.045 -50.998   1.798  0.00  0.00     0.037 H 
ATOM    117  H56 GLN d   1       1.345 -51.919   2.466  0.00  0.00     0.037 H 
BRANCH 115 118
ATOM    118  CG  GLN d   1       1.272 -49.858   3.045  0.00  0.00     0.011 C 
ATOM    119  H57 GLN d   1       1.810 -49.498   2.156  0.00  0.00     0.047 H 
ATOM    120  H58 GLN d   1       1.990 -50.052   3.855  0.00  0.00     0.047 H 
BRANCH 118 121
ATOM    121  CD  GLN d   1       0.313 -48.773   3.500  0.00  0.00     0.215 C 
ATOM    122  OE1 GLN d   1      -0.808 -48.668   3.002  0.00  0.00    -0.274 OA
ATOM    123  NE2 GLN d   1       0.751 -47.962   4.457  0.00  0.00    -0.370 N 
ATOM    124  H59 GLN d   1       0.164 -47.228   4.798  0.00  0.00     0.159 HD
ATOM    125  H60 GLN d   1       1.668 -48.086   4.837  0.00  0.00     0.159 HD
ENDBRANCH 118 121
ENDBRANCH 115 118
ENDBRANCH  89 115
ENDBRANCH  87  89
ENDBRANCH  83  85
BRANCH  83 126
ATOM    126  CB  VAL d   1       0.076 -55.758   5.868  0.00  0.00    -0.033 C 
ATOM    127  H46 VAL d   1      -0.796 -56.028   5.254  0.00  0.00     0.042 H 
BRANCH 126 128
ATOM    128  CG1 VAL d   1       0.615 -57.050   6.512  0.00  0.00    -0.071 C 
ATOM    129  H47 VAL d   1      -0.157 -57.484   7.165  0.00  0.00     0.028 H 
ATOM    130  H48 VAL d   1       1.510 -56.817   7.107  0.00  0.00     0.028 H 
ATOM    131  H49 VAL d   1       0.876 -57.771   5.724  0.00  0.00     0.028 H 
ENDBRANCH 126 128
BRANCH 126 132
ATOM    132  CG2 VAL d   1      -0.392 -54.807   6.952  0.00  0.00    -0.071 C 
ATOM    133  H50 VAL d   1      -0.776 -53.886   6.490  0.00  0.00     0.028 H 
ATOM    134  H51 VAL d   1       0.452 -54.561   7.614  0.00  0.00     0.028 H 
ATOM    135  H52 VAL d   1      -1.191 -55.284   7.538  0.00  0.00     0.028 H 
ENDBRANCH 126 132
ENDBRANCH  83 126
ENDBRANCH  81  83
ENDBRANCH  77  79
BRANCH  77 136
ATOM    136  CB  ASN d   1       5.840 -55.052   4.268  0.00  0.00     0.036 C 
ATOM    137  H40 ASN d   1       5.929 -55.543   3.288  0.00  0.00     0.051 H 
ATOM    138  H41 ASN d   1       6.818 -55.057   4.771  0.00  0.00     0.051 H 
BRANCH 136 139
ATOM    139  CG  ASN d   1       5.410 -53.615   4.055  0.00  0.00     0.217 C 
ATOM    140  OD1 ASN d   1       5.703 -52.740   4.869  0.00  0.00    -0.274 OA
ATOM    141  ND2 ASN d   1       4.706 -53.366   2.957  0.00  0.00    -0.370 N 
ATOM    142  H42 ASN d   1       4.394 -52.436   2.763  0.00  0.00     0.159 HD
ATOM    143  H43 ASN d   1       4.487 -54.109   2.324  0.00  0.00     0.159 HD
ENDBRANCH 136 139
ENDBRANCH  77 136
ENDBRANCH  75  77
ENDBRANCH   1  73
BRANCH   1 144
ATOM    144  CB  VAL d   1       4.504 -60.339   6.762  0.00  0.00    -0.033 C 
ATOM    145  H31 VAL d   1       4.235 -60.129   7.808  0.00  0.00     0.042 H 
BRANCH 144 146
ATOM    146  CG1 VAL d   1       3.251 -60.167   5.903  0.00  0.00    -0.071 C 
ATOM    147  H32 VAL d   1       2.482 -60.884   6.228  0.00  0.00     0.028 H 
ATOM    148  H33 VAL d   1       3.502 -60.351   4.848  0.00  0.00     0.028 H 
ATOM    149  H34 VAL d   1       2.867 -59.142   6.015  0.00  0.00     0.028 H 
ENDBRANCH 144 146
BRANCH 144 150
ATOM    150  CG2 VAL d   1       5.013 -61.762   6.675  0.00  0.00    -0.071 C 
ATOM    151  H35 VAL d   1       5.913 -61.868   7.298  0.00  0.00     0.028 H 
ATOM    152  H36 VAL d   1       5.260 -62.000   5.630  0.00  0.00     0.028 H 
ATOM    153  H37 VAL d   1       4.235 -62.452   7.034  0.00  0.00     0.028 H 
ENDBRANCH 144 150
ENDBRANCH   1 144
TORSDOF 42
