REMARK  5 active torsions:
REMARK  status: ('A' for Active; 'I' for Inactive)
REMARK    1  A    between atoms: C04_8  and  C02_6 
REMARK    2  A    between atoms: C04_8  and  O05_9 
REMARK    3  A    between atoms: C06_10  and  C04_8 
REMARK    4  A    between atoms: C07_11  and  C06_10 
REMARK    5  A    between atoms: C07_11  and  C09_13 
ROOT
ATOM      1  C10 5ER d   1      34.246  76.497  63.565  0.00  0.00    -0.008 A 
ATOM      2  C13 5ER d   1      31.289  75.061  61.889  0.00  0.00    -0.056 A 
ATOM      3  C15 5ER d   1      31.153  76.658  60.045  0.00  0.00    -0.082 A 
ATOM      4  C17 5ER d   1      32.965  76.933  61.715  0.00  0.00     0.006 A 
ATOM      5  C09 5ER d   1      34.136  77.396  62.487  0.00  0.00     0.038 A 
ATOM      6  N11 5ER d   1      33.223  75.524  63.501  0.00  0.00    -0.364 N 
ATOM      7  C12 5ER d   1      32.427  75.765  62.371  0.00  0.00     0.043 A 
ATOM      8  C14 5ER d   1      30.647  75.514  60.722  0.00  0.00    -0.081 A 
ATOM      9  C16 5ER d   1      32.288  77.342  60.542  0.00  0.00    -0.070 A 
ATOM     10  H1  5ER d   1      35.011  76.545  64.339  0.00  0.00     0.112 H 
ATOM     11  H2  5ER d   1      30.921  74.187  62.414  0.00  0.00     0.086 H 
ATOM     12  H3  5ER d   1      30.666  77.008  59.142  0.00  0.00     0.083 H 
ATOM     13  H8  5ER d   1      33.084  74.759  64.177  0.00  0.00     0.165 HD
ATOM     14  H9  5ER d   1      29.774  74.996  60.342  0.00  0.00     0.083 H 
ATOM     15  H10 5ER d   1      32.652  78.210  60.005  0.00  0.00     0.084 H 
ENDROOT
BRANCH   5  16
ATOM     16  C07 5ER d   1      35.068  78.579  62.209  0.00  0.00     0.164 C 
ATOM     17  O08 5ER d   1      35.315  78.846  61.005  0.00  0.00    -0.292 OA
BRANCH  16  18
ATOM     18  C06 5ER d   1      35.707  79.391  63.254  0.00  0.00     0.028 C 
ATOM     19  H6  5ER d   1      34.928  80.082  63.608  0.00  0.00     0.049 H 
ATOM     20  H7  5ER d   1      35.966  78.686  64.058  0.00  0.00     0.049 H 
BRANCH  18  21
ATOM     21  C04 5ER d   1      36.825  80.162  63.066  0.00  0.00     0.125 C 
ATOM     22  H4  5ER d   1      36.366  80.992  63.623  0.00  0.00     0.100 H 
BRANCH  21  23
ATOM     23  C02 5ER d   1      38.031  80.135  64.055  0.00  0.00     0.203 C 
ATOM     24  O01 5ER d   1      37.807  79.870  65.275  0.00  0.00    -0.646 OA
ATOM     25  O03 5ER d   1      39.185  80.362  63.570  0.00  0.00    -0.646 OA
ENDBRANCH  21  23
BRANCH  21  26
ATOM     26  O05 5ER d   1      36.916  80.928  61.926  0.00  0.00    -0.384 OA
ATOM     27  H5  5ER d   1      37.649  80.628  61.402  0.00  0.00     0.210 HD
ENDBRANCH  21  26
ENDBRANCH  18  21
ENDBRANCH  16  18
ENDBRANCH   5  16
TORSDOF 5
