REMARK  4 active torsions:
REMARK  status: ('A' for Active; 'I' for Inactive)
REMARK    1  A    between atoms: C04_7  and  C02_5 
REMARK    2  A    between atoms: C06_9  and  C04_7 
REMARK    3  A    between atoms: C07_10  and  C06_9 
REMARK    4  A    between atoms: C07_10  and  C09_12 
ROOT
ATOM      1  C10 5EQ d   1      33.971  77.358  63.306  0.00  0.00    -0.067 A 
ATOM      2  C15 5EQ d   1      30.484  76.426  61.195  0.00  0.00    -0.056 A 
ATOM      3  C17 5EQ d   1      32.647  78.093  61.697  0.00  0.00    -0.057 A 
ATOM      4  C09 5EQ d   1      33.720  78.219  62.475  0.00  0.00     0.011 A 
ATOM      5  C11 5EQ d   1      33.129  76.191  63.490  0.00  0.00    -0.056 A 
ATOM      6  C12 5EQ d   1      32.011  76.050  62.695  0.00  0.00     0.042 A 
ATOM      7  N13 5EQ d   1      31.016  75.049  62.636  0.00  0.00    -0.365 N 
ATOM      8  C14 5EQ d   1      30.142  75.383  61.696  0.00  0.00    -0.022 A 
ATOM      9  C16 5EQ d   1      31.741  76.868  61.872  0.00  0.00    -0.007 A 
ATOM     10  H1  5EQ d   1      34.853  77.471  63.926  0.00  0.00     0.085 H 
ATOM     11  H2  5EQ d   1      29.969  76.952  60.392  0.00  0.00     0.086 H 
ATOM     12  H3  5EQ d   1      32.417  78.845  60.951  0.00  0.00     0.086 H 
ATOM     13  H6  5EQ d   1      33.374  75.445  64.237  0.00  0.00     0.087 H 
ATOM     14  H7  5EQ d   1      30.976  74.204  63.223  0.00  0.00     0.165 HD
ATOM     15  H8  5EQ d   1      29.259  74.809  61.421  0.00  0.00     0.111 H 
ENDROOT
BRANCH   4  16
ATOM     16  C07 5EQ d   1      34.658  79.439  62.307  0.00  0.00     0.167 C 
ATOM     17  O08 5EQ d   1      34.841  79.778  61.211  0.00  0.00    -0.292 OA
BRANCH  16  18
ATOM     18  C06 5EQ d   1      35.149  79.945  63.199  0.00  0.00     0.060 C 
ATOM     19  H4  5EQ d   1      34.350  80.509  63.702  0.00  0.00     0.057 H 
ATOM     20  H5  5EQ d   1      35.492  79.131  63.855  0.00  0.00     0.057 H 
BRANCH  18  21
ATOM     21  C04 5EQ d   1      36.353  80.929  63.075  0.00  0.00     0.232 C 
ATOM     22  O05 5EQ d   1      36.375  81.825  62.145  0.00  0.00    -0.285 OA
BRANCH  21  23
ATOM     23  C02 5EQ d   1      37.716  80.812  63.990  0.00  0.00     0.247 C 
ATOM     24  O01 5EQ d   1      38.786  80.823  63.378  0.00  0.00    -0.642 OA
ATOM     25  O03 5EQ d   1      37.543  80.720  65.190  0.00  0.00    -0.642 OA
ENDBRANCH  21  23
ENDBRANCH  18  21
ENDBRANCH  16  18
ENDBRANCH   4  16
TORSDOF 4
