REMARK  11 active torsions:
REMARK  status: ('A' for Active; 'I' for Inactive)
REMARK    1  A    between atoms: C12_20  and  C13_2 
REMARK    2  A    between atoms: C14_21  and  C15_3 
REMARK    3  A    between atoms: C16_22  and  C17_4 
REMARK    4  A    between atoms: C20_5  and  N21_25 
REMARK    5  A    between atoms: C26_8  and  C28_9 
REMARK    6  A    between atoms: C05_14  and  C26_8 
REMARK    7  A    between atoms: C26_8  and  O27_28 
REMARK       I    between atoms: C02_11  and  N03_12 
REMARK    8  A    between atoms: C05_14  and  C02_11 
REMARK    9  A    between atoms: N03_12  and  O04_13 
REMARK   10  A    between atoms: N06_15  and  C05_14 
REMARK       I    between atoms: C07_16  and  N06_15 
REMARK   11  A    between atoms: C09_18  and  C07_16 
ROOT
ATOM      1  C10 ZH2 d   1     -30.017   6.211  19.397  0.00  0.00    -0.066 A 
ATOM      2  C24 ZH2 d   1     -31.291   7.598  21.436  0.00  0.00    -0.064 A 
ATOM      3  C09 ZH2 d   1     -29.980   5.726  20.698  0.00  0.00     0.032 A 
ATOM      4  C11 ZH2 d   1     -30.693   7.400  19.119  0.00  0.00    -0.064 A 
ATOM      5  C12 ZH2 d   1     -31.322   8.089  20.130  0.00  0.00     0.018 A 
ATOM      6  C25 ZH2 d   1     -30.620   6.414  21.714  0.00  0.00    -0.066 A 
ATOM      7  H1  ZH2 d   1     -29.522   5.668  18.600  0.00  0.00     0.085 H 
ATOM      8  H3  ZH2 d   1     -31.790   8.139  22.232  0.00  0.00     0.085 H 
ATOM      9  H12 ZH2 d   1     -30.722   7.781  18.105  0.00  0.00     0.085 H 
ATOM     10  H18 ZH2 d   1     -30.598   6.029  22.727  0.00  0.00     0.085 H 
ENDROOT
BRANCH   3  11
ATOM     11  C07 ZH2 d   1     -29.246   4.406  21.005  0.00  0.00     0.252 C 
ATOM     12  N06 ZH2 d   1     -29.130   3.395  19.962  0.00  0.00    -0.341 N 
ATOM     13  H11 ZH2 d   1     -29.516   3.569  19.056  0.00  0.00     0.163 HD
ATOM     14  O08 ZH2 d   1     -28.794   4.204  22.102  0.00  0.00    -0.268 OA
BRANCH  12  15
ATOM     15  C05 ZH2 d   1     -28.498   2.212  20.214  0.00  0.00     0.116 C 
ATOM     16  H10 ZH2 d   1     -27.970   2.325  21.172  0.00  0.00     0.091 H 
BRANCH  15  17
ATOM     17  C26 ZH2 d   1     -29.340   1.249  20.364  0.00  0.00     0.060 C 
ATOM     18  H4  ZH2 d   1     -29.717   1.299  21.396  0.00  0.00     0.086 H 
BRANCH  17  19
ATOM     19  C28 ZH2 d   1     -30.442   1.348  19.503  0.00  0.00    -0.050 C 
ATOM     20  H5  ZH2 d   1     -31.122   0.501  19.678  0.00  0.00     0.031 H 
ATOM     21  H6  ZH2 d   1     -30.095   1.329  18.459  0.00  0.00     0.031 H 
ATOM     22  H7  ZH2 d   1     -30.974   2.291  19.696  0.00  0.00     0.031 H 
ENDBRANCH  17  19
BRANCH  17  23
ATOM     23  O27 ZH2 d   1     -28.747   0.069  20.197  0.00  0.00    -0.393 OA
ATOM     24  H19 ZH2 d   1     -28.380   0.021  19.322  0.00  0.00     0.210 HD
ENDBRANCH  17  23
ENDBRANCH  15  17
BRANCH  15  25
ATOM     25  C02 ZH2 d   1     -27.536   1.937  19.254  0.00  0.00     0.266 C 
ATOM     26  O01 ZH2 d   1     -27.793   1.927  18.057  0.00  0.00    -0.269 OA
ATOM     27  N03 ZH2 d   1     -26.222   1.677  19.666  0.00  0.00    -0.236 N 
ATOM     28  H8  ZH2 d   1     -25.991   1.689  20.639  0.00  0.00     0.197 HD
BRANCH  27  29
ATOM     29  O04 ZH2 d   1     -25.275   1.412  18.757  0.00  0.00    -0.287 OA
ATOM     30  H9  ZH2 d   1     -24.448   1.260  19.198  0.00  0.00     0.244 HD
ENDBRANCH  27  29
ENDBRANCH  15  25
ENDBRANCH  12  15
ENDBRANCH   3  11
BRANCH   5  31
ATOM     31  C13 ZH2 d   1     -32.054   9.392  19.806  0.00  0.00    -0.053 C 
ATOM     32  C14 ZH2 d   1     -32.645  10.402  19.519  0.00  0.00    -0.009 C 
BRANCH  32  33
ATOM     33  C15 ZH2 d   1     -33.507  11.566  19.108  0.00  0.00    -0.009 C 
ATOM     34  C16 ZH2 d   1     -34.277  12.451  18.749  0.00  0.00    -0.053 C 
BRANCH  34  35
ATOM     35  C17 ZH2 d   1     -35.266  13.515  18.325  0.00  0.00     0.018 A 
ATOM     36  C18 ZH2 d   1     -36.531  13.523  18.864  0.00  0.00    -0.063 A 
ATOM     37  C19 ZH2 d   1     -37.437  14.493  18.484  0.00  0.00    -0.056 A 
ATOM     38  H13 ZH2 d   1     -36.817  12.768  19.587  0.00  0.00     0.085 H 
ATOM     39  C20 ZH2 d   1     -37.067  15.470  17.548  0.00  0.00     0.025 A 
ATOM     40  H14 ZH2 d   1     -38.434  14.500  18.909  0.00  0.00     0.086 H 
ATOM     41  C22 ZH2 d   1     -35.801  15.462  17.009  0.00  0.00    -0.056 A 
ATOM     42  C23 ZH2 d   1     -34.897  14.494  17.388  0.00  0.00    -0.063 A 
ATOM     43  H2  ZH2 d   1     -35.515  16.217  16.286  0.00  0.00     0.086 H 
ATOM     44  H17 ZH2 d   1     -33.900  14.488  16.963  0.00  0.00     0.085 H 
BRANCH  39  45
ATOM     45  N21 ZH2 d   1     -37.980  16.452  17.163  0.00  0.00    -0.399 N 
ATOM     46  H15 ZH2 d   1     -37.706  17.169  16.476  0.00  0.00     0.156 HD
ATOM     47  H16 ZH2 d   1     -38.928  16.460  17.566  0.00  0.00     0.156 HD
ENDBRANCH  39  45
ENDBRANCH  34  35
ENDBRANCH  32  33
ENDBRANCH   5  31
TORSDOF 11
