REMARK  12 active torsions:
REMARK  status: ('A' for Active; 'I' for Inactive)
REMARK    1  A    between atoms: C15_3  and  C12_21 
REMARK    2  A    between atoms: C17_4  and  C16_23 
REMARK    3  A    between atoms: C22_7  and  N23_26 
REMARK    4  A    between atoms: C26_9  and  C28_10 
REMARK    5  A    between atoms: C05_15  and  C26_9 
REMARK    6  A    between atoms: C26_9  and  N27_28 
REMARK    7  A    between atoms: C26_9  and  C29_29 
REMARK       I    between atoms: C02_12  and  N03_13 
REMARK    8  A    between atoms: C05_15  and  C02_12 
REMARK    9  A    between atoms: N03_13  and  O04_14 
REMARK   10  A    between atoms: N06_16  and  C05_15 
REMARK       I    between atoms: C07_17  and  N06_16 
REMARK   11  A    between atoms: C09_19  and  C07_17 
REMARK   12  A    between atoms: C18_24  and  C19_25 
ROOT
ATOM      1  C10 5EM d   1      25.322  13.674   6.109  0.00  0.00    -0.066 A 
ATOM      2  C13 5EM d   1      27.728  13.973   4.559  0.00  0.00    -0.064 A 
ATOM      3  C09 5EM d   1      26.300  12.653   6.099  0.00  0.00     0.032 A 
ATOM      4  C11 5EM d   1      25.541  14.902   5.350  0.00  0.00    -0.064 A 
ATOM      5  C12 5EM d   1      26.727  14.991   4.575  0.00  0.00     0.018 A 
ATOM      6  C14 5EM d   1      27.503  12.771   5.331  0.00  0.00    -0.066 A 
ATOM      7  H1  5EM d   1      24.410  13.545   6.680  0.00  0.00     0.085 H 
ATOM      8  H2  5EM d   1      28.637  14.098   3.981  0.00  0.00     0.085 H 
ATOM      9  H13 5EM d   1      24.825  15.715   5.377  0.00  0.00     0.085 H 
ATOM     10  H14 5EM d   1      28.234  11.971   5.328  0.00  0.00     0.085 H 
ENDROOT
BRANCH   3  11
ATOM     11  C07 5EM d   1      26.069  11.428   6.933  0.00  0.00     0.252 C 
ATOM     12  N06 5EM d   1      24.800  11.339   7.590  0.00  0.00    -0.341 N 
ATOM     13  H12 5EM d   1      24.128  12.075   7.509  0.00  0.00     0.163 HD
ATOM     14  O08 5EM d   1      26.976  10.654   7.208  0.00  0.00    -0.268 OA
BRANCH  12  15
ATOM     15  C05 5EM d   1      24.516  10.161   8.372  0.00  0.00     0.122 C 
ATOM     16  H11 5EM d   1      25.285   9.399   8.177  0.00  0.00     0.091 H 
BRANCH  15  17
ATOM     17  C26 5EM d   1      24.515  10.480   9.875  0.00  0.00     0.145 C 
BRANCH  17  18
ATOM     18  C28 5EM d   1      23.719  11.716  10.209  0.00  0.00    -0.043 C 
ATOM     19  H6  5EM d   1      23.755  11.893  11.294  0.00  0.00     0.030 H 
ATOM     20  H7  5EM d   1      22.674  11.575   9.895  0.00  0.00     0.030 H 
ATOM     21  H8  5EM d   1      24.147  12.581   9.682  0.00  0.00     0.030 H 
ENDBRANCH  17  18
BRANCH  17  22
ATOM     22  N27 5EM d   1      25.887  10.637  10.309  0.00  0.00    -0.069 N 
ATOM     23  H18 5EM d   1      25.906  10.847  11.295  0.00  0.00     0.275 HD
ATOM     24  H19 5EM d   1      26.317  11.391   9.797  0.00  0.00     0.275 HD
ATOM     25  H20 5EM d   1      26.393   9.782  10.138  0.00  0.00     0.275 HD
ENDBRANCH  17  22
BRANCH  17  26
ATOM     26  C29 5EM d   1      23.913   9.287  10.567  0.00  0.00    -0.043 C 
ATOM     27  H21 5EM d   1      22.870   9.162  10.241  0.00  0.00     0.030 H 
ATOM     28  H22 5EM d   1      23.941   9.442  11.656  0.00  0.00     0.030 H 
ATOM     29  H23 5EM d   1      24.488   8.385  10.310  0.00  0.00     0.030 H 
ENDBRANCH  17  26
ENDBRANCH  15  17
BRANCH  15  30
ATOM     30  C02 5EM d   1      23.169   9.640   7.920  0.00  0.00     0.266 C 
ATOM     31  O01 5EM d   1      22.135  10.336   7.951  0.00  0.00    -0.269 OA
ATOM     32  N03 5EM d   1      23.079   8.318   7.469  0.00  0.00    -0.236 N 
ATOM     33  H9  5EM d   1      23.881   7.727   7.388  0.00  0.00     0.197 HD
BRANCH  32  34
ATOM     34  O04 5EM d   1      21.854   7.899   7.154  0.00  0.00    -0.287 OA
ATOM     35  H10 5EM d   1      21.895   6.996   6.861  0.00  0.00     0.244 HD
ENDBRANCH  32  34
ENDBRANCH  15  30
ENDBRANCH  12  15
ENDBRANCH   3  11
BRANCH   5  36
ATOM     36  C15 5EM d   1      26.934  16.254   3.822  0.00  0.00    -0.053 C 
ATOM     37  C16 5EM d   1      27.085  17.284   3.211  0.00  0.00    -0.009 C 
BRANCH  37  38
ATOM     38  C17 5EM d   1      27.345  18.525   2.474  0.00  0.00    -0.009 C 
ATOM     39  C18 5EM d   1      27.681  19.501   1.866  0.00  0.00    -0.053 C 
BRANCH  39  40
ATOM     40  C19 5EM d   1      28.159  20.691   1.102  0.00  0.00     0.018 A 
ATOM     41  C20 5EM d   1      27.314  21.867   1.064  0.00  0.00    -0.063 A 
ATOM     42  C21 5EM d   1      27.766  23.007   0.315  0.00  0.00    -0.056 A 
ATOM     43  H3  5EM d   1      26.365  21.887   1.587  0.00  0.00     0.085 H 
ATOM     44  C22 5EM d   1      29.030  22.956  -0.354  0.00  0.00     0.025 A 
ATOM     45  H4  5EM d   1      27.154  23.900   0.257  0.00  0.00     0.086 H 
ATOM     46  C24 5EM d   1      29.890  21.753  -0.295  0.00  0.00    -0.056 A 
ATOM     47  C25 5EM d   1      29.446  20.616   0.437  0.00  0.00    -0.063 A 
ATOM     48  H5  5EM d   1      30.847  21.738  -0.803  0.00  0.00     0.086 H 
ATOM     49  H17 5EM d   1      30.052  19.719   0.496  0.00  0.00     0.085 H 
BRANCH  44  50
ATOM     50  N23 5EM d   1      29.478  24.083  -1.092  0.00  0.00    -0.399 N 
ATOM     51  H15 5EM d   1      28.894  24.930  -1.145  0.00  0.00     0.156 HD
ATOM     52  H16 5EM d   1      30.387  24.054  -1.575  0.00  0.00     0.156 HD
ENDBRANCH  44  50
ENDBRANCH  39  40
ENDBRANCH  37  38
ENDBRANCH   5  36
TORSDOF 12
