REMARK  8 active torsions:
REMARK  status: ('A' for Active; 'I' for Inactive)
REMARK    1  A    between atoms: C18_11  and  O19_1 
REMARK    2  A    between atoms: S14_9  and  C17_2 
REMARK    3  A    between atoms: C17_2  and  C18_11 
REMARK    4  A    between atoms: C5_5  and  S1_16 
REMARK    5  A    between atoms: C8_12  and  S14_9 
REMARK    6  A    between atoms: C9_14  and  N20_20 
REMARK    7  A    between atoms: S1_16  and  N4_18 
REMARK    8  A    between atoms: N20_20  and  C21_21 
ROOT
ATOM      1  C6  5EF d   1      17.414   4.441  15.693  0.00  0.00     0.182 A 
ATOM      2  F11 5EF d   1      18.163   3.437  16.189  0.00  0.00    -0.201 F 
ATOM      3  C5  5EF d   1      16.024   4.283  15.733  0.00  0.00     0.161 A 
ATOM      4  F12 5EF d   1      19.431   5.558  15.142  0.00  0.00    -0.201 F 
ATOM      5  F13 5EF d   1      14.076   5.348  15.126  0.00  0.00    -0.202 F 
ATOM      6  C8  5EF d   1      17.387   6.598  14.509  0.00  0.00     0.130 A 
ATOM      7  C7  5EF d   1      18.073   5.498  15.091  0.00  0.00     0.180 A 
ATOM      8  C9  5EF d   1      15.949   6.503  14.482  0.00  0.00     0.094 A 
ATOM      9  C10 5EF d   1      15.371   5.380  15.147  0.00  0.00     0.170 A 
ENDROOT
BRANCH   8  10
ATOM     10  N20 5EF d   1      15.105   7.475  14.034  0.00  0.00    -0.377 N 
ATOM     11  H8  5EF d   1      14.842   8.233  14.680  0.00  0.00     0.160 HD
BRANCH  10  12
ATOM     12  C21 5EF d   1      14.572   7.491  12.721  0.00  0.00     0.036 C 
ATOM     13  C25 5EF d   1      13.886   8.770  12.206  0.00  0.00    -0.039 C 
ATOM     14  C24 5EF d   1      14.883   9.366  11.243  0.00  0.00    -0.038 C 
ATOM     15  H10 5EF d   1      13.682   9.464  13.035  0.00  0.00     0.036 H 
ATOM     16  H11 5EF d   1      12.945   8.527  11.691  0.00  0.00     0.036 H 
ATOM     17  C23 5EF d   1      15.505   8.141  10.740  0.00  0.00    -0.050 A 
ATOM     18  H12 5EF d   1      15.610  10.014  11.755  0.00  0.00     0.040 H 
ATOM     19  H13 5EF d   1      14.388   9.933  10.441  0.00  0.00     0.040 H 
ATOM     20  C29 5EF d   1      16.260   7.979   9.556  0.00  0.00    -0.076 A 
ATOM     21  C22 5EF d   1      15.394   7.038  11.597  0.00  0.00    -0.029 A 
ATOM     22  C28 5EF d   1      16.808   6.690   9.333  0.00  0.00    -0.082 A 
ATOM     23  H14 5EF d   1      16.412   8.794   8.858  0.00  0.00     0.084 H 
ATOM     24  C27 5EF d   1      16.654   5.577  10.197  0.00  0.00    -0.082 A 
ATOM     25  H15 5EF d   1      17.391   6.545   8.431  0.00  0.00     0.083 H 
ATOM     26  C26 5EF d   1      15.929   5.748  11.330  0.00  0.00    -0.074 A 
ATOM     27  H16 5EF d   1      17.102   4.619   9.959  0.00  0.00     0.083 H 
ATOM     28  H17 5EF d   1      15.762   4.924  12.014  0.00  0.00     0.084 H 
ATOM     29  H9  5EF d   1      13.764   6.748  12.794  0.00  0.00     0.080 H 
ENDBRANCH  10  12
ENDBRANCH   8  10
BRANCH   6  30
ATOM     30  S14 5EF d   1      18.351   7.902  13.804  0.00  0.00     0.182 S 
ATOM     31  O16 5EF d   1      19.386   8.359  14.720  0.00  0.00    -0.222 OA
ATOM     32  O15 5EF d   1      17.407   8.973  13.351  0.00  0.00    -0.222 OA
BRANCH  30  33
ATOM     33  C17 5EF d   1      19.331   7.602  12.300  0.00  0.00     0.053 C 
ATOM     34  H2  5EF d   1      18.768   6.940  11.626  0.00  0.00     0.059 H 
ATOM     35  H3  5EF d   1      20.282   7.122  12.576  0.00  0.00     0.059 H 
BRANCH  33  36
ATOM     36  C18 5EF d   1      19.619   8.918  11.588  0.00  0.00     0.029 C 
ATOM     37  H4  5EF d   1      18.883   9.064  10.784  0.00  0.00     0.075 H 
ATOM     38  H5  5EF d   1      19.543   9.745  12.309  0.00  0.00     0.075 H 
BRANCH  36  39
ATOM     39  O19 5EF d   1      20.909   8.902  11.037  0.00  0.00    -0.400 OA
ATOM     40  H1  5EF d   1      21.074   9.727  10.597  0.00  0.00     0.209 HD
ENDBRANCH  36  39
ENDBRANCH  33  36
ENDBRANCH  30  33
ENDBRANCH   6  30
BRANCH   3  41
ATOM     41  S1  5EF d   1      15.309   2.858  16.597  0.00  0.00     0.263 S 
ATOM     42  O3  5EF d   1      13.765   2.833  16.742  0.00  0.00    -0.201 OA
ATOM     43  O2  5EF d   1      15.757   2.896  17.985  0.00  0.00    -0.201 OA
BRANCH  41  44
ATOM     44  N4  5EF d   1      15.680   1.497  15.905  0.00  0.00    -0.324 N 
ATOM     45  H6  5EF d   1      15.346   0.635  16.286  0.00  0.00     0.169 HD
ATOM     46  H7  5EF d   1      16.250   1.493  15.084  0.00  0.00     0.169 HD
ENDBRANCH  41  44
ENDBRANCH   3  41
TORSDOF 8
