REMARK  7 active torsions:
REMARK  status: ('A' for Active; 'I' for Inactive)
REMARK    1  A    between atoms: C2_1  and  C3_2 
REMARK       I    between atoms: N18_25  and  C2_1 
REMARK    2  A    between atoms: C3_2  and  N4_17 
REMARK    3  A    between atoms: O10_23  and  C11_4 
REMARK       I    between atoms: N19_26  and  C20_10 
REMARK       I    between atoms: C20_10  and  N22_28 
REMARK    4  A    between atoms: N22_28  and  C23_11 
REMARK    5  A    between atoms: C8_21  and  C9_22 
REMARK    6  A    between atoms: C9_22  and  O10_23 
REMARK    7  A    between atoms: N18_25  and  N19_26 
ROOT
ATOM      1  C3  5EG d   1     -39.709   7.716  14.719  0.00  0.00     0.090 C 
ATOM      2  H1  5EG d   1     -40.362   7.189  14.008  0.00  0.00     0.081 H 
ATOM      3  H2  5EG d   1     -38.899   8.218  14.170  0.00  0.00     0.081 H 
ENDROOT
BRANCH   1   4
ATOM      4  C2  5EG d   1     -39.098   6.700  15.652  0.00  0.00     0.255 C 
ATOM      5  O1  5EG d   1     -39.257   6.781  16.856  0.00  0.00    -0.270 OA
ATOM      6  N18 5EG d   1     -38.412   5.654  15.173  0.00  0.00    -0.265 N 
ATOM      7  H13 5EG d   1     -38.074   4.975  15.825  0.00  0.00     0.190 HD
BRANCH   6   8
ATOM      8  N19 5EG d   1     -38.128   5.445  13.761  0.00  0.00    -0.249 N 
ATOM      9  C20 5EG d   1     -37.102   6.044  13.095  0.00  0.00     0.339 C 
ATOM     10  O21 5EG d   1     -36.407   6.839  13.713  0.00  0.00    -0.245 OA
ATOM     11  N22 5EG d   1     -36.879   5.784  11.786  0.00  0.00    -0.308 N 
ATOM     12  H15 5EG d   1     -37.540   5.190  11.327  0.00  0.00     0.170 HD
ATOM     13  H14 5EG d   1     -38.722   4.824  13.249  0.00  0.00     0.192 HD
BRANCH  11  14
ATOM     14  C23 5EG d   1     -35.804   6.268  11.001  0.00  0.00     0.036 A 
ATOM     15  C24 5EG d   1     -35.123   5.314  10.229  0.00  0.00    -0.056 A 
ATOM     16  C25 5EG d   1     -34.028   5.668   9.435  0.00  0.00    -0.060 A 
ATOM     17  H7  5EG d   1     -35.453   4.282  10.249  0.00  0.00     0.087 H 
ATOM     18  C26 5EG d   1     -33.608   6.996   9.449  0.00  0.00     0.034 A 
ATOM     19  H8  5EG d   1     -33.520   4.929   8.825  0.00  0.00     0.086 H 
ATOM     20  C28 5EG d   1     -34.249   7.944  10.249  0.00  0.00    -0.060 A 
ATOM     21 CL2  5EG d   1     -32.244   7.487   8.493  0.00  0.00    -0.084 Cl
ATOM     22  C29 5EG d   1     -35.355   7.590  11.028  0.00  0.00    -0.056 A 
ATOM     23  H9  5EG d   1     -33.886   8.965  10.266  0.00  0.00     0.086 H 
ATOM     24  H10 5EG d   1     -35.855   8.329  11.643  0.00  0.00     0.087 H 
ENDBRANCH  11  14
ENDBRANCH   6   8
ENDBRANCH   1   4
BRANCH   1  25
ATOM     25  N4  5EG d   1     -40.499   8.730  15.411  0.00  0.00    -0.252 N 
ATOM     26  N5  5EG d   1     -41.841   8.655  15.572  0.00  0.00    -0.003 NA
ATOM     27  N6  5EG d   1     -42.220   9.753  16.254  0.00  0.00     0.018 NA
ATOM     28  N7  5EG d   1     -41.066  10.537  16.517  0.00  0.00    -0.145 NA
ATOM     29  C8  5EG d   1     -40.126   9.860  15.986  0.00  0.00     0.161 A 
BRANCH  29  30
ATOM     30  C9  5EG d   1     -38.702  10.390  16.110  0.00  0.00     0.083 C 
ATOM     31  H11 5EG d   1     -38.145   9.759  16.819  0.00  0.00     0.087 H 
ATOM     32  H12 5EG d   1     -38.735  11.423  16.486  0.00  0.00     0.087 H 
BRANCH  30  33
ATOM     33  O10 5EG d   1     -38.024  10.375  14.830  0.00  0.00    -0.342 OA
BRANCH  33  34
ATOM     34  C11 5EG d   1     -36.634  10.529  14.585  0.00  0.00     0.090 A 
ATOM     35  C12 5EG d   1     -35.624  10.648  15.570  0.00  0.00    -0.049 A 
ATOM     36  C13 5EG d   1     -34.277  10.832  15.175  0.00  0.00    -0.080 A 
ATOM     37  H3  5EG d   1     -35.881  10.598  16.622  0.00  0.00     0.087 H 
ATOM     38  C14 5EG d   1     -33.908  10.852  13.812  0.00  0.00    -0.081 A 
ATOM     39  H4  5EG d   1     -33.514  10.960  15.934  0.00  0.00     0.083 H 
ATOM     40  C15 5EG d   1     -34.899  10.729  12.827  0.00  0.00    -0.059 A 
ATOM     41  H5  5EG d   1     -32.867  10.961  13.529  0.00  0.00     0.083 H 
ATOM     42  C16 5EG d   1     -36.238  10.569  13.232  0.00  0.00     0.067 A 
ATOM     43  H6  5EG d   1     -34.639  10.757  11.775  0.00  0.00     0.086 H 
ATOM     44 CL1  5EG d   1     -37.480  10.399  12.029  0.00  0.00    -0.081 Cl
ENDBRANCH  33  34
ENDBRANCH  30  33
ENDBRANCH  29  30
ENDBRANCH   1  25
TORSDOF 7
