REMARK  6 active torsions:
REMARK  status: ('A' for Active; 'I' for Inactive)
REMARK    1  A    between atoms: C2_1  and  C3_2 
REMARK       I    between atoms: N9_25  and  C2_1 
REMARK    2  A    between atoms: C3_2  and  N4_20 
REMARK       I    between atoms: N10_26  and  C11_4 
REMARK       I    between atoms: C11_4  and  N13_28 
REMARK    3  A    between atoms: N13_28  and  C14_5 
REMARK    4  A    between atoms: N22_29  and  C23_13 
REMARK    5  A    between atoms: C8_24  and  C24_14 
REMARK    6  A    between atoms: N9_25  and  N10_26 
ROOT
ATOM      1  C11 5EK d   1      37.090  -5.859  12.219  0.00  0.00     0.339 C 
ATOM      2  N10 5EK d   1      38.106  -5.280  12.894  0.00  0.00    -0.249 N 
ATOM      3  O12 5EK d   1      36.400  -6.683  12.822  0.00  0.00    -0.245 OA
ATOM      4  N13 5EK d   1      36.879  -5.549  10.912  0.00  0.00    -0.308 N 
ATOM      5  H13 5EK d   1      38.722  -4.668  12.398  0.00  0.00     0.192 HD
ATOM      6  H14 5EK d   1      37.540  -4.935  10.482  0.00  0.00     0.170 HD
ENDROOT
BRANCH   2   7
ATOM      7  N9  5EK d   1      38.342  -5.507  14.303  0.00  0.00    -0.265 N 
ATOM      8  C2  5EK d   1      39.171  -6.436  14.772  0.00  0.00     0.255 C 
ATOM      9  O1  5EK d   1      39.292  -6.568  15.984  0.00  0.00    -0.270 OA
ATOM     10  H12 5EK d   1      37.855  -4.934  14.961  0.00  0.00     0.190 HD
BRANCH   8  11
ATOM     11  C3  5EK d   1      39.947  -7.269  13.793  0.00  0.00     0.090 C 
ATOM     12  H1  5EK d   1      40.739  -6.653  13.343  0.00  0.00     0.081 H 
ATOM     13  H2  5EK d   1      39.268  -7.627  13.005  0.00  0.00     0.081 H 
BRANCH  11  14
ATOM     14  N4  5EK d   1      40.548  -8.406  14.454  0.00  0.00    -0.250 N 
ATOM     15  N5  5EK d   1      41.885  -8.551  14.623  0.00  0.00    -0.002 NA
ATOM     16  N6  5EK d   1      42.073  -9.747  15.214  0.00  0.00     0.018 NA
ATOM     17  N7  5EK d   1      40.792 -10.347  15.408  0.00  0.00    -0.142 NA
ATOM     18  C8  5EK d   1      39.977  -9.509  14.893  0.00  0.00     0.172 A 
BRANCH  18  19
ATOM     19  C24 5EK d   1      38.476  -9.747  15.016  0.00  0.00     0.034 A 
ATOM     20  C25 5EK d   1      37.956  -9.714  16.330  0.00  0.00    -0.068 A 
ATOM     21  C26 5EK d   1      36.578  -9.890  16.573  0.00  0.00    -0.082 A 
ATOM     22  H8  5EK d   1      38.628  -9.551  17.165  0.00  0.00     0.085 H 
ATOM     23  C27 5EK d   1      35.691 -10.090  15.499  0.00  0.00    -0.081 A 
ATOM     24  H9  5EK d   1      36.201  -9.871  17.589  0.00  0.00     0.083 H 
ATOM     25  C28 5EK d   1      36.178 -10.127  14.181  0.00  0.00    -0.061 A 
ATOM     26  H10 5EK d   1      34.631 -10.216  15.688  0.00  0.00     0.083 H 
ATOM     27  C29 5EK d   1      37.559  -9.947  13.941  0.00  0.00     0.048 A 
ATOM     28  H11 5EK d   1      35.498 -10.293  13.353  0.00  0.00     0.086 H 
ATOM     29 CL3  5EK d   1      38.048 -10.009  12.265  0.00  0.00    -0.083 Cl
ENDBRANCH  18  19
ENDBRANCH  11  14
ENDBRANCH   8  11
ENDBRANCH   2   7
BRANCH   4  30
ATOM     30  C14 5EK d   1      35.814  -6.011  10.101  0.00  0.00     0.038 A 
ATOM     31  C15 5EK d   1      35.291  -7.311  10.160  0.00  0.00    -0.030 A 
ATOM     32  C16 5EK d   1      34.194  -7.592   9.306  0.00  0.00     0.051 A 
ATOM     33  H3  5EK d   1      35.704  -8.062  10.824  0.00  0.00     0.090 H 
ATOM     34  C17 5EK d   1      33.669  -6.617   8.471  0.00  0.00    -0.007 A 
ATOM     35  N22 5EK d   1      33.505  -8.745   9.101  0.00  0.00    -0.320 N 
ATOM     36  C18 5EK d   1      34.180  -5.322   8.402  0.00  0.00    -0.069 A 
ATOM     37  C20 5EK d   1      32.561  -7.323   7.746  0.00  0.00    -0.055 A 
ATOM     38  C19 5EK d   1      35.250  -5.041   9.252  0.00  0.00    -0.056 A 
ATOM     39  H4  5EK d   1      33.771  -4.578   7.728  0.00  0.00     0.085 H 
ATOM     40  H5  5EK d   1      35.662  -4.038   9.259  0.00  0.00     0.086 H 
ATOM     41  C21 5EK d   1      32.548  -8.570   8.210  0.00  0.00    -0.013 A 
ATOM     42  H6  5EK d   1      31.900  -6.900   6.991  0.00  0.00     0.087 H 
ATOM     43  H7  5EK d   1      31.844  -9.340   7.897  0.00  0.00     0.112 H 
BRANCH  35  44
ATOM     44  C23 5EK d   1      33.646  -9.922   9.789  0.00  0.00     0.060 A 
ATOM     45  C31 5EK d   1      34.777 -10.771   9.781  0.00  0.00     0.061 A 
ATOM     46  C32 5EK d   1      34.861 -11.952  10.514  0.00  0.00    -0.060 A 
ATOM     47 CL6  5EK d   1      36.164 -10.450   8.821  0.00  0.00    -0.082 Cl
ATOM     48  C33 5EK d   1      33.777 -12.262  11.311  0.00  0.00    -0.081 A 
ATOM     49  H15 5EK d   1      35.732 -12.595  10.462  0.00  0.00     0.086 H 
ATOM     50  C34 5EK d   1      32.639 -11.434  11.360  0.00  0.00    -0.081 A 
ATOM     51  H16 5EK d   1      33.803 -13.163  11.913  0.00  0.00     0.083 H 
ATOM     52  C35 5EK d   1      32.563 -10.261  10.618  0.00  0.00    -0.055 A 
ATOM     53  H17 5EK d   1      31.804 -11.718  11.990  0.00  0.00     0.083 H 
ATOM     54  H18 5EK d   1      31.689  -9.623  10.677  0.00  0.00     0.087 H 
ENDBRANCH  35  44
ENDBRANCH   4  30
TORSDOF 6
