REMARK  9 active torsions:
REMARK  status: ('A' for Active; 'I' for Inactive)
REMARK    1  A    between atoms: N2_17  and  C1_1 
REMARK    2  A    between atoms: C3_2  and  N2_17 
REMARK    3  A    between atoms: N11_25  and  C12_3 
REMARK    4  A    between atoms: C14_5  and  C25_12 
REMARK    5  A    between atoms: C22_10  and  N34_34 
REMARK    6  A    between atoms: C10_24  and  C24_11 
REMARK    7  A    between atoms: C30_16  and  C33_33 
REMARK    8  A    between atoms: N27_30  and  C32_32 
REMARK    9  A    between atoms: N34_34  and  C35_35 
ROOT
ATOM      1  C3  5EW d   1      35.602  -5.967  10.274  0.00  0.00     0.051 A 
ATOM      2  C4  5EW d   1      35.041  -7.275  10.378  0.00  0.00    -0.030 A 
ATOM      3  C5  5EW d   1      33.951  -7.615   9.546  0.00  0.00     0.052 A 
ATOM      4  C6  5EW d   1      33.484  -6.698   8.607  0.00  0.00    -0.007 A 
ATOM      5  C7  5EW d   1      34.059  -5.424   8.441  0.00  0.00    -0.069 A 
ATOM      6  C8  5EW d   1      35.084  -5.059   9.316  0.00  0.00    -0.056 A 
ATOM      7  C9  5EW d   1      32.344  -7.418   7.949  0.00  0.00    -0.049 A 
ATOM      8  C10 5EW d   1      32.298  -8.646   8.483  0.00  0.00     0.014 A 
ATOM      9  N11 5EW d   1      33.248  -8.780   9.416  0.00  0.00    -0.312 N 
ATOM     10  H11 5EW d   1      35.444  -7.994  11.082  0.00  0.00     0.090 H 
ATOM     11  H12 5EW d   1      33.718  -4.751   7.662  0.00  0.00     0.085 H 
ATOM     12  H13 5EW d   1      35.494  -4.057   9.262  0.00  0.00     0.087 H 
ATOM     13  H14 5EW d   1      31.680  -7.019   7.183  0.00  0.00     0.087 H 
ENDROOT
BRANCH   9  14
ATOM     14  C12 5EW d   1      33.365  -9.865  10.254  0.00  0.00     0.081 A 
ATOM     15  C13 5EW d   1      32.346 -10.100  11.177  0.00  0.00    -0.041 A 
ATOM     16  C14 5EW d   1      32.437 -11.173  12.060  0.00  0.00    -0.000 A 
ATOM     17  H1  5EW d   1      31.482  -9.446  11.207  0.00  0.00     0.088 H 
ATOM     18  C15 5EW d   1      33.552 -12.018  12.030  0.00  0.00     0.015 A 
ATOM     19  N16 5EW d   1      34.535 -11.766  11.149  0.00  0.00    -0.246 NA
ATOM     20  H2  5EW d   1      33.622 -12.862  12.706  0.00  0.00     0.116 H 
ATOM     21  C17 5EW d   1      34.466 -10.734  10.276  0.00  0.00     0.152 A 
ATOM     22 CL   5EW d   1      35.811 -10.539   9.176  0.00  0.00    -0.060 Cl
BRANCH  16  23
ATOM     23  C25 5EW d   1      31.310 -11.400  13.029  0.00  0.00     0.050 A 
ATOM     24  C26 5EW d   1      31.518 -10.936  14.418  0.00  0.00     0.258 A 
ATOM     25  N27 5EW d   1      30.500 -11.110  15.322  0.00  0.00    -0.328 N 
ATOM     26  O31 5EW d   1      32.607 -10.431  14.705  0.00  0.00    -0.267 OA
ATOM     27  C28 5EW d   1      29.326 -11.707  14.956  0.00  0.00    -0.017 A 
ATOM     28  C29 5EW d   1      29.118 -12.159  13.703  0.00  0.00    -0.061 A 
ATOM     29  H8  5EW d   1      28.537 -11.821  15.697  0.00  0.00     0.111 H 
ATOM     30  C30 5EW d   1      30.151 -12.001  12.662  0.00  0.00    -0.044 A 
ATOM     31  H9  5EW d   1      28.176 -12.647  13.457  0.00  0.00     0.086 H 
BRANCH  25  32
ATOM     32  C32 5EW d   1      30.672 -10.662  16.719  0.00  0.00    -0.012 C 
ATOM     33  H15 5EW d   1      31.666 -10.207  16.838  0.00  0.00     0.057 H 
ATOM     34  H16 5EW d   1      30.580 -11.525  17.395  0.00  0.00     0.057 H 
ATOM     35  H17 5EW d   1      29.898  -9.920  16.964  0.00  0.00     0.057 H 
ENDBRANCH  25  32
BRANCH  30  36
ATOM     36  C33 5EW d   1      29.841 -12.513  11.264  0.00  0.00    -0.050 C 
ATOM     37  H18 5EW d   1      30.702 -12.325  10.605  0.00  0.00     0.033 H 
ATOM     38  H19 5EW d   1      28.957 -11.991  10.870  0.00  0.00     0.033 H 
ATOM     39  H20 5EW d   1      29.641 -13.594  11.305  0.00  0.00     0.033 H 
ENDBRANCH  30  36
ENDBRANCH  16  23
ENDBRANCH   9  14
BRANCH   8  40
ATOM     40  C24 5EW d   1      31.330  -9.732   8.026  0.00  0.00    -0.037 C 
ATOM     41  H5  5EW d   1      30.666  -9.327   7.248  0.00  0.00     0.035 H 
ATOM     42  H6  5EW d   1      30.728 -10.071   8.882  0.00  0.00     0.035 H 
ATOM     43  H7  5EW d   1      31.898 -10.581   7.618  0.00  0.00     0.035 H 
ENDBRANCH   8  40
BRANCH   1  44
ATOM     44  N2  5EW d   1      36.600  -5.474  11.079  0.00  0.00    -0.188 N 
ATOM     45  H10 5EW d   1      36.858  -4.491  10.911  0.00  0.00     0.184 HD
BRANCH  44  46
ATOM     46  C1  5EW d   1      37.305  -6.108  12.080  0.00  0.00     0.728 A 
ATOM     47  N19 5EW d   1      38.304  -5.458  12.730  0.00  0.00    -0.075 NA
ATOM     48  C20 5EW d   1      39.044  -6.029  13.706  0.00  0.00     0.025 A 
ATOM     49  C21 5EW d   1      38.799  -7.349  14.076  0.00  0.00    -0.021 A 
ATOM     50  H3  5EW d   1      39.825  -5.462  14.199  0.00  0.00     0.115 H 
ATOM     51  C22 5EW d   1      37.737  -8.021  13.443  0.00  0.00     0.143 A 
ATOM     52  H4  5EW d   1      39.406  -7.842  14.826  0.00  0.00     0.091 H 
ATOM     53  N23 5EW d   1      37.033  -7.369  12.467  0.00  0.00    -0.045 NA
BRANCH  51  54
ATOM     54  N34 5EW d   1      37.471  -9.337  13.709  0.00  0.00    -0.379 N 
ATOM     55  H21 5EW d   1      38.170  -9.860  14.256  0.00  0.00     0.160 HD
BRANCH  54  56
ATOM     56  C35 5EW d   1      36.282 -10.056  13.282  0.00  0.00    -0.020 C 
ATOM     57  H22 5EW d   1      36.335 -11.096  13.637  0.00  0.00     0.056 H 
ATOM     58  H23 5EW d   1      36.222 -10.046  12.184  0.00  0.00     0.056 H 
ATOM     59  H24 5EW d   1      35.389  -9.570  13.703  0.00  0.00     0.056 H 
ENDBRANCH  54  56
ENDBRANCH  51  54
ENDBRANCH  44  46
ENDBRANCH   1  44
TORSDOF 9
