REMARK  8 active torsions:
REMARK  status: ('A' for Active; 'I' for Inactive)
REMARK    1  A    between atoms: N9_25  and  C11_4 
REMARK    2  A    between atoms: N12_27  and  C13_5 
REMARK    3  A    between atoms: C18_10  and  O24_30 
REMARK    4  A    between atoms: C22_13  and  N31_31 
REMARK    5  A    between atoms: O24_30  and  C25_14 
REMARK    6  A    between atoms: C4_20  and  N12_27 
REMARK    7  A    between atoms: C8_24  and  C10_26 
REMARK    8  A    between atoms: N31_31  and  C32_32 
ROOT
ATOM      1  C1  5EV d   1      33.252  -6.821   8.164  0.00  0.00    -0.007 A 
ATOM      2  C2  5EV d   1      33.984  -7.809   8.823  0.00  0.00     0.052 A 
ATOM      3  C3  5EV d   1      35.121  -7.480   9.595  0.00  0.00    -0.030 C 
ATOM      4  C4  5EV d   1      35.442  -6.102   9.738  0.00  0.00     0.051 C 
ATOM      5  C5  5EV d   1      34.749  -5.143   8.979  0.00  0.00    -0.056 C 
ATOM      6  C6  5EV d   1      33.660  -5.485   8.154  0.00  0.00    -0.069 C 
ATOM      7  C7  5EV d   1      32.204  -7.593   7.426  0.00  0.00    -0.049 A 
ATOM      8  C8  5EV d   1      32.397  -8.880   7.755  0.00  0.00     0.014 A 
ATOM      9  N9  5EV d   1      33.437  -9.018   8.574  0.00  0.00    -0.312 N 
ATOM     10  H1  5EV d   1      35.726  -8.249  10.061  0.00  0.00     0.090 H 
ATOM     11  H13 5EV d   1      35.063  -4.107   9.030  0.00  0.00     0.087 H 
ATOM     12  H14 5EV d   1      33.161  -4.745   7.539  0.00  0.00     0.085 H 
ATOM     13  H15 5EV d   1      31.442  -7.193   6.759  0.00  0.00     0.087 H 
ENDROOT
BRANCH   9  14
ATOM     14  C11 5EV d   1      33.908 -10.212   9.118  0.00  0.00     0.073 A 
ATOM     15  C14 5EV d   1      35.102 -10.808   8.659  0.00  0.00    -0.054 A 
ATOM     16  C15 5EV d   1      35.556 -12.030   9.191  0.00  0.00    -0.081 A 
ATOM     17  H2  5EV d   1      35.679 -10.317   7.884  0.00  0.00     0.087 H 
ATOM     18  C16 5EV d   1      34.793 -12.671  10.180  0.00  0.00    -0.080 A 
ATOM     19  H3  5EV d   1      36.483 -12.470   8.841  0.00  0.00     0.083 H 
ATOM     20  C17 5EV d   1      33.590 -12.100  10.621  0.00  0.00    -0.048 A 
ATOM     21  H4  5EV d   1      35.134 -13.609  10.604  0.00  0.00     0.083 H 
ATOM     22  C18 5EV d   1      33.164 -10.862  10.109  0.00  0.00     0.103 A 
ATOM     23  H5  5EV d   1      32.986 -12.615  11.359  0.00  0.00     0.087 H 
BRANCH  22  24
ATOM     24  O24 5EV d   1      31.979 -10.224  10.489  0.00  0.00    -0.309 OA
BRANCH  24  25
ATOM     25  C25 5EV d   1      31.138 -10.699  11.494  0.00  0.00     0.076 A 
ATOM     26  C26 5EV d   1      31.405 -10.436  12.851  0.00  0.00    -0.050 A 
ATOM     27  C27 5EV d   1      30.498 -10.874  13.836  0.00  0.00    -0.080 A 
ATOM     28  H8  5EV d   1      32.303  -9.900  13.136  0.00  0.00     0.087 H 
ATOM     29  C28 5EV d   1      29.338 -11.571  13.456  0.00  0.00    -0.083 A 
ATOM     30  H9  5EV d   1      30.694 -10.674  14.883  0.00  0.00     0.083 H 
ATOM     31  C29 5EV d   1      29.067 -11.815  12.100  0.00  0.00    -0.080 A 
ATOM     32  H10 5EV d   1      28.648 -11.922  14.215  0.00  0.00     0.083 H 
ATOM     33  C30 5EV d   1      29.965 -11.376  11.118  0.00  0.00    -0.050 A 
ATOM     34  H11 5EV d   1      28.164 -12.342  11.813  0.00  0.00     0.083 H 
ATOM     35  H12 5EV d   1      29.755 -11.558  10.070  0.00  0.00     0.087 H 
ENDBRANCH  24  25
ENDBRANCH  22  24
ENDBRANCH   9  14
BRANCH   8  36
ATOM     36  C10 5EV d   1      31.533  -9.997   7.223  0.00  0.00    -0.037 C 
ATOM     37  H16 5EV d   1      30.753  -9.578   6.571  0.00  0.00     0.035 H 
ATOM     38  H17 5EV d   1      31.062 -10.528   8.063  0.00  0.00     0.035 H 
ATOM     39  H18 5EV d   1      32.154 -10.699   6.647  0.00  0.00     0.035 H 
ENDBRANCH   8  36
BRANCH   4  40
ATOM     40  N12 5EV d   1      36.472  -5.654  10.507  0.00  0.00    -0.188 N 
ATOM     41  H19 5EV d   1      36.943  -4.797  10.183  0.00  0.00     0.184 HD
BRANCH  40  42
ATOM     42  C13 5EV d   1      36.955  -6.209  11.660  0.00  0.00     0.728 A 
ATOM     43  N19 5EV d   1      37.929  -5.584  12.376  0.00  0.00    -0.075 NA
ATOM     44  C20 5EV d   1      38.456  -6.117  13.499  0.00  0.00     0.025 A 
ATOM     45  C21 5EV d   1      38.003  -7.366  13.948  0.00  0.00    -0.021 A 
ATOM     46  H6  5EV d   1      39.223  -5.584  14.049  0.00  0.00     0.115 H 
ATOM     47  C22 5EV d   1      37.006  -8.031  13.204  0.00  0.00     0.143 A 
ATOM     48  H7  5EV d   1      38.411  -7.811  14.848  0.00  0.00     0.091 H 
ATOM     49  N23 5EV d   1      36.520  -7.416  12.086  0.00  0.00    -0.045 NA
BRANCH  47  50
ATOM     50  N31 5EV d   1      36.519  -9.260  13.567  0.00  0.00    -0.379 N 
ATOM     51  H20 5EV d   1      36.739  -9.579  14.521  0.00  0.00     0.160 HD
BRANCH  50  52
ATOM     52  C32 5EV d   1      35.719 -10.168  12.742  0.00  0.00    -0.020 C 
ATOM     53  H21 5EV d   1      35.483 -11.075  13.318  0.00  0.00     0.056 H 
ATOM     54  H22 5EV d   1      36.288 -10.443  11.842  0.00  0.00     0.056 H 
ATOM     55  H23 5EV d   1      34.785  -9.668  12.447  0.00  0.00     0.056 H 
ENDBRANCH  50  52
ENDBRANCH  47  50
ENDBRANCH  40  42
ENDBRANCH   4  40
TORSDOF 8
