REMARK  7 active torsions:
REMARK  status: ('A' for Active; 'I' for Inactive)
REMARK    1  A    between atoms: O1_11  and  C1_1 
REMARK    2  A    between atoms: C7_7  and  C8_8 
REMARK    3  A    between atoms: C7_7  and  O1_11 
REMARK    4  A    between atoms: C8_8  and  C9_12 
REMARK    5  A    between atoms: C9_12  and  C10_13 
REMARK    6  A    between atoms: C10_13  and  C11_14 
REMARK    7  A    between atoms: C11_14  and  N12_15 
ROOT
ATOM      1  C8  5G8 d   1       2.878 -20.518   9.154  0.00  0.00    -0.045 C 
ATOM      2  H6  5G8 d   1       1.999 -20.028   8.709  0.00  0.00     0.036 H 
ATOM      3  H7  5G8 d   1       3.107 -20.050  10.123  0.00  0.00     0.036 H 
ENDROOT
BRANCH   1   4
ATOM      4  C7  5G8 d   1       4.065 -20.303   8.227  0.00  0.00     0.026 C 
ATOM      5  H4  5G8 d   1       3.856 -20.696   7.221  0.00  0.00     0.075 H 
ATOM      6  H5  5G8 d   1       4.970 -20.784   8.627  0.00  0.00     0.075 H 
BRANCH   4   7
ATOM      7  O1  5G8 d   1       4.210 -18.879   8.201  0.00  0.00    -0.349 OA
BRANCH   7   8
ATOM      8  C1  5G8 d   1       5.285 -18.387   7.531  0.00  0.00     0.090 A 
ATOM      9  C2  5G8 d   1       5.416 -16.993   7.522  0.00  0.00     0.069 A 
ATOM     10  C3  5G8 d   1       6.492 -16.429   6.851  0.00  0.00    -0.038 A 
ATOM     11 CL2  5G8 d   1       4.227 -15.933   8.386  0.00  0.00    -0.081 Cl
ATOM     12  C4  5G8 d   1       7.406 -17.246   6.187  0.00  0.00     0.035 A 
ATOM     13  H1  5G8 d   1       6.622 -15.353   6.843  0.00  0.00     0.088 H 
ATOM     14  C5  5G8 d   1       7.255 -18.634   6.200  0.00  0.00    -0.059 A 
ATOM     15 CL4  5G8 d   1       8.756 -16.528   5.342  0.00  0.00    -0.084 Cl
ATOM     16  C6  5G8 d   1       6.183 -19.218   6.871  0.00  0.00    -0.048 A 
ATOM     17  H2  5G8 d   1       7.975 -19.260   5.686  0.00  0.00     0.086 H 
ATOM     18  H3  5G8 d   1       6.052 -20.294   6.878  0.00  0.00     0.087 H 
ENDBRANCH   7   8
ENDBRANCH   4   7
ENDBRANCH   1   4
BRANCH   1  19
ATOM     19  C9  5G8 d   1       2.538 -21.971   9.398  0.00  0.00    -0.062 C 
ATOM     20  H8  5G8 d   1       3.378 -22.473   9.900  0.00  0.00     0.033 H 
ATOM     21  H9  5G8 d   1       2.330 -22.472   8.441  0.00  0.00     0.033 H 
BRANCH  19  22
ATOM     22  C10 5G8 d   1       1.298 -22.018  10.289  0.00  0.00    -0.050 C 
ATOM     23  H10 5G8 d   1       0.453 -21.524   9.786  0.00  0.00     0.035 H 
ATOM     24  H11 5G8 d   1       1.501 -21.514  11.245  0.00  0.00     0.035 H 
BRANCH  22  25
ATOM     25  C11 5G8 d   1       0.979 -23.474  10.529  0.00  0.00     0.000 C 
ATOM     26  H12 5G8 d   1       1.829 -23.941  11.047  0.00  0.00     0.064 H 
ATOM     27  H13 5G8 d   1       0.826 -23.967   9.558  0.00  0.00     0.064 H 
BRANCH  25  28
ATOM     28  N12 5G8 d   1      -0.220 -23.654  11.340  0.00  0.00    -0.350 N 
ATOM     29  C16 5G8 d   1      -0.755 -22.824  12.220  0.00  0.00    -0.003 A 
ATOM     30  C15 5G8 d   1      -1.848 -23.425  12.687  0.00  0.00     0.018 A 
ATOM     31  H14 5G8 d   1      -0.377 -21.844  12.506  0.00  0.00     0.113 H 
ATOM     32  N14 5G8 d   1      -1.995 -24.609  12.105  0.00  0.00    -0.255 NA
ATOM     33  H15 5G8 d   1      -2.521 -23.007  13.435  0.00  0.00     0.117 H 
ATOM     34  C13 5G8 d   1      -0.978 -24.746  11.262  0.00  0.00     0.065 A 
ATOM     35  H16 5G8 d   1      -0.795 -25.604  10.617  0.00  0.00     0.143 H 
ENDBRANCH  25  28
ENDBRANCH  22  25
ENDBRANCH  19  22
ENDBRANCH   1  19
TORSDOF 7
