REMARK  3 active torsions:
REMARK  status: ('A' for Active; 'I' for Inactive)
REMARK    1  A    between atoms: C9_5  and  C11_1 
REMARK    2  A    between atoms: C12_2  and  C7_3 
REMARK    3  A    between atoms: C5_10  and  C4_11 
ROOT
ATOM      1  C7  5F3 d   1       6.604  38.499 143.870  0.00  0.00    -0.024 A 
ATOM      2  C8  5F3 d   1       6.860  39.161 145.063  0.00  0.00    -0.056 A 
ATOM      3  C9  5F3 d   1       7.598  38.562 146.072  0.00  0.00     0.042 A 
ATOM      4  C10 5F3 d   1       8.164  37.314 145.860  0.00  0.00    -0.056 A 
ATOM      5  C6  5F3 d   1       7.159  37.232 143.685  0.00  0.00    -0.061 A 
ATOM      6  C5  5F3 d   1       7.956  36.633 144.664  0.00  0.00    -0.024 A 
ATOM      7  H1  5F3 d   1       6.476  40.164 145.208  0.00  0.00     0.086 H 
ATOM      8  H2  5F3 d   1       8.775  36.864 146.634  0.00  0.00     0.086 H 
ATOM      9  H4  5F3 d   1       6.967  36.700 142.760  0.00  0.00     0.086 H 
ENDROOT
BRANCH   1  10
ATOM     10  C12 5F3 d   1       5.712  39.109 142.856  0.00  0.00    -0.023 A 
ATOM     11  C16 5F3 d   1       4.591  39.846 143.228  0.00  0.00    -0.055 A 
ATOM     12  C15 5F3 d   1       3.867  40.511 142.259  0.00  0.00     0.003 A 
ATOM     13  H8  5F3 d   1       4.290  39.897 144.268  0.00  0.00     0.087 H 
ATOM     14  N1  5F3 d   1       4.166  40.473 140.959  0.00  0.00    -0.273 NA
ATOM     15  H9  5F3 d   1       3.009  41.096 142.571  0.00  0.00     0.114 H 
ATOM     16  C14 5F3 d   1       5.227  39.741 140.606  0.00  0.00     0.003 A 
ATOM     17  C13 5F3 d   1       6.016  39.054 141.503  0.00  0.00    -0.055 A 
ATOM     18  H10 5F3 d   1       5.481  39.684 139.554  0.00  0.00     0.114 H 
ATOM     19  H11 5F3 d   1       6.865  38.477 141.155  0.00  0.00     0.087 H 
ENDBRANCH   1  10
BRANCH   3  20
ATOM     20  C11 5F3 d   1       7.663  39.195 147.408  0.00  0.00     0.209 C 
ATOM     21  O   5F3 d   1       7.010  40.191 147.672  0.00  0.00    -0.644 OA
ATOM     22  O1  5F3 d   1       8.362  38.547 148.281  0.00  0.00    -0.644 OA
ENDBRANCH   3  20
BRANCH   6  23
ATOM     23  C4  5F3 d   1       8.585  35.311 144.438  0.00  0.00    -0.023 A 
ATOM     24  C3  5F3 d   1       8.125  34.171 145.086  0.00  0.00    -0.055 A 
ATOM     25  C2  5F3 d   1       8.815  32.987 144.942  0.00  0.00     0.003 A 
ATOM     26  H5  5F3 d   1       7.232  34.213 145.699  0.00  0.00     0.087 H 
ATOM     27  N   5F3 d   1       9.919  32.858 144.201  0.00  0.00    -0.273 NA
ATOM     28  H3  5F3 d   1       8.441  32.111 145.459  0.00  0.00     0.114 H 
ATOM     29  C1  5F3 d   1      10.348  33.954 143.567  0.00  0.00     0.003 A 
ATOM     30  C   5F3 d   1       9.721  35.180 143.651  0.00  0.00    -0.055 A 
ATOM     31  H6  5F3 d   1      11.238  33.875 142.953  0.00  0.00     0.114 H 
ATOM     32  H7  5F3 d   1      10.112  36.033 143.108  0.00  0.00     0.087 H 
ENDBRANCH   6  23
TORSDOF 3
