REMARK  4 active torsions:
REMARK  status: ('A' for Active; 'I' for Inactive)
REMARK    1  A    between atoms: C2_2  and  C1_1 
REMARK    2  A    between atoms: C5_10  and  C2_2 
REMARK    3  A    between atoms: C7_12  and  C11_4 
REMARK       I    between atoms: C11_4  and  N16_18 
REMARK    4  A    between atoms: N16_18  and  C19_8 
ROOT
ATOM      1  C1  5F4 d   1     -24.728 -22.629  10.130  0.00  0.00     0.033 A 
ATOM      2  C3  5F4 d   1     -24.759 -21.799  11.352  0.00  0.00    -0.037 A 
ATOM      3  C4  5F4 d   1     -24.669 -21.753   9.115  0.00  0.00    -0.009 A 
ATOM      4  C7  5F4 d   1     -24.711 -20.519  10.923  0.00  0.00     0.101 A 
ATOM      5  N8  5F4 d   1     -24.662 -20.556   9.611  0.00  0.00    -0.361 N 
ATOM      6  H1  5F4 d   1     -24.810 -22.146  12.383  0.00  0.00     0.088 H 
ATOM      7  H8  5F4 d   1     -24.633 -22.005   8.056  0.00  0.00     0.112 H 
ATOM      8  H9  5F4 d   1     -24.622 -19.708   9.028  0.00  0.00     0.165 HD
ENDROOT
BRANCH   1   9
ATOM      9  C2  5F4 d   1     -24.708 -24.112  10.031  0.00  0.00     0.197 C 
ATOM     10  O6  5F4 d   1     -24.527 -24.770  11.041  0.00  0.00    -0.286 OA
BRANCH   9  11
ATOM     11  C5  5F4 d   1     -24.839 -24.746   8.656  0.00  0.00     0.058 C 
ATOM     12  C9  5F4 d   1     -23.728 -24.825   7.818  0.00  0.00     0.050 C 
ATOM     13  C12 5F4 d   1     -23.841 -25.327   6.497  0.00  0.00    -0.061 C 
ATOM     14 CL1  5F4 d   1     -22.176 -24.415   8.511  0.00  0.00    -0.083 Cl
ATOM     15  C18 5F4 d   1     -25.105 -25.619   5.951  0.00  0.00    -0.080 C 
ATOM     16  H2  5F4 d   1     -22.948 -25.487   5.904  0.00  0.00     0.086 H 
ATOM     17  C14 5F4 d   1     -26.211 -25.578   6.802  0.00  0.00    -0.061 C 
ATOM     18  H4  5F4 d   1     -25.216 -25.868   4.902  0.00  0.00     0.083 H 
ATOM     19  C10 5F4 d   1     -26.080 -25.090   8.125  0.00  0.00     0.050 C 
ATOM     20  H3  5F4 d   1     -27.176 -25.922   6.448  0.00  0.00     0.086 H 
ATOM     21 CL2  5F4 d   1     -27.463 -25.005   9.179  0.00  0.00    -0.083 Cl
ENDBRANCH   9  11
ENDBRANCH   1   9
BRANCH   4  22
ATOM     22  C11 5F4 d   1     -24.709 -19.300  11.782  0.00  0.00     0.267 C 
ATOM     23  N16 5F4 d   1     -24.508 -19.369  13.126  0.00  0.00    -0.360 N 
ATOM     24  H10 5F4 d   1     -24.314 -20.258  13.541  0.00  0.00     0.162 HD
ATOM     25  O17 5F4 d   1     -24.920 -18.224  11.229  0.00  0.00    -0.266 OA
BRANCH  23  26
ATOM     26  C19 5F4 d   1     -24.566 -18.183  13.984  0.00  0.00    -0.018 C 
ATOM     27  H5  5F4 d   1     -24.374 -18.475  15.027  0.00  0.00     0.056 H 
ATOM     28  H6  5F4 d   1     -25.563 -17.725  13.909  0.00  0.00     0.056 H 
ATOM     29  H7  5F4 d   1     -23.804 -17.458  13.660  0.00  0.00     0.056 H 
ENDBRANCH  23  26
ENDBRANCH   4  22
TORSDOF 4
