REMARK  2 active torsions:
REMARK  status: ('A' for Active; 'I' for Inactive)
REMARK    1  A    between atoms: C9_18  and  C11_4 
REMARK    2  A    between atoms: C6_15  and  C9_18 
ROOT
ATOM      1  C11 5F6 d   1     -24.710  23.217 -11.097  0.00  0.00     0.016 A 
ATOM      2  C12 5F6 d   1     -24.765  22.245 -10.076  0.00  0.00    -0.067 A 
ATOM      3  C13 5F6 d   1     -24.803  20.893 -10.407  0.00  0.00    -0.053 A 
ATOM      4  C14 5F6 d   1     -24.771  20.485 -11.758  0.00  0.00     0.066 A 
ATOM      5  C15 5F6 d   1     -24.616  21.455 -12.787  0.00  0.00    -0.006 A 
ATOM      6  C16 5F6 d   1     -24.568  22.812 -12.442  0.00  0.00    -0.057 A 
ATOM      7  C18 5F6 d   1     -24.729  18.716 -13.355  0.00  0.00     0.003 A 
ATOM      8  C19 5F6 d   1     -24.625  19.650 -14.418  0.00  0.00    -0.065 A 
ATOM      9  C20 5F6 d   1     -24.535  21.027 -14.133  0.00  0.00    -0.069 A 
ATOM     10  N17 5F6 d   1     -24.838  19.148 -12.063  0.00  0.00    -0.260 NA
ATOM     11  H3  5F6 d   1     -24.778  22.550  -9.036  0.00  0.00     0.085 H 
ATOM     12  H4  5F6 d   1     -24.858  20.148  -9.621  0.00  0.00     0.087 H 
ATOM     13  H5  5F6 d   1     -24.421  23.558 -13.215  0.00  0.00     0.086 H 
ATOM     14  H6  5F6 d   1     -24.722  17.653 -13.569  0.00  0.00     0.114 H 
ATOM     15  H7  5F6 d   1     -24.615  19.305 -15.446  0.00  0.00     0.085 H 
ATOM     16  H8  5F6 d   1     -24.406  21.747 -14.933  0.00  0.00     0.085 H 
ENDROOT
BRANCH   1  17
ATOM     17  C9  5F6 d   1     -24.501  24.671 -10.743  0.00  0.00     0.195 C 
ATOM     18  O10 5F6 d   1     -24.062  25.424 -11.606  0.00  0.00    -0.287 OA
BRANCH  17  19
ATOM     19  C6  5F6 d   1     -24.721  25.135  -9.304  0.00  0.00     0.058 A 
ATOM     20  C1  5F6 d   1     -25.979  25.530  -8.821  0.00  0.00     0.050 A 
ATOM     21  C2  5F6 d   1     -26.138  25.868  -7.460  0.00  0.00    -0.061 A 
ATOM     22 CL7  5F6 d   1     -27.328  25.621  -9.940  0.00  0.00    -0.083 Cl
ATOM     23  C3  5F6 d   1     -25.076  25.809  -6.547  0.00  0.00    -0.080 A 
ATOM     24  H1  5F6 d   1     -27.114  26.184  -7.109  0.00  0.00     0.086 H 
ATOM     25  C4  5F6 d   1     -23.832  25.386  -7.014  0.00  0.00    -0.061 A 
ATOM     26  H2  5F6 d   1     -25.218  26.084  -5.508  0.00  0.00     0.083 H 
ATOM     27  C5  5F6 d   1     -23.671  25.043  -8.380  0.00  0.00     0.050 A 
ATOM     28  H9  5F6 d   1     -22.990  25.320  -6.334  0.00  0.00     0.086 H 
ATOM     29 CL8  5F6 d   1     -22.123  24.580  -9.021  0.00  0.00    -0.083 Cl
ENDBRANCH  17  19
ENDBRANCH   1  17
TORSDOF 2
