REMARK  5 active torsions:
REMARK  status: ('A' for Active; 'I' for Inactive)
REMARK    1  A    between atoms: C3_3  and  O20_22 
REMARK    2  A    between atoms: N11_19  and  C12_4 
REMARK    3  A    between atoms: O20_22  and  C21_10 
REMARK    4  A    between atoms: N11_19  and  C22_11 
REMARK    5  A    between atoms: C8_16  and  N11_19 
ROOT
ATOM      1  C1  5F7 d   1      30.036 -14.262  11.740  0.00  0.00     0.005 A 
ATOM      2  C2  5F7 d   1      31.328 -14.673  12.135  0.00  0.00    -0.033 A 
ATOM      3  C3  5F7 d   1      32.454 -13.930  11.706  0.00  0.00     0.082 A 
ATOM      4  C4  5F7 d   1      32.243 -12.818  10.866  0.00  0.00     0.028 A 
ATOM      5  C5  5F7 d   1      30.910 -12.432  10.526  0.00  0.00     0.069 A 
ATOM      6  N6  5F7 d   1      29.847 -13.179  10.936  0.00  0.00    -0.260 NA
ATOM      7  C7  5F7 d   1      33.325 -12.009  10.464  0.00  0.00    -0.042 A 
ATOM      8  C8  5F7 d   1      33.142 -10.867   9.646  0.00  0.00     0.035 A 
ATOM      9  C9  5F7 d   1      31.783 -10.521   9.342  0.00  0.00    -0.055 A 
ATOM     10  C10 5F7 d   1      30.685 -11.267   9.775  0.00  0.00    -0.052 A 
ATOM     11  H1  5F7 d   1      29.174 -14.822  12.085  0.00  0.00     0.114 H 
ATOM     12  H2  5F7 d   1      31.456 -15.549  12.761  0.00  0.00     0.090 H 
ATOM     13  H12 5F7 d   1      34.326 -12.268  10.790  0.00  0.00     0.088 H 
ATOM     14  H13 5F7 d   1      31.599  -9.635   8.745  0.00  0.00     0.087 H 
ATOM     15  H14 5F7 d   1      29.676 -10.952   9.535  0.00  0.00     0.087 H 
ENDROOT
BRANCH   8  16
ATOM     16  N11 5F7 d   1      34.222 -10.066   9.255  0.00  0.00    -0.348 N 
BRANCH  16  17
ATOM     17  C12 5F7 d   1      33.911  -8.793   8.861  0.00  0.00     0.078 A 
ATOM     18  C13 5F7 d   1      33.320  -7.931   9.817  0.00  0.00     0.062 A 
ATOM     19  C14 5F7 d   1      32.805  -6.677   9.465  0.00  0.00    -0.060 A 
ATOM     20 CL2  5F7 d   1      33.257  -8.440  11.486  0.00  0.00    -0.082 Cl
ATOM     21  C15 5F7 d   1      32.930  -6.242   8.151  0.00  0.00    -0.080 A 
ATOM     22  H3  5F7 d   1      32.316  -6.055  10.206  0.00  0.00     0.086 H 
ATOM     23  C16 5F7 d   1      33.474  -7.099   7.174  0.00  0.00    -0.060 A 
ATOM     24  H4  5F7 d   1      32.609  -5.243   7.878  0.00  0.00     0.083 H 
ATOM     25  C17 5F7 d   1      33.947  -8.374   7.517  0.00  0.00     0.062 A 
ATOM     26  H5  5F7 d   1      33.528  -6.768   6.143  0.00  0.00     0.086 H 
ATOM     27 CL1  5F7 d   1      34.631  -9.339   6.244  0.00  0.00    -0.082 Cl
ENDBRANCH  16  17
BRANCH  16  28
ATOM     28  C22 5F7 d   1      35.636 -10.502   9.329  0.00  0.00    -0.013 C 
ATOM     29  H9  5F7 d   1      36.288  -9.694   8.965  0.00  0.00     0.057 H 
ATOM     30  H10 5F7 d   1      35.777 -11.397   8.705  0.00  0.00     0.057 H 
ATOM     31  H11 5F7 d   1      35.893 -10.739  10.372  0.00  0.00     0.057 H 
ENDBRANCH  16  28
ENDBRANCH   8  16
BRANCH   3  32
ATOM     32  O20 5F7 d   1      33.781 -14.261  12.023  0.00  0.00    -0.355 OA
BRANCH  32  33
ATOM     33  C21 5F7 d   1      34.147 -15.144  13.099  0.00  0.00     0.010 C 
ATOM     34  H6  5F7 d   1      35.242 -15.239  13.139  0.00  0.00     0.066 H 
ATOM     35  H7  5F7 d   1      33.699 -16.134  12.930  0.00  0.00     0.066 H 
ATOM     36  H8  5F7 d   1      33.780 -14.733  14.051  0.00  0.00     0.066 H 
ENDBRANCH  32  33
ENDBRANCH   3  32
TORSDOF 5
