REMARK  2 active torsions:
REMARK  status: ('A' for Active; 'I' for Inactive)
REMARK    1  A    between atoms: C_2  and  C1_4 
REMARK    2  A    between atoms: C3_8  and  C7_10 
ROOT
ATOM      1  C1  5F8 d   1       5.150 -19.405  67.886  0.00  0.00     0.041 A 
ATOM      2  C6  5F8 d   1       3.849 -19.869  68.016  0.00  0.00    -0.066 A 
ATOM      3  C5  5F8 d   1       3.604 -21.223  68.155  0.00  0.00    -0.081 A 
ATOM      4  C4  5F8 d   1       4.655 -22.125  68.165  0.00  0.00    -0.072 A 
ATOM      5  C3  5F8 d   1       5.971 -21.686  68.034  0.00  0.00    -0.024 A 
ATOM      6  C2  5F8 d   1       6.200 -20.317  67.901  0.00  0.00    -0.056 A 
ATOM      7  H1  5F8 d   1       3.022 -19.168  68.009  0.00  0.00     0.085 H 
ATOM      8  H2  5F8 d   1       2.585 -21.580  68.257  0.00  0.00     0.083 H 
ATOM      9  H3  5F8 d   1       4.452 -23.184  68.276  0.00  0.00     0.084 H 
ATOM     10  H4  5F8 d   1       7.218 -19.956  67.807  0.00  0.00     0.086 H 
ENDROOT
BRANCH   5  11
ATOM     11  C7  5F8 d   1       7.103 -22.647  68.008  0.00  0.00    -0.008 A 
ATOM     12  C11 5F8 d   1       8.391 -22.275  68.373  0.00  0.00     0.013 A 
ATOM     13  N   5F8 d   1       9.448 -23.093  68.344  0.00  0.00    -0.272 NA
ATOM     14  H5  5F8 d   1       8.549 -21.255  68.703  0.00  0.00     0.116 H 
ATOM     15  C10 5F8 d   1       9.239 -24.350  67.938  0.00  0.00     0.002 A 
ATOM     16  C9  5F8 d   1       8.004 -24.825  67.558  0.00  0.00    -0.065 A 
ATOM     17  H6  5F8 d   1      10.084 -25.028  67.907  0.00  0.00     0.114 H 
ATOM     18  C8  5F8 d   1       6.926 -23.962  67.596  0.00  0.00    -0.070 A 
ATOM     19  H7  5F8 d   1       7.880 -25.853  67.236  0.00  0.00     0.085 H 
ATOM     20  H8  5F8 d   1       5.942 -24.311  67.304  0.00  0.00     0.085 H 
ENDBRANCH   5  11
BRANCH   1  21
ATOM     21  C   5F8 d   1       5.429 -17.931  67.716  0.00  0.00     0.209 C 
ATOM     22  O1  5F8 d   1       6.623 -17.551  67.783  0.00  0.00    -0.644 OA
ATOM     23  O   5F8 d   1       4.452 -17.172  67.513  0.00  0.00    -0.644 OA
ENDBRANCH   1  21
TORSDOF 2
