REMARK  2 active torsions:
REMARK  status: ('A' for Active; 'I' for Inactive)
REMARK    1  A    between atoms: C_11  and  C1_1 
REMARK    2  A    between atoms: C5_5  and  C7_7 
ROOT
ATOM      1  C1  5F5 d   1      76.632 232.114  35.619  0.00  0.00     0.001 A 
ATOM      2  C2  5F5 d   1      77.756 232.924  35.742  0.00  0.00    -0.070 A 
ATOM      3  C3  5F5 d   1      79.020 232.401  35.533  0.00  0.00    -0.081 A 
ATOM      4  C4  5F5 d   1      79.173 231.066  35.202  0.00  0.00    -0.066 A 
ATOM      5  C5  5F5 d   1      78.061 230.241  35.084  0.00  0.00     0.041 A 
ATOM      6  C6  5F5 d   1      76.791 230.769  35.299  0.00  0.00    -0.054 A 
ATOM      7  H1  5F5 d   1      77.641 233.970  36.003  0.00  0.00     0.084 H 
ATOM      8  H2  5F5 d   1      79.892 233.038  35.629  0.00  0.00     0.083 H 
ATOM      9  H3  5F5 d   1      80.165 230.662  35.034  0.00  0.00     0.085 H 
ATOM     10  H4  5F5 d   1      75.920 230.128  35.217  0.00  0.00     0.086 H 
ENDROOT
BRANCH   1  11
ATOM     11  C   5F5 d   1      75.282 232.675  35.791  0.00  0.00     0.107 A 
ATOM     12  S   5F5 d   1      74.846 234.238  35.187  0.00  0.00    -0.080 SA
ATOM     13  C8  5F5 d   1      73.257 233.994  35.771  0.00  0.00    -0.026 A 
ATOM     14  C9  5F5 d   1      73.161 232.795  36.366  0.00  0.00     0.010 A 
ATOM     15  H5  5F5 d   1      72.441 234.708  35.674  0.00  0.00     0.097 H 
ATOM     16  N   5F5 d   1      74.307 232.033  36.386  0.00  0.00    -0.252 NA
ATOM     17  H6  5F5 d   1      72.229 232.445  36.808  0.00  0.00     0.115 H 
ENDBRANCH   1  11
BRANCH   5  18
ATOM     18  C7  5F5 d   1      78.216 228.808  34.713  0.00  0.00     0.209 C 
ATOM     19  O   5F5 d   1      79.443 228.427  34.507  0.00  0.00    -0.644 OA
ATOM     20  O1  5F5 d   1      77.253 228.060  34.618  0.00  0.00    -0.644 OA
ENDBRANCH   5  18
TORSDOF 2
