REMARK WARNING: 32 MAX_TORS EXCEEDED!!!
REMARK  44 active torsions:
REMARK  status: ('A' for Active; 'I' for Inactive)
REMARK    1  A    between atoms: P18_2  and  O17_5 
REMARK    2  A    between atoms: O17_5  and  C14_6 
REMARK    3  A    between atoms: C15_7  and  O16_8 
REMARK    4  A    between atoms: C11_9  and  N10_10 
REMARK    5  A    between atoms: C80_14  and  N81_15 
REMARK    6  A    between atoms: C13_21  and  C22_22 
REMARK    7  A    between atoms: C22_22  and  O23_23 
REMARK    8  A    between atoms: O23_23  and  P26_24 
REMARK    9  A    between atoms: P26_24  and  O27_27 
REMARK   10  A    between atoms: O27_27  and  P32_28 
REMARK   11  A    between atoms: P32_28  and  O33_31 
REMARK   12  A    between atoms: O33_31  and  C36_32 
REMARK   13  A    between atoms: C36_32  and  C37_33 
REMARK   14  A    between atoms: C37_33  and  C38_34 
REMARK   15  A    between atoms: C37_33  and  C39_35 
REMARK   16  A    between atoms: C37_33  and  C40_36 
REMARK   17  A    between atoms: C40_36  and  O41_37 
REMARK   18  A    between atoms: C40_36  and  C42_38 
REMARK       I    between atoms: C42_38  and  N43_40 
REMARK   19  A    between atoms: N43_40  and  C45_41 
REMARK   20  A    between atoms: C45_41  and  C46_42 
REMARK   21  A    between atoms: C46_42  and  C47_43 
REMARK       I    between atoms: C47_43  and  N48_45 
REMARK   22  A    between atoms: N48_45  and  C50_46 
REMARK   23  A    between atoms: C50_46  and  C51_47 
REMARK   24  A    between atoms: C51_47  and  S52_48 
REMARK   25  A    between atoms: S52_48  and  C53_49 
REMARK   26  A    between atoms: C53_49  and  C55_51 
REMARK   27  A    between atoms: C55_51  and  C56_52 
REMARK   28  A    between atoms: C56_52  and  C57_53 
REMARK   29  A    between atoms: C57_53  and  C58_54 
REMARK   30  A    between atoms: C58_54  and  C59_55 
REMARK   31  A    between atoms: C59_55  and  C60_56 
REMARK   32  A    between atoms: C60_56  and  C61_57 
REMARK   33  A    between atoms: C61_57  and  C62_58 
REMARK   34  A    between atoms: C62_58  and  C63_59 
REMARK   35  A    between atoms: C63_59  and  C64_60 
REMARK   36  A    between atoms: C64_60  and  C65_61 
REMARK   37  A    between atoms: C65_61  and  C66_62 
REMARK   38  A    between atoms: C66_62  and  C67_63 
REMARK   39  A    between atoms: C67_63  and  C68_64 
REMARK   40  A    between atoms: C68_64  and  C69_65 
REMARK   41  A    between atoms: C69_65  and  C70_66 
REMARK   42  A    between atoms: C70_66  and  C71_67 
REMARK   43  A    between atoms: C71_67  and  C72_68 
REMARK   44  A    between atoms: C72_68  and  C73_69 
ROOT
ATOM      1  C47 5F9 d   1     -24.817 -18.365 -19.447  0.00  0.00     0.219 C 
ATOM      2  O49 5F9 d   1     -23.787 -19.032 -19.473  0.00  0.00    -0.274 OA
ATOM      3  N48 5F9 d   1     -24.858 -17.127 -18.958  0.00  0.00    -0.360 N 
ATOM      4  H27 5F9 d   1     -25.718 -16.617 -18.966  0.00  0.00     0.162 HD
ENDROOT
BRANCH   1   5
ATOM      5  C46 5F9 d   1     -26.131 -18.898 -19.979  0.00  0.00     0.024 C 
ATOM      6  H25 5F9 d   1     -26.950 -18.507 -19.357  0.00  0.00     0.049 H 
ATOM      7  H26 5F9 d   1     -26.260 -18.552 -21.015  0.00  0.00     0.049 H 
BRANCH   5   8
ATOM      8  C45 5F9 d   1     -26.183 -20.434 -19.959  0.00  0.00     0.003 C 
ATOM      9  H23 5F9 d   1     -25.405 -20.800 -20.645  0.00  0.00     0.064 H 
ATOM     10  H24 5F9 d   1     -25.951 -20.759 -18.934  0.00  0.00     0.064 H 
BRANCH   8  11
ATOM     11  N43 5F9 d   1     -27.443 -21.069 -20.346  0.00  0.00    -0.358 N 
ATOM     12  C42 5F9 d   1     -28.077 -20.688 -21.450  0.00  0.00     0.247 C 
ATOM     13  O44 5F9 d   1     -27.637 -19.810 -22.154  0.00  0.00    -0.271 OA
ATOM     14  H22 5F9 d   1     -27.829 -21.794 -19.776  0.00  0.00     0.162 HD
BRANCH  12  15
ATOM     15  C40 5F9 d   1     -29.360 -21.339 -21.882  0.00  0.00     0.120 C 
ATOM     16  H20 5F9 d   1     -29.606 -20.949 -22.881  0.00  0.00     0.099 H 
BRANCH  15  17
ATOM     17  C37 5F9 d   1     -30.529 -21.044 -20.961  0.00  0.00     0.009 C 
BRANCH  17  18
ATOM     18  C36 5F9 d   1     -31.769 -21.476 -21.762  0.00  0.00     0.041 C 
ATOM     19  H12 5F9 d   1     -32.633 -21.546 -21.085  0.00  0.00     0.076 H 
ATOM     20  H13 5F9 d   1     -31.975 -20.730 -22.544  0.00  0.00     0.076 H 
BRANCH  18  21
ATOM     21  O33 5F9 d   1     -31.538 -22.761 -22.376  0.00  0.00    -0.289 OA
BRANCH  21  22
ATOM     22  P32 5F9 d   1     -32.306 -23.322 -23.683  0.00  0.00     0.417 P 
ATOM     23  O34 5F9 d   1     -33.724 -22.821 -23.765  0.00  0.00    -0.624 OA
ATOM     24  O35 5F9 d   1     -32.051 -24.797 -23.742  0.00  0.00    -0.624 OA
BRANCH  22  25
ATOM     25  O27 5F9 d   1     -31.559 -22.585 -24.901  0.00  0.00    -0.180 OA
BRANCH  25  26
ATOM     26  P26 5F9 d   1     -30.163 -22.992 -25.612  0.00  0.00     0.417 P 
ATOM     27  O28 5F9 d   1     -30.461 -24.028 -26.667  0.00  0.00    -0.624 OA
ATOM     28  O29 5F9 d   1     -29.039 -23.189 -24.629  0.00  0.00    -0.624 OA
BRANCH  26  29
ATOM     29  O23 5F9 d   1     -29.881 -21.583 -26.304  0.00  0.00    -0.287 OA
BRANCH  29  30
ATOM     30  C22 5F9 d   1     -30.804 -20.976 -27.199  0.00  0.00     0.058 C 
ATOM     31  H10 5F9 d   1     -31.268 -21.740 -27.840  0.00  0.00     0.079 H 
ATOM     32  H11 5F9 d   1     -31.586 -20.447 -26.635  0.00  0.00     0.079 H 
BRANCH  30  33
ATOM     33  C13 5F9 d   1     -30.012 -19.991 -28.047  0.00  0.00     0.090 C 
ATOM     34  C14 5F9 d   1     -28.691 -20.588 -28.506  0.00  0.00     0.107 C 
ATOM     35  C15 5F9 d   1     -27.672 -19.955 -27.577  0.00  0.00     0.106 C 
ATOM     36  H1  5F9 d   1     -28.681 -21.685 -28.429  0.00  0.00     0.092 H 
ATOM     37  C11 5F9 d   1     -28.277 -18.586 -27.317  0.00  0.00     0.140 C 
ATOM     38  H2  5F9 d   1     -27.583 -20.534 -26.646  0.00  0.00     0.093 H 
ATOM     39  O12 5F9 d   1     -29.684 -18.834 -27.270  0.00  0.00    -0.353 OA
ATOM     40  H4  5F9 d   1     -28.026 -17.886 -28.128  0.00  0.00     0.122 H 
ATOM     41  H9  5F9 d   1     -30.614 -19.702 -28.921  0.00  0.00     0.090 H 
BRANCH  34  42
ATOM     42  O17 5F9 d   1     -28.477 -20.172 -29.863  0.00  0.00    -0.272 OA
BRANCH  42  43
ATOM     43  P18 5F9 d   1     -28.759 -21.132 -31.147  0.00  0.00     0.422 P 
ATOM     44  O19 5F9 d   1     -30.201 -21.601 -31.075  0.00  0.00    -0.617 OA
ATOM     45  O20 5F9 d   1     -27.750 -22.249 -30.928  0.00  0.00    -0.617 OA
ATOM     46  O21 5F9 d   1     -28.533 -20.205 -32.333  0.00  0.00    -0.617 OA
ENDBRANCH  42  43
ENDBRANCH  34  42
BRANCH  35  47
ATOM     47  O16 5F9 d   1     -26.380 -19.825 -28.171  0.00  0.00    -0.388 OA
ATOM     48  H3  5F9 d   1     -26.442 -19.279 -28.946  0.00  0.00     0.210 HD
ENDBRANCH  35  47
BRANCH  37  49
ATOM     49  N10 5F9 d   1     -27.813 -18.036 -26.024  0.00  0.00    -0.294 N 
ATOM     50  C9  5F9 d   1     -28.187 -18.492 -24.819  0.00  0.00     0.071 A 
ATOM     51  N8  5F9 d   1     -27.576 -17.767 -23.871  0.00  0.00    -0.236 NA
ATOM     52  H5  5F9 d   1     -28.875 -19.317 -24.640  0.00  0.00     0.144 H 
ATOM     53  C7  5F9 d   1     -26.815 -16.855 -24.483  0.00  0.00     0.149 A 
ATOM     54  C80 5F9 d   1     -25.981 -15.877 -24.009  0.00  0.00     0.155 A 
ATOM     55  C6  5F9 d   1     -26.965 -17.023 -25.844  0.00  0.00     0.167 A 
ATOM     56  N82 5F9 d   1     -25.329 -15.094 -24.884  0.00  0.00    -0.222 NA
ATOM     57  C83 5F9 d   1     -25.477 -15.265 -26.204  0.00  0.00     0.091 A 
ATOM     58  N84 5F9 d   1     -26.282 -16.219 -26.687  0.00  0.00    -0.222 NA
ATOM     59  H8  5F9 d   1     -24.938 -14.622 -26.890  0.00  0.00     0.146 H 
BRANCH  54  60
ATOM     60  N81 5F9 d   1     -25.835 -15.708 -22.678  0.00  0.00    -0.382 N 
ATOM     61  H6  5F9 d   1     -25.209 -14.974 -22.318  0.00  0.00     0.157 HD
ATOM     62  H7  5F9 d   1     -26.350 -16.313 -22.023  0.00  0.00     0.157 HD
ENDBRANCH  54  60
ENDBRANCH  37  49
ENDBRANCH  30  33
ENDBRANCH  29  30
ENDBRANCH  26  29
ENDBRANCH  25  26
ENDBRANCH  22  25
ENDBRANCH  21  22
ENDBRANCH  18  21
ENDBRANCH  17  18
BRANCH  17  63
ATOM     63  C38 5F9 d   1     -30.448 -21.849 -19.671  0.00  0.00    -0.065 C 
ATOM     64  H14 5F9 d   1     -29.561 -21.538 -19.100  0.00  0.00     0.028 H 
ATOM     65  H15 5F9 d   1     -30.373 -22.920 -19.911  0.00  0.00     0.028 H 
ATOM     66  H16 5F9 d   1     -31.352 -21.670 -19.070  0.00  0.00     0.028 H 
ENDBRANCH  17  63
BRANCH  17  67
ATOM     67  C39 5F9 d   1     -30.528 -19.560 -20.637  0.00  0.00    -0.065 C 
ATOM     68  H17 5F9 d   1     -30.587 -18.981 -21.570  0.00  0.00     0.028 H 
ATOM     69  H18 5F9 d   1     -29.602 -19.302 -20.103  0.00  0.00     0.028 H 
ATOM     70  H19 5F9 d   1     -31.395 -19.323 -20.003  0.00  0.00     0.028 H 
ENDBRANCH  17  67
ENDBRANCH  15  17
BRANCH  15  71
ATOM     71  O41 5F9 d   1     -29.221 -22.757 -21.971  0.00  0.00    -0.385 OA
ATOM     72  H21 5F9 d   1     -30.020 -23.131 -22.322  0.00  0.00     0.210 HD
ENDBRANCH  15  71
ENDBRANCH  12  15
ENDBRANCH   8  11
ENDBRANCH   5   8
ENDBRANCH   1   5
BRANCH   3  73
ATOM     73  C50 5F9 d   1     -23.665 -16.517 -18.415  0.00  0.00     0.003 C 
ATOM     74  H28 5F9 d   1     -22.910 -17.300 -18.254  0.00  0.00     0.065 H 
ATOM     75  H29 5F9 d   1     -23.915 -16.046 -17.453  0.00  0.00     0.065 H 
BRANCH  73  76
ATOM     76  C51 5F9 d   1     -23.085 -15.463 -19.338  0.00  0.00    -0.002 C 
ATOM     77  H30 5F9 d   1     -23.891 -14.847 -19.763  0.00  0.00     0.052 H 
ATOM     78  H31 5F9 d   1     -22.521 -15.942 -20.152  0.00  0.00     0.052 H 
BRANCH  76  79
ATOM     79  S52 5F9 d   1     -22.010 -14.464 -18.362  0.00  0.00    -0.091 SA
BRANCH  79  80
ATOM     80  C53 5F9 d   1     -22.861 -13.400 -17.350  0.00  0.00     0.186 C 
ATOM     81  O54 5F9 d   1     -24.043 -13.151 -17.548  0.00  0.00    -0.286 OA
BRANCH  80  82
ATOM     82  C55 5F9 d   1     -22.175 -12.715 -16.177  0.00  0.00     0.000 C 
ATOM     83  H32 5F9 d   1     -21.758 -13.484 -15.510  0.00  0.00     0.045 H 
ATOM     84  H33 5F9 d   1     -22.919 -12.118 -15.629  0.00  0.00     0.045 H 
BRANCH  82  85
ATOM     85  C56 5F9 d   1     -21.047 -11.797 -16.638  0.00  0.00    -0.058 C 
ATOM     86  H34 5F9 d   1     -21.006 -11.829 -17.737  0.00  0.00     0.033 H 
ATOM     87  H35 5F9 d   1     -20.102 -12.180 -16.225  0.00  0.00     0.033 H 
BRANCH  85  88
ATOM     88  C57 5F9 d   1     -21.197 -10.340 -16.210  0.00  0.00    -0.065 C 
ATOM     89  H36 5F9 d   1     -22.015  -9.879 -16.783  0.00  0.00     0.033 H 
ATOM     90  H37 5F9 d   1     -20.258  -9.806 -16.417  0.00  0.00     0.033 H 
BRANCH  88  91
ATOM     91  C58 5F9 d   1     -21.512 -10.236 -14.719  0.00  0.00    -0.065 C 
ATOM     92  H38 5F9 d   1     -21.488 -11.243 -14.277  0.00  0.00     0.033 H 
ATOM     93  H39 5F9 d   1     -22.516  -9.804 -14.594  0.00  0.00     0.033 H 
BRANCH  91  94
ATOM     94  C59 5F9 d   1     -20.496  -9.351 -13.996  0.00  0.00    -0.065 C 
ATOM     95  H40 5F9 d   1     -19.487  -9.764 -14.143  0.00  0.00     0.033 H 
ATOM     96  H41 5F9 d   1     -20.732  -9.333 -12.922  0.00  0.00     0.033 H 
BRANCH  94  97
ATOM     97  C60 5F9 d   1     -20.540  -7.926 -14.543  0.00  0.00    -0.065 C 
ATOM     98  H42 5F9 d   1     -21.497  -7.463 -14.260  0.00  0.00     0.033 H 
ATOM     99  H43 5F9 d   1     -20.459  -7.960 -15.639  0.00  0.00     0.033 H 
BRANCH  97 100
ATOM    100  C61 5F9 d   1     -19.393  -7.083 -13.985  0.00  0.00    -0.065 C 
ATOM    101  H44 5F9 d   1     -18.953  -6.503 -14.810  0.00  0.00     0.033 H 
ATOM    102  H45 5F9 d   1     -18.634  -7.761 -13.567  0.00  0.00     0.033 H 
BRANCH 100 103
ATOM    103  C62 5F9 d   1     -19.831  -6.109 -12.887  0.00  0.00    -0.065 C 
ATOM    104  H46 5F9 d   1     -18.945  -5.575 -12.512  0.00  0.00     0.033 H 
ATOM    105  H47 5F9 d   1     -20.289  -6.681 -12.067  0.00  0.00     0.033 H 
BRANCH 103 106
ATOM    106  C63 5F9 d   1     -20.844  -5.085 -13.401  0.00  0.00    -0.065 C 
ATOM    107  H48 5F9 d   1     -20.846  -5.103 -14.501  0.00  0.00     0.033 H 
ATOM    108  H49 5F9 d   1     -20.552  -4.084 -13.051  0.00  0.00     0.033 H 
BRANCH 106 109
ATOM    109  C64 5F9 d   1     -22.250  -5.399 -12.895  0.00  0.00    -0.065 C 
ATOM    110  H50 5F9 d   1     -22.198  -6.273 -12.229  0.00  0.00     0.033 H 
ATOM    111  H51 5F9 d   1     -22.891  -5.633 -13.758  0.00  0.00     0.033 H 
BRANCH 109 112
ATOM    112  C65 5F9 d   1     -22.870  -4.234 -12.127  0.00  0.00    -0.065 C 
ATOM    113  H52 5F9 d   1     -22.763  -3.315 -12.723  0.00  0.00     0.033 H 
ATOM    114  H53 5F9 d   1     -22.341  -4.114 -11.170  0.00  0.00     0.033 H 
BRANCH 112 115
ATOM    115  C66 5F9 d   1     -24.350  -4.475 -11.849  0.00  0.00    -0.065 C 
ATOM    116  H54 5F9 d   1     -24.540  -5.557 -11.794  0.00  0.00     0.033 H 
ATOM    117  H55 5F9 d   1     -24.950  -4.038 -12.661  0.00  0.00     0.033 H 
BRANCH 115 118
ATOM    118  C67 5F9 d   1     -24.741  -3.825 -10.525  0.00  0.00    -0.065 C 
ATOM    119  H56 5F9 d   1     -24.007  -4.110  -9.757  0.00  0.00     0.033 H 
ATOM    120  H57 5F9 d   1     -25.738  -4.185 -10.231  0.00  0.00     0.033 H 
BRANCH 118 121
ATOM    121  C68 5F9 d   1     -24.776  -2.306 -10.636  0.00  0.00    -0.065 C 
ATOM    122  H58 5F9 d   1     -25.678  -2.014 -11.194  0.00  0.00     0.033 H 
ATOM    123  H59 5F9 d   1     -23.882  -1.972 -11.183  0.00  0.00     0.033 H 
BRANCH 121 124
ATOM    124  C69 5F9 d   1     -24.801  -1.620  -9.275  0.00  0.00    -0.065 C 
ATOM    125  H60 5F9 d   1     -24.931  -0.538  -9.427  0.00  0.00     0.033 H 
ATOM    126  H61 5F9 d   1     -23.843  -1.806  -8.768  0.00  0.00     0.033 H 
BRANCH 124 127
ATOM    127  C70 5F9 d   1     -25.930  -2.128  -8.387  0.00  0.00    -0.065 C 
ATOM    128  H62 5F9 d   1     -25.538  -2.910  -7.720  0.00  0.00     0.033 H 
ATOM    129  H63 5F9 d   1     -26.724  -2.550  -9.021  0.00  0.00     0.033 H 
BRANCH 127 130
ATOM    130  C71 5F9 d   1     -26.514  -0.998  -7.543  0.00  0.00    -0.065 C 
ATOM    131  H64 5F9 d   1     -25.717  -0.565  -6.921  0.00  0.00     0.033 H 
ATOM    132  H65 5F9 d   1     -27.305  -1.405  -6.895  0.00  0.00     0.033 H 
BRANCH 130 133
ATOM    133  C72 5F9 d   1     -27.106   0.094  -8.426  0.00  0.00    -0.069 C 
ATOM    134  H66 5F9 d   1     -28.011  -0.296  -8.915  0.00  0.00     0.032 H 
ATOM    135  H67 5F9 d   1     -26.366   0.372  -9.191  0.00  0.00     0.032 H 
BRANCH 133 136
ATOM    136  C73 5F9 d   1     -27.474   1.327  -7.630  0.00  0.00    -0.077 C 
ATOM    137  H68 5F9 d   1     -27.896   2.087  -8.305  0.00  0.00     0.027 H 
ATOM    138  H69 5F9 d   1     -26.575   1.730  -7.141  0.00  0.00     0.027 H 
ATOM    139  H70 5F9 d   1     -28.219   1.061  -6.866  0.00  0.00     0.027 H 
ENDBRANCH 133 136
ENDBRANCH 130 133
ENDBRANCH 127 130
ENDBRANCH 124 127
ENDBRANCH 121 124
ENDBRANCH 118 121
ENDBRANCH 115 118
ENDBRANCH 112 115
ENDBRANCH 109 112
ENDBRANCH 106 109
ENDBRANCH 103 106
ENDBRANCH 100 103
ENDBRANCH  97 100
ENDBRANCH  94  97
ENDBRANCH  91  94
ENDBRANCH  88  91
ENDBRANCH  85  88
ENDBRANCH  82  85
ENDBRANCH  80  82
ENDBRANCH  79  80
ENDBRANCH  76  79
ENDBRANCH  73  76
ENDBRANCH   3  73
TORSDOF 44
