REMARK  9 active torsions:
REMARK  status: ('A' for Active; 'I' for Inactive)
REMARK    1  A    between atoms: C1_1  and  C7_9 
REMARK    2  A    between atoms: C3_3  and  C13_6 
REMARK    3  A    between atoms: C10_12  and  C32_13 
REMARK    4  A    between atoms: C32_13  and  C33_14 
REMARK    5  A    between atoms: C17_21  and  C20_22 
REMARK       I    between atoms: C20_22  and  N21_24 
REMARK    6  A    between atoms: N21_24  and  C23_25 
REMARK    7  A    between atoms: C23_25  and  C24_26 
REMARK    8  A    between atoms: C27_29  and  O30_30 
REMARK    9  A    between atoms: O30_30  and  C31_31 
ROOT
ATOM      1  C1  5FF d   1     -13.675  11.005  37.326  0.00  0.00     0.038 C 
ATOM      2  C2  5FF d   1     -14.645  11.770  36.413  0.00  0.00    -0.013 C 
ATOM      3  C3  5FF d   1     -14.093  13.141  36.033  0.00  0.00     0.132 C 
ATOM      4  C5  5FF d   1     -13.304  13.085  38.427  0.00  0.00     0.138 A 
ATOM      5  N6  5FF d   1     -13.386  11.748  38.554  0.00  0.00    -0.365 N 
ATOM      6  N4  5FF d   1     -13.624  13.702  37.320  0.00  0.00    -0.240 N 
ATOM      7  N19 5FF d   1     -13.429  15.084  37.500  0.00  0.00    -0.181 NA
ATOM      8  C18 5FF d   1     -12.970  15.289  38.771  0.00  0.00     0.041 A 
ATOM      9  C17 5FF d   1     -12.860  14.068  39.428  0.00  0.00     0.096 A 
ATOM     10  H1  5FF d   1     -12.730  10.856  36.782  0.00  0.00     0.080 H 
ATOM     11  H2  5FF d   1     -15.601  11.903  36.940  0.00  0.00     0.040 H 
ATOM     12  H3  5FF d   1     -14.810  11.185  35.496  0.00  0.00     0.040 H 
ATOM     13  H4  5FF d   1     -13.236  13.020  35.355  0.00  0.00     0.090 H 
ATOM     14  H14 5FF d   1     -13.254  11.276  39.460  0.00  0.00     0.161 HD
ATOM     15  H15 5FF d   1     -12.728  16.259  39.203  0.00  0.00     0.119 H 
ENDROOT
BRANCH   9  16
ATOM     16  C20 5FF d   1     -12.415  13.719  40.803  0.00  0.00     0.257 C 
ATOM     17  O22 5FF d   1     -12.427  12.555  41.184  0.00  0.00    -0.267 OA
ATOM     18  N21 5FF d   1     -11.982  14.720  41.573  0.00  0.00    -0.352 N 
ATOM     19  H16 5FF d   1     -11.973  15.650  41.206  0.00  0.00     0.163 HD
BRANCH  18  20
ATOM     20  C23 5FF d   1     -11.524  14.490  42.931  0.00  0.00     0.019 C 
ATOM     21  H17 5FF d   1     -10.632  15.100  43.138  0.00  0.00     0.071 H 
ATOM     22  H18 5FF d   1     -11.282  13.426  43.074  0.00  0.00     0.071 H 
BRANCH  20  23
ATOM     23  C24 5FF d   1     -12.654  14.894  43.850  0.00  0.00    -0.040 A 
ATOM     24  C25 5FF d   1     -12.821  16.230  44.198  0.00  0.00    -0.073 A 
ATOM     25  C26 5FF d   1     -13.861  16.609  45.039  0.00  0.00    -0.050 A 
ATOM     26  H19 5FF d   1     -12.138  16.978  43.812  0.00  0.00     0.084 H 
ATOM     27  C27 5FF d   1     -14.745  15.656  45.528  0.00  0.00     0.068 A 
ATOM     28  H20 5FF d   1     -13.982  17.651  45.314  0.00  0.00     0.087 H 
ATOM     29  C28 5FF d   1     -14.580  14.319  45.176  0.00  0.00    -0.050 A 
ATOM     30  C29 5FF d   1     -13.537  13.939  44.337  0.00  0.00    -0.073 A 
ATOM     31  H24 5FF d   1     -15.267  13.572  45.557  0.00  0.00     0.087 H 
ATOM     32  H25 5FF d   1     -13.414  12.897  44.063  0.00  0.00     0.084 H 
BRANCH  27  33
ATOM     33  O30 5FF d   1     -15.770  16.042  46.357  0.00  0.00    -0.356 OA
BRANCH  33  34
ATOM     34  C31 5FF d   1     -16.877  15.172  46.592  0.00  0.00     0.010 C 
ATOM     35  H21 5FF d   1     -17.586  15.658  47.278  0.00  0.00     0.066 H 
ATOM     36  H22 5FF d   1     -16.517  14.234  47.040  0.00  0.00     0.066 H 
ATOM     37  H23 5FF d   1     -17.380  14.953  45.639  0.00  0.00     0.066 H 
ENDBRANCH  33  34
ENDBRANCH  27  33
ENDBRANCH  20  23
ENDBRANCH  18  20
ENDBRANCH   9  16
BRANCH   1  38
ATOM     38  C7  5FF d   1     -14.248   9.681  37.656  0.00  0.00    -0.035 A 
ATOM     39  C8  5FF d   1     -15.276   9.561  38.584  0.00  0.00    -0.074 A 
ATOM     40  C9  5FF d   1     -15.806   8.313  38.886  0.00  0.00    -0.076 A 
ATOM     41  H5  5FF d   1     -15.666  10.446  39.074  0.00  0.00     0.084 H 
ATOM     42  C10 5FF d   1     -15.319   7.172  38.256  0.00  0.00    -0.059 A 
ATOM     43  H6  5FF d   1     -16.603   8.228  39.616  0.00  0.00     0.084 H 
ATOM     44  C11 5FF d   1     -14.292   7.294  37.329  0.00  0.00    -0.076 A 
ATOM     45  C12 5FF d   1     -13.760   8.542  37.029  0.00  0.00    -0.074 A 
ATOM     46  H12 5FF d   1     -13.903   6.410  36.837  0.00  0.00     0.084 H 
ATOM     47  H13 5FF d   1     -12.960   8.627  36.302  0.00  0.00     0.084 H 
BRANCH  42  48
ATOM     48  C32 5FF d   1     -15.887   5.807  38.574  0.00  0.00    -0.044 C 
ATOM     49  H7  5FF d   1     -15.351   5.051  37.981  0.00  0.00     0.039 H 
ATOM     50  H8  5FF d   1     -16.954   5.794  38.306  0.00  0.00     0.039 H 
BRANCH  48  51
ATOM     51  C33 5FF d   1     -15.747   5.468  40.041  0.00  0.00    -0.073 C 
ATOM     52  H9  5FF d   1     -16.171   4.471  40.229  0.00  0.00     0.028 H 
ATOM     53  H10 5FF d   1     -16.286   6.215  40.643  0.00  0.00     0.028 H 
ATOM     54  H11 5FF d   1     -14.683   5.472  40.318  0.00  0.00     0.028 H 
ENDBRANCH  48  51
ENDBRANCH  42  48
ENDBRANCH   1  38
BRANCH   3  55
ATOM     55  C13 5FF d   1     -15.128  14.005  35.322  0.00  0.00     0.409 C 
ATOM     56  F58 5FF d   1     -14.619  15.170  34.951  0.00  0.00    -0.169 F 
ATOM     57  F56 5FF d   1     -16.141  14.194  36.140  0.00  0.00    -0.169 F 
ATOM     58  F57 5FF d   1     -15.531  13.370  34.241  0.00  0.00    -0.169 F 
ENDBRANCH   3  55
TORSDOF 9
