REMARK  7 active torsions:
REMARK  status: ('A' for Active; 'I' for Inactive)
REMARK       I    between atoms: C20_2  and  N21_3 
REMARK    1  A    between atoms: C20_2  and  C17_12 
REMARK    2  A    between atoms: N21_3  and  C23_4 
REMARK    3  A    between atoms: C23_4  and  C24_5 
REMARK    4  A    between atoms: C1_18  and  C7_22 
REMARK    5  A    between atoms: C3_20  and  C13_21 
REMARK    6  A    between atoms: C10_25  and  C32_26 
REMARK    7  A    between atoms: C32_26  and  C33_27 
ROOT
ATOM      1  C17 G59 d   1     -18.549  25.443 -38.176  0.00  0.00     0.096 A 
ATOM      2  C5  G59 d   1     -18.481  25.503 -36.751  0.00  0.00     0.138 A 
ATOM      3  N4  G59 d   1     -17.625  24.525 -36.392  0.00  0.00    -0.249 N 
ATOM      4  N19 G59 d   1     -17.135  23.848 -37.477  0.00  0.00    -0.182 NA
ATOM      5  C18 G59 d   1     -17.698  24.421 -38.527  0.00  0.00     0.041 A 
ATOM      6  N6  G59 d   1     -19.107  26.325 -35.775  0.00  0.00    -0.365 N 
ATOM      7  C1  G59 d   1     -18.730  26.162 -34.361  0.00  0.00     0.038 C 
ATOM      8  C2  G59 d   1     -18.247  24.746 -34.060  0.00  0.00    -0.022 C 
ATOM      9  C3  G59 d   1     -17.249  24.207 -35.053  0.00  0.00     0.035 C 
ATOM     10  H8  G59 d   1     -17.509  24.117 -39.556  0.00  0.00     0.119 H 
ATOM     11  H9  G59 d   1     -19.812  27.023 -36.052  0.00  0.00     0.161 HD
ATOM     12  H10 G59 d   1     -17.898  26.854 -34.165  0.00  0.00     0.080 H 
ATOM     13  H11 G59 d   1     -19.121  24.078 -34.053  0.00  0.00     0.039 H 
ATOM     14  H12 G59 d   1     -17.777  24.746 -33.065  0.00  0.00     0.039 H 
ATOM     15  H13 G59 d   1     -16.265  24.651 -34.844  0.00  0.00     0.075 H 
ENDROOT
BRANCH   1  16
ATOM     16  C20 G59 d   1     -19.378  26.351 -39.079  0.00  0.00     0.257 C 
ATOM     17  O22 G59 d   1     -19.888  27.361 -38.592  0.00  0.00    -0.267 OA
ATOM     18  N21 G59 d   1     -19.556  26.045 -40.504  0.00  0.00    -0.352 N 
ATOM     19  H1  G59 d   1     -19.153  25.226 -40.914  0.00  0.00     0.163 HD
BRANCH  18  20
ATOM     20  C23 G59 d   1     -20.345  26.984 -41.301  0.00  0.00     0.019 C 
ATOM     21  H2  G59 d   1     -21.055  27.517 -40.651  0.00  0.00     0.071 H 
ATOM     22  H3  G59 d   1     -20.899  26.437 -42.078  0.00  0.00     0.071 H 
BRANCH  20  23
ATOM     23  C24 G59 d   1     -19.394  27.983 -41.953  0.00  0.00    -0.040 A 
ATOM     24  C25 G59 d   1     -18.171  28.336 -41.377  0.00  0.00    -0.072 A 
ATOM     25  C26 G59 d   1     -17.291  29.245 -41.964  0.00  0.00    -0.045 A 
ATOM     26  H4  G59 d   1     -17.894  27.883 -40.432  0.00  0.00     0.084 H 
ATOM     27  C27 G59 d   1     -17.642  29.828 -43.162  0.00  0.00     0.116 A 
ATOM     28  H5  G59 d   1     -16.349  29.488 -41.487  0.00  0.00     0.088 H 
ATOM     29  C28 G59 d   1     -18.848  29.513 -43.777  0.00  0.00    -0.045 A 
ATOM     30  F30 G59 d   1     -16.827  30.699 -43.735  0.00  0.00    -0.206 F 
ATOM     31  C29 G59 d   1     -19.706  28.599 -43.165  0.00  0.00    -0.072 A 
ATOM     32  H7  G59 d   1     -19.119  29.972 -44.721  0.00  0.00     0.088 H 
ATOM     33  H6  G59 d   1     -20.647  28.360 -43.648  0.00  0.00     0.084 H 
ENDBRANCH  20  23
ENDBRANCH  18  20
ENDBRANCH   1  16
BRANCH   9  34
ATOM     34  C13 G59 d   1     -17.161  22.722 -34.910  0.00  0.00    -0.055 C 
ATOM     35  H14 G59 d   1     -16.871  22.469 -33.879  0.00  0.00     0.030 H 
ATOM     36  H15 G59 d   1     -16.407  22.330 -35.609  0.00  0.00     0.030 H 
ATOM     37  H16 G59 d   1     -18.139  22.273 -35.136  0.00  0.00     0.030 H 
ENDBRANCH   9  34
BRANCH   7  38
ATOM     38  C7  G59 d   1     -19.864  26.508 -33.394  0.00  0.00    -0.035 A 
ATOM     39  C8  G59 d   1     -21.176  26.081 -33.580  0.00  0.00    -0.074 A 
ATOM     40  C9  G59 d   1     -22.187  26.402 -32.654  0.00  0.00    -0.076 A 
ATOM     41  H17 G59 d   1     -21.424  25.490 -34.454  0.00  0.00     0.084 H 
ATOM     42  C10 G59 d   1     -21.941  27.169 -31.493  0.00  0.00    -0.059 A 
ATOM     43  H18 G59 d   1     -23.194  26.047 -32.839  0.00  0.00     0.084 H 
ATOM     44  C11 G59 d   1     -20.626  27.586 -31.322  0.00  0.00    -0.076 A 
ATOM     45  C12 G59 d   1     -19.624  27.257 -32.252  0.00  0.00    -0.074 A 
ATOM     46  H24 G59 d   1     -20.367  28.178 -30.452  0.00  0.00     0.084 H 
ATOM     47  H25 G59 d   1     -18.614  27.606 -32.067  0.00  0.00     0.084 H 
BRANCH  42  48
ATOM     48  C32 G59 d   1     -23.038  27.504 -30.490  0.00  0.00    -0.044 C 
ATOM     49  H19 G59 d   1     -22.625  28.164 -29.713  0.00  0.00     0.039 H 
ATOM     50  H20 G59 d   1     -23.398  26.573 -30.027  0.00  0.00     0.039 H 
BRANCH  48  51
ATOM     51  C33 G59 d   1     -24.188  28.195 -31.157  0.00  0.00    -0.073 C 
ATOM     52  H21 G59 d   1     -24.962  28.424 -30.410  0.00  0.00     0.028 H 
ATOM     53  H22 G59 d   1     -24.610  27.539 -31.933  0.00  0.00     0.028 H 
ATOM     54  H23 G59 d   1     -23.837  29.130 -31.618  0.00  0.00     0.028 H 
ENDBRANCH  48  51
ENDBRANCH  42  48
ENDBRANCH   7  38
TORSDOF 7
