REMARK  7 active torsions:
REMARK  status: ('A' for Active; 'I' for Inactive)
REMARK    1  A    between atoms: C1_1  and  C7_5 
REMARK    2  A    between atoms: C3_3  and  C13_11 
REMARK    3  A    between atoms: C10_8  and  C32_21 
REMARK    4  A    between atoms: C20_14  and  C17_12 
REMARK       I    between atoms: N21_30  and  C20_14 
REMARK    5  A    between atoms: C23_15  and  C24_16 
REMARK    6  A    between atoms: C23_15  and  N21_30 
REMARK    7  A    between atoms: C32_21  and  C33_25 
ROOT
ATOM      1  C1  5FK d   1     -18.594  26.092 -34.454  0.00  0.00     0.038 C 
ATOM      2  C2  5FK d   1     -17.957  24.738 -34.064  0.00  0.00    -0.013 C 
ATOM      3  C3  5FK d   1     -16.981  24.182 -35.112  0.00  0.00     0.132 C 
ATOM      4  C5  5FK d   1     -18.394  25.468 -36.772  0.00  0.00     0.138 A 
ATOM      5  C17 5FK d   1     -18.486  25.510 -38.245  0.00  0.00     0.096 A 
ATOM      6  C18 5FK d   1     -17.529  24.616 -38.700  0.00  0.00     0.041 A 
ATOM      7  N6  5FK d   1     -19.094  26.149 -35.833  0.00  0.00    -0.365 N 
ATOM      8  N4  5FK d   1     -17.471  24.610 -36.436  0.00  0.00    -0.240 N 
ATOM      9  N19 5FK d   1     -16.922  24.054 -37.613  0.00  0.00    -0.181 NA
ATOM     10  H1  5FK d   1     -17.820  26.868 -34.362  0.00  0.00     0.080 H 
ATOM     11  H2  5FK d   1     -18.764  24.005 -33.920  0.00  0.00     0.040 H 
ATOM     12  H3  5FK d   1     -17.410  24.872 -33.119  0.00  0.00     0.040 H 
ATOM     13  H4  5FK d   1     -15.985  24.611 -34.927  0.00  0.00     0.090 H 
ATOM     14  H9  5FK d   1     -17.301  24.399 -39.743  0.00  0.00     0.119 H 
ATOM     15  H20 5FK d   1     -19.940  26.683 -36.076  0.00  0.00     0.161 HD
ENDROOT
BRANCH   1  16
ATOM     16  C7  5FK d   1     -19.657  26.378 -33.465  0.00  0.00    -0.035 A 
ATOM     17  C8  5FK d   1     -20.947  25.848 -33.578  0.00  0.00    -0.074 A 
ATOM     18  C9  5FK d   1     -21.911  26.140 -32.594  0.00  0.00    -0.076 A 
ATOM     19  H5  5FK d   1     -21.203  25.215 -34.420  0.00  0.00     0.084 H 
ATOM     20  C10 5FK d   1     -21.586  26.969 -31.501  0.00  0.00    -0.059 A 
ATOM     21  H6  5FK d   1     -22.909  25.725 -32.677  0.00  0.00     0.084 H 
ATOM     22  C11 5FK d   1     -20.292  27.485 -31.407  0.00  0.00    -0.076 A 
ATOM     23  C12 5FK d   1     -19.342  27.189 -32.380  0.00  0.00    -0.074 A 
ATOM     24  H7  5FK d   1     -20.026  28.121 -30.570  0.00  0.00     0.084 H 
ATOM     25  H8  5FK d   1     -18.341  27.597 -32.291  0.00  0.00     0.084 H 
BRANCH  20  26
ATOM     26  C32 5FK d   1     -22.583  27.320 -30.395  0.00  0.00    -0.044 C 
ATOM     27  H15 5FK d   1     -22.172  28.156 -29.809  0.00  0.00     0.039 H 
ATOM     28  H16 5FK d   1     -22.704  26.441 -29.744  0.00  0.00     0.039 H 
BRANCH  26  29
ATOM     29  C33 5FK d   1     -23.953  27.725 -30.915  0.00  0.00    -0.073 C 
ATOM     30  H17 5FK d   1     -24.612  27.962 -30.067  0.00  0.00     0.028 H 
ATOM     31  H18 5FK d   1     -24.385  26.896 -31.495  0.00  0.00     0.028 H 
ATOM     32  H19 5FK d   1     -23.853  28.611 -31.560  0.00  0.00     0.028 H 
ENDBRANCH  26  29
ENDBRANCH  20  26
ENDBRANCH   1  16
BRANCH   3  33
ATOM     33  C13 5FK d   1     -16.859  22.664 -35.108  0.00  0.00     0.409 C 
ATOM     34  F58 5FK d   1     -15.892  22.290 -35.916  0.00  0.00    -0.169 F 
ATOM     35  F57 5FK d   1     -16.591  22.259 -33.891  0.00  0.00    -0.169 F 
ATOM     36  F56 5FK d   1     -17.970  22.115 -35.550  0.00  0.00    -0.169 F 
ENDBRANCH   3  33
BRANCH   5  37
ATOM     37  C20 5FK d   1     -19.395  26.411 -38.979  0.00  0.00     0.257 C 
ATOM     38  O22 5FK d   1     -20.026  27.223 -38.319  0.00  0.00    -0.267 OA
ATOM     39  N21 5FK d   1     -19.437  26.331 -40.318  0.00  0.00    -0.351 N 
ATOM     40  H21 5FK d   1     -18.877  25.639 -40.774  0.00  0.00     0.163 HD
BRANCH  39  41
ATOM     41  C23 5FK d   1     -20.263  27.209 -41.135  0.00  0.00     0.035 C 
ATOM     42  H10 5FK d   1     -20.940  26.622 -41.774  0.00  0.00     0.073 H 
ATOM     43  H11 5FK d   1     -20.853  27.887 -40.501  0.00  0.00     0.073 H 
BRANCH  41  44
ATOM     44  C24 5FK d   1     -19.274  27.989 -41.978  0.00  0.00     0.052 A 
ATOM     45  C25 5FK d   1     -19.405  28.022 -43.366  0.00  0.00    -0.055 A 
ATOM     46  C26 5FK d   1     -18.473  28.733 -44.113  0.00  0.00    -0.042 A 
ATOM     47  H12 5FK d   1     -20.221  27.501 -43.855  0.00  0.00     0.086 H 
ATOM     48  C27 5FK d   1     -17.429  29.384 -43.467  0.00  0.00     0.133 A 
ATOM     49  H13 5FK d   1     -18.560  28.779 -45.193  0.00  0.00     0.088 H 
ATOM     50  C28 5FK d   1     -17.321  29.325 -42.084  0.00  0.00     0.040 A 
ATOM     51  F30 5FK d   1     -16.530  30.070 -44.184  0.00  0.00    -0.205 F 
ATOM     52  N29 5FK d   1     -18.236  28.636 -41.385  0.00  0.00    -0.261 NA
ATOM     53  H14 5FK d   1     -16.508  29.829 -41.575  0.00  0.00     0.119 H 
ENDBRANCH  41  44
ENDBRANCH  39  41
ENDBRANCH   5  37
TORSDOF 7
