REMARK  7 active torsions:
REMARK  status: ('A' for Active; 'I' for Inactive)
REMARK       I    between atoms: C20_2  and  N21_3 
REMARK    1  A    between atoms: C20_2  and  C17_14 
REMARK    2  A    between atoms: N21_3  and  C23_4 
REMARK    3  A    between atoms: C23_4  and  C24_5 
REMARK    4  A    between atoms: C3_18  and  C13_19 
REMARK    5  A    between atoms: C1_25  and  C7_27 
REMARK    6  A    between atoms: C10_30  and  C32_31 
REMARK    7  A    between atoms: C32_31  and  C33_32 
ROOT
ATOM      1  C17 G51 d   1      -7.200  34.264 -37.494  0.00  0.00     0.096 A 
ATOM      2  C18 G51 d   1      -8.193  35.126 -37.967  0.00  0.00     0.041 A 
ATOM      3  N19 G51 d   1      -8.890  35.628 -36.898  0.00  0.00    -0.181 NA
ATOM      4  N4  G51 d   1      -8.337  35.077 -35.726  0.00  0.00    -0.240 N 
ATOM      5  C3  G51 d   1      -8.885  35.447 -34.420  0.00  0.00     0.132 C 
ATOM      6  C5  G51 d   1      -7.340  34.304 -36.032  0.00  0.00     0.138 A 
ATOM      7  N6  G51 d   1      -6.684  33.637 -35.070  0.00  0.00    -0.365 N 
ATOM      8  C1  G51 d   1      -7.202  33.724 -33.711  0.00  0.00     0.038 C 
ATOM      9  C2  G51 d   1      -7.819  35.092 -33.390  0.00  0.00    -0.013 C 
ATOM     10  H9  G51 d   1      -8.382  35.361 -39.013  0.00  0.00     0.119 H 
ATOM     11  H10 G51 d   1      -9.805  34.883 -34.205  0.00  0.00     0.090 H 
ATOM     12  H11 G51 d   1      -5.843  33.083 -35.285  0.00  0.00     0.161 HD
ATOM     13  H12 G51 d   1      -7.997  32.971 -33.606  0.00  0.00     0.080 H 
ATOM     14  H13 G51 d   1      -8.277  35.058 -32.391  0.00  0.00     0.040 H 
ATOM     15  H14 G51 d   1      -7.030  35.858 -33.406  0.00  0.00     0.040 H 
ENDROOT
BRANCH   1  16
ATOM     16  C20 G51 d   1      -6.179  33.459 -38.213  0.00  0.00     0.257 C 
ATOM     17  O22 G51 d   1      -5.666  32.498 -37.649  0.00  0.00    -0.267 OA
ATOM     18  N21 G51 d   1      -5.899  33.822 -39.466  0.00  0.00    -0.352 N 
ATOM     19  H1  G51 d   1      -6.391  34.624 -39.806  0.00  0.00     0.163 HD
BRANCH  18  20
ATOM     20  C23 G51 d   1      -4.973  33.206 -40.403  0.00  0.00     0.019 C 
ATOM     21  H2  G51 d   1      -4.309  32.502 -39.880  0.00  0.00     0.071 H 
ATOM     22  H3  G51 d   1      -4.368  33.975 -40.907  0.00  0.00     0.071 H 
BRANCH  20  23
ATOM     23  C24 G51 d   1      -5.837  32.472 -41.406  0.00  0.00    -0.038 A 
ATOM     24  C29 G51 d   1      -5.421  32.311 -42.742  0.00  0.00    -0.072 A 
ATOM     25  C28 G51 d   1      -6.223  31.636 -43.674  0.00  0.00    -0.047 A 
ATOM     26  H4  G51 d   1      -4.465  32.715 -43.055  0.00  0.00     0.084 H 
ATOM     27  C27 G51 d   1      -7.443  31.140 -43.222  0.00  0.00     0.105 A 
ATOM     28  H5  G51 d   1      -5.906  31.506 -44.703  0.00  0.00     0.087 H 
ATOM     29  O40 G51 d   1      -8.398  30.439 -43.910  0.00  0.00    -0.323 OA
ATOM     30  C26 G51 d   1      -7.852  31.294 -41.918  0.00  0.00     0.105 A 
ATOM     31  C41 G51 d   1      -9.397  30.002 -42.961  0.00  0.00     0.115 C 
ATOM     32  O42 G51 d   1      -9.075  30.696 -41.739  0.00  0.00    -0.323 OA
ATOM     33  H6  G51 d   1      -9.341  28.913 -42.814  0.00  0.00     0.118 H 
ATOM     34  H7  G51 d   1     -10.405  30.274 -43.307  0.00  0.00     0.118 H 
ATOM     35  C25 G51 d   1      -7.069  31.960 -40.982  0.00  0.00    -0.040 A 
ATOM     36  H8  G51 d   1      -7.402  32.079 -39.957  0.00  0.00     0.088 H 
ENDBRANCH  20  23
ENDBRANCH  18  20
ENDBRANCH   1  16
BRANCH   5  37
ATOM     37  C13 G51 d   1      -9.205  36.922 -34.488  0.00  0.00     0.409 C 
ATOM     38  F57 G51 d   1     -10.083  37.169 -35.442  0.00  0.00    -0.169 F 
ATOM     39  F56 G51 d   1      -9.710  37.256 -33.322  0.00  0.00    -0.169 F 
ATOM     40  F58 G51 d   1      -8.111  37.612 -34.757  0.00  0.00    -0.169 F 
ENDBRANCH   5  37
BRANCH   8  41
ATOM     41  C7  G51 d   1      -6.125  33.392 -32.756  0.00  0.00    -0.035 A 
ATOM     42  C12 G51 d   1      -4.822  33.837 -32.954  0.00  0.00    -0.074 A 
ATOM     43  C11 G51 d   1      -3.838  33.499 -32.028  0.00  0.00    -0.076 A 
ATOM     44  H15 G51 d   1      -4.575  34.441 -33.820  0.00  0.00     0.084 H 
ATOM     45  C10 G51 d   1      -4.159  32.732 -30.914  0.00  0.00    -0.059 A 
ATOM     46  H16 G51 d   1      -2.818  33.835 -32.177  0.00  0.00     0.084 H 
ATOM     47  C9  G51 d   1      -5.462  32.294 -30.730  0.00  0.00    -0.076 A 
ATOM     48  C8  G51 d   1      -6.442  32.624 -31.649  0.00  0.00    -0.074 A 
ATOM     49  H22 G51 d   1      -5.713  31.692 -29.864  0.00  0.00     0.084 H 
ATOM     50  H23 G51 d   1      -7.460  32.281 -31.502  0.00  0.00     0.084 H 
BRANCH  45  51
ATOM     51  C32 G51 d   1      -3.100  32.361 -29.906  0.00  0.00    -0.044 C 
ATOM     52  H17 G51 d   1      -3.461  31.523 -29.292  0.00  0.00     0.039 H 
ATOM     53  H18 G51 d   1      -2.894  33.227 -29.260  0.00  0.00     0.039 H 
BRANCH  51  54
ATOM     54  C33 G51 d   1      -1.830  31.952 -30.611  0.00  0.00    -0.073 C 
ATOM     55  H19 G51 d   1      -1.067  31.684 -29.866  0.00  0.00     0.028 H 
ATOM     56  H20 G51 d   1      -1.465  32.789 -31.225  0.00  0.00     0.028 H 
ATOM     57  H21 G51 d   1      -2.032  31.085 -31.257  0.00  0.00     0.028 H 
ENDBRANCH  51  54
ENDBRANCH  45  51
ENDBRANCH   8  41
TORSDOF 7
