REMARK  5 active torsions:
REMARK  status: ('A' for Active; 'I' for Inactive)
REMARK    1  A    between atoms: C20_2  and  C17_4 
REMARK    2  A    between atoms: C3_8  and  C13_9 
REMARK    3  A    between atoms: C1_15  and  C7_17 
REMARK    4  A    between atoms: C10_20  and  C32_21 
REMARK    5  A    between atoms: C32_21  and  C33_22 
ROOT
ATOM      1  C17 G7A d   1     -47.362  11.407   9.737  0.00  0.00     0.105 A 
ATOM      2  C18 G7A d   1     -47.865  10.269   9.104  0.00  0.00     0.042 A 
ATOM      3  N19 G7A d   1     -47.401  10.220   7.823  0.00  0.00    -0.181 NA
ATOM      4  N4  G7A d   1     -46.591  11.353   7.665  0.00  0.00    -0.240 N 
ATOM      5  C3  G7A d   1     -45.946  11.644   6.371  0.00  0.00     0.132 C 
ATOM      6  C5  G7A d   1     -46.591  12.041   8.776  0.00  0.00     0.140 A 
ATOM      7  N6  G7A d   1     -45.859  13.196   8.874  0.00  0.00    -0.365 N 
ATOM      8  C1  G7A d   1     -45.292  13.781   7.646  0.00  0.00     0.038 C 
ATOM      9  C2  G7A d   1     -44.838  12.649   6.703  0.00  0.00    -0.013 C 
ATOM     10  H1  G7A d   1     -48.526   9.534   9.562  0.00  0.00     0.119 H 
ATOM     11  H2  G7A d   1     -46.679  12.128   5.709  0.00  0.00     0.090 H 
ATOM     12  H3  G7A d   1     -45.708  13.646   9.788  0.00  0.00     0.161 HD
ATOM     13  H4  G7A d   1     -46.068  14.378   7.144  0.00  0.00     0.080 H 
ATOM     14  H5  G7A d   1     -44.485  13.100   5.764  0.00  0.00     0.040 H 
ATOM     15  H6  G7A d   1     -44.010  12.107   7.184  0.00  0.00     0.040 H 
ENDROOT
BRANCH   8  16
ATOM     16  C7  G7A d   1     -44.139  14.667   7.971  0.00  0.00    -0.035 A 
ATOM     17  C12 G7A d   1     -43.153  14.283   8.886  0.00  0.00    -0.074 A 
ATOM     18  C11 G7A d   1     -42.084  15.129   9.180  0.00  0.00    -0.076 A 
ATOM     19  H7  G7A d   1     -43.221  13.316   9.372  0.00  0.00     0.084 H 
ATOM     20  C10 G7A d   1     -41.976  16.376   8.563  0.00  0.00    -0.059 A 
ATOM     21  H8  G7A d   1     -41.331  14.815   9.894  0.00  0.00     0.084 H 
ATOM     22  C9  G7A d   1     -42.955  16.759   7.657  0.00  0.00    -0.076 A 
ATOM     23  C8  G7A d   1     -44.018  15.917   7.361  0.00  0.00    -0.074 A 
ATOM     24  H14 G7A d   1     -42.889  17.727   7.175  0.00  0.00     0.084 H 
ATOM     25  H15 G7A d   1     -44.767  16.235   6.644  0.00  0.00     0.084 H 
BRANCH  20  26
ATOM     26  C32 G7A d   1     -40.819  17.296   8.883  0.00  0.00    -0.044 C 
ATOM     27  H9  G7A d   1     -40.938  18.235   8.322  0.00  0.00     0.039 H 
ATOM     28  H10 G7A d   1     -39.878  16.809   8.588  0.00  0.00     0.039 H 
BRANCH  26  29
ATOM     29  C33 G7A d   1     -40.775  17.605  10.364  0.00  0.00    -0.073 C 
ATOM     30  H11 G7A d   1     -39.928  18.274  10.574  0.00  0.00     0.028 H 
ATOM     31  H12 G7A d   1     -40.653  16.670  10.930  0.00  0.00     0.028 H 
ATOM     32  H13 G7A d   1     -41.713  18.096  10.664  0.00  0.00     0.028 H 
ENDBRANCH  26  29
ENDBRANCH  20  26
ENDBRANCH   8  16
BRANCH   5  33
ATOM     33  C13 G7A d   1     -45.438  10.397   5.648  0.00  0.00     0.409 C 
ATOM     34  F57 G7A d   1     -46.440   9.586   5.320  0.00  0.00    -0.169 F 
ATOM     35  F56 G7A d   1     -44.829  10.773   4.543  0.00  0.00    -0.169 F 
ATOM     36  F58 G7A d   1     -44.578   9.754   6.416  0.00  0.00    -0.169 F 
ENDBRANCH   5  33
BRANCH   1  37
ATOM     37  C20 G7A d   1     -47.588  11.919  11.119  0.00  0.00     0.214 C 
ATOM     38  O21 G7A d   1     -46.991  12.933  11.516  0.00  0.00    -0.644 OA
ATOM     39  O22 G7A d   1     -48.418  11.326  11.843  0.00  0.00    -0.644 OA
ENDBRANCH   1  37
TORSDOF 5
