REMARK  7 active torsions:
REMARK  status: ('A' for Active; 'I' for Inactive)
REMARK    1  A    between atoms: P_2  and  O5'_5 
REMARK    2  A    between atoms: O5'_5  and  C5'_6 
REMARK    3  A    between atoms: C5'_6  and  C4'_7 
REMARK    4  A    between atoms: C3'_9  and  O3'_10 
REMARK    5  A    between atoms: C2'_11  and  O2'_12 
REMARK    6  A    between atoms: C1'_13  and  N1_14 
REMARK    7  A    between atoms: C4_17  and  N4_21 
ROOT
ATOM      1  C4' C5P d   1     -31.650  13.380  15.087  0.00  0.00     0.089 C 
ATOM      2  O4' C5P d   1     -31.790  14.820  15.232  0.00  0.00    -0.353 OA
ATOM      3  C3' C5P d   1     -32.051  12.827  16.447  0.00  0.00     0.091 C 
ATOM      4  C2' C5P d   1     -31.542  13.890  17.410  0.00  0.00     0.105 C 
ATOM      5  C1' C5P d   1     -31.749  15.173  16.594  0.00  0.00     0.141 C 
ATOM      6  H3  C5P d   1     -30.601  13.117  14.885  0.00  0.00     0.090 H 
ATOM      7  H4  C5P d   1     -33.147  12.756  16.515  0.00  0.00     0.091 H 
ATOM      8  H6  C5P d   1     -32.101  13.898  18.358  0.00  0.00     0.093 H 
ATOM      9  H8  C5P d   1     -30.900  15.848  16.774  0.00  0.00     0.123 H 
ENDROOT
BRANCH   5  10
ATOM     10  N1  C5P d   1     -33.004  15.885  16.949  0.00  0.00    -0.280 N 
ATOM     11  C2  C5P d   1     -32.992  16.639  18.213  0.00  0.00     0.330 A 
ATOM     12  N3  C5P d   1     -34.186  17.389  18.654  0.00  0.00    -0.295 N 
ATOM     13  O2  C5P d   1     -31.980  16.626  18.894  0.00  0.00    -0.246 OA
ATOM     14  C4  C5P d   1     -35.350  17.407  17.874  0.00  0.00     0.103 A 
ATOM     15  H9  C5P d   1     -34.163  17.890  19.519  0.00  0.00     0.172 HD
ATOM     16  C5  C5P d   1     -35.380  16.650  16.594  0.00  0.00    -0.026 A 
ATOM     17  C6  C5P d   1     -34.187  15.890  16.141  0.00  0.00    -0.010 A 
ATOM     18  H10 C5P d   1     -36.283  16.653  15.985  0.00  0.00     0.091 H 
ATOM     19  H11 C5P d   1     -34.211  15.340  15.201  0.00  0.00     0.112 H 
BRANCH  14  20
ATOM     20  N4  C5P d   1     -36.487  18.173  18.363  0.00  0.00    -0.385 N 
ATOM     21  H12 C5P d   1     -37.358  18.208  17.815  0.00  0.00     0.157 HD
ATOM     22  H13 C5P d   1     -36.420  18.680  19.257  0.00  0.00     0.157 HD
ENDBRANCH  14  20
ENDBRANCH   5  10
BRANCH   4  23
ATOM     23  O2' C5P d   1     -30.151  13.709  17.643  0.00  0.00    -0.388 OA
ATOM     24  H7  C5P d   1     -30.003  12.849  18.019  0.00  0.00     0.210 HD
ENDBRANCH   4  23
BRANCH   1  25
ATOM     25  C5' C5P d   1     -32.484  12.902  13.927  0.00  0.00     0.059 C 
ATOM     26  H1  C5P d   1     -32.720  11.838  14.074  0.00  0.00     0.079 H 
ATOM     27  H2  C5P d   1     -33.417  13.483  13.897  0.00  0.00     0.079 H 
BRANCH  25  28
ATOM     28  O5' C5P d   1     -31.810  13.055  12.690  0.00  0.00    -0.280 OA
BRANCH  28  29
ATOM     29  P   C5P d   1     -32.517  12.613  11.333  0.00  0.00     0.422 P 
ATOM     30  O3P C5P d   1     -34.011  12.682  11.587  0.00  0.00    -0.617 OA
ATOM     31  O1P C5P d   1     -32.146  13.638  10.251  0.00  0.00    -0.617 OA
ATOM     32  O2P C5P d   1     -31.920  11.254  10.993  0.00  0.00    -0.617 OA
ENDBRANCH  28  29
ENDBRANCH  25  28
ENDBRANCH   1  25
BRANCH   3  33
ATOM     33  O3' C5P d   1     -31.514  11.537  16.696  0.00  0.00    -0.390 OA
ATOM     34  H5  C5P d   1     -30.565  11.579  16.667  0.00  0.00     0.210 HD
ENDBRANCH   3  33
TORSDOF 7
