REMARK  22 active torsions:
REMARK  status: ('A' for Active; 'I' for Inactive)
REMARK    1  A    between atoms: O1_2  and  C1_1 
REMARK    2  A    between atoms: C10_17  and  O1_2 
REMARK    3  A    between atoms: C2_3  and  N2_4 
REMARK    4  A    between atoms: C3_5  and  O3_6 
REMARK    5  A    between atoms: C4_7  and  O4_8 
REMARK    6  A    between atoms: C5_9  and  C6_11 
REMARK    7  A    between atoms: C6_11  and  N6_35 
REMARK    8  A    between atoms: C7_12  and  N7_13 
REMARK    9  A    between atoms: C12_14  and  O12_40 
REMARK   10  A    between atoms: O11_16  and  C11_15 
REMARK   11  A    between atoms: C13_21  and  O11_16 
REMARK   12  A    between atoms: C9_18  and  N9_19 
REMARK   13  A    between atoms: C14_22  and  O14_36 
REMARK   14  A    between atoms: O18_31  and  C15_23 
REMARK   15  A    between atoms: C16_24  and  C17_26 
REMARK   16  A    between atoms: C17_26  and  O17_39 
REMARK   17  A    between atoms: C21_27  and  O21_38 
REMARK   18  A    between atoms: C20_28  and  O20_37 
REMARK   19  A    between atoms: C19_29  and  N23_42 
REMARK   20  A    between atoms: C18_30  and  O18_31 
REMARK   21  A    between atoms: C22_32  and  C23_34 
REMARK   22  A    between atoms: C23_34  and  N19_41 
ROOT
ATOM      1  C7  NMY d   1     -27.304  13.543  15.987  0.00  0.00     0.129 C 
ATOM      2  C12 NMY d   1     -28.660  12.854  15.750  0.00  0.00     0.090 C 
ATOM      3  C11 NMY d   1     -29.438  13.635  14.710  0.00  0.00     0.095 C 
ATOM      4  C10 NMY d   1     -28.721  13.557  13.365  0.00  0.00     0.096 C 
ATOM      5  C9  NMY d   1     -27.367  14.191  13.512  0.00  0.00     0.129 C 
ATOM      6  C8  NMY d   1     -26.542  13.614  14.666  0.00  0.00    -0.007 C 
ATOM      7  H13 NMY d   1     -26.721  12.940  16.699  0.00  0.00     0.088 H 
ATOM      8  H17 NMY d   1     -29.230  12.844  16.691  0.00  0.00     0.090 H 
ATOM      9  H18 NMY d   1     -30.460  13.239  14.622  0.00  0.00     0.091 H 
ATOM     10  H19 NMY d   1     -28.620  12.509  13.047  0.00  0.00     0.090 H 
ATOM     11  H20 NMY d   1     -26.813  14.011  12.579  0.00  0.00     0.088 H 
ATOM     12  H24 NMY d   1     -26.225  12.597  14.392  0.00  0.00     0.039 H 
ATOM     13  H25 NMY d   1     -25.655  14.248  14.810  0.00  0.00     0.039 H 
ENDROOT
BRANCH   3  14
ATOM     14  O11 NMY d   1     -29.460  14.979  15.104  0.00  0.00    -0.348 OA
BRANCH  14  15
ATOM     15  C13 NMY d   1     -30.791  15.458  15.284  0.00  0.00     0.159 C 
ATOM     16  C14 NMY d   1     -31.689  14.416  15.781  0.00  0.00     0.110 C 
ATOM     17  C15 NMY d   1     -32.230  14.902  17.028  0.00  0.00     0.098 C 
ATOM     18  H27 NMY d   1     -31.159  13.460  15.905  0.00  0.00     0.094 H 
ATOM     19  C16 NMY d   1     -31.258  15.846  17.524  0.00  0.00     0.089 C 
ATOM     20  H28 NMY d   1     -32.479  14.113  17.752  0.00  0.00     0.091 H 
ATOM     21  O16 NMY d   1     -30.761  16.528  16.308  0.00  0.00    -0.348 OA
ATOM     22  H29 NMY d   1     -31.718  16.572  18.211  0.00  0.00     0.090 H 
ATOM     23  H26 NMY d   1     -31.171  15.850  14.329  0.00  0.00     0.133 H 
BRANCH  16  24
ATOM     24  O14 NMY d   1     -32.833  14.278  14.883  0.00  0.00    -0.388 OA
ATOM     25  H42 NMY d   1     -33.252  15.124  14.773  0.00  0.00     0.210 HD
ENDBRANCH  16  24
BRANCH  17  26
ATOM     26  O18 NMY d   1     -33.366  15.668  16.581  0.00  0.00    -0.348 OA
BRANCH  26  27
ATOM     27  C18 NMY d   1     -34.138  16.209  17.617  0.00  0.00     0.162 C 
ATOM     28  C19 NMY d   1     -35.291  16.851  16.894  0.00  0.00     0.173 C 
ATOM     29  C20 NMY d   1     -36.140  17.606  17.840  0.00  0.00     0.094 C 
ATOM     30  H34 NMY d   1     -35.894  16.075  16.399  0.00  0.00     0.096 H 
ATOM     31  C21 NMY d   1     -35.297  18.533  18.674  0.00  0.00     0.089 C 
ATOM     32  H33 NMY d   1     -36.907  18.172  17.291  0.00  0.00     0.090 H 
ATOM     33  C22 NMY d   1     -34.245  17.730  19.362  0.00  0.00     0.091 C 
ATOM     34  H32 NMY d   1     -35.923  19.058  19.411  0.00  0.00     0.091 H 
ATOM     35  O22 NMY d   1     -33.462  17.195  18.354  0.00  0.00    -0.349 OA
ATOM     36  H36 NMY d   1     -34.746  16.888  19.862  0.00  0.00     0.090 H 
ATOM     37  H35 NMY d   1     -34.482  15.415  18.296  0.00  0.00     0.132 H 
BRANCH  28  38
ATOM     38  N23 NMY d   1     -34.761  17.756  15.914  0.00  0.00    -0.068 N 
ATOM     39  H50 NMY d   1     -35.520  18.197  15.418  0.00  0.00     0.275 HD
ATOM     40  H51 NMY d   1     -34.185  17.246  15.262  0.00  0.00     0.275 HD
ATOM     41  H52 NMY d   1     -34.206  18.461  16.373  0.00  0.00     0.275 HD
ENDBRANCH  28  38
BRANCH  29  42
ATOM     42  O20 NMY d   1     -36.725  16.704  18.724  0.00  0.00    -0.391 OA
ATOM     43  H43 NMY d   1     -37.274  17.176  19.339  0.00  0.00     0.210 HD
ENDBRANCH  29  42
BRANCH  31  44
ATOM     44  O21 NMY d   1     -34.668  19.442  17.840  0.00  0.00    -0.390 OA
ATOM     45  H44 NMY d   1     -34.143  18.974  17.201  0.00  0.00     0.210 HD
ENDBRANCH  31  44
BRANCH  33  46
ATOM     46  C23 NMY d   1     -33.510  18.479  20.468  0.00  0.00     0.106 C 
ATOM     47  H37 NMY d   1     -34.175  19.247  20.889  0.00  0.00     0.079 H 
ATOM     48  H38 NMY d   1     -32.615  18.960  20.047  0.00  0.00     0.079 H 
BRANCH  46  49
ATOM     49  N19 NMY d   1     -33.111  17.568  21.518  0.00  0.00    -0.077 N 
ATOM     50  H47 NMY d   1     -32.627  18.079  22.240  0.00  0.00     0.274 HD
ATOM     51  H48 NMY d   1     -32.499  16.863  21.137  0.00  0.00     0.274 HD
ATOM     52  H49 NMY d   1     -33.929  17.127  21.909  0.00  0.00     0.274 HD
ENDBRANCH  46  49
ENDBRANCH  33  46
ENDBRANCH  26  27
ENDBRANCH  17  26
BRANCH  19  53
ATOM     53  C17 NMY d   1     -30.192  15.083  18.240  0.00  0.00     0.043 C 
ATOM     54  H30 NMY d   1     -29.957  15.576  19.195  0.00  0.00     0.078 H 
ATOM     55  H31 NMY d   1     -29.285  15.037  17.619  0.00  0.00     0.078 H 
BRANCH  53  56
ATOM     56  O17 NMY d   1     -30.676  13.774  18.482  0.00  0.00    -0.398 OA
ATOM     57  H45 NMY d   1     -30.011  13.271  18.938  0.00  0.00     0.209 HD
ENDBRANCH  53  56
ENDBRANCH  19  53
ENDBRANCH  14  15
ENDBRANCH   3  14
BRANCH   2  58
ATOM     58  O12 NMY d   1     -28.457  11.552  15.337  0.00  0.00    -0.391 OA
ATOM     59  H46 NMY d   1     -29.297  11.129  15.202  0.00  0.00     0.210 HD
ENDBRANCH   2  58
BRANCH   4  60
ATOM     60  O1  NMY d   1     -29.462  14.294  12.402  0.00  0.00    -0.349 OA
BRANCH  60  61
ATOM     61  C1  NMY d   1     -29.620  13.553  11.181  0.00  0.00     0.162 C 
ATOM     62  C2  NMY d   1     -30.931  12.806  11.219  0.00  0.00     0.173 C 
ATOM     63  C3  NMY d   1     -32.130  13.547  10.617  0.00  0.00     0.094 C 
ATOM     64  H2  NMY d   1     -31.166  12.613  12.276  0.00  0.00     0.096 H 
ATOM     65  C4  NMY d   1     -31.716  14.972  10.249  0.00  0.00     0.089 C 
ATOM     66  H6  NMY d   1     -32.424  13.030   9.692  0.00  0.00     0.090 H 
ATOM     67  C5  NMY d   1     -30.548  14.900   9.308  0.00  0.00     0.091 C 
ATOM     68  H8  NMY d   1     -31.438  15.528  11.156  0.00  0.00     0.091 H 
ATOM     69  O5  NMY d   1     -29.475  14.372  10.021  0.00  0.00    -0.349 OA
ATOM     70  H10 NMY d   1     -30.798  14.226   8.475  0.00  0.00     0.090 H 
ATOM     71  H1  NMY d   1     -28.816  12.804  11.142  0.00  0.00     0.132 H 
BRANCH  62  72
ATOM     72  N2  NMY d   1     -30.771  11.549  10.552  0.00  0.00    -0.068 N 
ATOM     73  H3  NMY d   1     -31.643  11.044  10.573  0.00  0.00     0.275 HD
ATOM     74  H4  NMY d   1     -30.059  11.009  11.018  0.00  0.00     0.275 HD
ATOM     75  H5  NMY d   1     -30.499  11.709   9.595  0.00  0.00     0.275 HD
ENDBRANCH  62  72
BRANCH  63  76
ATOM     76  O3  NMY d   1     -33.232  13.519  11.488  0.00  0.00    -0.391 OA
ATOM     77  H7  NMY d   1     -33.959  13.984  11.092  0.00  0.00     0.210 HD
ENDBRANCH  63  76
BRANCH  65  78
ATOM     78  O4  NMY d   1     -32.774  15.618   9.601  0.00  0.00    -0.390 OA
ATOM     79  H9  NMY d   1     -32.999  15.141   8.811  0.00  0.00     0.210 HD
ENDBRANCH  65  78
BRANCH  67  80
ATOM     80  C6  NMY d   1     -30.188  16.295   8.720  0.00  0.00     0.106 C 
ATOM     81  H11 NMY d   1     -29.425  16.152   7.940  0.00  0.00     0.079 H 
ATOM     82  H12 NMY d   1     -29.772  16.912   9.530  0.00  0.00     0.079 H 
BRANCH  80  83
ATOM     83  N6  NMY d   1     -31.299  17.008   8.137  0.00  0.00    -0.077 N 
ATOM     84  H39 NMY d   1     -30.980  17.896   7.782  0.00  0.00     0.274 HD
ATOM     85  H40 NMY d   1     -32.006  17.161   8.839  0.00  0.00     0.274 HD
ATOM     86  H41 NMY d   1     -31.688  16.465   7.382  0.00  0.00     0.274 HD
ENDBRANCH  80  83
ENDBRANCH  67  80
ENDBRANCH  60  61
ENDBRANCH   4  60
BRANCH   1  87
ATOM     87  N7  NMY d   1     -27.480  14.817  16.531  0.00  0.00    -0.072 N 
ATOM     88  H14 NMY d   1     -26.580  15.247  16.677  0.00  0.00     0.274 HD
ATOM     89  H15 NMY d   1     -27.963  14.742  17.412  0.00  0.00     0.274 HD
ATOM     90  H16 NMY d   1     -28.023  15.381  15.896  0.00  0.00     0.274 HD
ENDBRANCH   1  87
BRANCH   5  91
ATOM     91  N9  NMY d   1     -27.500  15.593  13.694  0.00  0.00    -0.072 N 
ATOM     92  H21 NMY d   1     -26.586  16.007  13.791  0.00  0.00     0.274 HD
ATOM     93  H22 NMY d   1     -28.041  15.774  14.525  0.00  0.00     0.274 HD
ATOM     94  H23 NMY d   1     -27.967  15.993  12.895  0.00  0.00     0.274 HD
ENDBRANCH   5  91
TORSDOF 22
