REMARK  2 active torsions:
REMARK  status: ('A' for Active; 'I' for Inactive)
REMARK    1  A    between atoms: C2_2  and  C5_5 
REMARK    2  A    between atoms: C7_7  and  C11_10 
ROOT
ATOM      1  C5  5FL d   1      97.065 252.210   5.551  0.00  0.00    -0.025 A 
ATOM      2  C6  5FL d   1      97.330 253.575   5.445  0.00  0.00    -0.056 A 
ATOM      3  C7  5FL d   1      96.304 254.513   5.433  0.00  0.00     0.041 A 
ATOM      4  C8  5FL d   1      94.989 254.080   5.547  0.00  0.00    -0.066 A 
ATOM      5  C9  5FL d   1      94.709 252.732   5.666  0.00  0.00    -0.081 A 
ATOM      6  C10 5FL d   1      95.737 251.804   5.668  0.00  0.00    -0.072 A 
ATOM      7  H4  5FL d   1      98.358 253.912   5.370  0.00  0.00     0.086 H 
ATOM      8  H5  5FL d   1      94.180 254.802   5.543  0.00  0.00     0.085 H 
ATOM      9  H6  5FL d   1      93.681 252.400   5.758  0.00  0.00     0.083 H 
ATOM     10  H7  5FL d   1      95.506 250.749   5.762  0.00  0.00     0.084 H 
ENDROOT
BRANCH   1  11
ATOM     11  C2  5FL d   1      98.170 251.221   5.493  0.00  0.00    -0.023 A 
ATOM     12  C1  5FL d   1      99.412 251.485   6.061  0.00  0.00    -0.055 A 
ATOM     13  C   5FL d   1     100.423 250.550   5.946  0.00  0.00     0.003 A 
ATOM     14  H1  5FL d   1      99.585 252.416   6.589  0.00  0.00     0.087 H 
ATOM     15  N   5FL d   1     100.284 249.383   5.315  0.00  0.00    -0.273 NA
ATOM     16  H8  5FL d   1     101.383 250.778   6.394  0.00  0.00     0.114 H 
ATOM     17  C4  5FL d   1      99.090 249.132   4.774  0.00  0.00     0.003 A 
ATOM     18  C3  5FL d   1      98.020 250.003   4.839  0.00  0.00    -0.055 A 
ATOM     19  H3  5FL d   1      98.952 248.191   4.254  0.00  0.00     0.114 H 
ATOM     20  H2  5FL d   1      97.072 249.739   4.384  0.00  0.00     0.087 H 
ENDBRANCH   1  11
BRANCH   3  21
ATOM     21  C11 5FL d   1      96.618 255.960   5.282  0.00  0.00     0.209 C 
ATOM     22  O   5FL d   1      97.887 256.236   5.180  0.00  0.00    -0.644 OA
ATOM     23  O1  5FL d   1      95.737 256.810   5.243  0.00  0.00    -0.644 OA
ENDBRANCH   3  21
TORSDOF 2
