REMARK  11 active torsions:
REMARK  status: ('A' for Active; 'I' for Inactive)
REMARK    1  A    between atoms: C1_4  and  O_22 
REMARK    2  A    between atoms: C12_6  and  C13_10 
REMARK    3  A    between atoms: O2_28  and  C12_6 
REMARK    4  A    between atoms: C9_7  and  C10_9 
REMARK    5  A    between atoms: C11_8  and  O2_28 
REMARK    6  A    between atoms: C13_10  and  N2_29 
REMARK    7  A    between atoms: C18_16  and  C19_12 
REMARK    8  A    between atoms: C21_14  and  O3_20 
REMARK    9  A    between atoms: O3_20  and  C22_17 
REMARK   10  A    between atoms: O_22  and  C_23 
REMARK   11  A    between atoms: C6_25  and  C7_27 
ROOT
ATOM      1  C8  5GD d   1      18.672  14.209  -3.556  0.00  0.00    -0.061 A 
ATOM      2  C9  5GD d   1      17.553  14.253  -2.752  0.00  0.00    -0.027 A 
ATOM      3  C11 5GD d   1      16.282  14.424  -3.287  0.00  0.00     0.080 A 
ATOM      4  C20 5GD d   1      17.218  14.472  -5.462  0.00  0.00    -0.061 A 
ATOM      5  C18 5GD d   1      16.072  14.538  -4.690  0.00  0.00    -0.027 A 
ATOM      6  C7  5GD d   1      18.483  14.380  -4.962  0.00  0.00     0.011 A 
ATOM      7  H2  5GD d   1      19.659  14.050  -3.137  0.00  0.00     0.085 H 
ATOM      8  H15 5GD d   1      17.102  14.495  -6.540  0.00  0.00     0.085 H 
ENDROOT
BRANCH   6   9
ATOM      9  C6  5GD d   1      19.707  14.298  -5.788  0.00  0.00     0.141 A 
ATOM     10  N   5GD d   1      19.600  13.961  -7.128  0.00  0.00    -0.306 N 
ATOM     11  C5  5GD d   1      20.708  13.866  -7.920  0.00  0.00     0.262 A 
ATOM     12  H25 5GD d   1      18.697  13.785  -7.521  0.00  0.00     0.170 HD
ATOM     13  O1  5GD d   1      20.519  13.470  -9.106  0.00  0.00    -0.267 OA
ATOM     14  C4  5GD d   1      22.040  14.038  -7.369  0.00  0.00     0.094 A 
ATOM     15  C3  5GD d   1      22.043  14.350  -5.977  0.00  0.00     0.080 A 
ATOM     16  C21 5GD d   1      23.197  14.015  -8.057  0.00  0.00     0.088 A 
ATOM     17  C2  5GD d   1      23.279  14.559  -5.402  0.00  0.00    -0.022 A 
ATOM     18  N1  5GD d   1      20.911  14.476  -5.271  0.00  0.00    -0.229 NA
ATOM     19  C1  5GD d   1      24.459  14.483  -6.073  0.00  0.00     0.073 A 
ATOM     20  H1  5GD d   1      23.312  14.800  -4.346  0.00  0.00     0.091 H 
ATOM     21  C23 5GD d   1      24.434  14.183  -7.451  0.00  0.00    -0.018 A 
ATOM     22  H21 5GD d   1      25.352  14.087  -8.019  0.00  0.00     0.092 H 
BRANCH  19  23
ATOM     23  O   5GD d   1      25.720  14.613  -5.632  0.00  0.00    -0.356 OA
BRANCH  23  24
ATOM     24  C   5GD d   1      25.852  14.891  -4.219  0.00  0.00     0.010 C 
ATOM     25  H22 5GD d   1      26.918  14.979  -3.961  0.00  0.00     0.066 H 
ATOM     26  H23 5GD d   1      25.401  14.072  -3.640  0.00  0.00     0.066 H 
ATOM     27  H24 5GD d   1      25.338  15.834  -3.981  0.00  0.00     0.066 H 
ENDBRANCH  23  24
ENDBRANCH  19  23
BRANCH  16  28
ATOM     28  O3  5GD d   1      23.184  13.794  -9.455  0.00  0.00    -0.355 OA
BRANCH  28  29
ATOM     29  C22 5GD d   1      24.412  14.021 -10.214  0.00  0.00     0.010 C 
ATOM     30  H18 5GD d   1      24.231  13.805 -11.277  0.00  0.00     0.066 H 
ATOM     31  H19 5GD d   1      25.205  13.359  -9.835  0.00  0.00     0.066 H 
ATOM     32  H20 5GD d   1      24.724  15.070 -10.101  0.00  0.00     0.066 H 
ENDBRANCH  28  29
ENDBRANCH  16  28
ENDBRANCH   6   9
BRANCH   2  33
ATOM     33  C10 5GD d   1      17.863  14.154  -1.241  0.00  0.00    -0.049 C 
ATOM     34  H5  5GD d   1      18.945  14.021  -1.097  0.00  0.00     0.033 H 
ATOM     35  H6  5GD d   1      17.328  13.294  -0.812  0.00  0.00     0.033 H 
ATOM     36  H7  5GD d   1      17.537  15.076  -0.739  0.00  0.00     0.033 H 
ENDBRANCH   2  33
BRANCH   5  37
ATOM     37  C19 5GD d   1      14.719  14.605  -5.311  0.00  0.00    -0.049 C 
ATOM     38  H12 5GD d   1      14.821  14.690  -6.403  0.00  0.00     0.033 H 
ATOM     39  H13 5GD d   1      14.181  15.482  -4.923  0.00  0.00     0.033 H 
ATOM     40  H14 5GD d   1      14.157  13.692  -5.065  0.00  0.00     0.033 H 
ENDBRANCH   5  37
BRANCH   3  41
ATOM     41  O2  5GD d   1      15.162  14.431  -2.492  0.00  0.00    -0.348 OA
BRANCH  41  42
ATOM     42  C12 5GD d   1      14.668  13.130  -2.152  0.00  0.00     0.049 C 
ATOM     43  H3  5GD d   1      14.053  12.733  -2.973  0.00  0.00     0.077 H 
ATOM     44  H4  5GD d   1      15.508  12.446  -1.959  0.00  0.00     0.077 H 
BRANCH  42  45
ATOM     45  C13 5GD d   1      13.810  13.291  -0.876  0.00  0.00     0.103 C 
ATOM     46  H8  5GD d   1      14.461  13.365   0.007  0.00  0.00     0.079 H 
ATOM     47  H9  5GD d   1      13.137  12.428  -0.764  0.00  0.00     0.079 H 
BRANCH  45  48
ATOM     48  N2  5GD d   1      13.030  14.514  -1.023  0.00  0.00    -0.069 N 
ATOM     49  C14 5GD d   1      12.261  14.794   0.210  0.00  0.00     0.084 C 
ATOM     50  C15 5GD d   1      10.905  14.189  -0.129  0.00  0.00    -0.041 C 
ATOM     51  H10 5GD d   1      12.182  15.875   0.397  0.00  0.00     0.076 H 
ATOM     52  H11 5GD d   1      12.712  14.303   1.085  0.00  0.00     0.076 H 
ATOM     53  C16 5GD d   1      10.685  14.515  -1.591  0.00  0.00    -0.041 C 
ATOM     54  H29 5GD d   1      10.115  14.639   0.490  0.00  0.00     0.035 H 
ATOM     55  H30 5GD d   1      10.918  13.100   0.027  0.00  0.00     0.035 H 
ATOM     56  C17 5GD d   1      12.085  14.363  -2.163  0.00  0.00     0.084 C 
ATOM     57  H27 5GD d   1       9.984  13.807  -2.057  0.00  0.00     0.035 H 
ATOM     58  H28 5GD d   1      10.310  15.541  -1.720  0.00  0.00     0.035 H 
ATOM     59  H16 5GD d   1      12.201  13.371  -2.623  0.00  0.00     0.076 H 
ATOM     60  H17 5GD d   1      12.273  15.141  -2.917  0.00  0.00     0.076 H 
ATOM     61  H26 5GD d   1      13.655  15.284  -1.205  0.00  0.00     0.280 HD
ENDBRANCH  45  48
ENDBRANCH  42  45
ENDBRANCH  41  42
ENDBRANCH   3  41
TORSDOF 11
