REMARK WARNING: 32 MAX_TORS EXCEEDED!!!
REMARK  46 active torsions:
REMARK  status: ('A' for Active; 'I' for Inactive)
REMARK    1  A    between atoms: C_1  and  CH3_3 
REMARK       I    between atoms: N_4  and  C_1 
REMARK    2  A    between atoms: CA_5  and  N_4 
REMARK    3  A    between atoms: C_6  and  CA_5 
REMARK    4  A    between atoms: CA_5  and  CB_8 
REMARK       I    between atoms: N_14  and  C_6 
REMARK    5  A    between atoms: CB_8  and  CG_9 
REMARK    6  A    between atoms: CA_15  and  N_14 
REMARK    7  A    between atoms: C_16  and  CA_15 
REMARK    8  A    between atoms: CA_15  and  CB_18 
REMARK       I    between atoms: N_23  and  C_16 
REMARK    9  A    between atoms: CB_18  and  CG_19 
REMARK   10  A    between atoms: CG_19  and  CD_20 
REMARK   11  A    between atoms: CD_20  and  CE_21 
REMARK   12  A    between atoms: CE_21  and  NZ_22 
REMARK   13  A    between atoms: CA_24  and  N_23 
REMARK   14  A    between atoms: CA_24  and  CB2_30 
REMARK   15  A    between atoms: CC_26  and  CD2_27 
REMARK   16  A    between atoms: CA_34  and  CB_37 
REMARK   17  A    between atoms: CB_37  and  CG_38 
REMARK   18  A    between atoms: CG_38  and  CD1_39 
REMARK   19  A    between atoms: CG_38  and  CD2_40 
REMARK   20  A    between atoms: CA_42  and  CB_45 
REMARK   21  A    between atoms: CB_45  and  CG_46 
REMARK   22  A    between atoms: CA_52  and  CB_55 
REMARK   23  A    between atoms: CB_55  and  CG_56 
REMARK   24  A    between atoms: CG_56  and  CD_57 
REMARK   25  A    between atoms: CD_57  and  NE_58 
REMARK       I    between atoms: NE_58  and  CZ_59 
REMARK       I    between atoms: CZ_59  and  NH1_60 
REMARK   26  A    between atoms: CA_65  and  C_62 
REMARK       I    between atoms: C_62  and  N_71 
REMARK   27  A    between atoms: CA_65  and  CB1_70 
REMARK   28  A    between atoms: N_71  and  CA_72 
REMARK   29  A    between atoms: CA_72  and  C_73 
REMARK   30  A    between atoms: CA_72  and  CB_75 
REMARK       I    between atoms: C_73  and  N_79 
REMARK   31  A    between atoms: CB_75  and  CG_76 
REMARK   32  A    between atoms: CG_76  and  CD1_77 
REMARK   33  A    between atoms: CG_76  and  CD2_78 
REMARK   34  A    between atoms: N_79  and  CA_80 
REMARK   35  A    between atoms: CA_80  and  C_81 
REMARK   36  A    between atoms: CA_80  and  CB_83 
REMARK       I    between atoms: C_81  and  N_88 
REMARK   37  A    between atoms: CB_83  and  CG_84 
REMARK   38  A    between atoms: CG_84  and  CD_85 
REMARK       I    between atoms: CD_85  and  NE2_87 
REMARK   39  A    between atoms: N_88  and  CA_89 
REMARK   40  A    between atoms: CA_89  and  C_90 
REMARK   41  A    between atoms: CA_89  and  CB_92 
REMARK       I    between atoms: C_90  and  N_96 
REMARK   42  A    between atoms: CB_92  and  CG_93 
REMARK   43  A    between atoms: N_96  and  CA_97 
REMARK   44  A    between atoms: CA_97  and  C_98 
REMARK   45  A    between atoms: CA_97  and  CB_100 
REMARK       I    between atoms: C_98  and  N_102 
REMARK   46  A    between atoms: CB_100  and  OG_101 
ROOT
ATOM      1  N   HIS d   1      62.016  19.056  59.781  0.00  0.00    -0.346 N 
ATOM      2  CA  HIS d   1      61.409  20.358  59.471  0.00  0.00     0.094 C 
ATOM      3  C   HIS d   1      61.663  20.718  58.135  0.00  0.00     0.241 C 
ATOM      4  O   HIS d   1      60.777  20.969  57.377  0.00  0.00    -0.271 OA
ATOM      5  H48 HIS d   1      62.610  18.992  60.583  0.00  0.00     0.163 HD
ATOM      6  H49 HIS d   1      60.319  20.275  59.589  0.00  0.00     0.088 H 
ATOM      7  CA  5GM d   1      66.168  17.559  59.582  0.00  0.00     0.110 C 
ATOM      8  CB  5GM d   1      66.853  16.238  59.669  0.00  0.00    -0.030 C 
ATOM      9  CC  5GM d   1      66.976  15.526  58.359  0.00  0.00    -0.052 C 
ATOM     10  CD  5GM d   1      65.741  14.729  58.015  0.00  0.00    -0.047 C 
ATOM     11  CE  5GM d   1      65.895  13.939  56.926  0.00  0.00    -0.106 C 
ATOM     12  C   5GM d   1      64.854  17.457  59.043  0.00  0.00     0.246 C 
ATOM     13  O   5GM d   1      64.553  17.877  57.958  0.00  0.00    -0.271 OA
ATOM     14  H25 5GM d   1      66.282  15.598  60.358  0.00  0.00     0.037 H 
ATOM     15  H26 5GM d   1      67.864  16.399  60.071  0.00  0.00     0.037 H 
ATOM     16  H27 5GM d   1      67.165  16.253  57.555  0.00  0.00     0.040 H 
ATOM     17  H31 5GM d   1      64.916  15.431  57.822  0.00  0.00     0.039 H 
ATOM     18  H32 5GM d   1      65.487  14.091  58.875  0.00  0.00     0.039 H 
ATOM     19  H33 5GM d   1      66.825  13.381  56.834  0.00  0.00     0.076 H 
ATOM     20  N   LEU d   1      63.857  16.906  59.794  0.00  0.00    -0.346 N 
ATOM     21  CA  LEU d   1      62.471  16.751  59.353  0.00  0.00     0.089 C 
ATOM     22  C   LEU d   1      61.821  17.951  59.053  0.00  0.00     0.241 C 
ATOM     23  O   LEU d   1      61.112  18.023  58.084  0.00  0.00    -0.271 OA
ATOM     24  H37 LEU d   1      64.091  16.585  60.712  0.00  0.00     0.163 HD
ATOM     25  H38 LEU d   1      62.481  16.165  58.422  0.00  0.00     0.087 H 
ATOM     26  N   ARG d   1      62.883  20.637  57.635  0.00  0.00    -0.346 N 
ATOM     27  CA  ARG d   1      63.255  20.864  56.256  0.00  0.00     0.089 C 
ATOM     28  C   ARG d   1      62.726  19.968  55.323  0.00  0.00     0.241 C 
ATOM     29  O   ARG d   1      62.180  20.407  54.350  0.00  0.00    -0.271 OA
ATOM     30  H55 ARG d   1      63.618  20.396  58.269  0.00  0.00     0.163 HD
ATOM     31  H56 ARG d   1      62.892  21.864  55.975  0.00  0.00     0.087 H 
ATOM     32  N   MK8 d   1      62.779  18.615  55.495  0.00  0.00    -0.342 N 
ATOM     33  CA  MK8 d   1      62.237  17.626  54.531  0.00  0.00     0.110 C 
ATOM     34  CB  MK8 d   1      62.396  16.188  55.008  0.00  0.00    -0.033 C 
ATOM     35  CD  MK8 d   1      63.739  14.393  55.907  0.00  0.00    -0.050 C 
ATOM     36  CE  MK8 d   1      64.968  13.793  55.937  0.00  0.00    -0.107 C 
ATOM     37  CG  MK8 d   1      63.765  15.735  55.313  0.00  0.00    -0.059 C 
ATOM     38  H68 MK8 d   1      63.212  18.267  56.326  0.00  0.00     0.163 HD
ATOM     39  H69 MK8 d   1      61.996  15.531  54.222  0.00  0.00     0.037 H 
ATOM     40  H70 MK8 d   1      61.796  16.073  55.923  0.00  0.00     0.037 H 
ATOM     41  H71 MK8 d   1      63.364  14.474  56.938  0.00  0.00     0.038 H 
ATOM     42  H72 MK8 d   1      63.057  13.763  55.318  0.00  0.00     0.038 H 
ATOM     43  H73 MK8 d   1      65.228  13.145  55.101  0.00  0.00     0.076 H 
ATOM     44  H74 MK8 d   1      64.229  16.436  56.022  0.00  0.00     0.033 H 
ATOM     45  H75 MK8 d   1      64.354  15.709  54.384  0.00  0.00     0.033 H 
ENDROOT
BRANCH  33  46
ATOM     46  C   MK8 d   1      60.851  17.794  54.287  0.00  0.00     0.246 C 
ATOM     47  O   MK8 d   1      60.338  17.526  53.216  0.00  0.00    -0.271 OA
ATOM     48  N   LEU d   1      60.114  18.217  55.300  0.00  0.00    -0.346 N 
ATOM     49  H79 LEU d   1      60.551  18.399  56.181  0.00  0.00     0.163 HD
BRANCH  48  50
ATOM     50  CA  LEU d   1      58.688  18.422  55.161  0.00  0.00     0.089 C 
ATOM     51  H80 LEU d   1      58.258  17.481  54.786  0.00  0.00     0.087 H 
BRANCH  50  52
ATOM     52  C   LEU d   1      58.346  19.524  54.164  0.00  0.00     0.241 C 
ATOM     53  O   LEU d   1      57.287  19.543  53.636  0.00  0.00    -0.271 OA
ATOM     54  N   GLN d   1      59.280  20.353  53.841  0.00  0.00    -0.346 N 
ATOM     55  H90 GLN d   1      60.196  20.220  54.218  0.00  0.00     0.163 HD
BRANCH  54  56
ATOM     56  CA  GLN d   1      59.045  21.477  52.945  0.00  0.00     0.090 C 
ATOM     57  H91 GLN d   1      57.988  21.756  53.069  0.00  0.00     0.087 H 
BRANCH  56  58
ATOM     58  C   GLN d   1      59.270  21.256  51.453  0.00  0.00     0.241 C 
ATOM     59  O   GLN d   1      58.846  22.103  50.708  0.00  0.00    -0.271 OA
ATOM     60  N   ASP d   1      59.899  20.182  51.030  0.00  0.00    -0.346 N 
ATOM     61  H98 ASP d   1      60.235  19.500  51.680  0.00  0.00     0.163 HD
BRANCH  60  62
ATOM     62  CA  ASP d   1      60.099  20.002  49.590  0.00  0.00     0.098 C 
ATOM     63  H99 ASP d   1      60.093  21.010  49.151  0.00  0.00     0.088 H 
BRANCH  62  64
ATOM     64  C   ASP d   1      58.930  19.259  48.925  0.00  0.00     0.241 C 
ATOM     65  O   ASP d   1      58.085  18.663  49.540  0.00  0.00    -0.271 OA
ATOM     66  N   SER d   1      58.960  19.270  47.617  0.00  0.00    -0.344 N 
ATOM     67 2H10 SER d   1      59.702  19.750  47.148  0.00  0.00     0.163 HD
BRANCH  66  68
ATOM     68  CA  SER d   1      57.944  18.603  46.836  0.00  0.00     0.109 C 
ATOM     69 3H10 SER d   1      57.389  17.879  47.451  0.00  0.00     0.090 H 
BRANCH  68  70
ATOM     70  C   SER d   1      58.671  17.869  45.743  0.00  0.00     0.240 C 
ATOM     71  O   SER d   1      59.820  18.160  45.509  0.00  0.00    -0.271 OA
ATOM     72  N   NH2 d   1      58.069  16.828  45.215  0.00  0.00    -0.368 N 
ATOM     73 7H10 NH2 d   1      58.515  16.309  44.485  0.00  0.00     0.159 HD
ATOM     74 8H10 NH2 d   1      57.165  16.554  45.543  0.00  0.00     0.159 HD
ENDBRANCH  68  70
BRANCH  68  75
ATOM     75  CB  SER d   1      56.996  19.672  46.359  0.00  0.00     0.044 C 
ATOM     76 4H10 SER d   1      56.022  19.228  46.106  0.00  0.00     0.077 H 
ATOM     77 5H10 SER d   1      57.410  20.177  45.474  0.00  0.00     0.077 H 
BRANCH  75  78
ATOM     78  OG  SER d   1      56.847  20.607  47.436  0.00  0.00    -0.398 OA
ATOM     79 6H10 SER d   1      56.495  20.159  48.196  0.00  0.00     0.209 HD
ENDBRANCH  75  78
ENDBRANCH  68  75
ENDBRANCH  66  68
ENDBRANCH  62  64
BRANCH  62  80
ATOM     80  CB  ASP d   1      61.478  19.432  49.294  0.00  0.00     0.043 C 
ATOM     81 0H10 ASP d   1      62.155  19.689  50.122  0.00  0.00     0.052 H 
ATOM     82 1H10 ASP d   1      61.854  19.877  48.361  0.00  0.00     0.052 H 
BRANCH  80  83
ATOM     83  CG  ASP d   1      61.445  17.952  49.142  0.00  0.00     0.175 C 
ATOM     84  OD1 ASP d   1      61.823  17.444  48.067  0.00  0.00    -0.648 OA
ATOM     85  OD2 ASP d   1      60.821  17.408  50.035  0.00  0.00    -0.648 OA
ENDBRANCH  80  83
ENDBRANCH  62  80
ENDBRANCH  60  62
ENDBRANCH  56  58
BRANCH  56  86
ATOM     86  CB  GLN d   1      59.907  22.661  53.362  0.00  0.00    -0.030 C 
ATOM     87  H92 GLN d   1      59.903  23.416  52.562  0.00  0.00     0.037 H 
ATOM     88  H93 GLN d   1      60.937  22.319  53.538  0.00  0.00     0.037 H 
BRANCH  86  89
ATOM     89  CG  GLN d   1      59.361  23.268  54.622  0.00  0.00     0.011 C 
ATOM     90  H94 GLN d   1      59.366  22.511  55.420  0.00  0.00     0.047 H 
ATOM     91  H95 GLN d   1      58.330  23.605  54.443  0.00  0.00     0.047 H 
BRANCH  89  92
ATOM     92  CD  GLN d   1      60.186  24.426  55.045  0.00  0.00     0.215 C 
ATOM     93  OE1 GLN d   1      60.939  24.375  55.995  0.00  0.00    -0.274 OA
ATOM     94  NE2 GLN d   1      60.012  25.478  54.316  0.00  0.00    -0.370 N 
ATOM     95  H96 GLN d   1      60.521  26.315  54.517  0.00  0.00     0.159 HD
ATOM     96  H97 GLN d   1      59.368  25.455  53.551  0.00  0.00     0.159 HD
ENDBRANCH  89  92
ENDBRANCH  86  89
ENDBRANCH  56  86
ENDBRANCH  54  56
ENDBRANCH  50  52
BRANCH  50  97
ATOM     97  CB  LEU d   1      58.032  18.742  56.474  0.00  0.00    -0.035 C 
ATOM     98  H81 LEU d   1      57.107  19.303  56.276  0.00  0.00     0.037 H 
ATOM     99  H82 LEU d   1      58.719  19.365  57.066  0.00  0.00     0.037 H 
BRANCH  97 100
ATOM    100  CG  LEU d   1      57.681  17.497  57.287  0.00  0.00    -0.059 C 
ATOM    101  H83 LEU d   1      58.536  16.805  57.274  0.00  0.00     0.038 H 
BRANCH 100 102
ATOM    102  CD1 LEU d   1      57.394  17.907  58.691  0.00  0.00    -0.073 C 
ATOM    103  H84 LEU d   1      57.140  17.019  59.288  0.00  0.00     0.028 H 
ATOM    104  H85 LEU d   1      56.548  18.610  58.702  0.00  0.00     0.028 H 
ATOM    105  H86 LEU d   1      58.282  18.394  59.120  0.00  0.00     0.028 H 
ENDBRANCH 100 102
BRANCH 100 106
ATOM    106  CD2 LEU d   1      56.493  16.810  56.726  0.00  0.00    -0.073 C 
ATOM    107  H87 LEU d   1      56.701  16.506  55.690  0.00  0.00     0.028 H 
ATOM    108  H88 LEU d   1      55.632  17.495  56.742  0.00  0.00     0.028 H 
ATOM    109  H89 LEU d   1      56.265  15.920  57.331  0.00  0.00     0.028 H 
ENDBRANCH 100 106
ENDBRANCH  97 100
ENDBRANCH  50  97
ENDBRANCH  48  50
ENDBRANCH  33  46
BRANCH  33 110
ATOM    110  CB1 MK8 d   1      63.023  17.781  53.239  0.00  0.00    -0.044 C 
ATOM    111  H76 MK8 d   1      62.650  17.062  52.495  0.00  0.00     0.031 H 
ATOM    112  H77 MK8 d   1      64.089  17.589  53.433  0.00  0.00     0.031 H 
ATOM    113  H78 MK8 d   1      62.899  18.804  52.855  0.00  0.00     0.031 H 
ENDBRANCH  33 110
BRANCH  27 114
ATOM    114  CB  ARG d   1      64.791  20.871  56.207  0.00  0.00    -0.036 C 
ATOM    115  H57 ARG d   1      65.157  19.911  56.601  0.00  0.00     0.036 H 
ATOM    116  H58 ARG d   1      65.156  21.691  56.843  0.00  0.00     0.036 H 
BRANCH 114 117
ATOM    117  CG  ARG d   1      65.337  21.057  54.839  0.00  0.00    -0.048 C 
ATOM    118  H59 ARG d   1      64.748  20.474  54.115  0.00  0.00     0.035 H 
ATOM    119  H60 ARG d   1      66.387  20.730  54.804  0.00  0.00     0.035 H 
BRANCH 117 120
ATOM    120  CD  ARG d   1      65.243  22.521  54.519  0.00  0.00     0.009 C 
ATOM    121  H61 ARG d   1      65.756  23.099  55.302  0.00  0.00     0.064 H 
ATOM    122  H62 ARG d   1      64.185  22.818  54.478  0.00  0.00     0.064 H 
BRANCH 120 123
ATOM    123  NE  ARG d   1      65.854  22.784  53.263  0.00  0.00    -0.227 N 
ATOM    124  CZ  ARG d   1      65.236  22.721  52.145  0.00  0.00     0.665 C 
ATOM    125  NH1 ARG d   1      65.918  22.944  51.058  0.00  0.00    -0.235 N 
ATOM    126  NH2 ARG d   1      63.971  22.383  52.086  0.00  0.00    -0.235 N 
ATOM    127  H64 ARG d   1      65.453  22.902  50.140  0.00  0.00     0.174 HD
ATOM    128  H65 ARG d   1      66.923  23.163  51.116  0.00  0.00     0.174 HD
ATOM    129  H66 ARG d   1      63.443  22.209  52.953  0.00  0.00     0.174 HD
ATOM    130  H67 ARG d   1      63.505  22.291  51.172  0.00  0.00     0.174 HD
ATOM    131  H63 ARG d   1      66.852  23.040  53.252  0.00  0.00     0.177 HD
ENDBRANCH 120 123
ENDBRANCH 117 120
ENDBRANCH 114 117
ENDBRANCH  27 114
BRANCH   2 132
ATOM    132  CB  HIS d   1      61.914  21.365  60.487  0.00  0.00     0.002 C 
ATOM    133  H50 HIS d   1      63.002  21.465  60.363  0.00  0.00     0.046 H 
ATOM    134  H51 HIS d   1      61.693  20.981  61.494  0.00  0.00     0.046 H 
BRANCH 132 135
ATOM    135  CG  HIS d   1      61.294  22.732  60.355  0.00  0.00     0.030 A 
ATOM    136  ND1 HIS d   1      60.266  23.170  60.997  0.00  0.00    -0.353 N 
ATOM    137  CE1 HIS d   1      60.048  24.374  60.593  0.00  0.00     0.063 A 
ATOM    138  H52 HIS d   1      59.720  22.654  61.702  0.00  0.00     0.166 HD
ATOM    139  NE2 HIS d   1      60.948  24.689  59.731  0.00  0.00    -0.254 NA
ATOM    140  H54 HIS d   1      59.236  25.018  60.927  0.00  0.00     0.143 H 
ATOM    141  CD2 HIS d   1      61.730  23.666  59.574  0.00  0.00     0.025 A 
ATOM    142  H53 HIS d   1      62.591  23.605  58.910  0.00  0.00     0.117 H 
ENDBRANCH 132 135
ENDBRANCH   2 132
BRANCH   9 143
ATOM    143  CD2 5GM d   1      68.154  14.614  58.523  0.00  0.00    -0.073 C 
ATOM    144  H28 5GM d   1      68.312  14.049  57.593  0.00  0.00     0.028 H 
ATOM    145  H29 5GM d   1      67.963  13.914  59.349  0.00  0.00     0.028 H 
ATOM    146  H30 5GM d   1      69.051  15.210  58.747  0.00  0.00     0.028 H 
ENDBRANCH   9 143
BRANCH  21 147
ATOM    147  CB  LEU d   1      61.770  15.925  60.413  0.00  0.00    -0.035 C 
ATOM    148  H39 LEU d   1      61.637  16.550  61.308  0.00  0.00     0.037 H 
ATOM    149  H40 LEU d   1      62.407  15.063  60.659  0.00  0.00     0.037 H 
BRANCH 147 150
ATOM    150  CG  LEU d   1      60.438  15.419  59.992  0.00  0.00    -0.059 C 
ATOM    151  H41 LEU d   1      59.785  16.283  59.800  0.00  0.00     0.038 H 
BRANCH 150 152
ATOM    152  CD1 LEU d   1      60.524  14.592  58.745  0.00  0.00    -0.073 C 
ATOM    153  H42 LEU d   1      59.519  14.239  58.469  0.00  0.00     0.028 H 
ATOM    154  H43 LEU d   1      61.181  13.728  58.923  0.00  0.00     0.028 H 
ATOM    155  H44 LEU d   1      60.935  15.203  57.928  0.00  0.00     0.028 H 
ENDBRANCH 150 152
BRANCH 150 156
ATOM    156  CD2 LEU d   1      59.821  14.564  61.082  0.00  0.00    -0.073 C 
ATOM    157  H45 LEU d   1      59.747  15.150  62.010  0.00  0.00     0.028 H 
ATOM    158  H46 LEU d   1      60.452  13.680  61.256  0.00  0.00     0.028 H 
ATOM    159  H47 LEU d   1      58.816  14.242  60.771  0.00  0.00     0.028 H 
ENDBRANCH 150 156
ENDBRANCH 147 150
ENDBRANCH  21 147
BRANCH   7 160
ATOM    160  N   5GM d   1      66.114  18.136  60.907  0.00  0.00    -0.342 N 
ATOM    161  C   LYS d   1      65.437  19.220  61.201  0.00  0.00     0.241 C 
ATOM    162  O   LYS d   1      64.753  19.844  60.427  0.00  0.00    -0.271 OA
ATOM    163  H24 5GM d   1      66.621  17.683  61.640  0.00  0.00     0.163 HD
BRANCH 161 164
ATOM    164  CA  LYS d   1      65.455  19.504  62.668  0.00  0.00     0.089 C 
ATOM    165  H12 LYS d   1      66.343  19.024  63.105  0.00  0.00     0.087 H 
BRANCH 164 166
ATOM    166  N   LYS d   1      65.492  20.885  63.004  0.00  0.00    -0.346 N 
ATOM    167  C   HIS d   1      66.287  21.781  62.470  0.00  0.00     0.241 C 
ATOM    168  O   HIS d   1      67.080  21.564  61.595  0.00  0.00    -0.271 OA
ATOM    169  H11 LYS d   1      64.857  21.201  63.709  0.00  0.00     0.163 HD
BRANCH 167 170
ATOM    170  CA  HIS d   1      66.062  23.200  63.090  0.00  0.00     0.094 C 
ATOM    171  H5  HIS d   1      66.030  23.057  64.180  0.00  0.00     0.088 H 
BRANCH 170 172
ATOM    172  N   HIS d   1      67.222  24.086  62.879  0.00  0.00    -0.348 N 
ATOM    173  C   ACE d   1      68.190  24.060  63.819  0.00  0.00     0.214 C 
ATOM    174  O   ACE d   1      68.123  23.365  64.830  0.00  0.00    -0.274 OA
ATOM    175  H4  HIS d   1      67.288  24.679  62.076  0.00  0.00     0.163 HD
BRANCH 173 176
ATOM    176  CH3 ACE d   1      69.412  24.973  63.637  0.00  0.00    -0.003 C 
ATOM    177  H1  ACE d   1      69.320  25.524  62.689  0.00  0.00     0.040 H 
ATOM    178  H2  ACE d   1      70.327  24.362  63.619  0.00  0.00     0.040 H 
ATOM    179  H3  ACE d   1      69.464  25.687  64.472  0.00  0.00     0.040 H 
ENDBRANCH 173 176
ENDBRANCH 170 172
BRANCH 170 180
ATOM    180  CB  HIS d   1      64.636  23.694  62.716  0.00  0.00     0.002 C 
ATOM    181  H6  HIS d   1      64.054  23.709  63.650  0.00  0.00     0.046 H 
ATOM    182  H7  HIS d   1      64.213  22.943  62.033  0.00  0.00     0.046 H 
BRANCH 180 183
ATOM    183  CG  HIS d   1      64.430  25.042  62.057  0.00  0.00     0.030 A 
ATOM    184  ND1 HIS d   1      64.659  25.258  60.789  0.00  0.00    -0.353 N 
ATOM    185  CE1 HIS d   1      64.348  26.533  60.567  0.00  0.00     0.063 A 
ATOM    186  H8  HIS d   1      65.010  24.578  60.099  0.00  0.00     0.166 HD
ATOM    187  NE2 HIS d   1      63.894  27.066  61.690  0.00  0.00    -0.254 NA
ATOM    188  H10 HIS d   1      64.451  27.053  59.616  0.00  0.00     0.143 H 
ATOM    189  CD2 HIS d   1      63.929  26.129  62.612  0.00  0.00     0.025 A 
ATOM    190  H9  HIS d   1      63.603  26.232  63.646  0.00  0.00     0.117 H 
ENDBRANCH 180 183
ENDBRANCH 170 180
ENDBRANCH 167 170
ENDBRANCH 164 166
BRANCH 164 191
ATOM    191  CB  LYS d   1      64.228  18.893  63.240  0.00  0.00    -0.038 C 
ATOM    192  H13 LYS d   1      64.067  17.897  62.802  0.00  0.00     0.036 H 
ATOM    193  H14 LYS d   1      63.358  19.532  63.028  0.00  0.00     0.036 H 
BRANCH 191 194
ATOM    194  CG  LYS d   1      64.425  18.773  64.723  0.00  0.00    -0.061 C 
ATOM    195  H15 LYS d   1      65.100  19.568  65.072  0.00  0.00     0.033 H 
ATOM    196  H16 LYS d   1      64.861  17.791  64.960  0.00  0.00     0.033 H 
BRANCH 194 197
ATOM    197  CD  LYS d   1      63.091  18.910  65.399  0.00  0.00    -0.043 C 
ATOM    198  H17 LYS d   1      62.295  18.808  64.647  0.00  0.00     0.035 H 
ATOM    199  H18 LYS d   1      63.026  19.902  65.869  0.00  0.00     0.035 H 
BRANCH 197 200
ATOM    200  CE  LYS d   1      62.912  17.867  66.441  0.00  0.00     0.080 C 
ATOM    201  H19 LYS d   1      63.885  17.631  66.897  0.00  0.00     0.075 H 
ATOM    202  H20 LYS d   1      62.491  16.959  65.984  0.00  0.00     0.075 H 
BRANCH 200 203
ATOM    203  NZ  LYS d   1      62.018  18.356  67.446  0.00  0.00    -0.079 N 
ATOM    204  H21 LYS d   1      61.893  17.651  68.156  0.00  0.00     0.274 HD
ATOM    205  H22 LYS d   1      61.127  18.572  67.027  0.00  0.00     0.274 HD
ATOM    206  H23 LYS d   1      62.404  19.189  67.863  0.00  0.00     0.274 HD
ENDBRANCH 200 203
ENDBRANCH 197 200
ENDBRANCH 194 197
ENDBRANCH 191 194
ENDBRANCH 164 191
ENDBRANCH 161 164
ENDBRANCH   7 160
BRANCH   7 207
ATOM    207  CB2 5GM d   1      67.065  18.448  58.771  0.00  0.00    -0.044 C 
ATOM    208  H34 5GM d   1      67.143  18.054  57.747  0.00  0.00     0.031 H 
ATOM    209  H35 5GM d   1      68.064  18.477  59.230  0.00  0.00     0.031 H 
ATOM    210  H36 5GM d   1      66.645  19.464  58.742  0.00  0.00     0.031 H 
ENDBRANCH   7 207
TORSDOF 46
