REMARK WARNING: 32 MAX_TORS EXCEEDED!!!
REMARK  46 active torsions:
REMARK  status: ('A' for Active; 'I' for Inactive)
REMARK    1  A    between atoms: C_1  and  CH3_3 
REMARK       I    between atoms: N_4  and  C_1 
REMARK    2  A    between atoms: CA_5  and  N_4 
REMARK    3  A    between atoms: C_6  and  CA_5 
REMARK    4  A    between atoms: CA_5  and  CB_8 
REMARK       I    between atoms: N_14  and  C_6 
REMARK    5  A    between atoms: CB_8  and  CG_9 
REMARK    6  A    between atoms: CA_15  and  N_14 
REMARK    7  A    between atoms: C_16  and  CA_15 
REMARK    8  A    between atoms: CA_15  and  CB_18 
REMARK       I    between atoms: N_24  and  C_16 
REMARK    9  A    between atoms: CB_18  and  CG_19 
REMARK   10  A    between atoms: CG_19  and  CD_20 
REMARK   11  A    between atoms: CD_20  and  CE_21 
REMARK   12  A    between atoms: CE_21  and  NZ_22 
REMARK   13  A    between atoms: CA_26  and  N_24 
REMARK   14  A    between atoms: CA_26  and  CB1_31 
REMARK   15  A    between atoms: CA_33  and  CB_36 
REMARK   16  A    between atoms: CB_36  and  CG_37 
REMARK   17  A    between atoms: CG_37  and  CD1_38 
REMARK   18  A    between atoms: CG_37  and  CD2_39 
REMARK   19  A    between atoms: CA_41  and  CB_44 
REMARK   20  A    between atoms: CB_44  and  CG_45 
REMARK   21  A    between atoms: CA_51  and  CB_54 
REMARK   22  A    between atoms: CB_54  and  CG_55 
REMARK   23  A    between atoms: CG_55  and  CD_56 
REMARK   24  A    between atoms: CD_56  and  NE_57 
REMARK       I    between atoms: NE_57  and  CZ_58 
REMARK       I    between atoms: CZ_58  and  NH1_59 
REMARK       I    between atoms: CZ_58  and  NH2_60 
REMARK   25  A    between atoms: CA_62  and  CB2_68 
REMARK   26  A    between atoms: CA_62  and  C_69 
REMARK   27  A    between atoms: CC_64  and  CD2_65 
REMARK       I    between atoms: C_69  and  N_71 
REMARK   28  A    between atoms: N_71  and  CA_72 
REMARK   29  A    between atoms: CA_72  and  C_73 
REMARK   30  A    between atoms: CA_72  and  CB_75 
REMARK       I    between atoms: C_73  and  N_79 
REMARK   31  A    between atoms: CB_75  and  CG_76 
REMARK   32  A    between atoms: CG_76  and  CD1_77 
REMARK   33  A    between atoms: CG_76  and  CD2_78 
REMARK   34  A    between atoms: N_79  and  CA_80 
REMARK   35  A    between atoms: CA_80  and  C_81 
REMARK   36  A    between atoms: CA_80  and  CB_83 
REMARK       I    between atoms: C_81  and  N_88 
REMARK   37  A    between atoms: CB_83  and  CG_84 
REMARK   38  A    between atoms: CG_84  and  CD_85 
REMARK       I    between atoms: CD_85  and  NE2_87 
REMARK   39  A    between atoms: N_88  and  CA_89 
REMARK   40  A    between atoms: CA_89  and  C_90 
REMARK   41  A    between atoms: CA_89  and  CB_92 
REMARK       I    between atoms: C_90  and  N_96 
REMARK   42  A    between atoms: CB_92  and  CG_93 
REMARK   43  A    between atoms: N_96  and  CA_97 
REMARK   44  A    between atoms: CA_97  and  C_98 
REMARK   45  A    between atoms: CA_97  and  CB_100 
REMARK       I    between atoms: C_98  and  N_102 
REMARK   46  A    between atoms: CB_100  and  OG_101 
ROOT
ATOM      1  N   HIS d   1      24.940  15.359   4.001  0.00  0.00    -0.346 N 
ATOM      2  CA  HIS d   1      24.428  16.713   3.765  0.00  0.00     0.094 C 
ATOM      3  C   HIS d   1      24.742  17.152   2.475  0.00  0.00     0.241 C 
ATOM      4  O   HIS d   1      23.905  17.675   1.814  0.00  0.00    -0.271 OA
ATOM      5  H45 HIS d   1      25.477  15.234   4.835  0.00  0.00     0.163 HD
ATOM      6  H46 HIS d   1      23.331  16.671   3.838  0.00  0.00     0.088 H 
ATOM      7  C   MK8 d   1      27.731  13.771   3.288  0.00  0.00     0.246 C 
ATOM      8  O   MK8 d   1      27.419  14.230   2.229  0.00  0.00    -0.271 OA
ATOM      9  CA  MK8 d   1      29.045  13.845   3.804  0.00  0.00     0.110 C 
ATOM     10  CB  MK8 d   1      29.703  12.494   3.700  0.00  0.00    -0.030 C 
ATOM     11  CD  MK8 d   1      28.444  11.316   1.865  0.00  0.00    -0.106 C 
ATOM     12  CE  MK8 d   1      28.561  10.627   0.699  0.00  0.00    -0.107 C 
ATOM     13  CG  MK8 d   1      29.747  11.984   2.285  0.00  0.00    -0.047 C 
ATOM     14  H25 MK8 d   1      29.139  11.778   4.316  0.00  0.00     0.037 H 
ATOM     15  H26 MK8 d   1      30.733  12.572   4.079  0.00  0.00     0.037 H 
ATOM     16  H27 MK8 d   1      27.520  11.383   2.437  0.00  0.00     0.076 H 
ATOM     17  H28 MK8 d   1      29.565  10.281   0.456  0.00  0.00     0.076 H 
ATOM     18  H29 MK8 d   1      30.563  11.251   2.199  0.00  0.00     0.038 H 
ATOM     19  H30 MK8 d   1      29.943  12.831   1.611  0.00  0.00     0.038 H 
ATOM     20  N   LEU d   1      26.755  13.173   3.991  0.00  0.00    -0.346 N 
ATOM     21  CA  LEU d   1      25.360  13.034   3.594  0.00  0.00     0.089 C 
ATOM     22  C   LEU d   1      24.774  14.238   3.218  0.00  0.00     0.241 C 
ATOM     23  O   LEU d   1      24.054  14.281   2.269  0.00  0.00    -0.271 OA
ATOM     24  H34 LEU d   1      27.012  12.784   4.876  0.00  0.00     0.163 HD
ATOM     25  H35 LEU d   1      25.308  12.334   2.747  0.00  0.00     0.087 H 
ATOM     26  N   ARG d   1      25.958  16.895   1.885  0.00  0.00    -0.346 N 
ATOM     27  CA  ARG d   1      26.318  17.313   0.537  0.00  0.00     0.089 C 
ATOM     28  C   ARG d   1      25.790  16.465  -0.431  0.00  0.00     0.241 C 
ATOM     29  O   ARG d   1      25.170  16.870  -1.370  0.00  0.00    -0.271 OA
ATOM     30  H52 ARG d   1      26.638  16.389   2.416  0.00  0.00     0.163 HD
ATOM     31  H53 ARG d   1      25.903  18.317   0.363  0.00  0.00     0.087 H 
ATOM     32  N   66D d   1      25.944  15.122  -0.290  0.00  0.00    -0.342 N 
ATOM     33  CA  66D d   1      25.418  14.092  -1.181  0.00  0.00     0.110 C 
ATOM     34  CB  66D d   1      25.684  12.828  -0.422  0.00  0.00    -0.030 C 
ATOM     35  CC  66D d   1      25.742  11.584  -1.174  0.00  0.00    -0.055 C 
ATOM     36  CD  66D d   1      26.205  10.530  -0.240  0.00  0.00    -0.059 C 
ATOM     37  CE  66D d   1      27.581  10.305  -0.220  0.00  0.00    -0.050 C 
ATOM     38  H65 66D d   1      26.469  14.809   0.501  0.00  0.00     0.163 HD
ATOM     39  H66 66D d   1      24.886  12.721   0.327  0.00  0.00     0.037 H 
ATOM     40  H67 66D d   1      26.651  12.949   0.087  0.00  0.00     0.037 H 
ATOM     41  H68 66D d   1      26.390  11.659  -2.059  0.00  0.00     0.039 H 
ATOM     42  H72 66D d   1      25.712   9.588  -0.522  0.00  0.00     0.034 H 
ATOM     43  H73 66D d   1      25.894  10.817   0.775  0.00  0.00     0.034 H 
ATOM     44  H74 66D d   1      27.664   9.212  -0.313  0.00  0.00     0.038 H 
ATOM     45  H75 66D d   1      27.933  10.780  -1.148  0.00  0.00     0.038 H 
ENDROOT
BRANCH  33  46
ATOM     46  CB2 66D d   1      26.241  14.123  -2.428  0.00  0.00    -0.044 C 
ATOM     47  H76 66D d   1      25.875  13.358  -3.128  0.00  0.00     0.031 H 
ATOM     48  H77 66D d   1      27.293  13.918  -2.179  0.00  0.00     0.031 H 
ATOM     49  H78 66D d   1      26.162  15.116  -2.895  0.00  0.00     0.031 H 
ENDBRANCH  33  46
BRANCH  33  50
ATOM     50  C   66D d   1      24.020  14.236  -1.461  0.00  0.00     0.246 C 
ATOM     51  O   66D d   1      23.553  14.056  -2.547  0.00  0.00    -0.271 OA
ATOM     52  N   LEU d   1      23.232  14.679  -0.496  0.00  0.00    -0.346 N 
ATOM     53  H79 LEU d   1      23.640  14.902   0.389  0.00  0.00     0.163 HD
BRANCH  52  54
ATOM     54  CA  LEU d   1      21.784  14.859  -0.666  0.00  0.00     0.089 C 
ATOM     55  H80 LEU d   1      21.378  13.907  -1.038  0.00  0.00     0.087 H 
BRANCH  54  56
ATOM     56  C   LEU d   1      21.439  15.957  -1.703  0.00  0.00     0.241 C 
ATOM     57  O   LEU d   1      20.395  15.955  -2.275  0.00  0.00    -0.271 OA
ATOM     58  N   GLN d   1      22.345  16.877  -1.874  0.00  0.00    -0.346 N 
ATOM     59  H90 GLN d   1      23.194  16.818  -1.349  0.00  0.00     0.163 HD
BRANCH  58  60
ATOM     60  CA  GLN d   1      22.172  17.992  -2.802  0.00  0.00     0.090 C 
ATOM     61  H91 GLN d   1      21.106  18.264  -2.787  0.00  0.00     0.087 H 
BRANCH  60  62
ATOM     62  C   GLN d   1      22.536  17.658  -4.256  0.00  0.00     0.241 C 
ATOM     63  O   GLN d   1      22.210  18.411  -5.106  0.00  0.00    -0.271 OA
ATOM     64  N   ASP d   1      23.174  16.553  -4.531  0.00  0.00    -0.346 N 
ATOM     65  H98 ASP d   1      23.418  15.964  -3.761  0.00  0.00     0.163 HD
BRANCH  64  66
ATOM     66  CA  ASP d   1      23.562  16.102  -5.859  0.00  0.00     0.098 C 
ATOM     67  H99 ASP d   1      24.047  16.899  -6.441  0.00  0.00     0.088 H 
BRANCH  66  68
ATOM     68  C   ASP d   1      22.370  15.522  -6.581  0.00  0.00     0.241 C 
ATOM     69  O   ASP d   1      21.649  14.723  -6.056  0.00  0.00    -0.271 OA
ATOM     70  N   SER d   1      22.160  15.915  -7.813  0.00  0.00    -0.344 N 
ATOM     71 2H10 SER d   1      22.768  16.596  -8.220  0.00  0.00     0.163 HD
BRANCH  70  72
ATOM     72  CA  SER d   1      21.047  15.374  -8.610  0.00  0.00     0.109 C 
ATOM     73 3H10 SER d   1      20.357  14.816  -7.960  0.00  0.00     0.090 H 
BRANCH  72  74
ATOM     74  C   SER d   1      21.638  14.472  -9.654  0.00  0.00     0.240 C 
ATOM     75  O   SER d   1      22.840  14.457  -9.850  0.00  0.00    -0.271 OA
ATOM     76  N   NH2 d   1      20.785  13.709 -10.277  0.00  0.00    -0.368 N 
ATOM     77 7H10 NH2 d   1      21.102  13.080 -10.987  0.00  0.00     0.159 HD
ATOM     78 8H10 NH2 d   1      19.813  13.752 -10.045  0.00  0.00     0.159 HD
ENDBRANCH  72  74
BRANCH  72  79
ATOM     79  CB  SER d   1      20.300  16.478  -9.328  0.00  0.00     0.044 C 
ATOM     80 4H10 SER d   1      19.319  16.103  -9.654  0.00  0.00     0.077 H 
ATOM     81 5H10 SER d   1      20.880  16.800 -10.206  0.00  0.00     0.077 H 
BRANCH  79  82
ATOM     82  OG  SER d   1      20.115  17.584  -8.453  0.00  0.00    -0.398 OA
ATOM     83 6H10 SER d   1      19.646  18.273  -8.909  0.00  0.00     0.209 HD
ENDBRANCH  79  82
ENDBRANCH  72  79
ENDBRANCH  70  72
ENDBRANCH  66  68
BRANCH  66  84
ATOM     84  CB  ASP d   1      24.457  14.931  -5.603  0.00  0.00     0.043 C 
ATOM     85 0H10 ASP d   1      23.947  14.024  -5.961  0.00  0.00     0.052 H 
ATOM     86 1H10 ASP d   1      24.621  14.855  -4.518  0.00  0.00     0.052 H 
BRANCH  84  87
ATOM     87  CG  ASP d   1      25.795  15.011  -6.274  0.00  0.00     0.175 C 
ATOM     88  OD1 ASP d   1      26.659  15.695  -5.697  0.00  0.00    -0.648 OA
ATOM     89  OD2 ASP d   1      25.961  14.327  -7.315  0.00  0.00    -0.648 OA
ENDBRANCH  84  87
ENDBRANCH  66  84
ENDBRANCH  64  66
ENDBRANCH  60  62
BRANCH  60  90
ATOM     90  CB  GLN d   1      22.973  19.201  -2.330  0.00  0.00    -0.030 C 
ATOM     91  H92 GLN d   1      22.775  20.058  -2.991  0.00  0.00     0.037 H 
ATOM     92  H93 GLN d   1      24.047  18.964  -2.348  0.00  0.00     0.037 H 
BRANCH  90  93
ATOM     93  CG  GLN d   1      22.549  19.536  -0.921  0.00  0.00     0.011 C 
ATOM     94  H94 GLN d   1      22.808  18.694  -0.262  0.00  0.00     0.047 H 
ATOM     95  H95 GLN d   1      21.460  19.693  -0.905  0.00  0.00     0.047 H 
BRANCH  93  96
ATOM     96  CD  GLN d   1      23.223  20.770  -0.417  0.00  0.00     0.215 C 
ATOM     97  OE1 GLN d   1      23.897  20.754   0.574  0.00  0.00    -0.274 OA
ATOM     98  NE2 GLN d   1      22.991  21.828  -1.099  0.00  0.00    -0.370 N 
ATOM     99  H96 GLN d   1      23.404  22.698  -0.829  0.00  0.00     0.159 HD
ATOM    100  H97 GLN d   1      22.397  21.785  -1.902  0.00  0.00     0.159 HD
ENDBRANCH  93  96
ENDBRANCH  90  93
ENDBRANCH  60  90
ENDBRANCH  58  60
ENDBRANCH  54  56
BRANCH  54 101
ATOM    101  CB  LEU d   1      21.107  15.171   0.634  0.00  0.00    -0.035 C 
ATOM    102  H81 LEU d   1      20.270  15.859   0.446  0.00  0.00     0.037 H 
ATOM    103  H82 LEU d   1      21.831  15.650   1.310  0.00  0.00     0.037 H 
BRANCH 101 104
ATOM    104  CG  LEU d   1      20.572  13.908   1.295  0.00  0.00    -0.059 C 
ATOM    105  H83 LEU d   1      21.334  13.120   1.206  0.00  0.00     0.038 H 
BRANCH 104 106
ATOM    106  CD1 LEU d   1      20.292  14.159   2.754  0.00  0.00    -0.073 C 
ATOM    107  H84 LEU d   1      19.907  13.239   3.217  0.00  0.00     0.028 H 
ATOM    108  H85 LEU d   1      19.544  14.959   2.851  0.00  0.00     0.028 H 
ATOM    109  H86 LEU d   1      21.221  14.462   3.259  0.00  0.00     0.028 H 
ENDBRANCH 104 106
BRANCH 104 110
ATOM    110  CD2 LEU d   1      19.303  13.430   0.639  0.00  0.00    -0.073 C 
ATOM    111  H87 LEU d   1      19.491  13.242  -0.428  0.00  0.00     0.028 H 
ATOM    112  H88 LEU d   1      18.524  14.199   0.744  0.00  0.00     0.028 H 
ATOM    113  H89 LEU d   1      18.968  12.500   1.122  0.00  0.00     0.028 H 
ENDBRANCH 104 110
ENDBRANCH 101 104
ENDBRANCH  54 101
ENDBRANCH  52  54
ENDBRANCH  33  50
BRANCH  35 114
ATOM    114  CD2 66D d   1      24.329  11.288  -1.534  0.00  0.00    -0.073 C 
ATOM    115  H69 66D d   1      24.286  10.352  -2.111  0.00  0.00     0.028 H 
ATOM    116  H70 66D d   1      23.925  12.112  -2.141  0.00  0.00     0.028 H 
ATOM    117  H71 66D d   1      23.732  11.181  -0.617  0.00  0.00     0.028 H 
ENDBRANCH  35 114
BRANCH  27 118
ATOM    118  CB  ARG d   1      27.839  17.400   0.449  0.00  0.00    -0.036 C 
ATOM    119  H54 ARG d   1      28.265  16.461   0.833  0.00  0.00     0.036 H 
ATOM    120  H55 ARG d   1      28.177  18.239   1.075  0.00  0.00     0.036 H 
BRANCH 118 121
ATOM    121  CG  ARG d   1      28.347  17.617  -0.958  0.00  0.00    -0.048 C 
ATOM    122  H56 ARG d   1      27.740  17.024  -1.658  0.00  0.00     0.035 H 
ATOM    123  H57 ARG d   1      29.397  17.293  -1.018  0.00  0.00     0.035 H 
BRANCH 121 124
ATOM    124  CD  ARG d   1      28.255  19.069  -1.330  0.00  0.00     0.009 C 
ATOM    125  H58 ARG d   1      29.105  19.617  -0.897  0.00  0.00     0.064 H 
ATOM    126  H59 ARG d   1      27.314  19.491  -0.948  0.00  0.00     0.064 H 
BRANCH 124 127
ATOM    127  NE  ARG d   1      28.288  19.180  -2.779  0.00  0.00    -0.227 N 
ATOM    128  CZ  ARG d   1      29.358  19.476  -3.480  0.00  0.00     0.665 C 
ATOM    129  NH1 ARG d   1      29.274  19.518  -4.790  0.00  0.00    -0.235 N 
ATOM    130  NH2 ARG d   1      30.520  19.730  -2.896  0.00  0.00    -0.235 N 
ATOM    131  H61 ARG d   1      30.106  19.749  -5.352  0.00  0.00     0.174 HD
ATOM    132  H62 ARG d   1      28.377  19.320  -5.255  0.00  0.00     0.174 HD
ATOM    133  H63 ARG d   1      30.598  19.700  -1.869  0.00  0.00     0.174 HD
ATOM    134  H64 ARG d   1      31.345  19.957  -3.469  0.00  0.00     0.174 HD
ATOM    135  H60 ARG d   1      27.410  19.015  -3.292  0.00  0.00     0.177 HD
ENDBRANCH 124 127
ENDBRANCH 121 124
ENDBRANCH 118 121
ENDBRANCH  27 118
BRANCH   2 136
ATOM    136  CB  HIS d   1      24.922  17.682   4.847  0.00  0.00     0.002 C 
ATOM    137  H47 HIS d   1      26.014  17.785   4.763  0.00  0.00     0.046 H 
ATOM    138  H48 HIS d   1      24.668  17.273   5.836  0.00  0.00     0.046 H 
BRANCH 136 139
ATOM    139  CG  HIS d   1      24.287  19.047   4.702  0.00  0.00     0.030 A 
ATOM    140  ND1 HIS d   1      24.732  20.031   3.968  0.00  0.00    -0.353 N 
ATOM    141  CE1 HIS d   1      23.891  21.008   4.103  0.00  0.00     0.063 A 
ATOM    142  H49 HIS d   1      25.586  20.031   3.393  0.00  0.00     0.166 HD
ATOM    143  NE2 HIS d   1      22.953  20.641   4.911  0.00  0.00    -0.254 NA
ATOM    144  H51 HIS d   1      23.964  21.979   3.615  0.00  0.00     0.143 H 
ATOM    145  CD2 HIS d   1      23.191  19.425   5.272  0.00  0.00     0.025 A 
ATOM    146  H50 HIS d   1      22.576  18.823   5.940  0.00  0.00     0.117 H 
ENDBRANCH 136 139
ENDBRANCH   2 136
BRANCH  21 147
ATOM    147  CB  LEU d   1      24.561  12.488   4.750  0.00  0.00    -0.035 C 
ATOM    148  H36 LEU d   1      23.918  13.291   5.140  0.00  0.00     0.037 H 
ATOM    149  H37 LEU d   1      25.260  12.164   5.535  0.00  0.00     0.037 H 
BRANCH 147 150
ATOM    150  CG  LEU d   1      23.697  11.329   4.377  0.00  0.00    -0.059 C 
ATOM    151  H38 LEU d   1      24.354  10.450   4.297  0.00  0.00     0.038 H 
BRANCH 150 152
ATOM    152  CD1 LEU d   1      22.707  11.061   5.500  0.00  0.00    -0.073 C 
ATOM    153  H39 LEU d   1      22.068  10.207   5.229  0.00  0.00     0.028 H 
ATOM    154  H40 LEU d   1      22.081  11.952   5.658  0.00  0.00     0.028 H 
ATOM    155  H41 LEU d   1      23.256  10.830   6.425  0.00  0.00     0.028 H 
ENDBRANCH 150 152
BRANCH 150 156
ATOM    156  CD2 LEU d   1      23.012  11.470   3.056  0.00  0.00    -0.073 C 
ATOM    157  H42 LEU d   1      23.761  11.662   2.273  0.00  0.00     0.028 H 
ATOM    158  H43 LEU d   1      22.302  12.309   3.099  0.00  0.00     0.028 H 
ATOM    159  H44 LEU d   1      22.469  10.542   2.824  0.00  0.00     0.028 H 
ENDBRANCH 150 156
ENDBRANCH 147 150
ENDBRANCH  21 147
BRANCH   9 160
ATOM    160  N   MK8 d   1      29.026  14.264   5.195  0.00  0.00    -0.342 N 
ATOM    161  C   LYS d   1      28.341  15.290   5.626  0.00  0.00     0.241 C 
ATOM    162  O   LYS d   1      27.688  16.020   4.919  0.00  0.00    -0.271 OA
ATOM    163  H24 MK8 d   1      29.564  13.741   5.856  0.00  0.00     0.163 HD
BRANCH 161 164
ATOM    164  CA  LYS d   1      28.426  15.517   7.116  0.00  0.00     0.089 C 
ATOM    165  H12 LYS d   1      29.316  15.031   7.544  0.00  0.00     0.087 H 
BRANCH 164 166
ATOM    166  N   LYS d   1      28.418  16.930   7.332  0.00  0.00    -0.346 N 
ATOM    167  C   HIS d   1      29.502  17.678   7.269  0.00  0.00     0.241 C 
ATOM    168  O   HIS d   1      30.619  17.227   7.114  0.00  0.00    -0.271 OA
ATOM    169  H11 LYS d   1      27.547  17.373   7.541  0.00  0.00     0.163 HD
BRANCH 167 170
ATOM    170  CA  HIS d   1      29.269  19.177   7.458  0.00  0.00     0.094 C 
ATOM    171  H5  HIS d   1      28.814  19.356   8.443  0.00  0.00     0.088 H 
BRANCH 170 172
ATOM    172  N   HIS d   1      30.541  19.868   7.385  0.00  0.00    -0.348 N 
ATOM    173  C   ACE d   1      31.500  19.527   8.232  0.00  0.00     0.214 C 
ATOM    174  O   ACE d   1      31.356  18.678   9.103  0.00  0.00    -0.274 OA
ATOM    175  H4  HIS d   1      30.692  20.588   6.708  0.00  0.00     0.163 HD
BRANCH 173 176
ATOM    176  CH3 ACE d   1      32.830  20.265   8.046  0.00  0.00    -0.003 C 
ATOM    177  H1  ACE d   1      32.740  20.979   7.214  0.00  0.00     0.040 H 
ATOM    178  H2  ACE d   1      33.624  19.538   7.821  0.00  0.00     0.040 H 
ATOM    179  H3  ACE d   1      33.080  20.808   8.969  0.00  0.00     0.040 H 
ENDBRANCH 173 176
ENDBRANCH 170 172
BRANCH 170 180
ATOM    180  CB  HIS d   1      28.326  19.686   6.367  0.00  0.00     0.002 C 
ATOM    181  H6  HIS d   1      27.946  18.849   5.763  0.00  0.00     0.046 H 
ATOM    182  H7  HIS d   1      28.842  20.405   5.714  0.00  0.00     0.046 H 
BRANCH 180 183
ATOM    183  CG  HIS d   1      27.196  20.360   7.113  0.00  0.00     0.030 A 
ATOM    184  ND1 HIS d   1      26.897  21.629   7.040  0.00  0.00    -0.353 N 
ATOM    185  CE1 HIS d   1      25.880  21.823   7.866  0.00  0.00     0.063 A 
ATOM    186  H8  HIS d   1      27.361  22.339   6.455  0.00  0.00     0.166 HD
ATOM    187  NE2 HIS d   1      25.579  20.684   8.453  0.00  0.00    -0.254 NA
ATOM    188  H10 HIS d   1      25.374  22.773   8.033  0.00  0.00     0.143 H 
ATOM    189  CD2 HIS d   1      26.411  19.756   7.989  0.00  0.00     0.025 A 
ATOM    190  H9  HIS d   1      26.440  18.705   8.274  0.00  0.00     0.117 H 
ENDBRANCH 180 183
ENDBRANCH 170 180
ENDBRANCH 167 170
ENDBRANCH 164 166
BRANCH 164 191
ATOM    191  CB  LYS d   1      27.190  15.058   7.755  0.00  0.00    -0.038 C 
ATOM    192  H13 LYS d   1      26.970  14.024   7.450  0.00  0.00     0.036 H 
ATOM    193  H14 LYS d   1      26.353  15.711   7.468  0.00  0.00     0.036 H 
BRANCH 191 194
ATOM    194  CG  LYS d   1      27.406  15.121   9.241  0.00  0.00    -0.061 C 
ATOM    195  H15 LYS d   1      27.170  16.135   9.597  0.00  0.00     0.033 H 
ATOM    196  H16 LYS d   1      28.459  14.891   9.462  0.00  0.00     0.033 H 
BRANCH 194 197
ATOM    197  CD  LYS d   1      26.522  14.128   9.954  0.00  0.00    -0.043 C 
ATOM    198  H17 LYS d   1      27.068  13.689  10.802  0.00  0.00     0.035 H 
ATOM    199  H18 LYS d   1      26.225  13.331   9.257  0.00  0.00     0.035 H 
BRANCH 197 200
ATOM    200  CE  LYS d   1      25.288  14.846  10.461  0.00  0.00     0.080 C 
ATOM    201  H19 LYS d   1      24.545  14.883   9.650  0.00  0.00     0.075 H 
ATOM    202  H20 LYS d   1      25.570  15.870  10.747  0.00  0.00     0.075 H 
BRANCH 200 203
ATOM    203  NZ  LYS d   1      24.682  14.188  11.620  0.00  0.00    -0.079 N 
ATOM    204  H21 LYS d   1      23.869  14.706  11.914  0.00  0.00     0.274 HD
ATOM    205  H22 LYS d   1      25.349  14.155  12.375  0.00  0.00     0.274 HD
ATOM    206  H23 LYS d   1      24.410  13.250  11.370  0.00  0.00     0.274 HD
ENDBRANCH 200 203
ENDBRANCH 197 200
ENDBRANCH 194 197
ENDBRANCH 191 194
ENDBRANCH 164 191
ENDBRANCH 161 164
ENDBRANCH   9 160
BRANCH   9 207
ATOM    207  CB1 MK8 d   1      29.911  14.835   3.075  0.00  0.00    -0.044 C 
ATOM    208  H31 MK8 d   1      29.961  14.564   2.010  0.00  0.00     0.031 H 
ATOM    209  H32 MK8 d   1      30.924  14.822   3.504  0.00  0.00     0.031 H 
ATOM    210  H33 MK8 d   1      29.482  15.843   3.177  0.00  0.00     0.031 H 
ENDBRANCH   9 207
TORSDOF 46
