REMARK WARNING: 32 MAX_TORS EXCEEDED!!!
REMARK  45 active torsions:
REMARK  status: ('A' for Active; 'I' for Inactive)
REMARK    1  A    between atoms: C_1  and  CH3_3 
REMARK       I    between atoms: N_4  and  C_1 
REMARK    2  A    between atoms: CA_5  and  N_4 
REMARK    3  A    between atoms: C_6  and  CA_5 
REMARK    4  A    between atoms: CA_5  and  CB_8 
REMARK       I    between atoms: N_14  and  C_6 
REMARK    5  A    between atoms: CB_8  and  CG_9 
REMARK    6  A    between atoms: CA_15  and  N_14 
REMARK    7  A    between atoms: C_16  and  CA_15 
REMARK    8  A    between atoms: CA_15  and  CB_18 
REMARK       I    between atoms: N_24  and  C_16 
REMARK    9  A    between atoms: CB_18  and  CG_19 
REMARK   10  A    between atoms: CG_19  and  CD_20 
REMARK   11  A    between atoms: CD_20  and  CE_21 
REMARK   12  A    between atoms: CE_21  and  NZ_22 
REMARK   13  A    between atoms: CA_26  and  N_24 
REMARK   14  A    between atoms: CA_26  and  CB1_31 
REMARK   15  A    between atoms: CA_33  and  CB_36 
REMARK   16  A    between atoms: CB_36  and  CG_37 
REMARK   17  A    between atoms: CG_37  and  CD1_38 
REMARK   18  A    between atoms: CG_37  and  CD2_39 
REMARK   19  A    between atoms: CA_41  and  CB_44 
REMARK   20  A    between atoms: CB_44  and  CG_45 
REMARK   21  A    between atoms: CA_51  and  CB_54 
REMARK   22  A    between atoms: CB_54  and  CG_55 
REMARK   23  A    between atoms: CG_55  and  CD_56 
REMARK   24  A    between atoms: CD_56  and  NE_57 
REMARK       I    between atoms: NE_57  and  CZ_58 
REMARK       I    between atoms: CZ_58  and  NH1_59 
REMARK   25  A    between atoms: CA_64  and  C_61 
REMARK       I    between atoms: C_61  and  N_70 
REMARK   26  A    between atoms: CA_64  and  CB1_69 
REMARK   27  A    between atoms: N_70  and  CA_71 
REMARK   28  A    between atoms: CA_71  and  C_72 
REMARK   29  A    between atoms: CA_71  and  CB_74 
REMARK       I    between atoms: C_72  and  N_78 
REMARK   30  A    between atoms: CB_74  and  CG_75 
REMARK   31  A    between atoms: CG_75  and  CD1_76 
REMARK   32  A    between atoms: CG_75  and  CD2_77 
REMARK   33  A    between atoms: N_78  and  CA_79 
REMARK   34  A    between atoms: CA_79  and  C_80 
REMARK   35  A    between atoms: CA_79  and  CB_82 
REMARK       I    between atoms: C_80  and  N_87 
REMARK   36  A    between atoms: CB_82  and  CG_83 
REMARK   37  A    between atoms: CG_83  and  CD_84 
REMARK       I    between atoms: CD_84  and  NE2_86 
REMARK   38  A    between atoms: N_87  and  CA_88 
REMARK   39  A    between atoms: CA_88  and  C_89 
REMARK   40  A    between atoms: CA_88  and  CB_91 
REMARK       I    between atoms: C_89  and  N_95 
REMARK   41  A    between atoms: CB_91  and  CG_92 
REMARK   42  A    between atoms: N_95  and  CA_96 
REMARK   43  A    between atoms: CA_96  and  C_97 
REMARK   44  A    between atoms: CA_96  and  CB_99 
REMARK       I    between atoms: C_97  and  N_101 
REMARK   45  A    between atoms: CB_99  and  OG_100 
ROOT
ATOM      1  N   HIS d   1      24.710  19.062   4.066  0.00  0.00    -0.346 N 
ATOM      2  CA  HIS d   1      24.082  20.352   3.736  0.00  0.00     0.094 C 
ATOM      3  C   HIS d   1      24.394  20.790   2.425  0.00  0.00     0.241 C 
ATOM      4  O   HIS d   1      23.578  21.328   1.759  0.00  0.00    -0.271 OA
ATOM      5  H46 HIS d   1      25.327  19.008   4.851  0.00  0.00     0.163 HD
ATOM      6  H47 HIS d   1      22.990  20.230   3.779  0.00  0.00     0.088 H 
ATOM      7  C   MK8 d   1      27.496  17.553   3.378  0.00  0.00     0.246 C 
ATOM      8  O   MK8 d   1      27.206  17.919   2.278  0.00  0.00    -0.271 OA
ATOM      9  CA  MK8 d   1      28.788  17.716   3.930  0.00  0.00     0.110 C 
ATOM     10  CB  MK8 d   1      29.576  16.396   3.994  0.00  0.00    -0.033 C 
ATOM     11  CD  MK8 d   1      28.691  14.558   2.417  0.00  0.00    -0.050 C 
ATOM     12  CE  MK8 d   1      28.817  13.874   1.224  0.00  0.00    -0.107 C 
ATOM     13  CG  MK8 d   1      29.723  15.656   2.641  0.00  0.00    -0.059 C 
ATOM     14  N   MK8 d   1      25.514  18.671  -0.134  0.00  0.00    -0.342 N 
ATOM     15  CA  MK8 d   1      25.149  17.675  -1.028  0.00  0.00     0.110 C 
ATOM     16  CB  MK8 d   1      25.109  16.296  -0.535  0.00  0.00    -0.033 C 
ATOM     17  CD  MK8 d   1      26.582  14.332   0.217  0.00  0.00    -0.050 C 
ATOM     18  CE  MK8 d   1      27.879  13.758   0.246  0.00  0.00    -0.107 C 
ATOM     19  CG  MK8 d   1      26.559  15.721  -0.418  0.00  0.00    -0.059 C 
ATOM     20  H25 MK8 d   1      29.061  15.724   4.696  0.00  0.00     0.037 H 
ATOM     21  H26 MK8 d   1      30.584  16.618   4.373  0.00  0.00     0.037 H 
ATOM     22  H27 MK8 d   1      28.782  13.832   3.238  0.00  0.00     0.038 H 
ATOM     23  H28 MK8 d   1      27.692  15.018   2.443  0.00  0.00     0.038 H 
ATOM     24  H29 MK8 d   1      29.768  13.374   1.048  0.00  0.00     0.076 H 
ATOM     25  H30 MK8 d   1      30.724  15.202   2.603  0.00  0.00     0.033 H 
ATOM     26  H31 MK8 d   1      29.624  16.394   1.831  0.00  0.00     0.033 H 
ATOM     27  H66 MK8 d   1      25.844  18.393   0.768  0.00  0.00     0.163 HD
ATOM     28  H67 MK8 d   1      24.528  15.677  -1.234  0.00  0.00     0.037 H 
ATOM     29  H68 MK8 d   1      24.630  16.278   0.455  0.00  0.00     0.037 H 
ATOM     30  H69 MK8 d   1      26.211  14.412   1.249  0.00  0.00     0.038 H 
ATOM     31  H70 MK8 d   1      25.919  13.671  -0.361  0.00  0.00     0.038 H 
ATOM     32  H71 MK8 d   1      28.156  13.153  -0.616  0.00  0.00     0.076 H 
ATOM     33  H72 MK8 d   1      27.161  16.403   0.201  0.00  0.00     0.033 H 
ATOM     34  H73 MK8 d   1      26.997  15.657  -1.425  0.00  0.00     0.033 H 
ATOM     35  N   LEU d   1      26.531  16.994   4.158  0.00  0.00    -0.346 N 
ATOM     36  CA  LEU d   1      25.168  16.760   3.688  0.00  0.00     0.089 C 
ATOM     37  C   LEU d   1      24.472  17.940   3.330  0.00  0.00     0.241 C 
ATOM     38  O   LEU d   1      23.678  17.969   2.454  0.00  0.00    -0.271 OA
ATOM     39  H35 LEU d   1      26.765  16.732   5.094  0.00  0.00     0.163 HD
ATOM     40  H36 LEU d   1      25.231  16.142   2.780  0.00  0.00     0.087 H 
ATOM     41  N   ARG d   1      25.633  20.515   1.898  0.00  0.00    -0.346 N 
ATOM     42  CA  ARG d   1      25.937  20.884   0.515  0.00  0.00     0.089 C 
ATOM     43  C   ARG d   1      25.451  19.992  -0.406  0.00  0.00     0.241 C 
ATOM     44  O   ARG d   1      24.889  20.362  -1.387  0.00  0.00    -0.271 OA
ATOM     45  H53 ARG d   1      26.326  20.063   2.459  0.00  0.00     0.163 HD
ATOM     46  H54 ARG d   1      25.527  21.883   0.303  0.00  0.00     0.087 H 
ENDROOT
BRANCH  15  47
ATOM     47  C   MK8 d   1      23.656  17.862  -1.316  0.00  0.00     0.246 C 
ATOM     48  O   MK8 d   1      23.115  17.573  -2.348  0.00  0.00    -0.271 OA
ATOM     49  N   LEU d   1      22.863  18.309  -0.348  0.00  0.00    -0.346 N 
ATOM     50  H77 LEU d   1      23.281  18.538   0.531  0.00  0.00     0.163 HD
BRANCH  49  51
ATOM     51  CA  LEU d   1      21.390  18.491  -0.489  0.00  0.00     0.089 C 
ATOM     52  H78 LEU d   1      20.985  17.534  -0.848  0.00  0.00     0.087 H 
BRANCH  51  53
ATOM     53  C   LEU d   1      21.001  19.568  -1.508  0.00  0.00     0.241 C 
ATOM     54  O   LEU d   1      19.906  19.607  -1.941  0.00  0.00    -0.271 OA
ATOM     55  N   GLN d   1      21.948  20.418  -1.832  0.00  0.00    -0.346 N 
ATOM     56  H88 GLN d   1      22.863  20.302  -1.446  0.00  0.00     0.163 HD
BRANCH  55  57
ATOM     57  CA  GLN d   1      21.692  21.536  -2.750  0.00  0.00     0.090 C 
ATOM     58  H89 GLN d   1      20.623  21.788  -2.693  0.00  0.00     0.087 H 
BRANCH  57  59
ATOM     59  C   GLN d   1      22.029  21.240  -4.217  0.00  0.00     0.241 C 
ATOM     60  O   GLN d   1      21.696  22.022  -5.053  0.00  0.00    -0.271 OA
ATOM     61  N   ASP d   1      22.633  20.125  -4.493  0.00  0.00    -0.346 N 
ATOM     62  H96 ASP d   1      22.859  19.507  -3.740  0.00  0.00     0.163 HD
BRANCH  61  63
ATOM     63  CA  ASP d   1      23.003  19.726  -5.866  0.00  0.00     0.098 C 
ATOM     64  H97 ASP d   1      23.451  20.565  -6.419  0.00  0.00     0.088 H 
BRANCH  63  65
ATOM     65  C   ASP d   1      21.738  19.245  -6.503  0.00  0.00     0.241 C 
ATOM     66  O   ASP d   1      21.105  18.339  -6.053  0.00  0.00    -0.271 OA
ATOM     67  N   SER d   1      21.364  19.947  -7.502  0.00  0.00    -0.344 N 
ATOM     68 0H10 SER d   1      21.954  20.697  -7.801  0.00  0.00     0.163 HD
BRANCH  67  69
ATOM     69  CA  SER d   1      20.139  19.716  -8.220  0.00  0.00     0.109 C 
ATOM     70 1H10 SER d   1      19.491  19.033  -7.651  0.00  0.00     0.090 H 
BRANCH  69  71
ATOM     71  C   SER d   1      20.471  19.054  -9.559  0.00  0.00     0.240 C 
ATOM     72  O   SER d   1      21.191  18.060  -9.651  0.00  0.00    -0.271 OA
ATOM     73  N   NH2 d   1      19.996  19.696 -10.586  0.00  0.00    -0.368 N 
ATOM     74 5H10 NH2 d   1      20.155  19.349 -11.510  0.00  0.00     0.159 HD
ATOM     75 6H10 NH2 d   1      19.471  20.537 -10.451  0.00  0.00     0.159 HD
ENDBRANCH  69  71
BRANCH  69  76
ATOM     76  CB  SER d   1      19.431  21.112  -8.323  0.00  0.00     0.044 C 
ATOM     77 2H10 SER d   1      19.311  21.497  -7.299  0.00  0.00     0.077 H 
ATOM     78 3H10 SER d   1      18.440  20.946  -8.771  0.00  0.00     0.077 H 
BRANCH  76  79
ATOM     79  OG  SER d   1      20.087  22.139  -9.096  0.00  0.00    -0.398 OA
ATOM     80 4H10 SER d   1      19.561  22.930  -9.081  0.00  0.00     0.209 HD
ENDBRANCH  76  79
ENDBRANCH  69  76
ENDBRANCH  67  69
ENDBRANCH  63  65
BRANCH  63  81
ATOM     81  CB  ASP d   1      23.935  18.539  -5.826  0.00  0.00     0.043 C 
ATOM     82  H98 ASP d   1      23.652  17.857  -6.642  0.00  0.00     0.052 H 
ATOM     83  H99 ASP d   1      23.798  18.032  -4.860  0.00  0.00     0.052 H 
BRANCH  81  84
ATOM     84  CG  ASP d   1      25.406  18.865  -5.978  0.00  0.00     0.175 C 
ATOM     85  OD1 ASP d   1      25.809  19.938  -5.563  0.00  0.00    -0.648 OA
ATOM     86  OD2 ASP d   1      26.135  17.977  -6.450  0.00  0.00    -0.648 OA
ENDBRANCH  81  84
ENDBRANCH  63  81
ENDBRANCH  61  63
ENDBRANCH  57  59
BRANCH  57  87
ATOM     87  CB  GLN d   1      22.517  22.736  -2.276  0.00  0.00    -0.030 C 
ATOM     88  H90 GLN d   1      22.471  23.527  -3.039  0.00  0.00     0.037 H 
ATOM     89  H91 GLN d   1      23.562  22.421  -2.137  0.00  0.00     0.037 H 
BRANCH  87  90
ATOM     90  CG  GLN d   1      21.981  23.284  -0.956  0.00  0.00     0.011 C 
ATOM     91  H92 GLN d   1      21.929  22.473  -0.214  0.00  0.00     0.047 H 
ATOM     92  H93 GLN d   1      20.976  23.703  -1.112  0.00  0.00     0.047 H 
BRANCH  90  93
ATOM     93  CD  GLN d   1      22.922  24.384  -0.449  0.00  0.00     0.215 C 
ATOM     94  OE1 GLN d   1      22.885  25.461  -0.938  0.00  0.00    -0.274 OA
ATOM     95  NE2 GLN d   1      23.749  24.081   0.509  0.00  0.00    -0.370 N 
ATOM     96  H94 GLN d   1      24.377  24.773   0.865  0.00  0.00     0.159 HD
ATOM     97  H95 GLN d   1      23.756  23.156   0.889  0.00  0.00     0.159 HD
ENDBRANCH  90  93
ENDBRANCH  87  90
ENDBRANCH  57  87
ENDBRANCH  55  57
ENDBRANCH  51  53
BRANCH  51  98
ATOM     98  CB  LEU d   1      20.713  18.813   0.842  0.00  0.00    -0.035 C 
ATOM     99  H79 LEU d   1      19.791  19.381   0.648  0.00  0.00     0.037 H 
ATOM    100  H80 LEU d   1      21.396  19.421   1.454  0.00  0.00     0.037 H 
BRANCH  98 101
ATOM    101  CG  LEU d   1      20.361  17.538   1.605  0.00  0.00    -0.059 C 
ATOM    102  H81 LEU d   1      21.166  16.793   1.524  0.00  0.00     0.038 H 
BRANCH 101 103
ATOM    103  CD1 LEU d   1      20.066  17.908   3.051  0.00  0.00    -0.073 C 
ATOM    104  H82 LEU d   1      19.810  17.000   3.617  0.00  0.00     0.028 H 
ATOM    105  H83 LEU d   1      19.221  18.611   3.084  0.00  0.00     0.028 H 
ATOM    106  H84 LEU d   1      20.954  18.380   3.497  0.00  0.00     0.028 H 
ENDBRANCH 101 103
BRANCH 101 107
ATOM    107  CD2 LEU d   1      19.067  17.017   1.098  0.00  0.00    -0.073 C 
ATOM    108  H85 LEU d   1      19.179  16.719   0.045  0.00  0.00     0.028 H 
ATOM    109  H86 LEU d   1      18.300  17.801   1.177  0.00  0.00     0.028 H 
ATOM    110  H87 LEU d   1      18.763  16.145   1.696  0.00  0.00     0.028 H 
ENDBRANCH 101 107
ENDBRANCH  98 101
ENDBRANCH  51  98
ENDBRANCH  49  51
ENDBRANCH  15  47
BRANCH  15 111
ATOM    111  CB1 MK8 d   1      25.776  17.874  -2.342  0.00  0.00    -0.044 C 
ATOM    112  H74 MK8 d   1      25.465  17.068  -3.023  0.00  0.00     0.031 H 
ATOM    113  H75 MK8 d   1      26.870  17.859  -2.232  0.00  0.00     0.031 H 
ATOM    114  H76 MK8 d   1      25.462  18.844  -2.755  0.00  0.00     0.031 H 
ENDBRANCH  15 111
BRANCH  42 115
ATOM    115  CB  ARG d   1      27.464  20.890   0.395  0.00  0.00    -0.036 C 
ATOM    116  H55 ARG d   1      27.839  19.908   0.718  0.00  0.00     0.036 H 
ATOM    117  H56 ARG d   1      27.859  21.671   1.062  0.00  0.00     0.036 H 
BRANCH 115 118
ATOM    118  CG  ARG d   1      27.982  21.158  -1.011  0.00  0.00    -0.048 C 
ATOM    119  H57 ARG d   1      27.422  20.533  -1.722  0.00  0.00     0.035 H 
ATOM    120  H58 ARG d   1      29.049  20.895  -1.053  0.00  0.00     0.035 H 
BRANCH 118 121
ATOM    121  CD  ARG d   1      27.819  22.618  -1.405  0.00  0.00     0.009 C 
ATOM    122  H59 ARG d   1      28.537  23.237  -0.847  0.00  0.00     0.064 H 
ATOM    123  H60 ARG d   1      26.795  22.952  -1.181  0.00  0.00     0.064 H 
BRANCH 121 124
ATOM    124  NE  ARG d   1      28.073  22.734  -2.828  0.00  0.00    -0.227 N 
ATOM    125  CZ  ARG d   1      29.259  23.067  -3.314  0.00  0.00     0.665 C 
ATOM    126  NH1 ARG d   1      30.297  23.243  -2.542  0.00  0.00    -0.235 N 
ATOM    127  NH2 ARG d   1      29.417  23.141  -4.618  0.00  0.00    -0.235 N 
ATOM    128  H62 ARG d   1      31.206  23.502  -2.952  0.00  0.00     0.174 HD
ATOM    129  H63 ARG d   1      30.207  23.123  -1.523  0.00  0.00     0.174 HD
ATOM    130  H64 ARG d   1      28.610  23.005  -5.243  0.00  0.00     0.174 HD
ATOM    131  H65 ARG d   1      30.348  23.335  -5.014  0.00  0.00     0.174 HD
ATOM    132  H61 ARG d   1      27.302  22.550  -3.486  0.00  0.00     0.177 HD
ENDBRANCH 121 124
ENDBRANCH 118 121
ENDBRANCH 115 118
ENDBRANCH  42 115
BRANCH   2 133
ATOM    133  CB  HIS d   1      24.501  21.330   4.860  0.00  0.00     0.002 C 
ATOM    134  H48 HIS d   1      25.600  21.364   4.893  0.00  0.00     0.046 H 
ATOM    135  H49 HIS d   1      24.117  20.940   5.814  0.00  0.00     0.046 H 
BRANCH 133 136
ATOM    136  CG  HIS d   1      23.993  22.736   4.689  0.00  0.00     0.030 A 
ATOM    137  ND1 HIS d   1      22.942  23.257   5.214  0.00  0.00    -0.353 N 
ATOM    138  CE1 HIS d   1      22.848  24.507   4.831  0.00  0.00     0.063 A 
ATOM    139  H50 HIS d   1      22.280  22.771   5.836  0.00  0.00     0.166 HD
ATOM    140  NE2 HIS d   1      23.902  24.720   4.102  0.00  0.00    -0.254 NA
ATOM    141  H52 HIS d   1      22.056  25.215   5.072  0.00  0.00     0.143 H 
ATOM    142  CD2 HIS d   1      24.620  23.648   4.026  0.00  0.00     0.025 A 
ATOM    143  H51 HIS d   1      25.569  23.536   3.504  0.00  0.00     0.117 H 
ENDBRANCH 133 136
ENDBRANCH   2 133
BRANCH  36 144
ATOM    144  CB  LEU d   1      24.429  15.943   4.765  0.00  0.00    -0.035 C 
ATOM    145  H37 LEU d   1      24.420  16.539   5.690  0.00  0.00     0.037 H 
ATOM    146  H38 LEU d   1      24.998  15.016   4.931  0.00  0.00     0.037 H 
BRANCH 144 147
ATOM    147  CG  LEU d   1      23.015  15.560   4.456  0.00  0.00    -0.059 C 
ATOM    148  H39 LEU d   1      22.399  16.464   4.342  0.00  0.00     0.038 H 
BRANCH 147 149
ATOM    149  CD1 LEU d   1      22.964  14.728   3.193  0.00  0.00    -0.073 C 
ATOM    150  H40 LEU d   1      21.921  14.453   2.977  0.00  0.00     0.028 H 
ATOM    151  H41 LEU d   1      23.563  13.816   3.331  0.00  0.00     0.028 H 
ATOM    152  H42 LEU d   1      23.371  15.310   2.353  0.00  0.00     0.028 H 
ENDBRANCH 147 149
BRANCH 147 153
ATOM    153  CD2 LEU d   1      22.481  14.688   5.590  0.00  0.00    -0.073 C 
ATOM    154  H43 LEU d   1      22.501  15.257   6.531  0.00  0.00     0.028 H 
ATOM    155  H44 LEU d   1      23.110  13.791   5.691  0.00  0.00     0.028 H 
ATOM    156  H45 LEU d   1      21.447  14.387   5.365  0.00  0.00     0.028 H 
ENDBRANCH 147 153
ENDBRANCH 144 147
ENDBRANCH  36 144
BRANCH   9 157
ATOM    157  N   MK8 d   1      28.716  18.151   5.300  0.00  0.00    -0.342 N 
ATOM    158  C   LYS d   1      28.066  19.234   5.651  0.00  0.00     0.241 C 
ATOM    159  O   LYS d   1      27.437  19.915   4.889  0.00  0.00    -0.271 OA
ATOM    160  H24 MK8 d   1      29.175  17.611   6.005  0.00  0.00     0.163 HD
BRANCH 158 161
ATOM    161  CA  LYS d   1      28.065  19.489   7.153  0.00  0.00     0.089 C 
ATOM    162  H12 LYS d   1      28.972  19.080   7.622  0.00  0.00     0.087 H 
BRANCH 161 163
ATOM    163  N   LYS d   1      27.948  20.915   7.367  0.00  0.00    -0.346 N 
ATOM    164  C   HIS d   1      28.842  21.762   6.924  0.00  0.00     0.241 C 
ATOM    165  O   HIS d   1      29.882  21.416   6.399  0.00  0.00    -0.271 OA
ATOM    166  H11 LYS d   1      27.158  21.265   7.870  0.00  0.00     0.163 HD
BRANCH 164 167
ATOM    167  CA  HIS d   1      28.494  23.240   7.245  0.00  0.00     0.094 C 
ATOM    168  H5  HIS d   1      28.045  23.239   8.249  0.00  0.00     0.088 H 
BRANCH 167 169
ATOM    169  N   HIS d   1      29.656  24.131   7.292  0.00  0.00    -0.348 N 
ATOM    170  C   ACE d   1      30.448  24.241   8.335  0.00  0.00     0.214 C 
ATOM    171  O   ACE d   1      31.376  25.034   8.361  0.00  0.00    -0.274 OA
ATOM    172  H4  HIS d   1      29.858  24.686   6.485  0.00  0.00     0.163 HD
BRANCH 170 173
ATOM    173  CH3 ACE d   1      30.280  23.224   9.471  0.00  0.00    -0.003 C 
ATOM    174  H1  ACE d   1      29.396  22.599   9.276  0.00  0.00     0.040 H 
ATOM    175  H2  ACE d   1      30.149  23.757  10.424  0.00  0.00     0.040 H 
ATOM    176  H3  ACE d   1      31.174  22.586   9.528  0.00  0.00     0.040 H 
ENDBRANCH 170 173
ENDBRANCH 167 169
BRANCH 167 177
ATOM    177  CB  HIS d   1      27.465  23.838   6.288  0.00  0.00     0.002 C 
ATOM    178  H6  HIS d   1      26.657  23.110   6.125  0.00  0.00     0.046 H 
ATOM    179  H7  HIS d   1      27.953  24.066   5.329  0.00  0.00     0.046 H 
BRANCH 177 180
ATOM    180  CG  HIS d   1      26.877  25.118   6.868  0.00  0.00     0.030 A 
ATOM    181  ND1 HIS d   1      25.957  25.150   7.796  0.00  0.00    -0.353 N 
ATOM    182  CE1 HIS d   1      25.739  26.427   8.035  0.00  0.00     0.063 A 
ATOM    183  H8  HIS d   1      25.498  24.345   8.246  0.00  0.00     0.166 HD
ATOM    184  NE2 HIS d   1      26.512  27.155   7.250  0.00  0.00    -0.254 NA
ATOM    185  H10 HIS d   1      25.033  26.820   8.765  0.00  0.00     0.143 H 
ATOM    186  CD2 HIS d   1      27.212  26.355   6.512  0.00  0.00     0.025 A 
ATOM    187  H9  HIS d   1      27.934  26.639   5.748  0.00  0.00     0.117 H 
ENDBRANCH 177 180
ENDBRANCH 167 177
ENDBRANCH 164 167
ENDBRANCH 161 163
BRANCH 161 188
ATOM    188  CB  LYS d   1      26.820  18.896   7.753  0.00  0.00    -0.038 C 
ATOM    189  H13 LYS d   1      26.718  17.858   7.402  0.00  0.00     0.036 H 
ATOM    190  H14 LYS d   1      25.952  19.483   7.418  0.00  0.00     0.036 H 
BRANCH 188 191
ATOM    191  CG  LYS d   1      26.852  18.897   9.258  0.00  0.00    -0.061 C 
ATOM    192  H15 LYS d   1      27.160  19.891   9.614  0.00  0.00     0.033 H 
ATOM    193  H16 LYS d   1      27.574  18.143   9.606  0.00  0.00     0.033 H 
BRANCH 191 194
ATOM    194  CD  LYS d   1      25.485  18.571   9.813  0.00  0.00    -0.043 C 
ATOM    195  H17 LYS d   1      25.152  17.613   9.387  0.00  0.00     0.035 H 
ATOM    196  H18 LYS d   1      24.787  19.367   9.515  0.00  0.00     0.035 H 
BRANCH 194 197
ATOM    197  CE  LYS d   1      25.473  18.457  11.331  0.00  0.00     0.080 C 
ATOM    198  H19 LYS d   1      25.955  19.350  11.755  0.00  0.00     0.075 H 
ATOM    199  H20 LYS d   1      26.041  17.561  11.622  0.00  0.00     0.075 H 
BRANCH 197 200
ATOM    200  NZ  LYS d   1      24.126  18.352  11.873  0.00  0.00    -0.079 N 
ATOM    201  H21 LYS d   1      24.173  18.279  12.877  0.00  0.00     0.274 HD
ATOM    202  H22 LYS d   1      23.676  17.532  11.497  0.00  0.00     0.274 HD
ATOM    203  H23 LYS d   1      23.597  19.172  11.620  0.00  0.00     0.274 HD
ENDBRANCH 197 200
ENDBRANCH 194 197
ENDBRANCH 191 194
ENDBRANCH 188 191
ENDBRANCH 161 188
ENDBRANCH 158 161
ENDBRANCH   9 157
BRANCH   9 204
ATOM    204  CB1 MK8 d   1      29.606  18.751   3.174  0.00  0.00    -0.044 C 
ATOM    205  H32 MK8 d   1      29.686  18.455   2.118  0.00  0.00     0.031 H 
ATOM    206  H33 MK8 d   1      30.612  18.815   3.614  0.00  0.00     0.031 H 
ATOM    207  H34 MK8 d   1      29.112  19.731   3.244  0.00  0.00     0.031 H 
ENDBRANCH   9 204
TORSDOF 45
