REMARK WARNING: 32 MAX_TORS EXCEEDED!!!
REMARK  60 active torsions:
REMARK  status: ('A' for Active; 'I' for Inactive)
REMARK    1  A    between atoms: N_1  and  CA_2 
REMARK    2  A    between atoms: CA_2  and  C_3 
REMARK    3  A    between atoms: CA_2  and  CB_5 
REMARK       I    between atoms: C_3  and  N_11 
REMARK    4  A    between atoms: CB_5  and  CG_6 
REMARK    5  A    between atoms: N_11  and  CA_12 
REMARK    6  A    between atoms: CA_12  and  C_13 
REMARK    7  A    between atoms: CA_12  and  CB_15 
REMARK       I    between atoms: C_13  and  N_20 
REMARK    8  A    between atoms: CB_15  and  CG_16 
REMARK    9  A    between atoms: CG_16  and  CD_17 
REMARK   10  A    between atoms: CD_17  and  CE_18 
REMARK   11  A    between atoms: CE_18  and  NZ_19 
REMARK   12  A    between atoms: N_20  and  CA_21 
REMARK   13  A    between atoms: CA_21  and  CB1_22 
REMARK   14  A    between atoms: CA_21  and  CB2_23 
REMARK   15  A    between atoms: CA_21  and  C_28 
REMARK   16  A    between atoms: CB2_23  and  CG_24 
REMARK   17  A    between atoms: CG_24  and  CD_25 
REMARK   18  A    between atoms: CD_25  and  CE_26 
REMARK   19  A    between atoms: CE_26  and  CZ_27 
REMARK       I    between atoms: C_28  and  N_30 
REMARK   20  A    between atoms: N_30  and  CA_31 
REMARK   21  A    between atoms: CA_31  and  C_32 
REMARK   22  A    between atoms: CA_31  and  CB_34 
REMARK       I    between atoms: C_32  and  N_38 
REMARK   23  A    between atoms: CB_34  and  CG_35 
REMARK   24  A    between atoms: CG_35  and  CD1_36 
REMARK   25  A    between atoms: CG_35  and  CD2_37 
REMARK   26  A    between atoms: N_38  and  CA_39 
REMARK   27  A    between atoms: CA_39  and  C_40 
REMARK   28  A    between atoms: CA_39  and  CB_42 
REMARK       I    between atoms: C_40  and  N_48 
REMARK   29  A    between atoms: CB_42  and  CG_43 
REMARK   30  A    between atoms: N_48  and  CA_49 
REMARK   31  A    between atoms: CA_49  and  C_50 
REMARK   32  A    between atoms: CA_49  and  CB_52 
REMARK       I    between atoms: C_50  and  N_59 
REMARK   33  A    between atoms: CB_52  and  CG_53 
REMARK   34  A    between atoms: CG_53  and  CD_54 
REMARK   35  A    between atoms: CD_54  and  NE_55 
REMARK       I    between atoms: NE_55  and  CZ_56 
REMARK       I    between atoms: CZ_56  and  NH1_57 
REMARK   36  A    between atoms: N_59  and  CA_60 
REMARK   37  A    between atoms: CA_60  and  CB1_61 
REMARK   38  A    between atoms: CA_60  and  CB2_62 
REMARK   39  A    between atoms: CA_60  and  C_67 
REMARK   40  A    between atoms: CB2_62  and  CG_63 
REMARK   41  A    between atoms: CG_63  and  CD_64 
REMARK   42  A    between atoms: CD_64  and  CE_65 
REMARK   43  A    between atoms: CE_65  and  CZ_66 
REMARK       I    between atoms: C_67  and  N_69 
REMARK   44  A    between atoms: N_69  and  CA_70 
REMARK   45  A    between atoms: CA_70  and  C_71 
REMARK   46  A    between atoms: CA_70  and  CB_73 
REMARK       I    between atoms: C_71  and  N_77 
REMARK   47  A    between atoms: CB_73  and  CG_74 
REMARK   48  A    between atoms: CG_74  and  CD1_75 
REMARK   49  A    between atoms: CG_74  and  CD2_76 
REMARK   50  A    between atoms: N_77  and  CA_78 
REMARK   51  A    between atoms: CA_78  and  C_79 
REMARK   52  A    between atoms: CA_78  and  CB_81 
REMARK       I    between atoms: C_79  and  N_86 
REMARK   53  A    between atoms: CB_81  and  CG_82 
REMARK   54  A    between atoms: CG_82  and  CD_83 
REMARK       I    between atoms: CD_83  and  NE2_85 
REMARK   55  A    between atoms: N_86  and  CA_87 
REMARK   56  A    between atoms: CA_87  and  C_88 
REMARK   57  A    between atoms: CA_87  and  CB_90 
REMARK       I    between atoms: C_88  and  N_94 
REMARK   58  A    between atoms: CB_90  and  CG_91 
REMARK   59  A    between atoms: N_94  and  CA_95 
REMARK   60  A    between atoms: CA_95  and  CB_96 
REMARK       I    between atoms: CB_96  and  N_98 
ROOT
ATOM      1  CA  ARG d   1      26.045  21.445   0.708  0.00  0.00     0.089 C 
ATOM      2  H57 ARG d   1      25.645  22.439   0.459  0.00  0.00     0.087 H 
ENDROOT
BRANCH   1   3
ATOM      3  N   ARG d   1      25.594  21.121   2.058  0.00  0.00    -0.346 N 
ATOM      4  C   HIS d   1      24.351  21.298   2.444  0.00  0.00     0.241 C 
ATOM      5  O   HIS d   1      23.478  21.806   1.775  0.00  0.00    -0.271 OA
ATOM      6  H56 ARG d   1      26.254  20.751   2.712  0.00  0.00     0.163 HD
BRANCH   4   7
ATOM      7  CA  HIS d   1      24.108  20.812   3.905  0.00  0.00     0.094 C 
ATOM      8  H50 HIS d   1      23.025  20.697   4.059  0.00  0.00     0.088 H 
BRANCH   7   9
ATOM      9  N   HIS d   1      24.755  19.514   4.134  0.00  0.00    -0.346 N 
ATOM     10  C   LEU d   1      24.500  18.443   3.389  0.00  0.00     0.241 C 
ATOM     11  O   LEU d   1      23.733  18.424   2.458  0.00  0.00    -0.271 OA
ATOM     12  H49 HIS d   1      25.415  19.432   4.881  0.00  0.00     0.163 HD
BRANCH  10  13
ATOM     13  CA  LEU d   1      25.221  17.147   3.761  0.00  0.00     0.089 C 
ATOM     14  H39 LEU d   1      25.223  16.482   2.885  0.00  0.00     0.087 H 
BRANCH  13  15
ATOM     15  N   LEU d   1      26.598  17.397   4.179  0.00  0.00    -0.346 N 
ATOM     16  C   MH8 d   1      27.464  18.019   3.437  0.00  0.00     0.246 C 
ATOM     17  O   MH8 d   1      27.210  18.407   2.335  0.00  0.00    -0.271 OA
ATOM     18  H38 LEU d   1      26.888  17.074   5.080  0.00  0.00     0.163 HD
BRANCH  16  19
ATOM     19  CA  MH8 d   1      28.877  18.227   4.044  0.00  0.00     0.110 C 
BRANCH  19  20
ATOM     20  N   MH8 d   1      28.776  18.590   5.433  0.00  0.00    -0.342 N 
ATOM     21  C   LYS d   1      28.106  19.662   5.772  0.00  0.00     0.241 C 
ATOM     22  O   LYS d   1      27.518  20.365   4.985  0.00  0.00    -0.271 OA
ATOM     23  H23 MH8 d   1      29.215  18.027   6.134  0.00  0.00     0.163 HD
BRANCH  21  24
ATOM     24  CA  LYS d   1      28.086  19.912   7.288  0.00  0.00     0.089 C 
ATOM     25  H11 LYS d   1      29.009  19.533   7.752  0.00  0.00     0.087 H 
BRANCH  24  26
ATOM     26  N   LYS d   1      27.933  21.328   7.569  0.00  0.00    -0.346 N 
ATOM     27  C   HIS d   1      28.783  22.247   7.138  0.00  0.00     0.249 C 
ATOM     28  O   HIS d   1      29.799  21.937   6.550  0.00  0.00    -0.271 OA
ATOM     29  H10 LYS d   1      27.148  21.623   8.114  0.00  0.00     0.163 HD
BRANCH  27  30
ATOM     30  CA  HIS d   1      28.459  23.713   7.553  0.00  0.00     0.181 C 
ATOM     31  H4  HIS d   1      27.954  23.683   8.530  0.00  0.00     0.099 H 
BRANCH  30  32
ATOM     32  N   HIS d   1      29.694  24.497   7.699  0.00  0.00    -0.066 N 
ATOM     33  H1  HIS d   1      29.463  25.441   7.967  0.00  0.00     0.275 HD
ATOM     34  H2  HIS d   1      30.190  24.509   6.822  0.00  0.00     0.275 HD
ATOM     35  H3  HIS d   1      30.276  24.079   8.408  0.00  0.00     0.275 HD
ENDBRANCH  30  32
BRANCH  30  36
ATOM     36  CB  HIS d   1      27.521  24.393   6.560  0.00  0.00     0.009 C 
ATOM     37  H5  HIS d   1      26.740  23.672   6.275  0.00  0.00     0.046 H 
ATOM     38  H6  HIS d   1      28.105  24.672   5.670  0.00  0.00     0.046 H 
BRANCH  36  39
ATOM     39  CG  HIS d   1      26.839  25.649   7.096  0.00  0.00     0.030 A 
ATOM     40  ND1 HIS d   1      25.982  25.700   8.094  0.00  0.00    -0.353 N 
ATOM     41  CE1 HIS d   1      25.646  26.976   8.244  0.00  0.00     0.063 A 
ATOM     42  H7  HIS d   1      25.639  24.904   8.651  0.00  0.00     0.166 HD
ATOM     43  NE2 HIS d   1      26.277  27.676   7.323  0.00  0.00    -0.254 NA
ATOM     44  H9  HIS d   1      24.967  27.374   8.997  0.00  0.00     0.143 H 
ATOM     45  CD2 HIS d   1      27.021  26.849   6.620  0.00  0.00     0.025 A 
ATOM     46  H8  HIS d   1      27.672  27.119   5.790  0.00  0.00     0.117 H 
ENDBRANCH  36  39
ENDBRANCH  30  36
ENDBRANCH  27  30
ENDBRANCH  24  26
BRANCH  24  47
ATOM     47  CB  LYS d   1      26.889  19.196   7.821  0.00  0.00    -0.038 C 
ATOM     48  H12 LYS d   1      27.040  18.110   7.739  0.00  0.00     0.036 H 
ATOM     49  H13 LYS d   1      25.997  19.486   7.247  0.00  0.00     0.036 H 
BRANCH  47  50
ATOM     50  CG  LYS d   1      26.709  19.574   9.259  0.00  0.00    -0.061 C 
ATOM     51  H14 LYS d   1      26.329  20.605   9.317  0.00  0.00     0.033 H 
ATOM     52  H15 LYS d   1      27.679  19.511   9.774  0.00  0.00     0.033 H 
BRANCH  50  53
ATOM     53  CD  LYS d   1      25.758  18.673   9.913  0.00  0.00    -0.043 C 
ATOM     54  H16 LYS d   1      25.971  17.635   9.617  0.00  0.00     0.035 H 
ATOM     55  H17 LYS d   1      24.734  18.937   9.611  0.00  0.00     0.035 H 
BRANCH  53  56
ATOM     56  CE  LYS d   1      25.893  18.808  11.405  0.00  0.00     0.080 C 
ATOM     57  H18 LYS d   1      26.144  19.850  11.651  0.00  0.00     0.075 H 
ATOM     58  H19 LYS d   1      26.698  18.145  11.755  0.00  0.00     0.075 H 
BRANCH  56  59
ATOM     59  NZ  LYS d   1      24.651  18.446  12.077  0.00  0.00    -0.079 N 
ATOM     60  H20 LYS d   1      24.767  18.545  13.073  0.00  0.00     0.274 HD
ATOM     61  H21 LYS d   1      24.417  17.490  11.859  0.00  0.00     0.274 HD
ATOM     62  H22 LYS d   1      23.910  19.053  11.763  0.00  0.00     0.274 HD
ENDBRANCH  56  59
ENDBRANCH  53  56
ENDBRANCH  50  53
ENDBRANCH  47  50
ENDBRANCH  24  47
ENDBRANCH  21  24
ENDBRANCH  19  20
BRANCH  19  63
ATOM     63  CB1 MH8 d   1      29.573  19.350   3.293  0.00  0.00    -0.044 C 
ATOM     64  H24 MH8 d   1      29.656  19.083   2.229  0.00  0.00     0.031 H 
ATOM     65  H25 MH8 d   1      30.578  19.503   3.712  0.00  0.00     0.031 H 
ATOM     66  H26 MH8 d   1      28.988  20.276   3.394  0.00  0.00     0.031 H 
ENDBRANCH  19  63
BRANCH  19  67
ATOM     67  CB2 MH8 d   1      29.720  16.949   3.966  0.00  0.00    -0.033 C 
ATOM     68  H27 MH8 d   1      29.527  16.356   4.872  0.00  0.00     0.037 H 
ATOM     69  H28 MH8 d   1      30.781  17.239   3.937  0.00  0.00     0.037 H 
BRANCH  67  70
ATOM     70  CG  MH8 d   1      29.437  16.078   2.764  0.00  0.00    -0.062 C 
ATOM     71  H29 MH8 d   1      29.178  16.742   1.927  0.00  0.00     0.033 H 
ATOM     72  H30 MH8 d   1      28.573  15.444   3.010  0.00  0.00     0.033 H 
BRANCH  70  73
ATOM     73  CD  MH8 d   1      30.563  15.159   2.292  0.00  0.00    -0.065 C 
ATOM     74  H31 MH8 d   1      31.172  15.692   1.548  0.00  0.00     0.033 H 
ATOM     75  H32 MH8 d   1      30.124  14.262   1.832  0.00  0.00     0.033 H 
BRANCH  73  76
ATOM     76  CE  MH8 d   1      31.443  14.741   3.435  0.00  0.00    -0.069 C 
ATOM     77  H33 MH8 d   1      32.063  13.894   3.107  0.00  0.00     0.032 H 
ATOM     78  H34 MH8 d   1      30.802  14.424   4.271  0.00  0.00     0.032 H 
BRANCH  76  79
ATOM     79  CZ  MH8 d   1      32.345  15.831   3.915  0.00  0.00    -0.077 C 
ATOM     80  H35 MH8 d   1      32.959  15.459   4.749  0.00  0.00     0.027 H 
ATOM     81  H36 MH8 d   1      31.740  16.684   4.257  0.00  0.00     0.027 H 
ATOM     82  H37 MH8 d   1      33.001  16.153   3.093  0.00  0.00     0.027 H 
ENDBRANCH  76  79
ENDBRANCH  73  76
ENDBRANCH  70  73
ENDBRANCH  67  70
ENDBRANCH  19  67
ENDBRANCH  16  19
ENDBRANCH  13  15
BRANCH  13  83
ATOM     83  CB  LEU d   1      24.524  16.467   4.907  0.00  0.00    -0.035 C 
ATOM     84  H40 LEU d   1      24.499  17.162   5.760  0.00  0.00     0.037 H 
ATOM     85  H41 LEU d   1      25.100  15.571   5.181  0.00  0.00     0.037 H 
BRANCH  83  86
ATOM     86  CG  LEU d   1      23.100  16.044   4.591  0.00  0.00    -0.059 C 
ATOM     87  H42 LEU d   1      22.480  16.949   4.508  0.00  0.00     0.038 H 
BRANCH  86  88
ATOM     88  CD1 LEU d   1      23.013  15.293   3.275  0.00  0.00    -0.073 C 
ATOM     89  H43 LEU d   1      21.968  15.006   3.085  0.00  0.00     0.028 H 
ATOM     90  H44 LEU d   1      23.638  14.389   3.327  0.00  0.00     0.028 H 
ATOM     91  H45 LEU d   1      23.370  15.939   2.460  0.00  0.00     0.028 H 
ENDBRANCH  86  88
BRANCH  86  92
ATOM     92  CD2 LEU d   1      22.576  15.207   5.719  0.00  0.00    -0.073 C 
ATOM     93  H46 LEU d   1      22.650  15.772   6.660  0.00  0.00     0.028 H 
ATOM     94  H47 LEU d   1      23.170  14.285   5.798  0.00  0.00     0.028 H 
ATOM     95  H48 LEU d   1      21.524  14.950   5.527  0.00  0.00     0.028 H 
ENDBRANCH  86  92
ENDBRANCH  83  86
ENDBRANCH  13  83
ENDBRANCH  10  13
ENDBRANCH   7   9
BRANCH   7  96
ATOM     96  CB  HIS d   1      24.627  21.813   4.885  0.00  0.00     0.002 C 
ATOM     97  H51 HIS d   1      25.712  21.917   4.733  0.00  0.00     0.046 H 
ATOM     98  H52 HIS d   1      24.433  21.437   5.901  0.00  0.00     0.046 H 
BRANCH  96  99
ATOM     99  CG  HIS d   1      23.994  23.179   4.753  0.00  0.00     0.030 A 
ATOM    100  ND1 HIS d   1      22.948  23.602   5.389  0.00  0.00    -0.353 N 
ATOM    101  CE1 HIS d   1      22.747  24.824   5.024  0.00  0.00     0.063 A 
ATOM    102  H53 HIS d   1      22.382  23.064   6.061  0.00  0.00     0.166 HD
ATOM    103  NE2 HIS d   1      23.682  25.151   4.179  0.00  0.00    -0.254 NA
ATOM    104  H55 HIS d   1      21.937  25.468   5.363  0.00  0.00     0.143 H 
ATOM    105  CD2 HIS d   1      24.458  24.131   4.013  0.00  0.00     0.025 A 
ATOM    106  H54 HIS d   1      25.336  24.083   3.371  0.00  0.00     0.117 H 
ENDBRANCH  96  99
ENDBRANCH   7  96
ENDBRANCH   4   7
ENDBRANCH   1   3
BRANCH   1 107
ATOM    107  C   ARG d   1      25.462  20.434  -0.289  0.00  0.00     0.241 C 
ATOM    108  O   ARG d   1      24.909  20.837  -1.245  0.00  0.00    -0.271 OA
ATOM    109  N   MH8 d   1      25.622  19.155  -0.006  0.00  0.00    -0.342 N 
ATOM    110  H69 MH8 d   1      26.076  18.867   0.837  0.00  0.00     0.163 HD
BRANCH 109 111
ATOM    111  CA  MH8 d   1      25.109  18.158  -0.976  0.00  0.00     0.110 C 
BRANCH 111 112
ATOM    112  CB1 MH8 d   1      25.893  18.302  -2.262  0.00  0.00    -0.044 C 
ATOM    113  H70 MH8 d   1      25.528  17.570  -2.998  0.00  0.00     0.031 H 
ATOM    114  H71 MH8 d   1      26.960  18.122  -2.063  0.00  0.00     0.031 H 
ATOM    115  H72 MH8 d   1      25.761  19.319  -2.660  0.00  0.00     0.031 H 
ENDBRANCH 111 112
BRANCH 111 116
ATOM    116  CB2 MH8 d   1      25.258  16.769  -0.475  0.00  0.00    -0.033 C 
ATOM    117  H73 MH8 d   1      24.949  16.074  -1.270  0.00  0.00     0.037 H 
ATOM    118  H74 MH8 d   1      24.605  16.639   0.400  0.00  0.00     0.037 H 
BRANCH 116 119
ATOM    119  CG  MH8 d   1      26.653  16.445  -0.078  0.00  0.00    -0.062 C 
ATOM    120  H75 MH8 d   1      26.812  16.802   0.950  0.00  0.00     0.033 H 
ATOM    121  H76 MH8 d   1      27.338  16.971  -0.759  0.00  0.00     0.033 H 
BRANCH 119 122
ATOM    122  CD  MH8 d   1      26.980  14.957  -0.125  0.00  0.00    -0.065 C 
ATOM    123  H77 MH8 d   1      27.837  14.766   0.538  0.00  0.00     0.033 H 
ATOM    124  H78 MH8 d   1      27.249  14.691  -1.158  0.00  0.00     0.033 H 
BRANCH 122 125
ATOM    125  CE  MH8 d   1      25.857  14.101   0.302  0.00  0.00    -0.069 C 
ATOM    126  H79 MH8 d   1      24.963  14.737   0.379  0.00  0.00     0.032 H 
ATOM    127  H80 MH8 d   1      26.105  13.696   1.294  0.00  0.00     0.032 H 
BRANCH 125 128
ATOM    128  CZ  MH8 d   1      25.514  12.936  -0.595  0.00  0.00    -0.077 C 
ATOM    129  H81 MH8 d   1      24.666  12.382  -0.168  0.00  0.00     0.027 H 
ATOM    130  H82 MH8 d   1      26.384  12.268  -0.678  0.00  0.00     0.027 H 
ATOM    131  H83 MH8 d   1      25.242  13.309  -1.593  0.00  0.00     0.027 H 
ENDBRANCH 125 128
ENDBRANCH 122 125
ENDBRANCH 119 122
ENDBRANCH 116 119
ENDBRANCH 111 116
BRANCH 111 132
ATOM    132  C   MH8 d   1      23.627  18.319  -1.286  0.00  0.00     0.246 C 
ATOM    133  O   MH8 d   1      23.204  18.032  -2.355  0.00  0.00    -0.271 OA
ATOM    134  N   LEU d   1      22.849  18.710  -0.319  0.00  0.00    -0.346 N 
ATOM    135  H84 LEU d   1      23.242  18.895   0.582  0.00  0.00     0.163 HD
BRANCH 134 136
ATOM    136  CA  LEU d   1      21.408  18.884  -0.523  0.00  0.00     0.089 C 
ATOM    137  H85 LEU d   1      21.004  17.933  -0.901  0.00  0.00     0.087 H 
BRANCH 136 138
ATOM    138  C   LEU d   1      21.068  19.984  -1.560  0.00  0.00     0.241 C 
ATOM    139  O   LEU d   1      19.978  20.062  -2.021  0.00  0.00    -0.271 OA
ATOM    140  N   GLN d   1      21.999  20.849  -1.809  0.00  0.00    -0.346 N 
ATOM    141  H95 GLN d   1      22.895  20.753  -1.375  0.00  0.00     0.163 HD
BRANCH 140 142
ATOM    142  CA  GLN d   1      21.749  21.979  -2.731  0.00  0.00     0.090 C 
ATOM    143  H96 GLN d   1      20.679  22.218  -2.648  0.00  0.00     0.087 H 
BRANCH 142 144
ATOM    144  C   GLN d   1      22.014  21.685  -4.240  0.00  0.00     0.241 C 
ATOM    145  O   GLN d   1      21.614  22.390  -5.128  0.00  0.00    -0.271 OA
ATOM    146  N   ASP d   1      22.787  20.673  -4.476  0.00  0.00    -0.346 N 
ATOM    147 3H10 ASP d   1      23.151  20.152  -3.704  0.00  0.00     0.163 HD
BRANCH 146 148
ATOM    148  CA  ASP d   1      23.141  20.271  -5.817  0.00  0.00     0.098 C 
ATOM    149 4H10 ASP d   1      23.311  21.167  -6.431  0.00  0.00     0.088 H 
BRANCH 148 150
ATOM    150  C   ASP d   1      21.924  19.547  -6.353  0.00  0.00     0.241 C 
ATOM    151  O   ASP d   1      21.768  18.366  -6.294  0.00  0.00    -0.271 OA
ATOM    152  N   SER d   1      20.965  20.326  -6.714  0.00  0.00    -0.351 N 
ATOM    153 7H10 SER d   1      21.100  21.314  -6.646  0.00  0.00     0.163 HD
BRANCH 152 154
ATOM    154  CA  SER d   1      19.702  19.834  -7.213  0.00  0.00     0.069 C 
ATOM    155 8H10 SER d   1      18.889  20.551  -7.027  0.00  0.00     0.078 H 
ATOM    156 9H10 SER d   1      19.443  18.863  -6.766  0.00  0.00     0.078 H 
BRANCH 154 157
ATOM    157  CB  SER d   1      19.991  19.705  -8.660  0.00  0.00     0.233 C 
ATOM    158  OG  SER d   1      19.689  20.624  -9.406  0.00  0.00    -0.272 OA
ATOM    159  N   NH2 d   1      20.670  18.602  -8.981  0.00  0.00    -0.369 N 
ATOM    160 0H11 NH2 d   1      20.913  18.424  -9.934  0.00  0.00     0.159 HD
ATOM    161 1H11 NH2 d   1      20.935  17.953  -8.268  0.00  0.00     0.159 HD
ENDBRANCH 154 157
ENDBRANCH 152 154
ENDBRANCH 148 150
BRANCH 148 162
ATOM    162  CB  ASP d   1      24.426  19.467  -5.827  0.00  0.00     0.043 C 
ATOM    163 5H10 ASP d   1      24.627  19.154  -6.862  0.00  0.00     0.052 H 
ATOM    164 6H10 ASP d   1      24.278  18.577  -5.197  0.00  0.00     0.052 H 
BRANCH 162 165
ATOM    165  CG  ASP d   1      25.668  20.226  -5.304  0.00  0.00     0.175 C 
ATOM    166  OD1 ASP d   1      25.561  21.375  -4.813  0.00  0.00    -0.648 OA
ATOM    167  OD2 ASP d   1      26.716  19.586  -5.329  0.00  0.00    -0.648 OA
ENDBRANCH 162 165
ENDBRANCH 148 162
ENDBRANCH 146 148
ENDBRANCH 142 144
BRANCH 142 168
ATOM    168  CB  GLN d   1      22.531  23.214  -2.265  0.00  0.00    -0.030 C 
ATOM    169  H97 GLN d   1      22.390  24.022  -2.998  0.00  0.00     0.037 H 
ATOM    170  H98 GLN d   1      23.599  22.957  -2.204  0.00  0.00     0.037 H 
BRANCH 168 171
ATOM    171  CG  GLN d   1      22.060  23.700  -0.896  0.00  0.00     0.011 C 
ATOM    172  H99 GLN d   1      22.049  22.849  -0.199  0.00  0.00     0.047 H 
ATOM    173 0H10 GLN d   1      21.044  24.109  -0.992  0.00  0.00     0.047 H 
BRANCH 171 174
ATOM    174  CD  GLN d   1      22.982  24.784  -0.342  0.00  0.00     0.215 C 
ATOM    175  OE1 GLN d   1      23.718  24.580   0.594  0.00  0.00    -0.274 OA
ATOM    176  NE2 GLN d   1      22.938  25.867  -0.952  0.00  0.00    -0.370 N 
ATOM    177 1H10 GLN d   1      23.510  26.632  -0.655  0.00  0.00     0.159 HD
ATOM    178 2H10 GLN d   1      22.330  25.973  -1.739  0.00  0.00     0.159 HD
ENDBRANCH 171 174
ENDBRANCH 168 171
ENDBRANCH 142 168
ENDBRANCH 140 142
ENDBRANCH 136 138
BRANCH 136 179
ATOM    179  CB  LEU d   1      20.748  19.188   0.801  0.00  0.00    -0.035 C 
ATOM    180  H86 LEU d   1      19.774  19.660   0.607  0.00  0.00     0.037 H 
ATOM    181  H87 LEU d   1      21.389  19.885   1.361  0.00  0.00     0.037 H 
BRANCH 179 182
ATOM    182  CG  LEU d   1      20.524  17.940   1.654  0.00  0.00    -0.059 C 
ATOM    183  H88 LEU d   1      21.418  17.300   1.617  0.00  0.00     0.038 H 
BRANCH 182 184
ATOM    184  CD1 LEU d   1      20.236  18.352   3.059  0.00  0.00    -0.073 C 
ATOM    185  H89 LEU d   1      20.074  17.457   3.678  0.00  0.00     0.028 H 
ATOM    186  H90 LEU d   1      19.333  18.980   3.079  0.00  0.00     0.028 H 
ATOM    187  H91 LEU d   1      21.089  18.922   3.456  0.00  0.00     0.028 H 
ENDBRANCH 182 184
BRANCH 182 188
ATOM    188  CD2 LEU d   1      19.318  17.178   1.166  0.00  0.00    -0.073 C 
ATOM    189  H92 LEU d   1      19.485  16.852   0.129  0.00  0.00     0.028 H 
ATOM    190  H93 LEU d   1      18.432  17.828   1.208  0.00  0.00     0.028 H 
ATOM    191  H94 LEU d   1      19.157  16.297   1.805  0.00  0.00     0.028 H 
ENDBRANCH 182 188
ENDBRANCH 179 182
ENDBRANCH 136 179
ENDBRANCH 134 136
ENDBRANCH 111 132
ENDBRANCH 109 111
ENDBRANCH   1 107
BRANCH   1 192
ATOM    192  CB  ARG d   1      27.554  21.518   0.560  0.00  0.00    -0.036 C 
ATOM    193  H58 ARG d   1      27.989  20.578   0.931  0.00  0.00     0.036 H 
ATOM    194  H59 ARG d   1      27.925  22.358   1.165  0.00  0.00     0.036 H 
BRANCH 192 195
ATOM    195  CG  ARG d   1      28.002  21.724  -0.887  0.00  0.00    -0.048 C 
ATOM    196  H60 ARG d   1      27.473  20.997  -1.520  0.00  0.00     0.035 H 
ATOM    197  H61 ARG d   1      29.085  21.540  -0.944  0.00  0.00     0.035 H 
BRANCH 195 198
ATOM    198  CD  ARG d   1      27.725  23.118  -1.424  0.00  0.00     0.009 C 
ATOM    199  H62 ARG d   1      28.434  23.828  -0.975  0.00  0.00     0.064 H 
ATOM    200  H63 ARG d   1      26.698  23.411  -1.163  0.00  0.00     0.064 H 
BRANCH 198 201
ATOM    201  NE  ARG d   1      27.878  23.136  -2.880  0.00  0.00    -0.227 N 
ATOM    202  CZ  ARG d   1      28.983  23.435  -3.528  0.00  0.00     0.665 C 
ATOM    203  NH1 ARG d   1      30.082  23.726  -2.857  0.00  0.00    -0.235 N 
ATOM    204  NH2 ARG d   1      29.030  23.389  -4.863  0.00  0.00    -0.235 N 
ATOM    205  H65 ARG d   1      30.948  23.960  -3.363  0.00  0.00     0.174 HD
ATOM    206  H66 ARG d   1      30.074  23.719  -1.827  0.00  0.00     0.174 HD
ATOM    207  H67 ARG d   1      28.181  23.163  -5.401  0.00  0.00     0.174 HD
ATOM    208  H68 ARG d   1      29.915  23.579  -5.354  0.00  0.00     0.174 HD
ATOM    209  H64 ARG d   1      27.051  22.894  -3.444  0.00  0.00     0.177 HD
ENDBRANCH 198 201
ENDBRANCH 195 198
ENDBRANCH 192 195
ENDBRANCH   1 192
TORSDOF 60
