REMARK  5 active torsions:
REMARK  status: ('A' for Active; 'I' for Inactive)
REMARK    1  A    between atoms: N5_5  and  C6_6 
REMARK       I    between atoms: C3_9  and  N5_5 
REMARK    2  A    between atoms: O2_8  and  C1_7 
REMARK    3  A    between atoms: O2_8  and  C3_9 
REMARK    4  A    between atoms: C17_17  and  C19_19 
REMARK    5  A    between atoms: N23_23  and  C24_24 
ROOT
ATOM      1  C7  5H2 d   1      -0.983   0.370   1.086  0.00  0.00    -0.056 A 
ATOM      2  C9  5H2 d   1       1.454   0.486   0.970  0.00  0.00     0.015 A 
ATOM      3  C10 5H2 d   1       1.381   1.825   0.476  0.00  0.00     0.082 A 
ATOM      4  C6  5H2 d   1      -1.038   1.697   0.659  0.00  0.00     0.039 A 
ATOM      5  C8  5H2 d   1       0.268  -0.229   1.244  0.00  0.00    -0.067 A 
ATOM      6  O11 5H2 d   1       2.505   2.561   0.244  0.00  0.00    -0.350 OA
ATOM      7  C12 5H2 d   1       3.576   2.086  -0.564  0.00  0.00     0.030 C 
ATOM      8  C13 5H2 d   1       4.595   1.460   0.353  0.00  0.00    -0.019 C 
ATOM      9  C14 5H2 d   1       4.077   0.117   0.819  0.00  0.00    -0.037 A 
ATOM     10  C15 5H2 d   1       2.753  -0.225   1.121  0.00  0.00     0.025 A 
ATOM     11  S16 5H2 d   1       2.710  -1.862   1.615  0.00  0.00    -0.085 SA
ATOM     12  C17 5H2 d   1       4.439  -2.071   1.473  0.00  0.00     0.054 A 
ATOM     13  C18 5H2 d   1       4.966  -0.907   1.032  0.00  0.00    -0.055 A 
ATOM     14  C31 5H2 d   1       0.129   2.405   0.368  0.00  0.00    -0.024 A 
ATOM     15  H1  5H2 d   1      -1.892  -0.184   1.291  0.00  0.00     0.086 H 
ATOM     16  H6  5H2 d   1       0.330  -1.257   1.582  0.00  0.00     0.085 H 
ATOM     17  H7  5H2 d   1       4.031   2.923  -1.114  0.00  0.00     0.075 H 
ATOM     18  H8  5H2 d   1       3.204   1.337  -1.278  0.00  0.00     0.075 H 
ATOM     19  H9  5H2 d   1       4.760   2.114   1.222  0.00  0.00     0.043 H 
ATOM     20  H10 5H2 d   1       5.543   1.322  -0.188  0.00  0.00     0.043 H 
ATOM     21  H11 5H2 d   1       6.034  -0.788   0.856  0.00  0.00     0.086 H 
ATOM     22  H17 5H2 d   1       0.053   3.438   0.049  0.00  0.00     0.091 H 
ENDROOT
BRANCH  12  23
ATOM     23  C19 5H2 d   1       5.186  -3.291   1.835  0.00  0.00     0.175 A 
ATOM     24  N20 5H2 d   1       6.499  -3.458   1.736  0.00  0.00    -0.129 NA
ATOM     25  N21 5H2 d   1       6.810  -4.638   2.156  0.00  0.00    -0.143 NA
ATOM     26  C22 5H2 d   1       5.741  -5.280   2.540  0.00  0.00     0.094 A 
ATOM     27  N23 5H2 d   1       4.670  -4.448   2.382  0.00  0.00    -0.285 N 
ATOM     28  H12 5H2 d   1       5.709  -6.300   2.920  0.00  0.00     0.147 H 
BRANCH  27  29
ATOM     29  C24 5H2 d   1       3.339  -4.739   2.725  0.00  0.00     0.064 A 
ATOM     30  C25 5H2 d   1       2.488  -5.356   1.817  0.00  0.00    -0.055 A 
ATOM     31  C26 5H2 d   1       1.173  -5.641   2.177  0.00  0.00    -0.081 A 
ATOM     32  H13 5H2 d   1       2.847  -5.616   0.828  0.00  0.00     0.087 H 
ATOM     33  C27 5H2 d   1       0.689  -5.308   3.436  0.00  0.00    -0.081 A 
ATOM     34  H14 5H2 d   1       0.518  -6.130   1.465  0.00  0.00     0.083 H 
ATOM     35  C28 5H2 d   1       1.524  -4.687   4.353  0.00  0.00    -0.060 A 
ATOM     36  H15 5H2 d   1      -0.338  -5.533   3.701  0.00  0.00     0.083 H 
ATOM     37  C29 5H2 d   1       2.840  -4.416   3.993  0.00  0.00     0.061 A 
ATOM     38  H16 5H2 d   1       1.156  -4.417   5.336  0.00  0.00     0.086 H 
ATOM     39 CL   5H2 d   1       3.856  -3.640   5.150  0.00  0.00    -0.082 Cl
ENDBRANCH  27  29
ENDBRANCH  12  23
BRANCH   4  40
ATOM     40  N5  5H2 d   1      -2.200   2.436   0.441  0.00  0.00    -0.303 N 
ATOM     41  C3  5H2 d   1      -3.500   2.126   0.146  0.00  0.00     0.364 C 
ATOM     42  O4  5H2 d   1      -3.946   0.997   0.114  0.00  0.00    -0.238 OA
ATOM     43  H2  5H2 d   1      -2.048   3.421   0.518  0.00  0.00     0.171 HD
BRANCH  41  44
ATOM     44  O2  5H2 d   1      -4.339   3.170  -0.109  0.00  0.00    -0.309 OA
BRANCH  44  45
ATOM     45  C1  5H2 d   1      -3.827   4.562  -0.168  0.00  0.00     0.015 C 
ATOM     46  H3  5H2 d   1      -4.658   5.250  -0.384  0.00  0.00     0.067 H 
ATOM     47  H4  5H2 d   1      -3.070   4.641  -0.962  0.00  0.00     0.067 H 
ATOM     48  H5  5H2 d   1      -3.373   4.827   0.798  0.00  0.00     0.067 H 
ENDBRANCH  44  45
ENDBRANCH  41  44
ENDBRANCH   4  40
TORSDOF 5
