REMARK  8 active torsions:
REMARK  status: ('A' for Active; 'I' for Inactive)
REMARK    1  A    between atoms: C4_2  and  C2_1 
REMARK       I    between atoms: C2_1  and  N1_13 
REMARK    2  A    between atoms: C4_2  and  C6_3 
REMARK    3  A    between atoms: O7_15  and  C4_2 
REMARK    4  A    between atoms: C8_4  and  O7_15 
REMARK    5  A    between atoms: C22_23  and  C16_7 
REMARK    6  A    between atoms: N26_26  and  C27_12 
REMARK    7  A    between atoms: C27_12  and  C28_27 
REMARK    8  A    between atoms: C27_12  and  C29_28 
ROOT
ATOM      1  C8  5H5 d   1      38.455  16.243  34.197  0.00  0.00     0.072 A 
ATOM      2  C12 5H5 d   1      33.750  16.555  33.904  0.00  0.00     0.041 C 
ATOM      3  C15 5H5 d   1      33.007  13.405  32.091  0.00  0.00     0.013 A 
ATOM      4  C16 5H5 d   1      33.884  12.379  31.986  0.00  0.00     0.122 A 
ATOM      5  C18 5H5 d   1      35.008  14.086  32.746  0.00  0.00     0.143 A 
ATOM      6  C19 5H5 d   1      36.175  14.867  33.252  0.00  0.00     0.043 A 
ATOM      7  C21 5H5 d   1      38.517  14.873  33.915  0.00  0.00    -0.050 A 
ATOM      8  C9  5H5 d   1      37.248  16.909  34.006  0.00  0.00    -0.018 A 
ATOM      9  C10 5H5 d   1      36.120  16.256  33.544  0.00  0.00     0.085 A 
ATOM     10  O11 5H5 d   1      34.995  16.970  33.373  0.00  0.00    -0.348 OA
ATOM     11  C13 5H5 d   1      33.059  15.776  32.805  0.00  0.00     0.021 C 
ATOM     12  N14 5H5 d   1      33.683  14.479  32.567  0.00  0.00    -0.337 N 
ATOM     13  N17 5H5 d   1      35.072  12.837  32.399  0.00  0.00    -0.225 NA
ATOM     14  C20 5H5 d   1      37.396  14.203  33.450  0.00  0.00    -0.064 A 
ATOM     15  H5  5H5 d   1      33.147  17.430  34.188  0.00  0.00     0.077 H 
ATOM     16  H6  5H5 d   1      33.906  15.915  34.785  0.00  0.00     0.077 H 
ATOM     17  H7  5H5 d   1      31.948  13.373  31.838  0.00  0.00     0.115 H 
ATOM     18  H8  5H5 d   1      39.446  14.334  34.061  0.00  0.00     0.087 H 
ATOM     19  H13 5H5 d   1      37.191  17.969  34.225  0.00  0.00     0.092 H 
ATOM     20  H14 5H5 d   1      33.100  16.364  31.876  0.00  0.00     0.068 H 
ATOM     21  H15 5H5 d   1      32.009  15.616  33.092  0.00  0.00     0.068 H 
ATOM     22  H16 5H5 d   1      37.464  13.143  33.234  0.00  0.00     0.085 H 
ENDROOT
BRANCH   4  23
ATOM     23  C22 5H5 d   1      33.582  11.018  31.508  0.00  0.00     0.178 A 
ATOM     24  N23 5H5 d   1      32.372  10.505  31.419  0.00  0.00    -0.219 NA
ATOM     25  C24 5H5 d   1      32.442   9.265  30.949  0.00  0.00     0.108 A 
ATOM     26  N25 5H5 d   1      33.691   8.965  30.726  0.00  0.00    -0.164 NA
ATOM     27  H9  5H5 d   1      31.593   8.605  30.777  0.00  0.00     0.149 H 
ATOM     28  N26 5H5 d   1      34.464  10.084  31.075  0.00  0.00    -0.245 N 
BRANCH  28  29
ATOM     29  C27 5H5 d   1      35.929  10.171  30.973  0.00  0.00     0.030 C 
ATOM     30  H10 5H5 d   1      36.241  11.219  31.097  0.00  0.00     0.074 H 
BRANCH  29  31
ATOM     31  C28 5H5 d   1      36.555   9.323  32.080  0.00  0.00    -0.056 C 
ATOM     32  H17 5H5 d   1      37.651   9.382  32.011  0.00  0.00     0.030 H 
ATOM     33  H18 5H5 d   1      36.236   8.277  31.965  0.00  0.00     0.030 H 
ATOM     34  H19 5H5 d   1      36.228   9.700  33.060  0.00  0.00     0.030 H 
ENDBRANCH  29  31
BRANCH  29  35
ATOM     35  C29 5H5 d   1      36.390   9.671  29.603  0.00  0.00    -0.056 C 
ATOM     36  H20 5H5 d   1      37.486   9.740  29.537  0.00  0.00     0.030 H 
ATOM     37  H21 5H5 d   1      35.936  10.290  28.815  0.00  0.00     0.030 H 
ATOM     38  H22 5H5 d   1      36.080   8.624  29.472  0.00  0.00     0.030 H 
ENDBRANCH  29  35
ENDBRANCH  28  29
ENDBRANCH   4  23
BRANCH   1  39
ATOM     39  O7  5H5 d   1      39.485  17.009  34.671  0.00  0.00    -0.337 OA
BRANCH  39  40
ATOM     40  C4  5H5 d   1      40.867  16.628  34.766  0.00  0.00     0.118 C 
ATOM     41  H1  5H5 d   1      41.248  16.372  33.767  0.00  0.00     0.098 H 
BRANCH  40  42
ATOM     42  C2  5H5 d   1      41.087  15.463  35.697  0.00  0.00     0.244 C 
ATOM     43  N1  5H5 d   1      40.501  15.476  36.905  0.00  0.00    -0.368 N 
ATOM     44  H11 5H5 d   1      40.637  14.711  37.535  0.00  0.00     0.159 HD
ATOM     45  H12 5H5 d   1      39.929  16.251  37.175  0.00  0.00     0.159 HD
ATOM     46  O3  5H5 d   1      41.769  14.515  35.352  0.00  0.00    -0.271 OA
ENDBRANCH  40  42
BRANCH  40  47
ATOM     47  C6  5H5 d   1      41.615  17.839  35.332  0.00  0.00    -0.044 C 
ATOM     48  H2  5H5 d   1      41.469  18.703  34.668  0.00  0.00     0.031 H 
ATOM     49  H3  5H5 d   1      42.688  17.608  35.401  0.00  0.00     0.031 H 
ATOM     50  H4  5H5 d   1      41.225  18.076  36.333  0.00  0.00     0.031 H 
ENDBRANCH  40  47
ENDBRANCH  39  40
ENDBRANCH   1  39
TORSDOF 8
