REMARK  1 active torsions:
REMARK  status: ('A' for Active; 'I' for Inactive)
REMARK    1  A    between atoms: CAO_2  and  CAL_5 
ROOT
ATOM      1  CAL 5GT d   1      12.432   2.720  -3.589  0.00  0.00     0.050 A 
ATOM      2  CAG 5GT d   1      12.423   2.000  -4.787  0.00  0.00    -0.040 A 
ATOM      3  CAN 5GT d   1      13.586   1.920  -5.551  0.00  0.00     0.062 A 
ATOM      4  NAJ 5GT d   1      13.626   1.194  -6.755  0.00  0.00    -0.324 N 
ATOM      5  C   5GT d   1      14.754   1.239  -7.583  0.00  0.00     0.239 C 
ATOM      6  O   5GT d   1      14.773   0.558  -8.612  0.00  0.00    -0.271 OA
ATOM      7  CA  5GT d   1      15.842   2.067  -7.288  0.00  0.00     0.067 C 
ATOM      8  N   5GT d   1      15.919   2.456  -5.866  0.00  0.00    -0.379 N 
ATOM      9  CAM 5GT d   1      14.749   2.538  -5.101  0.00  0.00     0.055 A 
ATOM     10  CAF 5GT d   1      14.757   3.256  -3.910  0.00  0.00    -0.054 A 
ATOM     11  CAE 5GT d   1      13.596   3.347  -3.156  0.00  0.00    -0.066 A 
ATOM     12  H1  5GT d   1      11.517   1.507  -5.120  0.00  0.00     0.088 H 
ATOM     13  H2  5GT d   1      12.839   0.639  -7.023  0.00  0.00     0.169 HD
ATOM     14  H3  5GT d   1      15.758   2.981  -7.895  0.00  0.00     0.078 H 
ATOM     15  H4  5GT d   1      16.767   1.534  -7.553  0.00  0.00     0.078 H 
ATOM     16  H5  5GT d   1      16.832   2.667  -5.437  0.00  0.00     0.160 HD
ATOM     17  H6  5GT d   1      15.665   3.742  -3.573  0.00  0.00     0.087 H 
ATOM     18  H7  5GT d   1      13.596   3.908  -2.228  0.00  0.00     0.084 H 
ENDROOT
BRANCH   1  19
ATOM     19  CAO 5GT d   1      11.280   2.835  -2.801  0.00  0.00     0.417 C 
ATOM     20  FAB 5GT d   1      11.609   2.912  -1.526  0.00  0.00    -0.166 F 
ATOM     21  FAC 5GT d   1      10.631   3.935  -3.141  0.00  0.00    -0.166 F 
ATOM     22  FAD 5GT d   1      10.504   1.799  -2.971  0.00  0.00    -0.166 F 
ENDBRANCH   1  19
TORSDOF 1
