REMARK  7 active torsions:
REMARK  status: ('A' for Active; 'I' for Inactive)
REMARK    1  A    between atoms: C12_15  and  C13_2 
REMARK    2  A    between atoms: N05_9  and  C04_8 
REMARK    3  A    between atoms: N05_9  and  C06_10 
REMARK    4  A    between atoms: S20_20  and  N05_9 
REMARK    5  A    between atoms: C06_10  and  C07_11 
REMARK    6  A    between atoms: N11_14  and  C12_15 
REMARK    7  A    between atoms: S20_20  and  C23_23 
ROOT
ATOM      1  C10 5HB d   1       6.051  -9.599 -14.526  0.00  0.00     0.084 C 
ATOM      2  C07 5HB d   1       5.550 -11.819 -13.275  0.00  0.00    -0.018 C 
ATOM      3  C08 5HB d   1       6.709 -12.018 -14.263  0.00  0.00    -0.058 C 
ATOM      4  C09 5HB d   1       6.969 -10.710 -15.043  0.00  0.00    -0.042 C 
ATOM      5  N11 5HB d   1       6.170  -9.451 -13.056  0.00  0.00    -0.067 N 
ATOM      6  C19 5HB d   1       5.901 -10.706 -12.325  0.00  0.00     0.088 C 
ATOM      7  H1  5HB d   1       5.010  -9.846 -14.779  0.00  0.00     0.076 H 
ATOM      8  H2  5HB d   1       6.330  -8.650 -15.007  0.00  0.00     0.076 H 
ATOM      9  H12 5HB d   1       4.651 -11.533 -13.841  0.00  0.00     0.044 H 
ATOM     10  H13 5HB d   1       6.451 -12.819 -14.971  0.00  0.00     0.033 H 
ATOM     11  H14 5HB d   1       7.617 -12.298 -13.708  0.00  0.00     0.033 H 
ATOM     12  H15 5HB d   1       8.018 -10.408 -14.908  0.00  0.00     0.035 H 
ATOM     13  H16 5HB d   1       6.771 -10.878 -16.112  0.00  0.00     0.035 H 
ATOM     14  H17 5HB d   1       7.122  -9.185 -12.861  0.00  0.00     0.280 HD
ATOM     15  H23 5HB d   1       6.798 -10.989 -11.755  0.00  0.00     0.076 H 
ATOM     16  H24 5HB d   1       5.061 -10.546 -11.633  0.00  0.00     0.076 H 
ENDROOT
BRANCH   2  17
ATOM     17  C06 5HB d   1       5.246 -13.100 -12.508  0.00  0.00    -0.002 C 
ATOM     18  H10 5HB d   1       6.185 -13.633 -12.300  0.00  0.00     0.058 H 
ATOM     19  H11 5HB d   1       4.749 -12.849 -11.559  0.00  0.00     0.058 H 
BRANCH  17  20
ATOM     20  N05 5HB d   1       4.360 -13.962 -13.314  0.00  0.00    -0.210 NA
BRANCH  20  21
ATOM     21  C04 5HB d   1       4.405 -15.382 -12.950  0.00  0.00    -0.019 C 
ATOM     22  H7  5HB d   1       5.443 -15.742 -13.005  0.00  0.00     0.049 H 
ATOM     23  H8  5HB d   1       3.779 -15.959 -13.647  0.00  0.00     0.049 H 
ATOM     24  H9  5HB d   1       4.027 -15.510 -11.925  0.00  0.00     0.049 H 
ENDBRANCH  20  21
BRANCH  20  25
ATOM     25  S20 5HB d   1       2.803 -13.395 -13.238  0.00  0.00     0.243 S 
ATOM     26  O21 5HB d   1       2.634 -12.124 -12.394  0.00  0.00    -0.206 OA
ATOM     27  O22 5HB d   1       1.974 -14.569 -12.681  0.00  0.00    -0.206 OA
BRANCH  25  28
ATOM     28  C23 5HB d   1       2.331 -13.074 -14.909  0.00  0.00     0.075 A 
ATOM     29  C24 5HB d   1       2.273 -14.155 -15.792  0.00  0.00    -0.060 A 
ATOM     30  C25 5HB d   1       1.917 -13.967 -17.118  0.00  0.00    -0.071 A 
ATOM     31  H5  5HB d   1       2.509 -15.151 -15.436  0.00  0.00     0.085 H 
ATOM     32  C26 5HB d   1       1.623 -12.679 -17.555  0.00  0.00    -0.026 A 
ATOM     33  H25 5HB d   1       1.869 -14.807 -17.802  0.00  0.00     0.084 H 
ATOM     34  C27 5HB d   1       1.269 -12.477 -18.882  0.00  0.00    -0.072 A 
ATOM     35  C31 5HB d   1       1.697 -11.592 -16.674  0.00  0.00    -0.025 A 
ATOM     36  C28 5HB d   1       0.976 -11.188 -19.312  0.00  0.00    -0.082 A 
ATOM     37  H26 5HB d   1       1.222 -13.312 -19.572  0.00  0.00     0.084 H 
ATOM     38  C29 5HB d   1       1.049 -10.106 -18.440  0.00  0.00    -0.082 A 
ATOM     39  H6  5HB d   1       0.686 -11.023 -20.343  0.00  0.00     0.083 H 
ATOM     40  C30 5HB d   1       1.414 -10.301 -17.117  0.00  0.00    -0.072 A 
ATOM     41  H27 5HB d   1       0.820  -9.108 -18.796  0.00  0.00     0.083 H 
ATOM     42  H28 5HB d   1       1.478  -9.460 -16.436  0.00  0.00     0.084 H 
ATOM     43  C32 5HB d   1       2.060 -11.782 -15.345  0.00  0.00    -0.050 A 
ATOM     44  H29 5HB d   1       2.130 -10.941 -14.664  0.00  0.00     0.087 H 
ENDBRANCH  25  28
ENDBRANCH  20  25
ENDBRANCH  17  20
ENDBRANCH   2  17
BRANCH   5  45
ATOM     45  C12 5HB d   1       5.290  -8.384 -12.546  0.00  0.00     0.107 C 
ATOM     46  H18 5HB d   1       4.251  -8.593 -12.842  0.00  0.00     0.083 H 
ATOM     47  H19 5HB d   1       5.358  -8.346 -11.449  0.00  0.00     0.083 H 
BRANCH  45  48
ATOM     48  C13 5HB d   1       5.685  -7.167 -13.075  0.00  0.00    -0.033 A 
ATOM     49  C14 5HB d   1       4.803  -6.432 -13.864  0.00  0.00    -0.075 A 
ATOM     50  C15 5HB d   1       5.213  -5.218 -14.399  0.00  0.00    -0.082 A 
ATOM     51  H20 5HB d   1       3.804  -6.805 -14.059  0.00  0.00     0.084 H 
ATOM     52  C16 5HB d   1       6.497  -4.751 -14.141  0.00  0.00    -0.083 A 
ATOM     53  H3  5HB d   1       4.535  -4.637 -15.015  0.00  0.00     0.083 H 
ATOM     54  C17 5HB d   1       7.379  -5.485 -13.355  0.00  0.00    -0.082 A 
ATOM     55  H21 5HB d   1       6.815  -3.802 -14.558  0.00  0.00     0.083 H 
ATOM     56  C18 5HB d   1       6.972  -6.698 -12.818  0.00  0.00    -0.075 A 
ATOM     57  H4  5HB d   1       8.378  -5.112 -13.163  0.00  0.00     0.083 H 
ATOM     58  H22 5HB d   1       7.651  -7.277 -12.203  0.00  0.00     0.084 H 
ENDBRANCH  45  48
ENDBRANCH   5  45
TORSDOF 7
