REMARK  10 active torsions:
REMARK  status: ('A' for Active; 'I' for Inactive)
REMARK    1  A    between atoms: C12_18  and  C13_2 
REMARK    2  A    between atoms: O02_9  and  C01_8 
REMARK    3  A    between atoms: C03_10  and  O02_9 
REMARK    4  A    between atoms: C04_11  and  C03_10 
REMARK    5  A    between atoms: N05_12  and  C04_11 
REMARK    6  A    between atoms: N05_12  and  C06_13 
REMARK    7  A    between atoms: S20_23  and  N05_12 
REMARK    8  A    between atoms: C06_13  and  C07_14 
REMARK    9  A    between atoms: N11_17  and  C12_18 
REMARK   10  A    between atoms: S20_23  and  C23_26 
ROOT
ATOM      1  C06 5HF d   1      -6.206  12.499 -11.082  0.00  0.00    -0.002 C 
ATOM      2  H14 5HF d   1      -7.141  13.078 -11.086  0.00  0.00     0.058 H 
ATOM      3  H15 5HF d   1      -5.947  12.228 -10.048  0.00  0.00     0.058 H 
ENDROOT
BRANCH   1   4
ATOM      4  N05 5HF d   1      -5.106  13.342 -11.657  0.00  0.00    -0.204 NA
BRANCH   4   5
ATOM      5  C04 5HF d   1      -4.904  14.658 -10.999  0.00  0.00     0.013 C 
ATOM      6  H12 5HF d   1      -3.832  14.742 -10.765  0.00  0.00     0.060 H 
ATOM      7  H13 5HF d   1      -5.182  15.431 -11.730  0.00  0.00     0.060 H 
BRANCH   5   8
ATOM      8  C03 5HF d   1      -5.667  14.959  -9.717  0.00  0.00     0.031 C 
ATOM      9  H10 5HF d   1      -6.229  15.891  -9.881  0.00  0.00     0.076 H 
ATOM     10  H11 5HF d   1      -6.372  14.130  -9.553  0.00  0.00     0.076 H 
BRANCH   8  11
ATOM     11  O02 5HF d   1      -4.940  15.116  -8.558  0.00  0.00    -0.395 OA
BRANCH  11  12
ATOM     12  C01 5HF d   1      -5.173  14.163  -7.517  0.00  0.00     0.004 C 
ATOM     13  H7  5HF d   1      -4.534  14.400  -6.653  0.00  0.00     0.066 H 
ATOM     14  H8  5HF d   1      -4.934  13.154  -7.884  0.00  0.00     0.066 H 
ATOM     15  H9  5HF d   1      -6.229  14.203  -7.213  0.00  0.00     0.066 H 
ENDBRANCH  11  12
ENDBRANCH   8  11
ENDBRANCH   5   8
ENDBRANCH   4   5
BRANCH   4  16
ATOM     16  S20 5HF d   1      -3.649  12.482 -11.781  0.00  0.00     0.243 S 
ATOM     17  O21 5HF d   1      -3.569  11.172 -11.084  0.00  0.00    -0.206 OA
ATOM     18  O22 5HF d   1      -2.601  13.287 -11.095  0.00  0.00    -0.206 OA
BRANCH  16  19
ATOM     19  C23 5HF d   1      -3.241  12.304 -13.459  0.00  0.00     0.075 A 
ATOM     20  C24 5HF d   1      -3.222  13.465 -14.269  0.00  0.00    -0.060 A 
ATOM     21  C25 5HF d   1      -2.898  13.337 -15.670  0.00  0.00    -0.071 A 
ATOM     22  H5  5HF d   1      -3.447  14.436 -13.843  0.00  0.00     0.085 H 
ATOM     23  C26 5HF d   1      -2.583  12.054 -16.225  0.00  0.00    -0.026 A 
ATOM     24  H29 5HF d   1      -2.893  14.216 -16.305  0.00  0.00     0.084 H 
ATOM     25  C27 5HF d   1      -2.247  11.943 -17.636  0.00  0.00    -0.072 A 
ATOM     26  C31 5HF d   1      -2.588  10.940 -15.436  0.00  0.00    -0.025 A 
ATOM     27  C28 5HF d   1      -1.934  10.709 -18.175  0.00  0.00    -0.082 A 
ATOM     28  H30 5HF d   1      -2.242  12.827 -18.264  0.00  0.00     0.084 H 
ATOM     29  C29 5HF d   1      -1.952   9.559 -17.353  0.00  0.00    -0.082 A 
ATOM     30  H6  5HF d   1      -1.676  10.623 -19.224  0.00  0.00     0.083 H 
ATOM     31  C30 5HF d   1      -2.270   9.661 -15.989  0.00  0.00    -0.072 A 
ATOM     32  H31 5HF d   1      -1.718   8.590 -17.779  0.00  0.00     0.083 H 
ATOM     33  H32 5HF d   1      -2.274   8.777 -15.361  0.00  0.00     0.084 H 
ATOM     34  C32 5HF d   1      -2.937  11.064 -13.986  0.00  0.00    -0.050 A 
ATOM     35  H33 5HF d   1      -2.951  10.185 -13.352  0.00  0.00     0.087 H 
ENDBRANCH  16  19
ENDBRANCH   4  16
ENDBRANCH   1   4
BRANCH   1  36
ATOM     36  C07 5HF d   1      -6.406  11.221 -11.898  0.00  0.00    -0.018 C 
ATOM     37  C08 5HF d   1      -7.377  11.421 -12.944  0.00  0.00    -0.058 C 
ATOM     38  C09 5HF d   1      -7.490  10.228 -13.810  0.00  0.00    -0.042 C 
ATOM     39  H17 5HF d   1      -7.070  12.281 -13.558  0.00  0.00     0.033 H 
ATOM     40  H18 5HF d   1      -8.357  11.627 -12.488  0.00  0.00     0.033 H 
ATOM     41  C10 5HF d   1      -7.178   8.878 -13.198  0.00  0.00     0.084 C 
ATOM     42  H19 5HF d   1      -8.525  10.189 -14.181  0.00  0.00     0.035 H 
ATOM     43  H20 5HF d   1      -6.802  10.371 -14.657  0.00  0.00     0.035 H 
ATOM     44  N11 5HF d   1      -6.717   8.785 -11.811  0.00  0.00    -0.067 N 
ATOM     45  H1  5HF d   1      -6.396   8.421 -13.822  0.00  0.00     0.076 H 
ATOM     46  H2  5HF d   1      -8.098   8.280 -13.266  0.00  0.00     0.076 H 
ATOM     47  C19 5HF d   1      -6.690  10.029 -11.024  0.00  0.00     0.088 C 
ATOM     48  H21 5HF d   1      -7.518   8.365 -11.366  0.00  0.00     0.280 HD
ATOM     49  H27 5HF d   1      -7.667  10.166 -10.537  0.00  0.00     0.076 H 
ATOM     50  H28 5HF d   1      -5.905   9.951 -10.257  0.00  0.00     0.076 H 
ATOM     51  H16 5HF d   1      -5.449  11.012 -12.399  0.00  0.00     0.044 H 
BRANCH  44  52
ATOM     52  C12 5HF d   1      -5.744   7.614 -11.718  0.00  0.00     0.107 C 
ATOM     53  H22 5HF d   1      -4.911   7.782 -12.416  0.00  0.00     0.083 H 
ATOM     54  H23 5HF d   1      -5.355   7.550 -10.691  0.00  0.00     0.083 H 
BRANCH  52  55
ATOM     55  C13 5HF d   1      -6.450   6.277 -12.080  0.00  0.00    -0.033 A 
ATOM     56  C14 5HF d   1      -5.809   5.294 -12.876  0.00  0.00    -0.075 A 
ATOM     57  C15 5HF d   1      -6.440   4.080 -13.201  0.00  0.00    -0.082 A 
ATOM     58  H24 5HF d   1      -4.807   5.483 -13.243  0.00  0.00     0.084 H 
ATOM     59  C16 5HF d   1      -7.732   3.861 -12.718  0.00  0.00    -0.083 A 
ATOM     60  H3  5HF d   1      -5.938   3.336 -13.809  0.00  0.00     0.083 H 
ATOM     61  C17 5HF d   1      -8.381   4.840 -11.921  0.00  0.00    -0.082 A 
ATOM     62  H25 5HF d   1      -8.244   2.935 -12.954  0.00  0.00     0.083 H 
ATOM     63  C18 5HF d   1      -7.758   6.041 -11.587  0.00  0.00    -0.075 A 
ATOM     64  H4  5HF d   1      -9.386   4.649 -11.563  0.00  0.00     0.083 H 
ATOM     65  H26 5HF d   1      -8.260   6.775 -10.967  0.00  0.00     0.084 H 
ENDBRANCH  52  55
ENDBRANCH  44  52
ENDBRANCH   1  36
TORSDOF 10
