REMARK  6 active torsions:
REMARK  status: ('A' for Active; 'I' for Inactive)
REMARK    1  A    between atoms: S1_18  and  C16_11 
REMARK    2  A    between atoms: C21_15  and  C23_22 
REMARK    3  A    between atoms: N2_21  and  S1_18 
REMARK    4  A    between atoms: C23_22  and  N2_21 
REMARK    5  A    between atoms: C22_25  and  N1_24 
REMARK    6  A    between atoms: C22_25  and  C15_26 
ROOT
ATOM      1  C18 5HH d   1       6.169 -12.115 -14.130  0.00  0.00    -0.057 C 
ATOM      2  C19 5HH d   1       6.846  -9.673 -14.496  0.00  0.00     0.084 C 
ATOM      3  C20 5HH d   1       5.820 -10.490 -12.367  0.00  0.00     0.089 C 
ATOM      4  C21 5HH d   1       5.133 -11.544 -13.183  0.00  0.00    -0.015 C 
ATOM      5  C17 5HH d   1       6.395 -10.989 -15.170  0.00  0.00    -0.042 C 
ATOM      6  N1  5HH d   1       6.152  -9.334 -13.207  0.00  0.00    -0.067 N 
ATOM      7  H10 5HH d   1       5.792 -13.026 -14.617  0.00  0.00     0.033 H 
ATOM      8  H11 5HH d   1       7.102 -12.345 -13.595  0.00  0.00     0.033 H 
ATOM      9  H12 5HH d   1       6.666  -8.851 -15.204  0.00  0.00     0.076 H 
ATOM     10  H13 5HH d   1       7.924  -9.750 -14.290  0.00  0.00     0.076 H 
ATOM     11  H14 5HH d   1       6.744 -10.906 -11.940  0.00  0.00     0.076 H 
ATOM     12  H15 5HH d   1       5.153 -10.168 -11.554  0.00  0.00     0.076 H 
ATOM     13  H16 5HH d   1       4.333 -11.081 -13.778  0.00  0.00     0.045 H 
ATOM     14  H21 5HH d   1       5.454 -10.809 -15.711  0.00  0.00     0.035 H 
ATOM     15  H22 5HH d   1       7.171 -11.310 -15.881  0.00  0.00     0.035 H 
ATOM     16  H23 5HH d   1       6.907  -8.903 -12.696  0.00  0.00     0.280 HD
ENDROOT
BRANCH   4  17
ATOM     17  C23 5HH d   1       4.496 -12.578 -12.264  0.00  0.00     0.008 C 
ATOM     18  H19 5HH d   1       4.619 -12.280 -11.212  0.00  0.00     0.065 H 
ATOM     19  H20 5HH d   1       4.958 -13.564 -12.422  0.00  0.00     0.065 H 
BRANCH  17  20
ATOM     20  N2  5HH d   1       3.051 -12.622 -12.622  0.00  0.00    -0.315 N 
ATOM     21  H18 5HH d   1       2.378 -11.942 -12.331  0.00  0.00     0.172 HD
BRANCH  20  22
ATOM     22  S1  5HH d   1       2.721 -13.858 -13.506  0.00  0.00     0.258 S 
ATOM     23  O1  5HH d   1       1.530 -14.615 -12.950  0.00  0.00    -0.201 OA
ATOM     24  O2  5HH d   1       3.893 -14.836 -13.407  0.00  0.00    -0.201 OA
BRANCH  22  25
ATOM     25  C16 5HH d   1       2.413 -13.415 -15.188  0.00  0.00     0.080 A 
ATOM     26  C11 5HH d   1       2.473 -14.442 -16.128  0.00  0.00    -0.059 A 
ATOM     27  C8  5HH d   1       2.243 -14.215 -17.474  0.00  0.00    -0.071 A 
ATOM     28  H8  5HH d   1       2.706 -15.447 -15.796  0.00  0.00     0.085 H 
ATOM     29  C13 5HH d   1       1.936 -12.923 -17.885  0.00  0.00    -0.026 A 
ATOM     30  H17 5HH d   1       2.301 -15.026 -18.191  0.00  0.00     0.084 H 
ATOM     31  C6  5HH d   1       1.699 -12.687 -19.245  0.00  0.00    -0.072 A 
ATOM     32  C14 5HH d   1       1.865 -11.879 -16.946  0.00  0.00    -0.025 A 
ATOM     33  C2  5HH d   1       1.377 -11.397 -19.652  0.00  0.00    -0.082 A 
ATOM     34  H5  5HH d   1       1.765 -13.494 -19.966  0.00  0.00     0.084 H 
ATOM     35  C3  5HH d   1       1.312 -10.347 -18.735  0.00  0.00    -0.082 A 
ATOM     36  H1  5HH d   1       1.173 -11.204 -20.699  0.00  0.00     0.083 H 
ATOM     37  C7  5HH d   1       1.556 -10.595 -17.385  0.00  0.00    -0.072 A 
ATOM     38  H2  5HH d   1       1.073  -9.344 -19.070  0.00  0.00     0.083 H 
ATOM     39  H6  5HH d   1       1.505  -9.781 -16.671  0.00  0.00     0.084 H 
ATOM     40  C12 5HH d   1       2.096 -12.116 -15.589  0.00  0.00    -0.050 A 
ATOM     41  H9  5HH d   1       2.031 -11.312 -14.866  0.00  0.00     0.087 H 
ENDBRANCH  22  25
ENDBRANCH  20  22
ENDBRANCH  17  20
ENDBRANCH   4  17
BRANCH   6  42
ATOM     42  C22 5HH d   1       5.119  -8.273 -13.139  0.00  0.00     0.107 C 
ATOM     43  H24 5HH d   1       4.721  -8.217 -12.115  0.00  0.00     0.083 H 
ATOM     44  H25 5HH d   1       4.303  -8.512 -13.837  0.00  0.00     0.083 H 
BRANCH  42  45
ATOM     45  C15 5HH d   1       5.680  -7.043 -13.486  0.00  0.00    -0.033 A 
ATOM     46  C10 5HH d   1       4.944  -6.133 -14.249  0.00  0.00    -0.075 A 
ATOM     47  C5  5HH d   1       5.508  -4.917 -14.624  0.00  0.00    -0.082 A 
ATOM     48  H7  5HH d   1       3.931  -6.375 -14.550  0.00  0.00     0.084 H 
ATOM     49  C1  5HH d   1       6.818  -4.619 -14.237  0.00  0.00    -0.083 A 
ATOM     50  H4  5HH d   1       4.936  -4.207 -15.211  0.00  0.00     0.083 H 
ATOM     51  C4  5HH d   1       7.560  -5.525 -13.480  0.00  0.00    -0.082 A 
ATOM     52  H27 5HH d   1       7.261  -3.674 -14.528  0.00  0.00     0.083 H 
ATOM     53  C9  5HH d   1       6.988  -6.733 -13.098  0.00  0.00    -0.075 A 
ATOM     54  H3  5HH d   1       8.578  -5.288 -13.191  0.00  0.00     0.083 H 
ATOM     55  H26 5HH d   1       7.556  -7.436 -12.499  0.00  0.00     0.084 H 
ENDBRANCH  42  45
ENDBRANCH   6  42
TORSDOF 6
