REMARK  7 active torsions:
REMARK  status: ('A' for Active; 'I' for Inactive)
REMARK    1  A    between atoms: C1_1  and  O1_10 
REMARK    2  A    between atoms: N2_9  and  C2_2 
REMARK    3  A    between atoms: C3_3  and  O3_11 
REMARK    4  A    between atoms: C4_4  and  O4_12 
REMARK    5  A    between atoms: C5_5  and  C6_6 
REMARK    6  A    between atoms: C6_6  and  O6_14 
REMARK    7  A    between atoms: C7_7  and  C8_8 
REMARK       I    between atoms: C7_7  and  N2_9 
ROOT
ATOM      1  C1  NON d   1     -25.065 -33.971 -21.609  0.00  0.00     0.151 C 
ATOM      2  C2  NON d   1     -24.899 -32.486 -21.966  0.00  0.00     0.086 C 
ATOM      3  C3  NON d   1     -26.266 -31.802 -21.859  0.00  0.00     0.086 C 
ATOM      4  C4  NON d   1     -27.182 -32.523 -22.857  0.00  0.00     0.089 C 
ATOM      5  C5  NON d   1     -27.319 -34.008 -22.425  0.00  0.00     0.089 C 
ATOM      6  O5  NON d   1     -26.028 -34.620 -22.449  0.00  0.00    -0.349 OA
ATOM      7  H1  NON d   1     -25.413 -34.042 -20.568  0.00  0.00     0.132 H 
ATOM      8  H2  NON d   1     -24.651 -32.441 -23.037  0.00  0.00     0.084 H 
ATOM      9  H3  NON d   1     -26.655 -31.936 -20.839  0.00  0.00     0.090 H 
ATOM     10  H4  NON d   1     -26.706 -32.504 -23.848  0.00  0.00     0.091 H 
ATOM     11  H5  NON d   1     -27.625 -33.977 -21.369  0.00  0.00     0.090 H 
ENDROOT
BRANCH   2  12
ATOM     12  N2  NON d   1     -23.707 -31.935 -21.292  0.00  0.00    -0.349 N 
ATOM     13  C7  NON d   1     -23.314 -30.691 -20.963  0.00  0.00     0.214 C 
ATOM     14  O7  NON d   1     -23.953 -29.656 -21.112  0.00  0.00    -0.274 OA
ATOM     15  H11 NON d   1     -23.049 -32.638 -21.021  0.00  0.00     0.163 HD
BRANCH  13  16
ATOM     16  C8  NON d   1     -21.956 -30.612 -20.341  0.00  0.00    -0.003 C 
ATOM     17  H8  NON d   1     -21.720 -29.563 -20.107  0.00  0.00     0.040 H 
ATOM     18  H9  NON d   1     -21.207 -31.008 -21.043  0.00  0.00     0.040 H 
ATOM     19  H10 NON d   1     -21.941 -31.206 -19.416  0.00  0.00     0.040 H 
ENDBRANCH  13  16
ENDBRANCH   2  12
BRANCH   1  20
ATOM     20  O1  NON d   1     -23.817 -34.613 -21.716  0.00  0.00    -0.369 OA
ATOM     21  H12 NON d   1     -23.520 -34.576 -22.617  0.00  0.00     0.212 HD
ENDBRANCH   1  20
BRANCH   3  22
ATOM     22  O3  NON d   1     -26.220 -30.423 -22.133  0.00  0.00    -0.391 OA
ATOM     23  H13 NON d   1     -25.649 -29.995 -21.506  0.00  0.00     0.210 HD
ENDBRANCH   3  22
BRANCH   4  24
ATOM     24  O4  NON d   1     -28.413 -31.835 -22.962  0.00  0.00    -0.390 OA
ATOM     25  H14 NON d   1     -28.251 -30.938 -23.229  0.00  0.00     0.210 HD
ENDBRANCH   4  24
BRANCH   5  26
ATOM     26  C6  NON d   1     -28.409 -34.857 -23.121  0.00  0.00     0.043 C 
ATOM     27  H6  NON d   1     -29.324 -34.248 -23.146  0.00  0.00     0.078 H 
ATOM     28  H7  NON d   1     -28.576 -35.744 -22.492  0.00  0.00     0.078 H 
BRANCH  26  29
ATOM     29  O6  NON d   1     -28.183 -35.324 -24.449  0.00  0.00    -0.398 OA
ATOM     30  H15 NON d   1     -27.409 -35.874 -24.462  0.00  0.00     0.209 HD
ENDBRANCH  26  29
ENDBRANCH   5  26
TORSDOF 7
