REMARK  7 active torsions:
REMARK  status: ('A' for Active; 'I' for Inactive)
REMARK       I    between atoms: N29_16  and  C30_1 
REMARK    1  A    between atoms: C22_10  and  N29_16 
REMARK    2  A    between atoms: C11_18  and  C19_23 
REMARK    3  A    between atoms: C19_23  and  O20_24 
REMARK    4  A    between atoms: C04_26  and  C05_29 
REMARK    5  A    between atoms: C05_29  and  C06_30 
REMARK    6  A    between atoms: C06_30  and  C07_31 
REMARK    7  A    between atoms: C06_30  and  C08_32 
ROOT
ATOM      1  N15 5LG d   1      17.006 -53.282 134.198  0.00  0.00    -0.359 N 
ATOM      2  C16 5LG d   1      15.713 -53.797 133.778  0.00  0.00     0.012 C 
ATOM      3  C17 5LG d   1      15.673 -55.315 133.757  0.00  0.00     0.033 C 
ATOM      4  N26 5LG d   1      16.105 -55.831 135.039  0.00  0.00    -0.259 N 
ATOM      5  O01 5LG d   1      20.058 -54.278 136.680  0.00  0.00    -0.271 OA
ATOM      6  C02 5LG d   1      20.251 -55.395 137.048  0.00  0.00     0.241 C 
ATOM      7  C22 5LG d   1      19.428 -56.071 138.139  0.00  0.00     0.097 C 
ATOM      8  C23 5LG d   1      18.538 -57.191 137.598  0.00  0.00     0.005 C 
ATOM      9  C24 5LG d   1      17.384 -56.675 136.760  0.00  0.00     0.078 A 
ATOM     10  C25 5LG d   1      17.346 -56.207 135.405  0.00  0.00     0.026 A 
ATOM     11  N27 5LG d   1      15.378 -56.045 136.111  0.00  0.00    -0.066 NA
ATOM     12  N28 5LG d   1      16.115 -56.537 137.106  0.00  0.00    -0.135 NA
ATOM     13  N10 5LG d   1      21.860 -54.068 133.609  0.00  0.00    -0.353 N 
ATOM     14  C11 5LG d   1      21.212 -53.577 132.413  0.00  0.00     0.033 C 
ATOM     15  C12 5LG d   1      20.461 -52.301 132.774  0.00  0.00    -0.036 C 
ATOM     16  C13 5LG d   1      19.360 -52.540 133.800  0.00  0.00     0.011 C 
ATOM     17  C14 5LG d   1      18.063 -53.112 133.240  0.00  0.00     0.217 C 
ATOM     18  O18 5LG d   1      17.886 -53.414 132.093  0.00  0.00    -0.274 OA
ATOM     19  N03 5LG d   1      21.319 -56.188 136.513  0.00  0.00    -0.346 N 
ATOM     20  C04 5LG d   1      22.183 -55.627 135.502  0.00  0.00     0.089 C 
ATOM     21  C09 5LG d   1      21.396 -55.260 134.256  0.00  0.00     0.240 C 
ATOM     22  O21 5LG d   1      20.476 -55.899 133.846  0.00  0.00    -0.271 OA
ATOM     23  H1  5LG d   1      17.160 -53.045 135.157  0.00  0.00     0.162 HD
ATOM     24  H2  5LG d   1      15.496 -53.424 132.766  0.00  0.00     0.066 H 
ATOM     25  H3  5LG d   1      14.944 -53.433 134.476  0.00  0.00     0.066 H 
ATOM     26  H4  5LG d   1      16.343 -55.688 132.968  0.00  0.00     0.070 H 
ATOM     27  H5  5LG d   1      14.645 -55.651 133.555  0.00  0.00     0.070 H 
ATOM     28  H6  5LG d   1      20.122 -56.510 138.871  0.00  0.00     0.088 H 
ATOM     29  H7  5LG d   1      18.129 -57.756 138.448  0.00  0.00     0.046 H 
ATOM     30  H8  5LG d   1      19.153 -57.858 136.976  0.00  0.00     0.046 H 
ATOM     31  H9  5LG d   1      18.215 -56.161 134.751  0.00  0.00     0.117 H 
ATOM     32  H11 5LG d   1      22.640 -53.571 133.989  0.00  0.00     0.163 HD
ATOM     33  H12 5LG d   1      20.498 -54.326 132.039  0.00  0.00     0.075 H 
ATOM     34  H13 5LG d   1      20.008 -51.888 131.861  0.00  0.00     0.036 H 
ATOM     35  H14 5LG d   1      21.177 -51.576 133.188  0.00  0.00     0.036 H 
ATOM     36  H15 5LG d   1      19.128 -51.578 134.280  0.00  0.00     0.047 H 
ATOM     37  H16 5LG d   1      19.744 -53.243 134.554  0.00  0.00     0.047 H 
ATOM     38  H20 5LG d   1      21.464 -57.123 136.838  0.00  0.00     0.163 HD
ATOM     39  H21 5LG d   1      22.637 -54.713 135.912  0.00  0.00     0.087 H 
ENDROOT
BRANCH  20  40
ATOM     40  C05 5LG d   1      23.297 -56.583 135.114  0.00  0.00    -0.035 C 
ATOM     41  H22 5LG d   1      23.919 -56.104 134.344  0.00  0.00     0.037 H 
ATOM     42  H23 5LG d   1      22.847 -57.499 134.704  0.00  0.00     0.037 H 
BRANCH  40  43
ATOM     43  C06 5LG d   1      24.182 -56.960 136.288  0.00  0.00    -0.059 C 
ATOM     44  H24 5LG d   1      23.547 -57.431 137.053  0.00  0.00     0.038 H 
BRANCH  43  45
ATOM     45  C07 5LG d   1      25.211 -57.990 135.825  0.00  0.00    -0.073 C 
ATOM     46  H25 5LG d   1      25.857 -58.269 136.671  0.00  0.00     0.028 H 
ATOM     47  H26 5LG d   1      25.825 -57.559 135.021  0.00  0.00     0.028 H 
ATOM     48  H27 5LG d   1      24.692 -58.884 135.450  0.00  0.00     0.028 H 
ENDBRANCH  43  45
BRANCH  43  49
ATOM     49  C08 5LG d   1      24.852 -55.747 136.934  0.00  0.00    -0.073 C 
ATOM     50  H28 5LG d   1      24.082 -55.030 137.254  0.00  0.00     0.028 H 
ATOM     51  H29 5LG d   1      25.521 -55.266 136.205  0.00  0.00     0.028 H 
ATOM     52  H30 5LG d   1      25.435 -56.072 137.808  0.00  0.00     0.028 H 
ENDBRANCH  43  49
ENDBRANCH  40  43
ENDBRANCH  20  40
BRANCH   7  53
ATOM     53  N29 5LG d   1      18.619 -55.077 138.804  0.00  0.00    -0.322 N 
ATOM     54  C30 5LG d   1      18.581 -55.131 140.242  0.00  0.00     0.284 C 
ATOM     55  O39 5LG d   1      17.950 -54.084 140.906  0.00  0.00    -0.630 OA
ATOM     56  O31 5LG d   1      19.081 -56.037 140.820  0.00  0.00    -0.630 OA
ATOM     57  H10 5LG d   1      18.110 -54.385 138.291  0.00  0.00     0.166 HD
ENDBRANCH   7  53
BRANCH  14  58
ATOM     58  C19 5LG d   1      22.275 -53.323 131.350  0.00  0.00     0.035 C 
ATOM     59  H17 5LG d   1      23.022 -52.625 131.756  0.00  0.00     0.077 H 
ATOM     60  H18 5LG d   1      21.794 -52.874 130.468  0.00  0.00     0.077 H 
BRANCH  58  61
ATOM     61  O20 5LG d   1      22.921 -54.494 130.961  0.00  0.00    -0.399 OA
ATOM     62  H19 5LG d   1      23.345 -54.886 131.715  0.00  0.00     0.209 HD
ENDBRANCH  58  61
ENDBRANCH  14  58
TORSDOF 7
