REMARK  7 active torsions:
REMARK  status: ('A' for Active; 'I' for Inactive)
REMARK       I    between atoms: N25_13  and  C26_1 
REMARK    1  A    between atoms: C24_12  and  N25_13 
REMARK    2  A    between atoms: C06_19  and  C07_22 
REMARK    3  A    between atoms: C07_22  and  C08_23 
REMARK    4  A    between atoms: C08_23  and  C10_24 
REMARK    5  A    between atoms: C08_23  and  C09_25 
REMARK    6  A    between atoms: C03_27  and  C02_32 
REMARK    7  A    between atoms: C02_32  and  O01_33 
ROOT
ATOM      1  N16 5LH d   1     -23.262  33.186 -13.520  0.00  0.00    -0.361 N 
ATOM      2  C17 5LH d   1     -23.903  34.083 -12.615  0.00  0.00    -0.003 C 
ATOM      3  C18 5LH d   1     -24.990  34.863 -13.517  0.00  0.00    -0.034 C 
ATOM      4  C19 5LH d   1     -25.640  35.862 -12.581  0.00  0.00     0.019 C 
ATOM      5  N20 5LH d   1     -24.982  37.049 -12.921  0.00  0.00    -0.261 N 
ATOM      6  C21 5LH d   1     -23.753  37.492 -12.514  0.00  0.00     0.025 A 
ATOM      7  C22 5LH d   1     -23.470  38.744 -13.127  0.00  0.00     0.078 A 
ATOM      8  C23 5LH d   1     -22.272  39.666 -13.017  0.00  0.00     0.005 C 
ATOM      9  C24 5LH d   1     -21.483  39.615 -14.288  0.00  0.00     0.097 C 
ATOM     10  C36 5LH d   1     -20.456  38.531 -14.109  0.00  0.00     0.241 C 
ATOM     11  O37 5LH d   1     -20.571  37.462 -14.691  0.00  0.00    -0.271 OA
ATOM     12  N38 5LH d   1     -24.582  38.953 -13.892  0.00  0.00    -0.135 NA
ATOM     13  N39 5LH d   1     -25.437  37.966 -13.778  0.00  0.00    -0.066 NA
ATOM     14  N11 5LH d   1     -19.387  38.862 -13.208  0.00  0.00    -0.346 N 
ATOM     15  C06 5LH d   1     -18.306  37.980 -12.935  0.00  0.00     0.089 C 
ATOM     16  C05 5LH d   1     -18.815  36.787 -12.184  0.00  0.00     0.240 C 
ATOM     17  O12 5LH d   1     -19.798  36.867 -11.387  0.00  0.00    -0.271 OA
ATOM     18  N04 5LH d   1     -18.127  35.542 -12.401  0.00  0.00    -0.353 N 
ATOM     19  C03 5LH d   1     -18.608  34.383 -11.743  0.00  0.00     0.033 C 
ATOM     20  C13 5LH d   1     -19.367  33.573 -12.750  0.00  0.00    -0.036 C 
ATOM     21  C14 5LH d   1     -20.848  34.150 -12.879  0.00  0.00     0.011 C 
ATOM     22  C15 5LH d   1     -21.800  33.164 -13.709  0.00  0.00     0.217 C 
ATOM     23  O40 5LH d   1     -21.369  32.358 -14.536  0.00  0.00    -0.274 OA
ATOM     24  H1  5LH d   1     -23.825  32.548 -14.046  0.00  0.00     0.162 HD
ATOM     25  H2  5LH d   1     -23.176  34.788 -12.187  0.00  0.00     0.064 H 
ATOM     26  H3  5LH d   1     -24.398  33.529 -11.804  0.00  0.00     0.064 H 
ATOM     27  H4  5LH d   1     -25.739  34.161 -13.912  0.00  0.00     0.037 H 
ATOM     28  H5  5LH d   1     -24.497  35.382 -14.353  0.00  0.00     0.037 H 
ATOM     29  H6  5LH d   1     -25.465  35.596 -11.528  0.00  0.00     0.067 H 
ATOM     30  H7  5LH d   1     -26.722  35.938 -12.766  0.00  0.00     0.067 H 
ATOM     31  H8  5LH d   1     -23.093  36.966 -11.826  0.00  0.00     0.117 H 
ATOM     32  H9  5LH d   1     -21.637  39.343 -12.178  0.00  0.00     0.046 H 
ATOM     33  H10 5LH d   1     -22.617  40.696 -12.841  0.00  0.00     0.046 H 
ATOM     34  H11 5LH d   1     -20.976  40.581 -14.424  0.00  0.00     0.088 H 
ATOM     35  H13 5LH d   1     -19.404  39.752 -12.753  0.00  0.00     0.163 HD
ATOM     36  H14 5LH d   1     -17.852  37.654 -13.882  0.00  0.00     0.087 H 
ATOM     37  H24 5LH d   1     -17.329  35.496 -13.002  0.00  0.00     0.163 HD
ATOM     38  H25 5LH d   1     -19.269  34.663 -10.909  0.00  0.00     0.075 H 
ATOM     39  H26 5LH d   1     -19.408  32.524 -12.422  0.00  0.00     0.036 H 
ATOM     40  H27 5LH d   1     -18.863  33.633 -13.726  0.00  0.00     0.036 H 
ATOM     41  H28 5LH d   1     -20.808  35.122 -13.392  0.00  0.00     0.047 H 
ATOM     42  H29 5LH d   1     -21.267  34.285 -11.871  0.00  0.00     0.047 H 
ENDROOT
BRANCH  15  43
ATOM     43  C07 5LH d   1     -17.274  38.680 -12.099  0.00  0.00    -0.035 C 
ATOM     44  H15 5LH d   1     -16.431  37.997 -11.918  0.00  0.00     0.037 H 
ATOM     45  H16 5LH d   1     -17.724  38.971 -11.138  0.00  0.00     0.037 H 
BRANCH  43  46
ATOM     46  C08 5LH d   1     -16.750  39.961 -12.830  0.00  0.00    -0.059 C 
ATOM     47  H17 5LH d   1     -17.614  40.499 -13.247  0.00  0.00     0.038 H 
BRANCH  46  48
ATOM     48  C10 5LH d   1     -15.823  39.625 -13.986  0.00  0.00    -0.073 C 
ATOM     49  H18 5LH d   1     -15.483  40.555 -14.466  0.00  0.00     0.028 H 
ATOM     50  H19 5LH d   1     -16.362  39.009 -14.721  0.00  0.00     0.028 H 
ATOM     51  H20 5LH d   1     -14.953  39.068 -13.608  0.00  0.00     0.028 H 
ENDBRANCH  46  48
BRANCH  46  52
ATOM     52  C09 5LH d   1     -16.088  40.854 -11.796  0.00  0.00    -0.073 C 
ATOM     53  H21 5LH d   1     -16.800  41.066 -10.985  0.00  0.00     0.028 H 
ATOM     54  H22 5LH d   1     -15.781  41.798 -12.270  0.00  0.00     0.028 H 
ATOM     55  H23 5LH d   1     -15.204  40.345 -11.385  0.00  0.00     0.028 H 
ENDBRANCH  46  52
ENDBRANCH  43  46
ENDBRANCH  15  43
BRANCH   9  56
ATOM     56  N25 5LH d   1     -22.289  39.352 -15.499  0.00  0.00    -0.322 N 
ATOM     57  C26 5LH d   1     -22.337  40.526 -16.422  0.00  0.00     0.284 C 
ATOM     58  O27 5LH d   1     -22.786  40.407 -17.796  0.00  0.00    -0.630 OA
ATOM     59  O35 5LH d   1     -22.007  41.621 -16.057  0.00  0.00    -0.630 OA
ATOM     60  H12 5LH d   1     -22.751  38.484 -15.681  0.00  0.00     0.166 HD
ENDBRANCH   9  56
BRANCH  19  61
ATOM     61  C02 5LH d   1     -17.443  33.609 -11.227  0.00  0.00     0.035 C 
ATOM     62  H30 5LH d   1     -16.743  33.379 -12.044  0.00  0.00     0.077 H 
ATOM     63  H31 5LH d   1     -17.781  32.673 -10.759  0.00  0.00     0.077 H 
BRANCH  61  64
ATOM     64  O01 5LH d   1     -16.870  34.382 -10.339  0.00  0.00    -0.399 OA
ATOM     65  H32 5LH d   1     -16.592  35.189 -10.756  0.00  0.00     0.209 HD
ENDBRANCH  61  64
ENDBRANCH  19  61
TORSDOF 7
