REMARK  8 active torsions:
REMARK  status: ('A' for Active; 'I' for Inactive)
REMARK    1  A    between atoms: C32_1  and  O33_3 
REMARK       I    between atoms: N31_23  and  C32_1 
REMARK    2  A    between atoms: O33_3  and  C34_4 
REMARK    3  A    between atoms: C34_4  and  C35_5 
REMARK    4  A    between atoms: C30_22  and  N31_23 
REMARK    5  A    between atoms: C06_29  and  C07_32 
REMARK    6  A    between atoms: C07_32  and  C08_33 
REMARK    7  A    between atoms: C03_40  and  C02_45 
REMARK    8  A    between atoms: C02_45  and  O01_46 
ROOT
ATOM      1  N19 5LJ d   1      57.287 -50.232  15.696  0.00  0.00    -0.361 N 
ATOM      2  C20 5LJ d   1      56.224 -49.237  15.414  0.00  0.00    -0.005 C 
ATOM      3  C21 5LJ d   1      55.167 -49.310  16.625  0.00  0.00    -0.050 C 
ATOM      4  C22 5LJ d   1      54.461 -50.666  16.668  0.00  0.00    -0.064 C 
ATOM      5  C23 5LJ d   1      53.927 -51.026  18.144  0.00  0.00    -0.064 C 
ATOM      6  C24 5LJ d   1      55.025 -51.632  18.981  0.00  0.00    -0.049 C 
ATOM      7  C25 5LJ d   1      55.429 -52.994  18.437  0.00  0.00     0.013 C 
ATOM      8  N26 5LJ d   1      56.226 -53.692  19.437  0.00  0.00    -0.283 N 
ATOM      9  C27 5LJ d   1      57.510 -54.174  19.354  0.00  0.00     0.020 A 
ATOM     10  C28 5LJ d   1      57.902 -54.799  20.588  0.00  0.00     0.071 A 
ATOM     11  C29 5LJ d   1      59.248 -55.495  21.003  0.00  0.00     0.005 C 
ATOM     12  C30 5LJ d   1      60.185 -54.476  21.632  0.00  0.00     0.096 C 
ATOM     13  C42 5LJ d   1      60.867 -53.673  20.552  0.00  0.00     0.241 C 
ATOM     14  O43 5LJ d   1      60.584 -52.559  20.211  0.00  0.00    -0.271 OA
ATOM     15  N44 5LJ d   1      56.802 -54.642  21.342  0.00  0.00    -0.163 NA
ATOM     16  N45 5LJ d   1      55.845 -54.001  20.666  0.00  0.00     0.004 NA
ATOM     17  N14 5LJ d   1      61.949 -54.400  19.924  0.00  0.00    -0.346 N 
ATOM     18  C06 5LJ d   1      62.722 -53.720  18.893  0.00  0.00     0.089 C 
ATOM     19  C05 5LJ d   1      61.917 -53.435  17.693  0.00  0.00     0.240 C 
ATOM     20  O15 5LJ d   1      61.072 -54.090  17.270  0.00  0.00    -0.271 OA
ATOM     21  N04 5LJ d   1      62.341 -52.191  17.039  0.00  0.00    -0.353 N 
ATOM     22  C03 5LJ d   1      61.751 -51.740  15.781  0.00  0.00     0.033 C 
ATOM     23  C16 5LJ d   1      60.889 -50.521  15.988  0.00  0.00    -0.036 C 
ATOM     24  C17 5LJ d   1      59.524 -50.930  16.553  0.00  0.00     0.011 C 
ATOM     25  C18 5LJ d   1      58.531 -49.833  16.280  0.00  0.00     0.217 C 
ATOM     26  O46 5LJ d   1      58.752 -48.686  16.519  0.00  0.00    -0.274 OA
ATOM     27  H8  5LJ d   1      57.132 -51.195  15.475  0.00  0.00     0.162 HD
ATOM     28  H9  5LJ d   1      55.725 -49.478  14.464  0.00  0.00     0.064 H 
ATOM     29  H10 5LJ d   1      56.659 -48.228  15.354  0.00  0.00     0.064 H 
ATOM     30  H11 5LJ d   1      54.415 -48.519  16.492  0.00  0.00     0.035 H 
ATOM     31  H12 5LJ d   1      55.699 -49.153  17.575  0.00  0.00     0.035 H 
ATOM     32  H13 5LJ d   1      55.169 -51.444  16.348  0.00  0.00     0.033 H 
ATOM     33  H14 5LJ d   1      53.605 -50.642  15.977  0.00  0.00     0.033 H 
ATOM     34  H15 5LJ d   1      53.099 -51.745  18.062  0.00  0.00     0.033 H 
ATOM     35  H16 5LJ d   1      53.568 -50.107  18.631  0.00  0.00     0.033 H 
ATOM     36  H17 5LJ d   1      54.668 -51.748  20.015  0.00  0.00     0.035 H 
ATOM     37  H18 5LJ d   1      55.899 -50.964  18.968  0.00  0.00     0.035 H 
ATOM     38  H19 5LJ d   1      56.022 -52.863  17.520  0.00  0.00     0.066 H 
ATOM     39  H20 5LJ d   1      54.527 -53.582  18.210  0.00  0.00     0.066 H 
ATOM     40  H21 5LJ d   1      58.145 -54.093  18.473  0.00  0.00     0.116 H 
ATOM     41  H22 5LJ d   1      59.725 -55.927  20.111  0.00  0.00     0.046 H 
ATOM     42  H23 5LJ d   1      59.037 -56.294  21.730  0.00  0.00     0.046 H 
ATOM     43  H24 5LJ d   1      60.943 -55.016  22.219  0.00  0.00     0.088 H 
ATOM     44  H26 5LJ d   1      62.160 -55.341  20.190  0.00  0.00     0.163 HD
ATOM     45  H27 5LJ d   1      63.105 -52.776  19.306  0.00  0.00     0.087 H 
ATOM     46  H41 5LJ d   1      63.054 -51.636  17.467  0.00  0.00     0.163 HD
ATOM     47  H42 5LJ d   1      61.129 -52.538  15.350  0.00  0.00     0.075 H 
ATOM     48  H43 5LJ d   1      60.745 -50.009  15.025  0.00  0.00     0.036 H 
ATOM     49  H44 5LJ d   1      61.386 -49.840  16.695  0.00  0.00     0.036 H 
ATOM     50  H45 5LJ d   1      59.607 -51.090  17.638  0.00  0.00     0.047 H 
ATOM     51  H46 5LJ d   1      59.188 -51.859  16.070  0.00  0.00     0.047 H 
ENDROOT
BRANCH  18  52
ATOM     52  C07 5LJ d   1      63.904 -54.608  18.439  0.00  0.00    -0.035 C 
ATOM     53  H28 5LJ d   1      64.399 -54.117  17.588  0.00  0.00     0.037 H 
ATOM     54  H29 5LJ d   1      63.503 -55.581  18.118  0.00  0.00     0.037 H 
BRANCH  52  55
ATOM     55  C08 5LJ d   1      64.983 -54.862  19.561  0.00  0.00    -0.052 C 
ATOM     56  C09 5LJ d   1      65.522 -53.560  20.111  0.00  0.00    -0.062 C 
ATOM     57  C10 5LJ d   1      66.694 -53.797  21.071  0.00  0.00    -0.065 C 
ATOM     58  H31 5LJ d   1      64.717 -53.040  20.651  0.00  0.00     0.033 H 
ATOM     59  H32 5LJ d   1      65.866 -52.934  19.275  0.00  0.00     0.033 H 
ATOM     60  C11 5LJ d   1      67.823 -54.605  20.413  0.00  0.00    -0.065 C 
ATOM     61  H33 5LJ d   1      66.328 -54.349  21.949  0.00  0.00     0.033 H 
ATOM     62  H34 5LJ d   1      67.094 -52.823  21.390  0.00  0.00     0.033 H 
ATOM     63  C12 5LJ d   1      67.282 -55.922  19.902  0.00  0.00    -0.065 C 
ATOM     64  H35 5LJ d   1      68.613 -54.798  21.154  0.00  0.00     0.033 H 
ATOM     65  H36 5LJ d   1      68.240 -54.031  19.572  0.00  0.00     0.033 H 
ATOM     66  C13 5LJ d   1      66.114 -55.705  18.935  0.00  0.00    -0.062 C 
ATOM     67  H37 5LJ d   1      66.934 -56.522  20.756  0.00  0.00     0.033 H 
ATOM     68  H38 5LJ d   1      68.085 -56.461  19.378  0.00  0.00     0.033 H 
ATOM     69  H39 5LJ d   1      66.488 -55.186  18.040  0.00  0.00     0.033 H 
ATOM     70  H40 5LJ d   1      65.707 -56.685  18.647  0.00  0.00     0.033 H 
ATOM     71  H30 5LJ d   1      64.522 -55.426  20.385  0.00  0.00     0.040 H 
ENDBRANCH  52  55
ENDBRANCH  18  52
BRANCH  12  72
ATOM     72  N31 5LJ d   1      59.481 -53.534  22.516  0.00  0.00    -0.323 N 
ATOM     73  C32 5LJ d   1      59.668 -53.636  23.984  0.00  0.00     0.361 C 
ATOM     74  O41 5LJ d   1      60.142 -54.627  24.432  0.00  0.00    -0.238 OA
ATOM     75  H25 5LJ d   1      58.882 -52.832  22.131  0.00  0.00     0.165 HD
BRANCH  73  76
ATOM     76  O33 5LJ d   1      59.271 -52.534  24.776  0.00  0.00    -0.299 OA
BRANCH  76  77
ATOM     77  C34 5LJ d   1      59.402 -52.663  26.182  0.00  0.00     0.054 C 
ATOM     78  H1  5LJ d   1      59.989 -53.562  26.419  0.00  0.00     0.082 H 
ATOM     79  H2  5LJ d   1      58.406 -52.745  26.641  0.00  0.00     0.082 H 
BRANCH  77  80
ATOM     80  C35 5LJ d   1      60.129 -51.404  26.729  0.00  0.00    -0.034 A 
ATOM     81  C36 5LJ d   1      61.394 -51.534  27.348  0.00  0.00    -0.075 A 
ATOM     82  C37 5LJ d   1      62.051 -50.404  27.849  0.00  0.00    -0.082 A 
ATOM     83  H3  5LJ d   1      61.856 -52.511  27.435  0.00  0.00     0.084 H 
ATOM     84  C38 5LJ d   1      61.443 -49.122  27.739  0.00  0.00    -0.083 A 
ATOM     85  H4  5LJ d   1      63.022 -50.505  28.320  0.00  0.00     0.083 H 
ATOM     86  C39 5LJ d   1      60.178 -48.990  27.125  0.00  0.00    -0.082 A 
ATOM     87  H5  5LJ d   1      61.951 -48.246  28.127  0.00  0.00     0.083 H 
ATOM     88  C40 5LJ d   1      59.522 -50.120  26.623  0.00  0.00    -0.075 A 
ATOM     89  H6  5LJ d   1      59.715 -48.013  27.043  0.00  0.00     0.083 H 
ATOM     90  H7  5LJ d   1      58.551 -50.018  26.153  0.00  0.00     0.084 H 
ENDBRANCH  77  80
ENDBRANCH  76  77
ENDBRANCH  73  76
ENDBRANCH  12  72
BRANCH  22  91
ATOM     91  C02 5LJ d   1      62.937 -51.463  14.870  0.00  0.00     0.035 C 
ATOM     92  H47 5LJ d   1      63.580 -50.728  15.376  0.00  0.00     0.077 H 
ATOM     93  H48 5LJ d   1      62.546 -51.028  13.938  0.00  0.00     0.077 H 
BRANCH  91  94
ATOM     94  O01 5LJ d   1      63.697 -52.499  14.540  0.00  0.00    -0.399 OA
ATOM     95  H49 5LJ d   1      64.063 -52.885  15.327  0.00  0.00     0.209 HD
ENDBRANCH  91  94
ENDBRANCH  22  91
TORSDOF 8
